MODEL 1
REMARK VINA RESULT:    -6.726      0.000      0.000
REMARK INTER + INTRA:         -13.193
REMARK INTER:                 -11.051
REMARK INTRA:                  -2.142
REMARK UNBOUND:                -2.142
REMARK SMILES C[C@@H]1O[C@H](OC[C@H]2O[C@@H](Oc3c(-c4ccc(O)c(O)c4)oc4cc(O)cc(O)c4c3=O)[C@H](O)[C@H](O)[C@H]2O)[C@H](O)[C@H](O)[C@@H]1O
REMARK SMILES IDX 7 1 36 2 34 3 32 4 9 5 8 6 6 7 5 8 4 9 1 10 2 11 42 12 3 13
REMARK SMILES IDX 40 14 38 15 43 16 41 18 39 20 37 22 35 24 10 26 11 27 12 28
REMARK SMILES IDX 30 29 21 30 29 31 31 32 22 33 27 34 23 35 26 36 24 37 13 38
REMARK SMILES IDX 20 39 14 40 18 41 15 42 16 43 19 44 17 46 28 48 25 50 33 52
REMARK H PARENT 43 17 41 19 39 21 37 23 35 25 19 45 17 47 28 49 25 51 33 53
REMARK Flexibility Score: inf
ROOT
ATOM      1  C   UNL     1       0.042  -6.064  -8.039  1.00  0.00     0.180 C 
ATOM      2  C   UNL     1       0.473  -5.156  -6.913  1.00  0.00     0.177 C 
ATOM      3  C   UNL     1      -0.593  -4.293  -6.489  1.00  0.00     0.180 C 
ATOM      4  C   UNL     1      -1.981  -5.074  -6.222  1.00  0.00     0.214 C 
ATOM      5  C   UNL     1      -2.267  -6.304  -7.266  1.00  0.00     0.339 C 
ATOM      6  O   UNL     1      -1.044  -7.006  -7.728  1.00  0.00    -0.332 OA
ENDROOT
BRANCH   1   7
ATOM      7  C   UNL     1       1.413  -6.754  -8.562  1.00  0.00     0.198 C 
BRANCH   7   8
ATOM      8  O   UNL     1       2.677  -6.206  -8.119  1.00  0.00    -0.347 OA
BRANCH   8   9
ATOM      9  C   UNL     1       3.749  -7.162  -8.294  1.00  0.00     0.281 C 
ATOM     10  C   UNL     1       6.909  -5.033  -7.366  1.00  0.00     0.041 C 
ATOM     11  C   UNL     1       6.189  -6.499  -7.733  1.00  0.00     0.150 C 
ATOM     12  C   UNL     1       6.042  -7.416  -6.514  1.00  0.00     0.174 C 
ATOM     13  O   UNL     1       4.978  -6.467  -8.587  1.00  0.00    -0.344 OA
ATOM     14  C   UNL     1       4.564  -7.747  -6.112  1.00  0.00     0.179 C 
ATOM     15  C   UNL     1       3.856  -8.297  -7.312  1.00  0.00     0.202 C 
BRANCH  12  16
ATOM     16  O   UNL     1       6.670  -6.847  -5.449  1.00  0.00    -0.388 OA
ATOM     17  H   UNL     1       6.717  -7.489  -4.680  1.00  0.00     0.211 HD
ENDBRANCH  12  16
BRANCH  14  18
ATOM     18  O   UNL     1       3.897  -6.624  -5.530  1.00  0.00    -0.387 OA
ATOM     19  H   UNL     1       3.247  -7.021  -4.874  1.00  0.00     0.211 HD
ENDBRANCH  14  18
BRANCH  15  20
ATOM     20  O   UNL     1       2.709  -9.108  -7.150  1.00  0.00    -0.385 OA
ATOM     21  H   UNL     1       2.705  -9.403  -6.164  1.00  0.00     0.211 HD
ENDBRANCH  15  20
ENDBRANCH   8   9
ENDBRANCH   7   8
ENDBRANCH   1   7
BRANCH   2  22
ATOM     22  O   UNL     1       1.071  -5.985  -5.940  1.00  0.00    -0.387 OA
ATOM     23  H   UNL     1       0.483  -5.979  -5.098  1.00  0.00     0.211 HD
ENDBRANCH   2  22
BRANCH   3  24
ATOM     24  O   UNL     1      -0.749  -3.060  -7.339  1.00  0.00    -0.387 OA
ATOM     25  H   UNL     1      -1.411  -2.343  -6.894  1.00  0.00     0.211 HD
ENDBRANCH   3  24
BRANCH   5  26
ATOM     26  O   UNL     1      -3.623  -7.073  -7.209  1.00  0.00    -0.454 OA
BRANCH  26  27
ATOM     27  C   UNL     1      -5.007  -6.821  -6.649  1.00  0.00     0.214 A 
ATOM     28  C   UNL     1      -6.112  -6.378  -7.433  1.00  0.00     0.180 A 
ATOM     29  C   UNL     1      -5.414  -6.760  -5.275  1.00  0.00     0.239 A 
ATOM     30  O   UNL     1      -7.216  -7.181  -7.275  1.00  0.00    -0.452 OA
ATOM     31  C   UNL     1      -6.717  -7.131  -4.988  1.00  0.00     0.111 A 
ATOM     32  O   UNL     1      -4.723  -6.052  -4.436  1.00  0.00    -0.285 OA
ATOM     33  C   UNL     1      -7.415  -7.732  -6.069  1.00  0.00     0.146 A 
ATOM     34  C   UNL     1      -7.554  -6.907  -3.911  1.00  0.00     0.134 A 
ATOM     35  C   UNL     1      -8.172  -8.848  -5.864  1.00  0.00     0.094 A 
ATOM     36  C   UNL     1      -8.555  -7.952  -3.637  1.00  0.00     0.093 A 
ATOM     37  C   UNL     1      -8.724  -9.009  -4.561  1.00  0.00     0.123 A 
BRANCH  28  38
ATOM     38  C   UNL     1      -6.285  -4.808  -7.606  1.00  0.00     0.025 A 
ATOM     39  C   UNL     1      -7.102  -4.026  -6.789  1.00  0.00     0.062 A 
ATOM     40  C   UNL     1      -5.328  -4.089  -8.264  1.00  0.00     0.016 A 
ATOM     41  C   UNL     1      -7.181  -2.540  -6.991  1.00  0.00     0.158 A 
ATOM     42  C   UNL     1      -5.381  -2.717  -8.523  1.00  0.00     0.051 A 
ATOM     43  C   UNL     1      -6.307  -1.930  -7.899  1.00  0.00     0.157 A 
BRANCH  41  44
ATOM     44  O   UNL     1      -7.828  -1.659  -6.112  1.00  0.00    -0.504 OA
ATOM     45  H   UNL     1      -8.847  -1.695  -5.971  1.00  0.00     0.293 HD
ENDBRANCH  41  44
BRANCH  43  46
ATOM     46  O   UNL     1      -6.611  -0.654  -8.398  1.00  0.00    -0.504 OA
ATOM     47  H   UNL     1      -6.607  -0.478  -9.395  1.00  0.00     0.293 HD
ENDBRANCH  43  46
ENDBRANCH  28  38
BRANCH  34  48
ATOM     48  O   UNL     1      -7.839  -5.547  -3.528  1.00  0.00    -0.507 OA
ATOM     49  H   UNL     1      -7.773  -5.314  -2.497  1.00  0.00     0.293 HD
ENDBRANCH  34  48
BRANCH  37  50
ATOM     50  O   UNL     1      -9.512 -10.114  -4.227  1.00  0.00    -0.508 OA
ATOM     51  H   UNL     1     -10.073 -10.220  -3.369  1.00  0.00     0.293 HD
ENDBRANCH  37  50
ENDBRANCH  26  27
ENDBRANCH   5  26
BRANCH   4  52
ATOM     52  O   UNL     1      -2.984  -4.099  -6.039  1.00  0.00    -0.384 OA
ATOM     53  H   UNL     1      -3.750  -4.532  -6.558  1.00  0.00     0.211 HD
ENDBRANCH   4  52
TORSDOF 16
ENDMDL
MODEL 2
REMARK VINA RESULT:    -6.423      1.552      2.489
REMARK INTER + INTRA:         -12.695
REMARK INTER:                 -10.976
REMARK INTRA:                  -1.719
REMARK UNBOUND:                -2.142
REMARK SMILES C[C@@H]1O[C@H](OC[C@H]2O[C@@H](Oc3c(-c4ccc(O)c(O)c4)oc4cc(O)cc(O)c4c3=O)[C@H](O)[C@H](O)[C@H]2O)[C@H](O)[C@H](O)[C@@H]1O
REMARK SMILES IDX 7 1 36 2 34 3 32 4 9 5 8 6 6 7 5 8 4 9 1 10 2 11 42 12 3 13
REMARK SMILES IDX 40 14 38 15 43 16 41 18 39 20 37 22 35 24 10 26 11 27 12 28
REMARK SMILES IDX 30 29 21 30 29 31 31 32 22 33 27 34 23 35 26 36 24 37 13 38
REMARK SMILES IDX 20 39 14 40 18 41 15 42 16 43 19 44 17 46 28 48 25 50 33 52
REMARK H PARENT 43 17 41 19 39 21 37 23 35 25 19 45 17 47 28 49 25 51 33 53
REMARK Flexibility Score: inf
ROOT
ATOM      1  C   UNL     1       0.733  -6.159  -6.969  1.00  0.00     0.180 C 
ATOM      2  C   UNL     1       0.907  -7.331  -7.902  1.00  0.00     0.177 C 
ATOM      3  C   UNL     1      -0.273  -8.146  -7.959  1.00  0.00     0.180 C 
ATOM      4  C   UNL     1      -1.625  -7.297  -8.199  1.00  0.00     0.214 C 
ATOM      5  C   UNL     1      -1.647  -5.845  -7.439  1.00  0.00     0.339 C 
ATOM      6  O   UNL     1      -0.317  -5.195  -7.332  1.00  0.00    -0.332 OA
ENDROOT
BRANCH   1   7
ATOM      7  C   UNL     1       2.218  -5.524  -6.820  1.00  0.00     0.198 C 
BRANCH   7   8
ATOM      8  O   UNL     1       3.354  -6.419  -6.785  1.00  0.00    -0.347 OA
BRANCH   8   9
ATOM      9  C   UNL     1       4.596  -5.682  -6.695  1.00  0.00     0.281 C 
ATOM     10  C   UNL     1       6.531  -7.670  -3.923  1.00  0.00     0.041 C 
ATOM     11  C   UNL     1       6.480  -6.495  -5.115  1.00  0.00     0.150 C 
ATOM     12  C   UNL     1       7.224  -6.904  -6.391  1.00  0.00     0.174 C 
ATOM     13  O   UNL     1       5.170  -5.856  -5.384  1.00  0.00    -0.344 OA
ATOM     14  C   UNL     1       6.321  -7.042  -7.665  1.00  0.00     0.179 C 
ATOM     15  C   UNL     1       5.558  -5.766  -7.848  1.00  0.00     0.202 C 
BRANCH  12  16
ATOM     16  O   UNL     1       7.863  -8.086  -6.175  1.00  0.00    -0.388 OA
ATOM     17  H   UNL     1       7.504  -8.799  -6.782  1.00  0.00     0.211 HD
ENDBRANCH  12  16
BRANCH  14  18
ATOM     18  O   UNL     1       5.481  -8.198  -7.609  1.00  0.00    -0.387 OA
ATOM     19  H   UNL     1       5.994  -8.864  -7.056  1.00  0.00     0.211 HD
ENDBRANCH  14  18
BRANCH  15  20
ATOM     20  O   UNL     1       5.055  -5.418  -9.123  1.00  0.00    -0.385 OA
ATOM     21  H   UNL     1       5.282  -6.205  -9.745  1.00  0.00     0.211 HD
ENDBRANCH  15  20
ENDBRANCH   8   9
ENDBRANCH   7   8
ENDBRANCH   1   7
BRANCH   2  22
ATOM     22  O   UNL     1       1.398  -6.804  -9.116  1.00  0.00    -0.387 OA
ATOM     23  H   UNL     1       2.239  -7.329  -9.386  1.00  0.00     0.211 HD
ENDBRANCH   2  22
BRANCH   3  24
ATOM     24  O   UNL     1      -0.378  -9.140  -6.833  1.00  0.00    -0.387 OA
ATOM     25  H   UNL     1       0.572  -9.572  -6.584  1.00  0.00     0.211 HD
ENDBRANCH   3  24
BRANCH   5  26
ATOM     26  O   UNL     1      -2.934  -4.965  -7.481  1.00  0.00    -0.454 OA
BRANCH  26  27
ATOM     27  C   UNL     1      -4.349  -5.061  -6.950  1.00  0.00     0.214 A 
ATOM     28  C   UNL     1      -5.511  -4.987  -7.772  1.00  0.00     0.180 A 
ATOM     29  C   UNL     1      -4.794  -5.023  -5.587  1.00  0.00     0.239 A 
ATOM     30  O   UNL     1      -6.362  -6.047  -7.567  1.00  0.00    -0.452 OA
ATOM     31  C   UNL     1      -5.956  -5.713  -5.285  1.00  0.00     0.111 A 
ATOM     32  O   UNL     1      -4.342  -4.100  -4.795  1.00  0.00    -0.285 OA
ATOM     33  C   UNL     1      -6.437  -6.551  -6.326  1.00  0.00     0.146 A 
ATOM     34  C   UNL     1      -6.850  -5.653  -4.233  1.00  0.00     0.134 A 
ATOM     35  C   UNL     1      -6.871  -7.813  -6.048  1.00  0.00     0.094 A 
ATOM     36  C   UNL     1      -7.540  -6.909  -3.894  1.00  0.00     0.093 A 
ATOM     37  C   UNL     1      -7.393  -8.031  -4.742  1.00  0.00     0.123 A 
BRANCH  28  38
ATOM     38  C   UNL     1      -6.096  -3.538  -8.057  1.00  0.00     0.025 A 
ATOM     39  C   UNL     1      -7.255  -3.040  -7.459  1.00  0.00     0.062 A 
ATOM     40  C   UNL     1      -5.279  -2.561  -8.550  1.00  0.00     0.016 A 
ATOM     41  C   UNL     1      -7.722  -1.643  -7.749  1.00  0.00     0.158 A 
ATOM     42  C   UNL     1      -5.676  -1.265  -8.885  1.00  0.00     0.051 A 
ATOM     43  C   UNL     1      -6.899  -0.793  -8.498  1.00  0.00     0.157 A 
BRANCH  41  44
ATOM     44  O   UNL     1      -8.762  -1.002  -7.062  1.00  0.00    -0.504 OA
ATOM     45  H   UNL     1      -8.717   0.001  -6.834  1.00  0.00     0.293 HD
ENDBRANCH  41  44
BRANCH  43  46
ATOM     46  O   UNL     1      -7.453   0.340  -9.112  1.00  0.00    -0.504 OA
ATOM     47  H   UNL     1      -7.277   1.265  -8.740  1.00  0.00     0.293 HD
ENDBRANCH  43  46
ENDBRANCH  28  38
BRANCH  34  48
ATOM     48  O   UNL     1      -7.502  -4.399  -3.950  1.00  0.00    -0.507 OA
ATOM     49  H   UNL     1      -6.876  -3.564  -3.761  1.00  0.00     0.293 HD
ENDBRANCH  34  48
BRANCH  37  50
ATOM     50  O   UNL     1      -7.863  -9.284  -4.337  1.00  0.00    -0.508 OA
ATOM     51  H   UNL     1      -7.945  -9.613  -3.364  1.00  0.00     0.293 HD
ENDBRANCH  37  50
ENDBRANCH  26  27
ENDBRANCH   5  26
BRANCH   4  52
ATOM     52  O   UNL     1      -2.714  -8.173  -8.007  1.00  0.00    -0.384 OA
ATOM     53  H   UNL     1      -3.258  -7.637  -7.330  1.00  0.00     0.211 HD
ENDBRANCH   4  52
TORSDOF 16
ENDMDL
MODEL 3
REMARK VINA RESULT:    -6.055      1.997      2.853
REMARK INTER + INTRA:         -12.090
REMARK INTER:                 -10.124
REMARK INTRA:                  -1.967
REMARK UNBOUND:                -2.142
REMARK SMILES C[C@@H]1O[C@H](OC[C@H]2O[C@@H](Oc3c(-c4ccc(O)c(O)c4)oc4cc(O)cc(O)c4c3=O)[C@H](O)[C@H](O)[C@H]2O)[C@H](O)[C@H](O)[C@@H]1O
REMARK SMILES IDX 7 1 36 2 34 3 32 4 9 5 8 6 6 7 5 8 4 9 1 10 2 11 42 12 3 13
REMARK SMILES IDX 40 14 38 15 43 16 41 18 39 20 37 22 35 24 10 26 11 27 12 28
REMARK SMILES IDX 30 29 21 30 29 31 31 32 22 33 27 34 23 35 26 36 24 37 13 38
REMARK SMILES IDX 20 39 14 40 18 41 15 42 16 43 19 44 17 46 28 48 25 50 33 52
REMARK H PARENT 43 17 41 19 39 21 37 23 35 25 19 45 17 47 28 49 25 51 33 53
REMARK Flexibility Score: inf
ROOT
ATOM      1  C   UNL     1       0.150  -5.826  -5.900  1.00  0.00     0.180 C 
ATOM      2  C   UNL     1       0.296  -5.160  -7.245  1.00  0.00     0.177 C 
ATOM      3  C   UNL     1      -0.433  -5.857  -8.266  1.00  0.00     0.180 C 
ATOM      4  C   UNL     1      -1.957  -6.191  -7.850  1.00  0.00     0.214 C 
ATOM      5  C   UNL     1      -2.147  -6.584  -6.271  1.00  0.00     0.339 C 
ATOM      6  O   UNL     1      -1.215  -5.883  -5.353  1.00  0.00    -0.332 OA
ENDROOT
BRANCH   1   7
ATOM      7  C   UNL     1       1.234  -5.084  -4.950  1.00  0.00     0.198 C 
BRANCH   7   8
ATOM      8  O   UNL     1       2.564  -4.850  -5.468  1.00  0.00    -0.347 OA
BRANCH   8   9
ATOM      9  C   UNL     1       3.387  -6.034  -5.343  1.00  0.00     0.281 C 
ATOM     10  C   UNL     1       4.872  -6.386  -8.956  1.00  0.00     0.041 C 
ATOM     11  C   UNL     1       4.819  -6.840  -7.345  1.00  0.00     0.150 C 
ATOM     12  C   UNL     1       6.025  -6.344  -6.542  1.00  0.00     0.174 C 
ATOM     13  O   UNL     1       3.531  -6.664  -6.632  1.00  0.00    -0.344 OA
ATOM     14  C   UNL     1       5.683  -5.331  -5.396  1.00  0.00     0.179 C 
ATOM     15  C   UNL     1       4.639  -5.943  -4.514  1.00  0.00     0.202 C 
BRANCH  12  16
ATOM     16  O   UNL     1       6.918  -5.764  -7.390  1.00  0.00    -0.388 OA
ATOM     17  H   UNL     1       6.591  -5.816  -8.337  1.00  0.00     0.211 HD
ENDBRANCH  12  16
BRANCH  14  18
ATOM     18  O   UNL     1       5.308  -4.047  -5.904  1.00  0.00    -0.387 OA
ATOM     19  H   UNL     1       4.670  -4.244  -6.657  1.00  0.00     0.211 HD
ENDBRANCH  14  18
BRANCH  15  20
ATOM     20  O   UNL     1       4.489  -5.500  -3.180  1.00  0.00    -0.385 OA
ATOM     21  H   UNL     1       4.792  -4.517  -3.170  1.00  0.00     0.211 HD
ENDBRANCH  15  20
ENDBRANCH   8   9
ENDBRANCH   7   8
ENDBRANCH   1   7
BRANCH   2  22
ATOM     22  O   UNL     1       0.001  -3.794  -7.047  1.00  0.00    -0.387 OA
ATOM     23  H   UNL     1       0.171  -3.290  -7.925  1.00  0.00     0.211 HD
ENDBRANCH   2  22
BRANCH   3  24
ATOM     24  O   UNL     1       0.307  -7.036  -8.842  1.00  0.00    -0.387 OA
ATOM     25  H   UNL     1      -0.112  -7.360  -9.774  1.00  0.00     0.211 HD
ENDBRANCH   3  24
BRANCH   5  26
ATOM     26  O   UNL     1      -3.541  -7.048  -5.748  1.00  0.00    -0.454 OA
BRANCH  26  27
ATOM     27  C   UNL     1      -4.989  -6.684  -6.004  1.00  0.00     0.214 A 
ATOM     28  C   UNL     1      -5.399  -5.538  -6.745  1.00  0.00     0.180 A 
ATOM     29  C   UNL     1      -6.167  -7.246  -5.410  1.00  0.00     0.239 A 
ATOM     30  O   UNL     1      -6.279  -5.858  -7.752  1.00  0.00    -0.452 OA
ATOM     31  C   UNL     1      -7.322  -7.238  -6.173  1.00  0.00     0.111 A 
ATOM     32  O   UNL     1      -6.220  -7.400  -4.123  1.00  0.00    -0.285 OA
ATOM     33  C   UNL     1      -7.133  -6.868  -7.532  1.00  0.00     0.146 A 
ATOM     34  C   UNL     1      -8.664  -7.365  -5.869  1.00  0.00     0.134 A 
ATOM     35  C   UNL     1      -7.743  -7.572  -8.528  1.00  0.00     0.094 A 
ATOM     36  C   UNL     1      -9.513  -7.969  -6.909  1.00  0.00     0.093 A 
ATOM     37  C   UNL     1      -8.968  -8.215  -8.191  1.00  0.00     0.123 A 
BRANCH  28  38
ATOM     38  C   UNL     1      -5.574  -4.184  -5.933  1.00  0.00     0.025 A 
ATOM     39  C   UNL     1      -6.770  -3.468  -5.873  1.00  0.00     0.062 A 
ATOM     40  C   UNL     1      -4.714  -3.887  -4.915  1.00  0.00     0.016 A 
ATOM     41  C   UNL     1      -6.867  -2.216  -5.049  1.00  0.00     0.158 A 
ATOM     42  C   UNL     1      -4.730  -2.715  -4.156  1.00  0.00     0.051 A 
ATOM     43  C   UNL     1      -5.797  -1.864  -4.218  1.00  0.00     0.157 A 
BRANCH  41  44
ATOM     44  O   UNL     1      -8.066  -1.537  -4.787  1.00  0.00    -0.504 OA
ATOM     45  H   UNL     1      -8.805  -1.459  -5.499  1.00  0.00     0.293 HD
ENDBRANCH  41  44
BRANCH  43  46
ATOM     46  O   UNL     1      -5.684  -0.543  -3.759  1.00  0.00    -0.504 OA
ATOM     47  H   UNL     1      -4.817  -0.032  -3.873  1.00  0.00     0.293 HD
ENDBRANCH  43  46
ENDBRANCH  28  38
BRANCH  34  48
ATOM     48  O   UNL     1      -9.253  -6.435  -4.937  1.00  0.00    -0.507 OA
ATOM     49  H   UNL     1      -9.875  -5.679  -5.342  1.00  0.00     0.293 HD
ENDBRANCH  34  48
BRANCH  37  50
ATOM     50  O   UNL     1      -9.683  -8.971  -9.125  1.00  0.00    -0.508 OA
ATOM     51  H   UNL     1     -10.135  -8.609  -9.977  1.00  0.00     0.293 HD
ENDBRANCH  37  50
ENDBRANCH  26  27
ENDBRANCH   5  26
BRANCH   4  52
ATOM     52  O   UNL     1      -2.480  -7.062  -8.828  1.00  0.00    -0.384 OA
ATOM     53  H   UNL     1      -1.959  -7.911  -8.609  1.00  0.00     0.211 HD
ENDBRANCH   4  52
TORSDOF 16
ENDMDL
MODEL 4
REMARK VINA RESULT:    -5.909      2.297      4.796
REMARK INTER + INTRA:         -11.851
REMARK INTER:                 -10.629
REMARK INTRA:                  -1.223
REMARK UNBOUND:                -2.142
REMARK SMILES C[C@@H]1O[C@H](OC[C@H]2O[C@@H](Oc3c(-c4ccc(O)c(O)c4)oc4cc(O)cc(O)c4c3=O)[C@H](O)[C@H](O)[C@H]2O)[C@H](O)[C@H](O)[C@@H]1O
REMARK SMILES IDX 7 1 36 2 34 3 32 4 9 5 8 6 6 7 5 8 4 9 1 10 2 11 42 12 3 13
REMARK SMILES IDX 40 14 38 15 43 16 41 18 39 20 37 22 35 24 10 26 11 27 12 28
REMARK SMILES IDX 30 29 21 30 29 31 31 32 22 33 27 34 23 35 26 36 24 37 13 38
REMARK SMILES IDX 20 39 14 40 18 41 15 42 16 43 19 44 17 46 28 48 25 50 33 52
REMARK H PARENT 43 17 41 19 39 21 37 23 35 25 19 45 17 47 28 49 25 51 33 53
REMARK Flexibility Score: inf
ROOT
ATOM      1  C   UNL     1       1.469  -5.572  -5.841  1.00  0.00     0.180 C 
ATOM      2  C   UNL     1       1.807  -6.145  -7.195  1.00  0.00     0.177 C 
ATOM      3  C   UNL     1       0.655  -6.714  -7.834  1.00  0.00     0.180 C 
ATOM      4  C   UNL     1      -0.630  -5.735  -7.826  1.00  0.00     0.214 C 
ATOM      5  C   UNL     1      -0.786  -4.850  -6.456  1.00  0.00     0.339 C 
ATOM      6  O   UNL     1       0.504  -4.462  -5.832  1.00  0.00    -0.332 OA
ENDROOT
BRANCH   1   7
ATOM      7  C   UNL     1       2.903  -5.232  -5.165  1.00  0.00     0.198 C 
BRANCH   7   8
ATOM      8  O   UNL     1       4.105  -5.468  -5.936  1.00  0.00    -0.347 OA
BRANCH   8   9
ATOM      9  C   UNL     1       4.935  -6.476  -5.311  1.00  0.00     0.281 C 
ATOM     10  C   UNL     1       7.568  -7.227  -8.118  1.00  0.00     0.041 C 
ATOM     11  C   UNL     1       7.016  -7.396  -6.546  1.00  0.00     0.150 C 
ATOM     12  C   UNL     1       7.839  -6.593  -5.533  1.00  0.00     0.174 C 
ATOM     13  O   UNL     1       5.555  -7.293  -6.324  1.00  0.00    -0.344 OA
ATOM     14  C   UNL     1       7.048  -5.458  -4.795  1.00  0.00     0.179 C 
ATOM     15  C   UNL     1       5.825  -6.056  -4.172  1.00  0.00     0.202 C 
BRANCH  12  16
ATOM     16  O   UNL     1       8.912  -6.043  -6.164  1.00  0.00    -0.388 OA
ATOM     17  H   UNL     1       9.658  -6.709  -6.237  1.00  0.00     0.211 HD
ENDBRANCH  12  16
BRANCH  14  18
ATOM     18  O   UNL     1       6.759  -4.353  -5.657  1.00  0.00    -0.387 OA
ATOM     19  H   UNL     1       6.004  -3.866  -5.206  1.00  0.00     0.211 HD
ENDBRANCH  14  18
BRANCH  15  20
ATOM     20  O   UNL     1       5.200  -5.415  -3.079  1.00  0.00    -0.385 OA
ATOM     21  H   UNL     1       5.937  -4.877  -2.603  1.00  0.00     0.211 HD
ENDBRANCH  15  20
ENDBRANCH   8   9
ENDBRANCH   7   8
ENDBRANCH   1   7
BRANCH   2  22
ATOM     22  O   UNL     1       2.510  -5.138  -7.889  1.00  0.00    -0.387 OA
ATOM     23  H   UNL     1       2.501  -4.281  -7.322  1.00  0.00     0.211 HD
ENDBRANCH   2  22
BRANCH   3  24
ATOM     24  O   UNL     1       0.345  -8.118  -7.389  1.00  0.00    -0.387 OA
ATOM     25  H   UNL     1      -0.703  -8.267  -7.218  1.00  0.00     0.211 HD
ENDBRANCH   3  24
BRANCH   5  26
ATOM     26  O   UNL     1      -2.043  -3.949  -6.252  1.00  0.00    -0.454 OA
BRANCH  26  27
ATOM     27  C   UNL     1      -3.545  -4.126  -6.316  1.00  0.00     0.214 A 
ATOM     28  C   UNL     1      -4.255  -5.140  -5.609  1.00  0.00     0.180 A 
ATOM     29  C   UNL     1      -4.478  -3.504  -7.211  1.00  0.00     0.239 A 
ATOM     30  O   UNL     1      -5.289  -4.626  -4.864  1.00  0.00    -0.452 OA
ATOM     31  C   UNL     1      -5.766  -3.310  -6.741  1.00  0.00     0.111 A 
ATOM     32  O   UNL     1      -4.222  -3.478  -8.482  1.00  0.00    -0.285 OA
ATOM     33  C   UNL     1      -5.936  -3.557  -5.352  1.00  0.00     0.146 A 
ATOM     34  C   UNL     1      -6.978  -3.071  -7.361  1.00  0.00     0.134 A 
ATOM     35  C   UNL     1      -6.658  -2.693  -4.583  1.00  0.00     0.094 A 
ATOM     36  C   UNL     1      -7.954  -2.276  -6.596  1.00  0.00     0.093 A 
ATOM     37  C   UNL     1      -7.683  -1.960  -5.245  1.00  0.00     0.123 A 
BRANCH  28  38
ATOM     38  C   UNL     1      -4.416  -6.543  -6.336  1.00  0.00     0.025 A 
ATOM     39  C   UNL     1      -3.567  -7.628  -6.119  1.00  0.00     0.062 A 
ATOM     40  C   UNL     1      -5.624  -6.899  -6.865  1.00  0.00     0.016 A 
ATOM     41  C   UNL     1      -3.810  -8.937  -6.814  1.00  0.00     0.158 A 
ATOM     42  C   UNL     1      -5.887  -8.078  -7.566  1.00  0.00     0.051 A 
ATOM     43  C   UNL     1      -4.985  -9.104  -7.556  1.00  0.00     0.157 A 
BRANCH  41  44
ATOM     44  O   UNL     1      -3.122 -10.124  -6.521  1.00  0.00    -0.504 OA
ATOM     45  H   UNL     1      -2.498 -10.566  -7.210  1.00  0.00     0.293 HD
ENDBRANCH  41  44
BRANCH  43  46
ATOM     46  O   UNL     1      -5.056 -10.125  -8.517  1.00  0.00    -0.504 OA
ATOM     47  H   UNL     1      -4.711  -9.971  -9.456  1.00  0.00     0.293 HD
ENDBRANCH  43  46
ENDBRANCH  28  38
BRANCH  34  48
ATOM     48  O   UNL     1      -7.458  -4.022  -8.332  1.00  0.00    -0.507 OA
ATOM     49  H   UNL     1      -7.758  -3.637  -9.273  1.00  0.00     0.293 HD
ENDBRANCH  34  48
BRANCH  37  50
ATOM     50  O   UNL     1      -8.486  -1.040  -4.564  1.00  0.00    -0.508 OA
ATOM     51  H   UNL     1      -9.389  -1.244  -4.111  1.00  0.00     0.293 HD
ENDBRANCH  37  50
ENDBRANCH  26  27
ENDBRANCH   5  26
BRANCH   4  52
ATOM     52  O   UNL     1      -1.737  -6.489  -8.270  1.00  0.00    -0.384 OA
ATOM     53  H   UNL     1      -1.761  -7.212  -7.550  1.00  0.00     0.211 HD
ENDBRANCH   4  52
TORSDOF 16
ENDMDL
MODEL 5
REMARK VINA RESULT:    -5.877      1.650      2.062
REMARK INTER + INTRA:         -11.798
REMARK INTER:                  -9.833
REMARK INTRA:                  -1.964
REMARK UNBOUND:                -2.142
REMARK SMILES C[C@@H]1O[C@H](OC[C@H]2O[C@@H](Oc3c(-c4ccc(O)c(O)c4)oc4cc(O)cc(O)c4c3=O)[C@H](O)[C@H](O)[C@H]2O)[C@H](O)[C@H](O)[C@@H]1O
REMARK SMILES IDX 7 1 36 2 34 3 32 4 9 5 8 6 6 7 5 8 4 9 1 10 2 11 42 12 3 13
REMARK SMILES IDX 40 14 38 15 43 16 41 18 39 20 37 22 35 24 10 26 11 27 12 28
REMARK SMILES IDX 30 29 21 30 29 31 31 32 22 33 27 34 23 35 26 36 24 37 13 38
REMARK SMILES IDX 20 39 14 40 18 41 15 42 16 43 19 44 17 46 28 48 25 50 33 52
REMARK H PARENT 43 17 41 19 39 21 37 23 35 25 19 45 17 47 28 49 25 51 33 53
REMARK Flexibility Score: inf
ROOT
ATOM      1  C   UNL     1       0.429  -5.848  -7.748  1.00  0.00     0.180 C 
ATOM      2  C   UNL     1       0.492  -6.663  -6.480  1.00  0.00     0.177 C 
ATOM      3  C   UNL     1      -0.340  -6.108  -5.450  1.00  0.00     0.180 C 
ATOM      4  C   UNL     1      -1.837  -5.768  -5.950  1.00  0.00     0.214 C 
ATOM      5  C   UNL     1      -1.915  -5.198  -7.484  1.00  0.00     0.339 C 
ATOM      6  O   UNL     1      -0.889  -5.763  -8.396  1.00  0.00    -0.332 OA
ENDROOT
BRANCH   1   7
ATOM      7  C   UNL     1       1.610  -6.447  -8.684  1.00  0.00     0.198 C 
BRANCH   7   8
ATOM      8  O   UNL     1       2.575  -7.347  -8.091  1.00  0.00    -0.347 OA
BRANCH   8   9
ATOM      9  C   UNL     1       3.882  -6.732  -8.012  1.00  0.00     0.281 C 
ATOM     10  C   UNL     1       3.944  -5.406  -4.322  1.00  0.00     0.041 C 
ATOM     11  C   UNL     1       4.711  -5.718  -5.778  1.00  0.00     0.150 C 
ATOM     12  C   UNL     1       5.659  -6.920  -5.710  1.00  0.00     0.174 C 
ATOM     13  O   UNL     1       3.875  -5.703  -7.002  1.00  0.00    -0.344 OA
ATOM     14  C   UNL     1       5.259  -8.128  -6.625  1.00  0.00     0.179 C 
ATOM     15  C   UNL     1       5.091  -7.628  -8.027  1.00  0.00     0.202 C 
BRANCH  12  16
ATOM     16  O   UNL     1       5.740  -7.352  -4.422  1.00  0.00    -0.388 OA
ATOM     17  H   UNL     1       5.008  -8.008  -4.222  1.00  0.00     0.211 HD
ENDBRANCH  12  16
BRANCH  14  18
ATOM     18  O   UNL     1       4.109  -8.822  -6.132  1.00  0.00    -0.387 OA
ATOM     19  H   UNL     1       3.802  -8.282  -5.341  1.00  0.00     0.211 HD
ENDBRANCH  14  18
BRANCH  15  20
ATOM     20  O   UNL     1       5.207  -8.521  -9.117  1.00  0.00    -0.385 OA
ATOM     21  H   UNL     1       6.006  -9.132  -8.902  1.00  0.00     0.211 HD
ENDBRANCH  15  20
ENDBRANCH   8   9
ENDBRANCH   7   8
ENDBRANCH   1   7
BRANCH   2  22
ATOM     22  O   UNL     1       0.261  -8.003  -6.857  1.00  0.00    -0.387 OA
ATOM     23  H   UNL     1       0.077  -8.555  -6.010  1.00  0.00     0.211 HD
ENDBRANCH   2  22
BRANCH   3  24
ATOM     24  O   UNL     1       0.310  -4.986  -4.685  1.00  0.00    -0.387 OA
ATOM     25  H   UNL     1       1.255  -5.275  -4.266  1.00  0.00     0.211 HD
ENDBRANCH   3  24
BRANCH   5  26
ATOM     26  O   UNL     1      -3.279  -4.712  -8.065  1.00  0.00    -0.454 OA
BRANCH  26  27
ATOM     27  C   UNL     1      -4.745  -4.964  -7.784  1.00  0.00     0.214 A 
ATOM     28  C   UNL     1      -5.792  -4.669  -8.706  1.00  0.00     0.180 A 
ATOM     29  C   UNL     1      -5.367  -5.315  -6.540  1.00  0.00     0.239 A 
ATOM     30  O   UNL     1      -6.612  -5.750  -8.924  1.00  0.00    -0.452 OA
ATOM     31  C   UNL     1      -6.525  -6.071  -6.606  1.00  0.00     0.111 A 
ATOM     32  O   UNL     1      -5.066  -4.650  -5.468  1.00  0.00    -0.285 OA
ATOM     33  C   UNL     1      -6.827  -6.584  -7.896  1.00  0.00     0.146 A 
ATOM     34  C   UNL     1      -7.552  -6.317  -5.715  1.00  0.00     0.134 A 
ATOM     35  C   UNL     1      -7.234  -7.877  -8.044  1.00  0.00     0.094 A 
ATOM     36  C   UNL     1      -8.221  -7.623  -5.838  1.00  0.00     0.093 A 
ATOM     37  C   UNL     1      -7.913  -8.458  -6.936  1.00  0.00     0.123 A 
BRANCH  28  38
ATOM     38  C   UNL     1      -6.400  -3.203  -8.655  1.00  0.00     0.025 A 
ATOM     39  C   UNL     1      -7.561  -2.872  -7.955  1.00  0.00     0.062 A 
ATOM     40  C   UNL     1      -5.601  -2.127  -8.917  1.00  0.00     0.016 A 
ATOM     41  C   UNL     1      -8.051  -1.453  -7.921  1.00  0.00     0.158 A 
ATOM     42  C   UNL     1      -6.020  -0.795  -8.950  1.00  0.00     0.051 A 
ATOM     43  C   UNL     1      -7.247  -0.443  -8.462  1.00  0.00     0.157 A 
BRANCH  41  44
ATOM     44  O   UNL     1      -9.096  -1.000  -7.102  1.00  0.00    -0.504 OA
ATOM     45  H   UNL     1      -9.408  -1.540  -6.283  1.00  0.00     0.293 HD
ENDBRANCH  41  44
BRANCH  43  46
ATOM     46  O   UNL     1      -7.823   0.791  -8.803  1.00  0.00    -0.504 OA
ATOM     47  H   UNL     1      -8.548   1.197  -8.224  1.00  0.00     0.293 HD
ENDBRANCH  43  46
ENDBRANCH  28  38
BRANCH  34  48
ATOM     48  O   UNL     1      -8.292  -5.198  -5.186  1.00  0.00    -0.507 OA
ATOM     49  H   UNL     1      -9.303  -5.373  -4.921  1.00  0.00     0.293 HD
ENDBRANCH  34  48
BRANCH  37  50
ATOM     50  O   UNL     1      -8.373  -9.778  -6.966  1.00  0.00    -0.508 OA
ATOM     51  H   UNL     1      -8.999 -10.216  -6.273  1.00  0.00     0.293 HD
ENDBRANCH  37  50
ENDBRANCH  26  27
ENDBRANCH   5  26
BRANCH   4  52
ATOM     52  O   UNL     1      -2.466  -5.030  -4.925  1.00  0.00    -0.384 OA
ATOM     53  H   UNL     1      -3.340  -5.551  -4.841  1.00  0.00     0.211 HD
ENDBRANCH   4  52
TORSDOF 16
ENDMDL
MODEL 6
REMARK VINA RESULT:    -5.421      2.116      4.395
REMARK INTER + INTRA:         -11.050
REMARK INTER:                  -9.484
REMARK INTRA:                  -1.566
REMARK UNBOUND:                -2.142
REMARK SMILES C[C@@H]1O[C@H](OC[C@H]2O[C@@H](Oc3c(-c4ccc(O)c(O)c4)oc4cc(O)cc(O)c4c3=O)[C@H](O)[C@H](O)[C@H]2O)[C@H](O)[C@H](O)[C@@H]1O
REMARK SMILES IDX 7 1 36 2 34 3 32 4 9 5 8 6 6 7 5 8 4 9 1 10 2 11 42 12 3 13
REMARK SMILES IDX 40 14 38 15 43 16 41 18 39 20 37 22 35 24 10 26 11 27 12 28
REMARK SMILES IDX 30 29 21 30 29 31 31 32 22 33 27 34 23 35 26 36 24 37 13 38
REMARK SMILES IDX 20 39 14 40 18 41 15 42 16 43 19 44 17 46 28 48 25 50 33 52
REMARK H PARENT 43 17 41 19 39 21 37 23 35 25 19 45 17 47 28 49 25 51 33 53
REMARK Flexibility Score: inf
ROOT
ATOM      1  C   UNL     1       0.857  -6.470  -7.223  1.00  0.00     0.180 C 
ATOM      2  C   UNL     1       1.328  -7.729  -7.908  1.00  0.00     0.177 C 
ATOM      3  C   UNL     1       0.293  -8.721  -7.968  1.00  0.00     0.180 C 
ATOM      4  C   UNL     1      -1.112  -8.148  -8.520  1.00  0.00     0.214 C 
ATOM      5  C   UNL     1      -1.446  -6.619  -8.034  1.00  0.00     0.339 C 
ATOM      6  O   UNL     1      -0.250  -5.755  -7.877  1.00  0.00    -0.332 OA
ENDROOT
BRANCH   1   7
ATOM      7  C   UNL     1       2.201  -5.590  -7.005  1.00  0.00     0.198 C 
BRANCH   7   8
ATOM      8  O   UNL     1       3.129  -5.987  -5.968  1.00  0.00    -0.347 OA
BRANCH   8   9
ATOM      9  C   UNL     1       4.336  -6.549  -6.537  1.00  0.00     0.281 C 
ATOM     10  C   UNL     1       6.970  -3.734  -5.815  1.00  0.00     0.041 C 
ATOM     11  C   UNL     1       6.584  -5.280  -6.329  1.00  0.00     0.150 C 
ATOM     12  C   UNL     1       6.976  -6.363  -5.318  1.00  0.00     0.174 C 
ATOM     13  O   UNL     1       5.237  -5.487  -6.911  1.00  0.00    -0.344 OA
ATOM     14  C   UNL     1       5.775  -7.170  -4.718  1.00  0.00     0.179 C 
ATOM     15  C   UNL     1       4.964  -7.729  -5.847  1.00  0.00     0.202 C 
BRANCH  12  16
ATOM     16  O   UNL     1       7.675  -5.791  -4.300  1.00  0.00    -0.388 OA
ATOM     17  H   UNL     1       7.373  -6.155  -3.415  1.00  0.00     0.211 HD
ENDBRANCH  12  16
BRANCH  14  18
ATOM     18  O   UNL     1       5.003  -6.389  -3.802  1.00  0.00    -0.387 OA
ATOM     19  H   UNL     1       4.121  -6.245  -4.265  1.00  0.00     0.211 HD
ENDBRANCH  14  18
BRANCH  15  20
ATOM     20  O   UNL     1       4.138  -8.857  -5.637  1.00  0.00    -0.385 OA
ATOM     21  H   UNL     1       4.278  -9.469  -6.451  1.00  0.00     0.211 HD
ENDBRANCH  15  20
ENDBRANCH   8   9
ENDBRANCH   7   8
ENDBRANCH   1   7
BRANCH   2  22
ATOM     22  O   UNL     1       1.917  -7.323  -9.125  1.00  0.00    -0.387 OA
ATOM     23  H   UNL     1       2.189  -8.161  -9.654  1.00  0.00     0.211 HD
ENDBRANCH   2  22
BRANCH   3  24
ATOM     24  O   UNL     1       0.159  -9.534  -6.707  1.00  0.00    -0.387 OA
ATOM     25  H   UNL     1      -0.120  -8.931  -5.865  1.00  0.00     0.211 HD
ENDBRANCH   3  24
BRANCH   5  26
ATOM     26  O   UNL     1      -2.822  -5.975  -8.388  1.00  0.00    -0.454 OA
BRANCH  26  27
ATOM     27  C   UNL     1      -4.068  -5.558  -7.634  1.00  0.00     0.214 A 
ATOM     28  C   UNL     1      -4.772  -6.409  -6.734  1.00  0.00     0.180 A 
ATOM     29  C   UNL     1      -4.873  -4.386  -7.824  1.00  0.00     0.239 A 
ATOM     30  O   UNL     1      -4.969  -5.819  -5.508  1.00  0.00    -0.452 OA
ATOM     31  C   UNL     1      -5.539  -3.894  -6.714  1.00  0.00     0.111 A 
ATOM     32  O   UNL     1      -5.238  -4.051  -9.022  1.00  0.00    -0.285 OA
ATOM     33  C   UNL     1      -5.162  -4.492  -5.482  1.00  0.00     0.146 A 
ATOM     34  C   UNL     1      -6.614  -3.042  -6.551  1.00  0.00     0.134 A 
ATOM     35  C   UNL     1      -4.944  -3.719  -4.380  1.00  0.00     0.094 A 
ATOM     36  C   UNL     1      -6.624  -2.235  -5.320  1.00  0.00     0.093 A 
ATOM     37  C   UNL     1      -5.661  -2.490  -4.316  1.00  0.00     0.123 A 
BRANCH  28  38
ATOM     38  C   UNL     1      -5.894  -7.343  -7.359  1.00  0.00     0.025 A 
ATOM     39  C   UNL     1      -7.263  -7.124  -7.195  1.00  0.00     0.062 A 
ATOM     40  C   UNL     1      -5.598  -8.135  -8.432  1.00  0.00     0.016 A 
ATOM     41  C   UNL     1      -8.263  -8.029  -7.853  1.00  0.00     0.158 A 
ATOM     42  C   UNL     1      -6.476  -9.031  -9.045  1.00  0.00     0.051 A 
ATOM     43  C   UNL     1      -7.812  -8.996  -8.760  1.00  0.00     0.157 A 
BRANCH  41  44
ATOM     44  O   UNL     1      -9.643  -7.781  -7.893  1.00  0.00    -0.504 OA
ATOM     45  H   UNL     1     -10.022  -6.834  -7.753  1.00  0.00     0.293 HD
ENDBRANCH  41  44
BRANCH  43  46
ATOM     46  O   UNL     1      -8.638 -10.086  -9.075  1.00  0.00    -0.504 OA
ATOM     47  H   UNL     1      -8.245 -10.929  -9.474  1.00  0.00     0.293 HD
ENDBRANCH  43  46
ENDBRANCH  28  38
BRANCH  34  48
ATOM     48  O   UNL     1      -7.869  -3.386  -7.172  1.00  0.00    -0.507 OA
ATOM     49  H   UNL     1      -8.467  -2.585  -7.523  1.00  0.00     0.293 HD
ENDBRANCH  34  48
BRANCH  37  50
ATOM     50  O   UNL     1      -5.518  -1.610  -3.239  1.00  0.00    -0.508 OA
ATOM     51  H   UNL     1      -4.630  -1.213  -2.896  1.00  0.00     0.293 HD
ENDBRANCH  37  50
ENDBRANCH  26  27
ENDBRANCH   5  26
BRANCH   4  52
ATOM     52  O   UNL     1      -2.086  -9.148  -8.314  1.00  0.00    -0.384 OA
ATOM     53  H   UNL     1      -2.368  -9.324  -9.279  1.00  0.00     0.211 HD
ENDBRANCH   4  52
TORSDOF 16
ENDMDL
MODEL 7
REMARK VINA RESULT:    -5.051     11.329     16.328
REMARK INTER + INTRA:         -10.441
REMARK INTER:                  -9.834
REMARK INTRA:                  -0.607
REMARK UNBOUND:                -2.142
REMARK SMILES C[C@@H]1O[C@H](OC[C@H]2O[C@@H](Oc3c(-c4ccc(O)c(O)c4)oc4cc(O)cc(O)c4c3=O)[C@H](O)[C@H](O)[C@H]2O)[C@H](O)[C@H](O)[C@@H]1O
REMARK SMILES IDX 7 1 36 2 34 3 32 4 9 5 8 6 6 7 5 8 4 9 1 10 2 11 42 12 3 13
REMARK SMILES IDX 40 14 38 15 43 16 41 18 39 20 37 22 35 24 10 26 11 27 12 28
REMARK SMILES IDX 30 29 21 30 29 31 31 32 22 33 27 34 23 35 26 36 24 37 13 38
REMARK SMILES IDX 20 39 14 40 18 41 15 42 16 43 19 44 17 46 28 48 25 50 33 52
REMARK H PARENT 43 17 41 19 39 21 37 23 35 25 19 45 17 47 28 49 25 51 33 53
REMARK Flexibility Score: inf
ROOT
ATOM      1  C   UNL     1      -8.387  -1.917   4.546  1.00  0.00     0.180 C 
ATOM      2  C   UNL     1      -9.756  -2.519   4.744  1.00  0.00     0.177 C 
ATOM      3  C   UNL     1      -9.821  -3.866   4.252  1.00  0.00     0.180 C 
ATOM      4  C   UNL     1      -8.605  -4.794   4.767  1.00  0.00     0.214 C 
ATOM      5  C   UNL     1      -7.169  -4.013   4.876  1.00  0.00     0.339 C 
ATOM      6  O   UNL     1      -7.282  -2.582   5.253  1.00  0.00    -0.332 OA
ENDROOT
BRANCH   1   7
ATOM      7  C   UNL     1      -8.571  -0.344   4.895  1.00  0.00     0.198 C 
BRANCH   7   8
ATOM      8  O   UNL     1      -9.155   0.019   6.168  1.00  0.00    -0.347 OA
BRANCH   8   9
ATOM      9  C   UNL     1      -8.139   0.455   7.101  1.00  0.00     0.281 C 
ATOM     10  C   UNL     1     -10.001   3.283   9.080  1.00  0.00     0.041 C 
ATOM     11  C   UNL     1      -8.687   2.267   8.869  1.00  0.00     0.150 C 
ATOM     12  C   UNL     1      -8.640   1.127   9.892  1.00  0.00     0.174 C 
ATOM     13  O   UNL     1      -8.387   1.822   7.487  1.00  0.00    -0.344 OA
ATOM     14  C   UNL     1      -8.781  -0.310   9.285  1.00  0.00     0.179 C 
ATOM     15  C   UNL     1      -7.748  -0.479   8.214  1.00  0.00     0.202 C 
BRANCH  12  16
ATOM     16  O   UNL     1      -9.624   1.314  10.814  1.00  0.00    -0.388 OA
ATOM     17  H   UNL     1     -10.511   1.444  10.363  1.00  0.00     0.211 HD
ENDBRANCH  12  16
BRANCH  14  18
ATOM     18  O   UNL     1     -10.112  -0.577   8.831  1.00  0.00    -0.387 OA
ATOM     19  H   UNL     1     -10.421  -1.357   9.386  1.00  0.00     0.211 HD
ENDBRANCH  14  18
BRANCH  15  20
ATOM     20  O   UNL     1      -7.322  -1.773   7.837  1.00  0.00    -0.385 OA
ATOM     21  H   UNL     1      -8.042  -2.423   8.180  1.00  0.00     0.211 HD
ENDBRANCH  15  20
ENDBRANCH   8   9
ENDBRANCH   7   8
ENDBRANCH   1   7
BRANCH   2  22
ATOM     22  O   UNL     1     -10.096  -2.297   6.095  1.00  0.00    -0.387 OA
ATOM     23  H   UNL     1      -9.360  -2.698   6.689  1.00  0.00     0.211 HD
ENDBRANCH   2  22
BRANCH   3  24
ATOM     24  O   UNL     1     -10.065  -3.959   2.769  1.00  0.00    -0.387 OA
ATOM     25  H   UNL     1     -11.020  -3.558   2.490  1.00  0.00     0.211 HD
ENDBRANCH   3  24
BRANCH   5  26
ATOM     26  O   UNL     1      -5.878  -4.807   5.244  1.00  0.00    -0.454 OA
BRANCH  26  27
ATOM     27  C   UNL     1      -5.463  -6.262   5.309  1.00  0.00     0.214 A 
ATOM     28  C   UNL     1      -6.233  -7.332   4.768  1.00  0.00     0.180 A 
ATOM     29  C   UNL     1      -4.399  -6.852   6.069  1.00  0.00     0.239 A 
ATOM     30  O   UNL     1      -5.495  -8.131   3.928  1.00  0.00    -0.452 OA
ATOM     31  C   UNL     1      -3.812  -7.993   5.551  1.00  0.00     0.111 A 
ATOM     32  O   UNL     1      -4.267  -6.546   7.323  1.00  0.00    -0.285 OA
ATOM     33  C   UNL     1      -4.198  -8.307   4.220  1.00  0.00     0.146 A 
ATOM     34  C   UNL     1      -3.037  -8.997   6.099  1.00  0.00     0.134 A 
ATOM     35  C   UNL     1      -3.262  -8.687   3.304  1.00  0.00     0.094 A 
ATOM     36  C   UNL     1      -2.068  -9.638   5.195  1.00  0.00     0.093 A 
ATOM     37  C   UNL     1      -2.100  -9.332   3.815  1.00  0.00     0.123 A 
BRANCH  28  38
ATOM     38  C   UNL     1      -7.335  -7.973   5.716  1.00  0.00     0.025 A 
ATOM     39  C   UNL     1      -8.110  -7.235   6.611  1.00  0.00     0.062 A 
ATOM     40  C   UNL     1      -7.881  -9.184   5.399  1.00  0.00     0.016 A 
ATOM     41  C   UNL     1      -9.161  -7.909   7.444  1.00  0.00     0.158 A 
ATOM     42  C   UNL     1      -8.820  -9.876   6.167  1.00  0.00     0.051 A 
ATOM     43  C   UNL     1      -9.464  -9.253   7.199  1.00  0.00     0.157 A 
BRANCH  41  44
ATOM     44  O   UNL     1     -10.101  -7.225   8.230  1.00  0.00    -0.504 OA
ATOM     45  H   UNL     1     -10.484  -6.315   7.937  1.00  0.00     0.293 HD
ENDBRANCH  41  44
BRANCH  43  46
ATOM     46  O   UNL     1     -10.124 -10.004   8.185  1.00  0.00    -0.504 OA
ATOM     47  H   UNL     1     -10.932 -10.565   7.948  1.00  0.00     0.293 HD
ENDBRANCH  43  46
ENDBRANCH  28  38
BRANCH  34  48
ATOM     48  O   UNL     1      -3.567  -9.753   7.207  1.00  0.00    -0.507 OA
ATOM     49  H   UNL     1      -4.080  -9.209   7.958  1.00  0.00     0.293 HD
ENDBRANCH  34  48
BRANCH  37  50
ATOM     50  O   UNL     1      -1.068  -9.762   2.975  1.00  0.00    -0.508 OA
ATOM     51  H   UNL     1      -1.121 -10.541   2.303  1.00  0.00     0.293 HD
ENDBRANCH  37  50
ENDBRANCH  26  27
ENDBRANCH   5  26
BRANCH   4  52
ATOM     52  O   UNL     1      -8.660  -6.003   4.041  1.00  0.00    -0.384 OA
ATOM     53  H   UNL     1      -7.663  -6.181   3.915  1.00  0.00     0.211 HD
ENDBRANCH   4  52
TORSDOF 16
ENDMDL
MODEL 8
REMARK VINA RESULT:    -5.030      1.866      3.090
REMARK INTER + INTRA:         -10.407
REMARK INTER:                  -8.710
REMARK INTRA:                  -1.697
REMARK UNBOUND:                -2.142
REMARK SMILES C[C@@H]1O[C@H](OC[C@H]2O[C@@H](Oc3c(-c4ccc(O)c(O)c4)oc4cc(O)cc(O)c4c3=O)[C@H](O)[C@H](O)[C@H]2O)[C@H](O)[C@H](O)[C@@H]1O
REMARK SMILES IDX 7 1 36 2 34 3 32 4 9 5 8 6 6 7 5 8 4 9 1 10 2 11 42 12 3 13
REMARK SMILES IDX 40 14 38 15 43 16 41 18 39 20 37 22 35 24 10 26 11 27 12 28
REMARK SMILES IDX 30 29 21 30 29 31 31 32 22 33 27 34 23 35 26 36 24 37 13 38
REMARK SMILES IDX 20 39 14 40 18 41 15 42 16 43 19 44 17 46 28 48 25 50 33 52
REMARK H PARENT 43 17 41 19 39 21 37 23 35 25 19 45 17 47 28 49 25 51 33 53
REMARK Flexibility Score: inf
ROOT
ATOM      1  C   UNL     1       1.128  -6.809  -6.818  1.00  0.00     0.180 C 
ATOM      2  C   UNL     1       1.171  -7.566  -8.123  1.00  0.00     0.177 C 
ATOM      3  C   UNL     1       0.459  -8.809  -8.040  1.00  0.00     0.180 C 
ATOM      4  C   UNL     1      -1.018  -8.659  -7.405  1.00  0.00     0.214 C 
ATOM      5  C   UNL     1      -1.117  -7.557  -6.196  1.00  0.00     0.339 C 
ATOM      6  O   UNL     1      -0.206  -6.397  -6.356  1.00  0.00    -0.332 OA
ENDROOT
BRANCH   1   7
ATOM      7  C   UNL     1       2.188  -5.597  -7.007  1.00  0.00     0.198 C 
BRANCH   7   8
ATOM      8  O   UNL     1       3.602  -5.892  -6.910  1.00  0.00    -0.347 OA
BRANCH   8   9
ATOM      9  C   UNL     1       3.909  -6.571  -5.669  1.00  0.00     0.281 C 
ATOM     10  C   UNL     1       7.600  -7.750  -6.270  1.00  0.00     0.041 C 
ATOM     11  C   UNL     1       6.277  -7.536  -5.266  1.00  0.00     0.150 C 
ATOM     12  C   UNL     1       6.459  -6.383  -4.272  1.00  0.00     0.174 C 
ATOM     13  O   UNL     1       4.936  -7.557  -5.895  1.00  0.00    -0.344 OA
ATOM     14  C   UNL     1       5.454  -5.194  -4.452  1.00  0.00     0.179 C 
ATOM     15  C   UNL     1       4.060  -5.739  -4.424  1.00  0.00     0.202 C 
BRANCH  12  16
ATOM     16  O   UNL     1       7.729  -5.904  -4.372  1.00  0.00    -0.388 OA
ATOM     17  H   UNL     1       8.016  -5.479  -3.510  1.00  0.00     0.211 HD
ENDBRANCH  12  16
BRANCH  14  18
ATOM     18  O   UNL     1       5.734  -4.422  -5.624  1.00  0.00    -0.387 OA
ATOM     19  H   UNL     1       6.728  -4.269  -5.600  1.00  0.00     0.211 HD
ENDBRANCH  14  18
BRANCH  15  20
ATOM     20  O   UNL     1       2.976  -4.898  -4.085  1.00  0.00    -0.385 OA
ATOM     21  H   UNL     1       2.603  -5.257  -3.196  1.00  0.00     0.211 HD
ENDBRANCH  15  20
ENDBRANCH   8   9
ENDBRANCH   7   8
ENDBRANCH   1   7
BRANCH   2  22
ATOM     22  O   UNL     1       0.782  -6.653  -9.125  1.00  0.00    -0.387 OA
ATOM     23  H   UNL     1      -0.054  -7.020  -9.597  1.00  0.00     0.211 HD
ENDBRANCH   2  22
BRANCH   3  24
ATOM     24  O   UNL     1       1.263  -9.930  -7.437  1.00  0.00    -0.387 OA
ATOM     25  H   UNL     1       2.081  -9.569  -6.846  1.00  0.00     0.211 HD
ENDBRANCH   3  24
BRANCH   5  26
ATOM     26  O   UNL     1      -2.451  -7.388  -5.406  1.00  0.00    -0.454 OA
BRANCH  26  27
ATOM     27  C   UNL     1      -3.850  -6.892  -5.704  1.00  0.00     0.214 A 
ATOM     28  C   UNL     1      -4.342  -6.646  -7.019  1.00  0.00     0.180 A 
ATOM     29  C   UNL     1      -4.830  -6.385  -4.787  1.00  0.00     0.239 A 
ATOM     30  O   UNL     1      -5.531  -7.292  -7.258  1.00  0.00    -0.452 OA
ATOM     31  C   UNL     1      -6.160  -6.569  -5.122  1.00  0.00     0.111 A 
ATOM     32  O   UNL     1      -4.481  -5.496  -3.909  1.00  0.00    -0.285 OA
ATOM     33  C   UNL     1      -6.380  -7.431  -6.229  1.00  0.00     0.146 A 
ATOM     34  C   UNL     1      -7.336  -5.973  -4.707  1.00  0.00     0.134 A 
ATOM     35  C   UNL     1      -7.358  -8.380  -6.179  1.00  0.00     0.094 A 
ATOM     36  C   UNL     1      -8.541  -6.819  -4.740  1.00  0.00     0.093 A 
ATOM     37  C   UNL     1      -8.474  -8.097  -5.341  1.00  0.00     0.123 A 
BRANCH  28  38
ATOM     38  C   UNL     1      -4.085  -5.200  -7.622  1.00  0.00     0.025 A 
ATOM     39  C   UNL     1      -2.818  -4.707  -7.937  1.00  0.00     0.062 A 
ATOM     40  C   UNL     1      -5.095  -4.543  -8.264  1.00  0.00     0.016 A 
ATOM     41  C   UNL     1      -2.660  -3.343  -8.544  1.00  0.00     0.158 A 
ATOM     42  C   UNL     1      -5.014  -3.254  -8.797  1.00  0.00     0.051 A 
ATOM     43  C   UNL     1      -3.803  -2.637  -8.937  1.00  0.00     0.157 A 
BRANCH  41  44
ATOM     44  O   UNL     1      -1.453  -2.844  -9.055  1.00  0.00    -0.504 OA
ATOM     45  H   UNL     1      -1.404  -2.412  -9.989  1.00  0.00     0.293 HD
ENDBRANCH  41  44
BRANCH  43  46
ATOM     46  O   UNL     1      -3.727  -1.249  -9.125  1.00  0.00    -0.504 OA
ATOM     47  H   UNL     1      -4.549  -0.669  -9.008  1.00  0.00     0.293 HD
ENDBRANCH  43  46
ENDBRANCH  28  38
BRANCH  34  48
ATOM     48  O   UNL     1      -7.479  -4.546  -4.857  1.00  0.00    -0.507 OA
ATOM     49  H   UNL     1      -7.362  -4.152  -5.834  1.00  0.00     0.293 HD
ENDBRANCH  34  48
BRANCH  37  50
ATOM     50  O   UNL     1      -9.537  -8.995  -5.202  1.00  0.00    -0.508 OA
ATOM     51  H   UNL     1      -9.618  -9.729  -4.483  1.00  0.00     0.293 HD
ENDBRANCH  37  50
ENDBRANCH  26  27
ENDBRANCH   5  26
BRANCH   4  52
ATOM     52  O   UNL     1      -1.512  -9.960  -7.172  1.00  0.00    -0.384 OA
ATOM     53  H   UNL     1      -0.633 -10.471  -7.084  1.00  0.00     0.211 HD
ENDBRANCH   4  52
TORSDOF 16
ENDMDL
MODEL 9
REMARK VINA RESULT:    -4.410      1.977      3.195
REMARK INTER + INTRA:          -9.389
REMARK INTER:                  -8.031
REMARK INTRA:                  -1.357
REMARK UNBOUND:                -2.142
REMARK SMILES C[C@@H]1O[C@H](OC[C@H]2O[C@@H](Oc3c(-c4ccc(O)c(O)c4)oc4cc(O)cc(O)c4c3=O)[C@H](O)[C@H](O)[C@H]2O)[C@H](O)[C@H](O)[C@@H]1O
REMARK SMILES IDX 7 1 36 2 34 3 32 4 9 5 8 6 6 7 5 8 4 9 1 10 2 11 42 12 3 13
REMARK SMILES IDX 40 14 38 15 43 16 41 18 39 20 37 22 35 24 10 26 11 27 12 28
REMARK SMILES IDX 30 29 21 30 29 31 31 32 22 33 27 34 23 35 26 36 24 37 13 38
REMARK SMILES IDX 20 39 14 40 18 41 15 42 16 43 19 44 17 46 28 48 25 50 33 52
REMARK H PARENT 43 17 41 19 39 21 37 23 35 25 19 45 17 47 28 49 25 51 33 53
REMARK Flexibility Score: inf
ROOT
ATOM      1  C   UNL     1       2.000  -6.739  -6.980  1.00  0.00     0.180 C 
ATOM      2  C   UNL     1       2.021  -6.941  -8.475  1.00  0.00     0.177 C 
ATOM      3  C   UNL     1       0.873  -7.674  -8.929  1.00  0.00     0.180 C 
ATOM      4  C   UNL     1      -0.522  -7.099  -8.353  1.00  0.00     0.214 C 
ATOM      5  C   UNL     1      -0.433  -6.554  -6.810  1.00  0.00     0.339 C 
ATOM      6  O   UNL     1       0.875  -5.953  -6.451  1.00  0.00    -0.332 OA
ENDROOT
BRANCH   1   7
ATOM      7  C   UNL     1       3.469  -6.153  -6.621  1.00  0.00     0.198 C 
BRANCH   7   8
ATOM      8  O   UNL     1       4.237  -6.800  -5.579  1.00  0.00    -0.347 OA
BRANCH   8   9
ATOM      9  C   UNL     1       5.515  -7.256  -6.081  1.00  0.00     0.281 C 
ATOM     10  C   UNL     1       7.606  -3.938  -6.141  1.00  0.00     0.041 C 
ATOM     11  C   UNL     1       7.499  -5.603  -6.284  1.00  0.00     0.150 C 
ATOM     12  C   UNL     1       8.099  -6.347  -5.086  1.00  0.00     0.174 C 
ATOM     13  O   UNL     1       6.202  -6.165  -6.728  1.00  0.00    -0.344 OA
ATOM     14  C   UNL     1       7.075  -7.195  -4.256  1.00  0.00     0.179 C 
ATOM     15  C   UNL     1       6.360  -8.124  -5.188  1.00  0.00     0.202 C 
BRANCH  12  16
ATOM     16  O   UNL     1       8.700  -5.449  -4.258  1.00  0.00    -0.388 OA
ATOM     17  H   UNL     1       8.086  -5.196  -3.506  1.00  0.00     0.211 HD
ENDBRANCH  12  16
BRANCH  14  18
ATOM     18  O   UNL     1       6.190  -6.375  -3.489  1.00  0.00    -0.387 OA
ATOM     19  H   UNL     1       6.159  -6.807  -2.581  1.00  0.00     0.211 HD
ENDBRANCH  14  18
BRANCH  15  20
ATOM     20  O   UNL     1       5.757  -9.302  -4.691  1.00  0.00    -0.385 OA
ATOM     21  H   UNL     1       5.417  -9.073  -3.748  1.00  0.00     0.211 HD
ENDBRANCH  15  20
ENDBRANCH   8   9
ENDBRANCH   7   8
ENDBRANCH   1   7
BRANCH   2  22
ATOM     22  O   UNL     1       2.255  -5.672  -9.045  1.00  0.00    -0.387 OA
ATOM     23  H   UNL     1       3.073  -5.735  -9.663  1.00  0.00     0.211 HD
ENDBRANCH   2  22
BRANCH   3  24
ATOM     24  O   UNL     1       1.012  -9.167  -8.790  1.00  0.00    -0.387 OA
ATOM     25  H   UNL     1       1.859  -9.546  -9.328  1.00  0.00     0.211 HD
ENDBRANCH   3  24
BRANCH   5  26
ATOM     26  O   UNL     1      -1.726  -6.081  -6.078  1.00  0.00    -0.454 OA
BRANCH  26  27
ATOM     27  C   UNL     1      -3.219  -6.262  -6.254  1.00  0.00     0.214 A 
ATOM     28  C   UNL     1      -4.051  -5.350  -6.967  1.00  0.00     0.180 A 
ATOM     29  C   UNL     1      -4.086  -7.199  -5.599  1.00  0.00     0.239 A 
ATOM     30  O   UNL     1      -4.809  -5.979  -7.926  1.00  0.00    -0.452 OA
ATOM     31  C   UNL     1      -5.206  -7.616  -6.299  1.00  0.00     0.111 A 
ATOM     32  O   UNL     1      -4.014  -7.341  -4.312  1.00  0.00    -0.285 OA
ATOM     33  C   UNL     1      -5.233  -7.224  -7.664  1.00  0.00     0.146 A 
ATOM     34  C   UNL     1      -6.395  -8.209  -5.923  1.00  0.00     0.134 A 
ATOM     35  C   UNL     1      -5.601  -8.116  -8.628  1.00  0.00     0.094 A 
ATOM     36  C   UNL     1      -7.025  -9.093  -6.918  1.00  0.00     0.093 A 
ATOM     37  C   UNL     1      -6.496  -9.148  -8.228  1.00  0.00     0.123 A 
BRANCH  28  38
ATOM     38  C   UNL     1      -4.656  -4.136  -6.142  1.00  0.00     0.025 A 
ATOM     39  C   UNL     1      -5.875  -3.527  -6.443  1.00  0.00     0.062 A 
ATOM     40  C   UNL     1      -4.243  -3.914  -4.859  1.00  0.00     0.016 A 
ATOM     41  C   UNL     1      -6.400  -2.409  -5.589  1.00  0.00     0.158 A 
ATOM     42  C   UNL     1      -4.661  -2.860  -4.043  1.00  0.00     0.051 A 
ATOM     43  C   UNL     1      -5.734  -2.093  -4.399  1.00  0.00     0.157 A 
BRANCH  41  44
ATOM     44  O   UNL     1      -7.687  -1.866  -5.707  1.00  0.00    -0.504 OA
ATOM     45  H   UNL     1      -8.197  -1.884  -6.602  1.00  0.00     0.293 HD
ENDBRANCH  41  44
BRANCH  43  46
ATOM     46  O   UNL     1      -5.945  -0.841  -3.801  1.00  0.00    -0.504 OA
ATOM     47  H   UNL     1      -6.880  -0.536  -3.562  1.00  0.00     0.293 HD
ENDBRANCH  43  46
ENDBRANCH  28  38
BRANCH  34  48
ATOM     48  O   UNL     1      -7.229  -7.537  -4.957  1.00  0.00    -0.507 OA
ATOM     49  H   UNL     1      -7.390  -6.500  -5.102  1.00  0.00     0.293 HD
ENDBRANCH  34  48
BRANCH  37  50
ATOM     50  O   UNL     1      -6.941 -10.124  -9.125  1.00  0.00    -0.508 OA
ATOM     51  H   UNL     1      -6.412 -10.491  -9.930  1.00  0.00     0.293 HD
ENDBRANCH  37  50
ENDBRANCH  26  27
ENDBRANCH   5  26
BRANCH   4  52
ATOM     52  O   UNL     1      -1.530  -8.029  -8.682  1.00  0.00    -0.384 OA
ATOM     53  H   UNL     1      -1.544  -7.926  -9.697  1.00  0.00     0.211 HD
ENDBRANCH   4  52
TORSDOF 16
ENDMDL
