MODEL 1
REMARK VINA RESULT:    -7.372      0.000      0.000
REMARK INTER + INTRA:          -8.961
REMARK INTER:                  -8.665
REMARK INTRA:                  -0.296
REMARK UNBOUND:                -0.296
REMARK SMILES O=c1cc(-c2ccc(O)c(O)c2)oc2cc(O)cc(O)c12
REMARK SMILES IDX 4 1 3 2 2 3 1 4 21 5 19 6 18 7 16 8 15 9 14 10 13 11 5 12
REMARK SMILES IDX 6 13 7 14 8 15 12 16 10 17 9 18 11 20 20 22 17 24
REMARK H PARENT 9 19 11 21 20 23 17 25
REMARK Flexibility Score: inf
ROOT
ATOM      1  C   UNL     1     200.802 207.122 274.856  1.00  0.00     0.138 A 
ATOM      2  C   UNL     1     201.730 206.677 273.900  1.00  0.00     0.100 A 
ATOM      3  C   UNL     1     202.915 206.071 274.321  1.00  0.00     0.197 A 
ATOM      4  O   UNL     1     203.741 205.677 273.455  1.00  0.00    -0.289 OA
ATOM      5  C   UNL     1     203.164 205.916 275.699  1.00  0.00     0.107 A 
ATOM      6  C   UNL     1     204.337 205.312 276.211  1.00  0.00     0.134 A 
ATOM      7  C   UNL     1     204.513 205.200 277.598  1.00  0.00     0.093 A 
ATOM      8  C   UNL     1     203.539 205.682 278.481  1.00  0.00     0.123 A 
ATOM      9  C   UNL     1     202.381 206.278 277.981  1.00  0.00     0.094 A 
ATOM     10  C   UNL     1     202.186 206.398 276.602  1.00  0.00     0.146 A 
ATOM     11  O   UNL     1     201.074 206.969 276.151  1.00  0.00    -0.456 OA
ENDROOT
BRANCH   1  12
ATOM     12  C   UNL     1     199.527 207.774 274.466  1.00  0.00     0.021 A 
ATOM     13  C   UNL     1     198.794 207.265 273.383  1.00  0.00     0.016 A 
ATOM     14  C   UNL     1     197.596 207.864 272.993  1.00  0.00     0.051 A 
ATOM     15  C   UNL     1     197.106 208.988 273.667  1.00  0.00     0.157 A 
ATOM     16  C   UNL     1     199.043 208.913 275.137  1.00  0.00     0.062 A 
ATOM     17  C   UNL     1     197.843 209.523 274.749  1.00  0.00     0.158 A 
BRANCH  15  18
ATOM     18  O   UNL     1     195.899 209.535 273.230  1.00  0.00    -0.504 OA
ATOM     19  H   UNL     1     195.079 209.635 273.812  1.00  0.00     0.293 HD
ENDBRANCH  15  18
BRANCH  17  20
ATOM     20  O   UNL     1     197.425 210.651 275.459  1.00  0.00    -0.504 OA
ATOM     21  H   UNL     1     197.766 211.585 275.285  1.00  0.00     0.293 HD
ENDBRANCH  17  20
ENDBRANCH   1  12
BRANCH   6  22
ATOM     22  O   UNL     1     205.324 204.824 275.355  1.00  0.00    -0.507 OA
ATOM     23  H   UNL     1     205.148 204.673 274.368  1.00  0.00     0.293 HD
ENDBRANCH   6  22
BRANCH   8  24
ATOM     24  O   UNL     1     203.714 205.572 279.859  1.00  0.00    -0.508 OA
ATOM     25  H   UNL     1     204.545 205.929 280.318  1.00  0.00     0.293 HD
ENDBRANCH   8  24
TORSDOF 5
ENDMDL
MODEL 2
REMARK VINA RESULT:    -7.259      3.466      5.361
REMARK INTER + INTRA:          -8.828
REMARK INTER:                  -8.551
REMARK INTRA:                  -0.277
REMARK UNBOUND:                -0.296
REMARK SMILES O=c1cc(-c2ccc(O)c(O)c2)oc2cc(O)cc(O)c12
REMARK SMILES IDX 4 1 3 2 2 3 1 4 21 5 19 6 18 7 16 8 15 9 14 10 13 11 5 12
REMARK SMILES IDX 6 13 7 14 8 15 12 16 10 17 9 18 11 20 20 22 17 24
REMARK H PARENT 9 19 11 21 20 23 17 25
REMARK Flexibility Score: inf
ROOT
ATOM      1  C   UNL     1     203.216 207.621 276.743  1.00  0.00     0.138 A 
ATOM      2  C   UNL     1     204.104 208.659 276.417  1.00  0.00     0.100 A 
ATOM      3  C   UNL     1     204.559 209.516 277.419  1.00  0.00     0.197 A 
ATOM      4  O   UNL     1     205.355 210.445 277.115  1.00  0.00    -0.289 OA
ATOM      5  C   UNL     1     204.119 209.330 278.745  1.00  0.00     0.107 A 
ATOM      6  C   UNL     1     204.532 210.151 279.821  1.00  0.00     0.134 A 
ATOM      7  C   UNL     1     204.042 209.904 281.112  1.00  0.00     0.093 A 
ATOM      8  C   UNL     1     203.149 208.852 281.346  1.00  0.00     0.123 A 
ATOM      9  C   UNL     1     202.739 208.039 280.288  1.00  0.00     0.094 A 
ATOM     10  C   UNL     1     203.216 208.269 278.994  1.00  0.00     0.146 A 
ATOM     11  O   UNL     1     202.812 207.479 278.004  1.00  0.00    -0.456 OA
ENDROOT
BRANCH   1  12
ATOM     12  C   UNL     1     202.699 206.680 275.718  1.00  0.00     0.021 A 
ATOM     13  C   UNL     1     201.326 206.393 275.674  1.00  0.00     0.016 A 
ATOM     14  C   UNL     1     200.815 205.508 274.724  1.00  0.00     0.051 A 
ATOM     15  C   UNL     1     201.662 204.882 273.803  1.00  0.00     0.157 A 
ATOM     16  C   UNL     1     203.554 206.041 274.801  1.00  0.00     0.062 A 
ATOM     17  C   UNL     1     203.050 205.148 273.846  1.00  0.00     0.158 A 
BRANCH  15  18
ATOM     18  O   UNL     1     201.088 204.012 272.875  1.00  0.00    -0.504 OA
ATOM     19  H   UNL     1     200.660 204.309 272.010  1.00  0.00     0.293 HD
ENDBRANCH  15  18
BRANCH  17  20
ATOM     20  O   UNL     1     203.959 204.549 272.970  1.00  0.00    -0.504 OA
ATOM     21  H   UNL     1     203.858 204.549 271.966  1.00  0.00     0.293 HD
ENDBRANCH  17  20
ENDBRANCH   1  12
BRANCH   6  22
ATOM     22  O   UNL     1     205.420 211.207 279.617  1.00  0.00    -0.507 OA
ATOM     23  H   UNL     1     205.561 211.617 278.700  1.00  0.00     0.293 HD
ENDBRANCH   6  22
BRANCH   8  24
ATOM     24  O   UNL     1     202.662 208.606 282.628  1.00  0.00    -0.508 OA
ATOM     25  H   UNL     1     201.704 208.818 282.881  1.00  0.00     0.293 HD
ENDBRANCH   8  24
TORSDOF 5
ENDMDL
MODEL 3
REMARK VINA RESULT:    -7.158      2.717      6.058
REMARK INTER + INTRA:          -8.709
REMARK INTER:                  -8.442
REMARK INTRA:                  -0.267
REMARK UNBOUND:                -0.296
REMARK SMILES O=c1cc(-c2ccc(O)c(O)c2)oc2cc(O)cc(O)c12
REMARK SMILES IDX 4 1 3 2 2 3 1 4 21 5 19 6 18 7 16 8 15 9 14 10 13 11 5 12
REMARK SMILES IDX 6 13 7 14 8 15 12 16 10 17 9 18 11 20 20 22 17 24
REMARK H PARENT 9 19 11 21 20 23 17 25
REMARK Flexibility Score: inf
ROOT
ATOM      1  C   UNL     1     202.742 206.640 277.479  1.00  0.00     0.138 A 
ATOM      2  C   UNL     1     203.937 206.166 276.913  1.00  0.00     0.100 A 
ATOM      3  C   UNL     1     203.934 205.676 275.607  1.00  0.00     0.197 A 
ATOM      4  O   UNL     1     205.012 205.252 275.109  1.00  0.00    -0.289 OA
ATOM      5  C   UNL     1     202.730 205.661 274.874  1.00  0.00     0.107 A 
ATOM      6  C   UNL     1     202.639 205.184 273.545  1.00  0.00     0.134 A 
ATOM      7  C   UNL     1     201.401 205.197 272.885  1.00  0.00     0.093 A 
ATOM      8  C   UNL     1     200.255 205.678 273.530  1.00  0.00     0.123 A 
ATOM      9  C   UNL     1     200.340 206.150 274.840  1.00  0.00     0.094 A 
ATOM     10  C   UNL     1     201.565 206.146 275.515  1.00  0.00     0.146 A 
ATOM     11  O   UNL     1     201.620 206.602 276.762  1.00  0.00    -0.456 OA
ENDROOT
BRANCH   1  12
ATOM     12  C   UNL     1     202.687 207.170 278.864  1.00  0.00     0.021 A 
ATOM     13  C   UNL     1     201.966 206.470 279.843  1.00  0.00     0.016 A 
ATOM     14  C   UNL     1     201.893 206.951 281.151  1.00  0.00     0.051 A 
ATOM     15  C   UNL     1     202.529 208.144 281.510  1.00  0.00     0.157 A 
ATOM     16  C   UNL     1     203.315 208.379 279.220  1.00  0.00     0.062 A 
ATOM     17  C   UNL     1     203.244 208.871 280.529  1.00  0.00     0.158 A 
BRANCH  15  18
ATOM     18  O   UNL     1     202.423 208.568 282.836  1.00  0.00    -0.504 OA
ATOM     19  H   UNL     1     203.172 208.509 283.510  1.00  0.00     0.293 HD
ENDBRANCH  15  18
BRANCH  17  20
ATOM     20  O   UNL     1     203.891 210.077 280.808  1.00  0.00    -0.504 OA
ATOM     21  H   UNL     1     203.559 210.979 280.501  1.00  0.00     0.293 HD
ENDBRANCH  17  20
ENDBRANCH   1  12
BRANCH   6  22
ATOM     22  O   UNL     1     203.764 204.699 272.878  1.00  0.00    -0.507 OA
ATOM     23  H   UNL     1     204.474 204.155 273.355  1.00  0.00     0.293 HD
ENDBRANCH   6  22
BRANCH   8  24
ATOM     24  O   UNL     1     199.025 205.690 272.875  1.00  0.00    -0.508 OA
ATOM     25  H   UNL     1     198.204 205.255 273.280  1.00  0.00     0.293 HD
ENDBRANCH   8  24
TORSDOF 5
ENDMDL
MODEL 4
REMARK VINA RESULT:    -7.069      3.241      6.158
REMARK INTER + INTRA:          -8.605
REMARK INTER:                  -8.335
REMARK INTRA:                  -0.270
REMARK UNBOUND:                -0.296
REMARK SMILES O=c1cc(-c2ccc(O)c(O)c2)oc2cc(O)cc(O)c12
REMARK SMILES IDX 4 1 3 2 2 3 1 4 21 5 19 6 18 7 16 8 15 9 14 10 13 11 5 12
REMARK SMILES IDX 6 13 7 14 8 15 12 16 10 17 9 18 11 20 20 22 17 24
REMARK H PARENT 9 19 11 21 20 23 17 25
REMARK Flexibility Score: inf
ROOT
ATOM      1  C   UNL     1     203.639 208.028 276.960  1.00  0.00     0.138 A 
ATOM      2  C   UNL     1     204.637 207.278 276.316  1.00  0.00     0.100 A 
ATOM      3  C   UNL     1     204.275 206.335 275.353  1.00  0.00     0.197 A 
ATOM      4  O   UNL     1     205.178 205.666 274.782  1.00  0.00    -0.289 OA
ATOM      5  C   UNL     1     202.913 206.145 275.044  1.00  0.00     0.107 A 
ATOM      6  C   UNL     1     202.460 205.213 274.080  1.00  0.00     0.134 A 
ATOM      7  C   UNL     1     201.086 205.080 273.834  1.00  0.00     0.093 A 
ATOM      8  C   UNL     1     200.158 205.862 274.532  1.00  0.00     0.123 A 
ATOM      9  C   UNL     1     200.600 206.784 275.482  1.00  0.00     0.094 A 
ATOM     10  C   UNL     1     201.966 206.931 275.742  1.00  0.00     0.146 A 
ATOM     11  O   UNL     1     202.361 207.817 276.651  1.00  0.00    -0.456 OA
ENDROOT
BRANCH   1  12
ATOM     12  C   UNL     1     203.965 209.044 277.991  1.00  0.00     0.021 A 
ATOM     13  C   UNL     1     204.584 210.244 277.608  1.00  0.00     0.016 A 
ATOM     14  C   UNL     1     204.907 211.213 278.559  1.00  0.00     0.051 A 
ATOM     15  C   UNL     1     204.629 211.003 279.914  1.00  0.00     0.157 A 
ATOM     16  C   UNL     1     203.698 208.826 279.356  1.00  0.00     0.062 A 
ATOM     17  C   UNL     1     204.022 209.792 280.318  1.00  0.00     0.158 A 
BRANCH  15  18
ATOM     18  O   UNL     1     204.972 212.014 280.814  1.00  0.00    -0.504 OA
ATOM     19  H   UNL     1     204.347 212.755 281.097  1.00  0.00     0.293 HD
ENDBRANCH  15  18
BRANCH  17  20
ATOM     20  O   UNL     1     203.729 209.505 281.654  1.00  0.00    -0.504 OA
ATOM     21  H   UNL     1     204.421 209.471 282.388  1.00  0.00     0.293 HD
ENDBRANCH  17  20
ENDBRANCH   1  12
BRANCH   6  22
ATOM     22  O   UNL     1     203.362 204.419 273.371  1.00  0.00    -0.507 OA
ATOM     23  H   UNL     1     204.310 204.726 273.183  1.00  0.00     0.293 HD
ENDBRANCH   6  22
BRANCH   8  24
ATOM     24  O   UNL     1     198.792 205.730 274.287  1.00  0.00    -0.508 OA
ATOM     25  H   UNL     1     198.436 205.052 273.624  1.00  0.00     0.293 HD
ENDBRANCH   8  24
TORSDOF 5
ENDMDL
MODEL 5
REMARK VINA RESULT:    -6.726      3.368      5.774
REMARK INTER + INTRA:          -8.202
REMARK INTER:                  -7.917
REMARK INTRA:                  -0.285
REMARK UNBOUND:                -0.296
REMARK SMILES O=c1cc(-c2ccc(O)c(O)c2)oc2cc(O)cc(O)c12
REMARK SMILES IDX 4 1 3 2 2 3 1 4 21 5 19 6 18 7 16 8 15 9 14 10 13 11 5 12
REMARK SMILES IDX 6 13 7 14 8 15 12 16 10 17 9 18 11 20 20 22 17 24
REMARK H PARENT 9 19 11 21 20 23 17 25
REMARK Flexibility Score: inf
ROOT
ATOM      1  C   UNL     1     202.387 206.925 277.752  1.00  0.00     0.138 A 
ATOM      2  C   UNL     1     201.959 206.409 278.986  1.00  0.00     0.100 A 
ATOM      3  C   UNL     1     202.270 207.093 280.163  1.00  0.00     0.197 A 
ATOM      4  O   UNL     1     201.881 206.620 281.265  1.00  0.00    -0.289 OA
ATOM      5  C   UNL     1     203.011 208.289 280.096  1.00  0.00     0.107 A 
ATOM      6  C   UNL     1     203.367 209.045 281.238  1.00  0.00     0.134 A 
ATOM      7  C   UNL     1     204.112 210.223 281.088  1.00  0.00     0.093 A 
ATOM      8  C   UNL     1     204.508 210.659 279.817  1.00  0.00     0.123 A 
ATOM      9  C   UNL     1     204.159 209.917 278.688  1.00  0.00     0.094 A 
ATOM     10  C   UNL     1     203.416 208.740 278.817  1.00  0.00     0.146 A 
ATOM     11  O   UNL     1     203.095 208.052 277.725  1.00  0.00    -0.456 OA
ENDROOT
BRANCH   1  12
ATOM     12  C   UNL     1     202.087 206.240 276.470  1.00  0.00     0.021 A 
ATOM     13  C   UNL     1     200.760 205.900 276.163  1.00  0.00     0.016 A 
ATOM     14  C   UNL     1     200.452 205.250 274.967  1.00  0.00     0.051 A 
ATOM     15  C   UNL     1     201.459 204.917 274.055  1.00  0.00     0.157 A 
ATOM     16  C   UNL     1     203.103 205.892 275.560  1.00  0.00     0.062 A 
ATOM     17  C   UNL     1     202.803 205.237 274.359  1.00  0.00     0.158 A 
BRANCH  15  18
ATOM     18  O   UNL     1     201.084 204.273 272.875  1.00  0.00    -0.504 OA
ATOM     19  H   UNL     1     200.523 204.699 272.152  1.00  0.00     0.293 HD
ENDBRANCH  15  18
BRANCH  17  20
ATOM     20  O   UNL     1     203.864 204.922 273.506  1.00  0.00    -0.504 OA
ATOM     21  H   UNL     1     204.773 204.620 273.824  1.00  0.00     0.293 HD
ENDBRANCH  17  20
ENDBRANCH   1  12
BRANCH   6  22
ATOM     22  O   UNL     1     202.987 208.635 282.516  1.00  0.00    -0.507 OA
ATOM     23  H   UNL     1     202.075 208.857 282.899  1.00  0.00     0.293 HD
ENDBRANCH   6  22
BRANCH   8  24
ATOM     24  O   UNL     1     205.249 211.829 279.667  1.00  0.00    -0.508 OA
ATOM     25  H   UNL     1     206.105 211.849 279.125  1.00  0.00     0.293 HD
ENDBRANCH   8  24
TORSDOF 5
ENDMDL
MODEL 6
REMARK VINA RESULT:    -6.617     12.177     17.341
REMARK INTER + INTRA:          -8.073
REMARK INTER:                  -7.783
REMARK INTRA:                  -0.290
REMARK UNBOUND:                -0.296
REMARK SMILES O=c1cc(-c2ccc(O)c(O)c2)oc2cc(O)cc(O)c12
REMARK SMILES IDX 4 1 3 2 2 3 1 4 21 5 19 6 18 7 16 8 15 9 14 10 13 11 5 12
REMARK SMILES IDX 6 13 7 14 8 15 12 16 10 17 9 18 11 20 20 22 17 24
REMARK H PARENT 9 19 11 21 20 23 17 25
REMARK Flexibility Score: inf
ROOT
ATOM      1  C   UNL     1     212.884 203.527 286.374  1.00  0.00     0.138 A 
ATOM      2  C   UNL     1     212.959 202.710 285.234  1.00  0.00     0.100 A 
ATOM      3  C   UNL     1     212.173 203.009 284.120  1.00  0.00     0.197 A 
ATOM      4  O   UNL     1     212.248 202.268 283.102  1.00  0.00    -0.289 OA
ATOM      5  C   UNL     1     211.312 204.123 284.157  1.00  0.00     0.107 A 
ATOM      6  C   UNL     1     210.483 204.498 283.073  1.00  0.00     0.134 A 
ATOM      7  C   UNL     1     209.648 205.619 283.191  1.00  0.00     0.093 A 
ATOM      8  C   UNL     1     209.628 206.371 284.371  1.00  0.00     0.123 A 
ATOM      9  C   UNL     1     210.444 206.006 285.443  1.00  0.00     0.094 A 
ATOM     10  C   UNL     1     211.283 204.892 285.345  1.00  0.00     0.146 A 
ATOM     11  O   UNL     1     212.052 204.566 286.379  1.00  0.00    -0.456 OA
ENDROOT
BRANCH   1  12
ATOM     12  C   UNL     1     213.695 203.256 287.587  1.00  0.00     0.021 A 
ATOM     13  C   UNL     1     215.066 202.982 287.454  1.00  0.00     0.016 A 
ATOM     14  C   UNL     1     215.850 202.718 288.577  1.00  0.00     0.051 A 
ATOM     15  C   UNL     1     215.285 202.713 289.857  1.00  0.00     0.157 A 
ATOM     16  C   UNL     1     213.123 203.237 288.873  1.00  0.00     0.062 A 
ATOM     17  C   UNL     1     213.902 202.970 290.006  1.00  0.00     0.158 A 
BRANCH  15  18
ATOM     18  O   UNL     1     216.125 202.448 290.940  1.00  0.00    -0.504 OA
ATOM     19  H   UNL     1     217.134 202.471 290.892  1.00  0.00     0.293 HD
ENDBRANCH  15  18
BRANCH  17  20
ATOM     20  O   UNL     1     213.265 202.966 291.249  1.00  0.00    -0.504 OA
ATOM     21  H   UNL     1     213.734 203.147 292.124  1.00  0.00     0.293 HD
ENDBRANCH  17  20
ENDBRANCH   1  12
BRANCH   6  22
ATOM     22  O   UNL     1     210.482 203.766 281.885  1.00  0.00    -0.507 OA
ATOM     23  H   UNL     1     209.958 202.903 281.790  1.00  0.00     0.293 HD
ENDBRANCH   6  22
BRANCH   8  24
ATOM     24  O   UNL     1     208.798 207.485 284.489  1.00  0.00    -0.508 OA
ATOM     25  H   UNL     1     208.237 207.812 283.711  1.00  0.00     0.293 HD
ENDBRANCH   8  24
TORSDOF 5
ENDMDL
MODEL 7
REMARK VINA RESULT:    -6.556      2.062      2.947
REMARK INTER + INTRA:          -8.002
REMARK INTER:                  -7.713
REMARK INTRA:                  -0.289
REMARK UNBOUND:                -0.296
REMARK SMILES O=c1cc(-c2ccc(O)c(O)c2)oc2cc(O)cc(O)c12
REMARK SMILES IDX 4 1 3 2 2 3 1 4 21 5 19 6 18 7 16 8 15 9 14 10 13 11 5 12
REMARK SMILES IDX 6 13 7 14 8 15 12 16 10 17 9 18 11 20 20 22 17 24
REMARK H PARENT 9 19 11 21 20 23 17 25
REMARK Flexibility Score: inf
ROOT
ATOM      1  C   UNL     1     200.928 208.611 276.372  1.00  0.00     0.138 A 
ATOM      2  C   UNL     1     201.425 209.729 277.061  1.00  0.00     0.100 A 
ATOM      3  C   UNL     1     202.546 209.590 277.881  1.00  0.00     0.197 A 
ATOM      4  O   UNL     1     202.983 210.601 278.495  1.00  0.00    -0.289 OA
ATOM      5  C   UNL     1     203.160 208.329 278.009  1.00  0.00     0.107 A 
ATOM      6  C   UNL     1     204.300 208.101 278.817  1.00  0.00     0.134 A 
ATOM      7  C   UNL     1     204.849 206.813 278.896  1.00  0.00     0.093 A 
ATOM      8  C   UNL     1     204.281 205.750 278.183  1.00  0.00     0.123 A 
ATOM      9  C   UNL     1     203.157 205.970 277.385  1.00  0.00     0.094 A 
ATOM     10  C   UNL     1     202.595 207.247 277.292  1.00  0.00     0.146 A 
ATOM     11  O   UNL     1     201.526 207.431 276.524  1.00  0.00    -0.456 OA
ENDROOT
BRANCH   1  12
ATOM     12  C   UNL     1     199.739 208.700 275.488  1.00  0.00     0.021 A 
ATOM     13  C   UNL     1     199.616 207.815 274.405  1.00  0.00     0.016 A 
ATOM     14  C   UNL     1     198.511 207.882 273.555  1.00  0.00     0.051 A 
ATOM     15  C   UNL     1     197.510 208.837 273.759  1.00  0.00     0.157 A 
ATOM     16  C   UNL     1     198.739 209.671 275.685  1.00  0.00     0.062 A 
ATOM     17  C   UNL     1     197.629 209.747 274.835  1.00  0.00     0.158 A 
BRANCH  15  18
ATOM     18  O   UNL     1     196.429 208.848 272.876  1.00  0.00    -0.504 OA
ATOM     19  H   UNL     1     196.058 209.683 272.446  1.00  0.00     0.293 HD
ENDBRANCH  15  18
BRANCH  17  20
ATOM     20  O   UNL     1     196.679 210.739 275.091  1.00  0.00    -0.504 OA
ATOM     21  H   UNL     1     196.329 210.960 276.012  1.00  0.00     0.293 HD
ENDBRANCH  17  20
ENDBRANCH   1  12
BRANCH   6  22
ATOM     22  O   UNL     1     204.886 209.140 279.539  1.00  0.00    -0.507 OA
ATOM     23  H   UNL     1     205.320 208.984 280.442  1.00  0.00     0.293 HD
ENDBRANCH   6  22
BRANCH   8  24
ATOM     24  O   UNL     1     204.826 204.471 278.262  1.00  0.00    -0.508 OA
ATOM     25  H   UNL     1     205.829 204.322 278.283  1.00  0.00     0.293 HD
ENDBRANCH   8  24
TORSDOF 5
ENDMDL
MODEL 8
REMARK VINA RESULT:    -6.528      2.891      6.730
REMARK INTER + INTRA:          -7.968
REMARK INTER:                  -7.689
REMARK INTRA:                  -0.279
REMARK UNBOUND:                -0.296
REMARK SMILES O=c1cc(-c2ccc(O)c(O)c2)oc2cc(O)cc(O)c12
REMARK SMILES IDX 4 1 3 2 2 3 1 4 21 5 19 6 18 7 16 8 15 9 14 10 13 11 5 12
REMARK SMILES IDX 6 13 7 14 8 15 12 16 10 17 9 18 11 20 20 22 17 24
REMARK H PARENT 9 19 11 21 20 23 17 25
REMARK Flexibility Score: inf
ROOT
ATOM      1  C   UNL     1     201.509 208.388 275.818  1.00  0.00     0.138 A 
ATOM      2  C   UNL     1     201.638 207.092 275.294  1.00  0.00     0.100 A 
ATOM      3  C   UNL     1     200.615 206.563 274.506  1.00  0.00     0.197 A 
ATOM      4  O   UNL     1     200.741 205.397 274.042  1.00  0.00    -0.289 OA
ATOM      5  C   UNL     1     199.466 207.337 274.249  1.00  0.00     0.107 A 
ATOM      6  C   UNL     1     198.385 206.879 273.459  1.00  0.00     0.134 A 
ATOM      7  C   UNL     1     197.272 207.709 273.256  1.00  0.00     0.093 A 
ATOM      8  C   UNL     1     197.222 208.986 273.826  1.00  0.00     0.123 A 
ATOM      9  C   UNL     1     198.286 209.442 274.605  1.00  0.00     0.094 A 
ATOM     10  C   UNL     1     199.404 208.630 274.820  1.00  0.00     0.146 A 
ATOM     11  O   UNL     1     200.406 209.089 275.564  1.00  0.00    -0.456 OA
ENDROOT
BRANCH   1  12
ATOM     12  C   UNL     1     202.565 209.001 276.663  1.00  0.00     0.021 A 
ATOM     13  C   UNL     1     202.201 209.695 277.827  1.00  0.00     0.016 A 
ATOM     14  C   UNL     1     203.173 210.285 278.636  1.00  0.00     0.051 A 
ATOM     15  C   UNL     1     204.528 210.204 278.297  1.00  0.00     0.157 A 
ATOM     16  C   UNL     1     203.927 208.931 276.314  1.00  0.00     0.062 A 
ATOM     17  C   UNL     1     204.909 209.523 277.118  1.00  0.00     0.158 A 
BRANCH  15  18
ATOM     18  O   UNL     1     205.451 210.810 279.151  1.00  0.00    -0.504 OA
ATOM     19  H   UNL     1     205.571 210.562 280.123  1.00  0.00     0.293 HD
ENDBRANCH  15  18
BRANCH  17  20
ATOM     20  O   UNL     1     206.240 209.414 276.707  1.00  0.00    -0.504 OA
ATOM     21  H   UNL     1     206.557 209.601 275.767  1.00  0.00     0.293 HD
ENDBRANCH  17  20
ENDBRANCH   1  12
BRANCH   6  22
ATOM     22  O   UNL     1     198.406 205.610 272.879  1.00  0.00    -0.507 OA
ATOM     23  H   UNL     1     197.581 205.023 272.851  1.00  0.00     0.293 HD
ENDBRANCH   6  22
BRANCH   8  24
ATOM     24  O   UNL     1     196.117 209.811 273.625  1.00  0.00    -0.508 OA
ATOM     25  H   UNL     1     195.598 209.799 272.754  1.00  0.00     0.293 HD
ENDBRANCH   8  24
TORSDOF 5
ENDMDL
MODEL 9
REMARK VINA RESULT:    -6.291      2.915      6.362
REMARK INTER + INTRA:          -7.691
REMARK INTER:                  -7.426
REMARK INTRA:                  -0.264
REMARK UNBOUND:                -0.296
REMARK SMILES O=c1cc(-c2ccc(O)c(O)c2)oc2cc(O)cc(O)c12
REMARK SMILES IDX 4 1 3 2 2 3 1 4 21 5 19 6 18 7 16 8 15 9 14 10 13 11 5 12
REMARK SMILES IDX 6 13 7 14 8 15 12 16 10 17 9 18 11 20 20 22 17 24
REMARK H PARENT 9 19 11 21 20 23 17 25
REMARK Flexibility Score: inf
ROOT
ATOM      1  C   UNL     1     202.333 208.065 277.262  1.00  0.00     0.138 A 
ATOM      2  C   UNL     1     201.160 208.590 276.697  1.00  0.00     0.100 A 
ATOM      3  C   UNL     1     200.725 208.122 275.456  1.00  0.00     0.197 A 
ATOM      4  O   UNL     1     199.670 208.601 274.957  1.00  0.00    -0.289 OA
ATOM      5  C   UNL     1     201.472 207.133 274.786  1.00  0.00     0.107 A 
ATOM      6  C   UNL     1     201.102 206.603 273.527  1.00  0.00     0.134 A 
ATOM      7  C   UNL     1     201.903 205.624 272.922  1.00  0.00     0.093 A 
ATOM      8  C   UNL     1     203.066 205.165 273.553  1.00  0.00     0.123 A 
ATOM      9  C   UNL     1     203.435 205.685 274.795  1.00  0.00     0.094 A 
ATOM     10  C   UNL     1     202.649 206.661 275.414  1.00  0.00     0.146 A 
ATOM     11  O   UNL     1     203.021 207.139 276.598  1.00  0.00    -0.456 OA
ENDROOT
BRANCH   1  12
ATOM     12  C   UNL     1     202.843 208.525 278.578  1.00  0.00     0.021 A 
ATOM     13  C   UNL     1     202.499 207.815 279.739  1.00  0.00     0.016 A 
ATOM     14  C   UNL     1     202.960 208.231 280.989  1.00  0.00     0.051 A 
ATOM     15  C   UNL     1     203.766 209.367 281.111  1.00  0.00     0.157 A 
ATOM     16  C   UNL     1     203.643 209.677 278.701  1.00  0.00     0.062 A 
ATOM     17  C   UNL     1     204.107 210.103 279.952  1.00  0.00     0.158 A 
BRANCH  15  18
ATOM     18  O   UNL     1     204.199 209.726 282.388  1.00  0.00    -0.504 OA
ATOM     19  H   UNL     1     204.747 210.550 282.590  1.00  0.00     0.293 HD
ENDBRANCH  15  18
BRANCH  17  20
ATOM     20  O   UNL     1     204.894 211.257 279.997  1.00  0.00    -0.504 OA
ATOM     21  H   UNL     1     204.878 211.978 279.292  1.00  0.00     0.293 HD
ENDBRANCH  17  20
ENDBRANCH   1  12
BRANCH   6  22
ATOM     22  O   UNL     1     199.949 207.042 272.875  1.00  0.00    -0.507 OA
ATOM     23  H   UNL     1     199.090 207.229 273.379  1.00  0.00     0.293 HD
ENDBRANCH   6  22
BRANCH   8  24
ATOM     24  O   UNL     1     203.863 204.193 272.952  1.00  0.00    -0.508 OA
ATOM     25  H   UNL     1     204.198 204.295 272.001  1.00  0.00     0.293 HD
ENDBRANCH   8  24
TORSDOF 5
ENDMDL
