MODEL 1
REMARK VINA RESULT:    -4.967      0.000      0.000
REMARK INTER + INTRA:         -12.353
REMARK INTER:                  -9.322
REMARK INTRA:                  -3.030
REMARK UNBOUND:                -3.030
REMARK SMILES CCCCCCCCC=CCCCCCCCC(=O)[O-]
REMARK SMILES IDX 10 1 9 2 11 3 12 4 13 5 14 6 15 7 16 8 17 9 18 10 19 11
REMARK SMILES IDX 20 12 8 13 7 14 6 15 5 16 4 17 3 18 2 19 1 20
REMARK H PARENT
REMARK Flexibility Score: inf
ROOT
ATOM      1  C   UNL     1      22.162  16.850  -0.356  1.00  0.00    -0.031 C 
ATOM      2  C   UNL     1      21.650  16.446   0.816  1.00  0.00    -0.031 C 
ENDROOT
BRANCH   1   3
ATOM      3  C   UNL     1      21.278  17.282  -1.494  1.00  0.00     0.027 C 
BRANCH   3   4
ATOM      4  C   UNL     1      21.335  16.272  -2.649  1.00  0.00     0.004 C 
BRANCH   4   5
ATOM      5  C   UNL     1      22.723  15.632  -2.805  1.00  0.00     0.000 C 
BRANCH   5   6
ATOM      6  C   UNL     1      22.662  14.098  -2.895  1.00  0.00     0.000 C 
BRANCH   6   7
ATOM      7  C   UNL     1      22.020  13.457  -1.655  1.00  0.00     0.000 C 
BRANCH   7   8
ATOM      8  C   UNL     1      22.830  12.264  -1.120  1.00  0.00     0.006 C 
BRANCH   8   9
ATOM      9  C   UNL     1      24.027  11.926  -2.018  1.00  0.00     0.053 C 
BRANCH   9  10
ATOM     10  C   UNL     1      23.847  10.613  -2.717  1.00  0.00     0.041 C 
ATOM     11  O   UNL     1      22.690  10.164  -2.932  1.00  0.00    -0.550 OA
ATOM     12  O   UNL     1      24.954   9.900  -3.158  1.00  0.00    -0.550 OA
ENDBRANCH   9  10
ENDBRANCH   8   9
ENDBRANCH   7   8
ENDBRANCH   6   7
ENDBRANCH   5   6
ENDBRANCH   4   5
ENDBRANCH   3   4
ENDBRANCH   1   3
BRANCH   2  13
ATOM     13  C   UNL     1      22.532  16.007   1.953  1.00  0.00     0.027 C 
BRANCH  13  14
ATOM     14  C   UNL     1      23.045  14.570   1.770  1.00  0.00     0.004 C 
BRANCH  14  15
ATOM     15  C   UNL     1      24.500  14.409   2.245  1.00  0.00     0.000 C 
BRANCH  15  16
ATOM     16  C   UNL     1      25.460  14.003   1.112  1.00  0.00     0.000 C 
BRANCH  16  17
ATOM     17  C   UNL     1      25.404  14.892  -0.144  1.00  0.00    -0.000 C 
BRANCH  17  18
ATOM     18  C   UNL     1      26.314  16.128  -0.044  1.00  0.00    -0.000 C 
BRANCH  18  19
ATOM     19  C   UNL     1      25.527  17.445  -0.118  1.00  0.00    -0.003 C 
ATOM     20  C   UNL     1      25.530  18.214   1.203  1.00  0.00     0.004 C 
ENDBRANCH  18  19
ENDBRANCH  17  18
ENDBRANCH  16  17
ENDBRANCH  15  16
ENDBRANCH  14  15
ENDBRANCH  13  14
ENDBRANCH   2  13
TORSDOF 15
ENDMDL
MODEL 2
REMARK VINA RESULT:    -4.861      2.910      5.419
REMARK INTER + INTRA:         -12.153
REMARK INTER:                  -9.496
REMARK INTRA:                  -2.657
REMARK UNBOUND:                -3.030
REMARK SMILES CCCCCCCCC=CCCCCCCCC(=O)[O-]
REMARK SMILES IDX 10 1 9 2 11 3 12 4 13 5 14 6 15 7 16 8 17 9 18 10 19 11
REMARK SMILES IDX 20 12 8 13 7 14 6 15 5 16 4 17 3 18 2 19 1 20
REMARK H PARENT
REMARK Flexibility Score: inf
ROOT
ATOM      1  C   UNL     1      22.479  14.382  -3.136  1.00  0.00    -0.031 C 
ATOM      2  C   UNL     1      22.854  13.556  -4.124  1.00  0.00    -0.031 C 
ENDROOT
BRANCH   1   3
ATOM      3  C   UNL     1      21.598  15.573  -3.397  1.00  0.00     0.027 C 
BRANCH   3   4
ATOM      4  C   UNL     1      21.432  16.422  -2.128  1.00  0.00     0.004 C 
BRANCH   4   5
ATOM      5  C   UNL     1      21.668  15.614  -0.843  1.00  0.00     0.000 C 
BRANCH   5   6
ATOM      6  C   UNL     1      21.452  16.449   0.431  1.00  0.00     0.000 C 
BRANCH   6   7
ATOM      7  C   UNL     1      22.689  17.274   0.816  1.00  0.00     0.000 C 
BRANCH   7   8
ATOM      8  C   UNL     1      23.220  16.926   2.216  1.00  0.00     0.006 C 
BRANCH   8   9
ATOM      9  C   UNL     1      22.506  15.710   2.821  1.00  0.00     0.053 C 
BRANCH   9  10
ATOM     10  C   UNL     1      23.470  14.759   3.462  1.00  0.00     0.041 C 
ATOM     11  O   UNL     1      24.701  15.024   3.483  1.00  0.00    -0.550 OA
ATOM     12  O   UNL     1      23.007  13.594   4.062  1.00  0.00    -0.550 OA
ENDBRANCH   9  10
ENDBRANCH   8   9
ENDBRANCH   7   8
ENDBRANCH   6   7
ENDBRANCH   5   6
ENDBRANCH   4   5
ENDBRANCH   3   4
ENDBRANCH   1   3
BRANCH   2  13
ATOM     13  C   UNL     1      23.741  12.369  -3.867  1.00  0.00     0.027 C 
BRANCH  13  14
ATOM     14  C   UNL     1      22.976  11.039  -3.957  1.00  0.00     0.004 C 
BRANCH  14  15
ATOM     15  C   UNL     1      22.466  10.569  -2.584  1.00  0.00     0.000 C 
BRANCH  15  16
ATOM     16  C   UNL     1      23.380  11.003  -1.423  1.00  0.00     0.000 C 
BRANCH  16  17
ATOM     17  C   UNL     1      22.727  11.942  -0.391  1.00  0.00    -0.000 C 
BRANCH  17  18
ATOM     18  C   UNL     1      23.755  12.736   0.432  1.00  0.00    -0.000 C 
BRANCH  18  19
ATOM     19  C   UNL     1      24.878  13.320  -0.438  1.00  0.00    -0.003 C 
ATOM     20  C   UNL     1      25.177  14.785  -0.117  1.00  0.00     0.004 C 
ENDBRANCH  18  19
ENDBRANCH  17  18
ENDBRANCH  16  17
ENDBRANCH  15  16
ENDBRANCH  14  15
ENDBRANCH  13  14
ENDBRANCH   2  13
TORSDOF 15
ENDMDL
MODEL 3
REMARK VINA RESULT:    -4.840      2.942      5.260
REMARK INTER + INTRA:         -12.114
REMARK INTER:                  -9.222
REMARK INTRA:                  -2.892
REMARK UNBOUND:                -3.030
REMARK SMILES CCCCCCCCC=CCCCCCCCC(=O)[O-]
REMARK SMILES IDX 10 1 9 2 11 3 12 4 13 5 14 6 15 7 16 8 17 9 18 10 19 11
REMARK SMILES IDX 20 12 8 13 7 14 6 15 5 16 4 17 3 18 2 19 1 20
REMARK H PARENT
REMARK Flexibility Score: inf
ROOT
ATOM      1  C   UNL     1      22.792  13.607  -2.515  1.00  0.00    -0.031 C 
ATOM      2  C   UNL     1      22.036  14.450  -1.796  1.00  0.00    -0.031 C 
ENDROOT
BRANCH   1   3
ATOM      3  C   UNL     1      22.761  12.123  -2.277  1.00  0.00     0.027 C 
BRANCH   3   4
ATOM      4  C   UNL     1      24.098  11.629  -1.704  1.00  0.00     0.004 C 
BRANCH   4   5
ATOM      5  C   UNL     1      24.022  11.338  -0.198  1.00  0.00     0.000 C 
BRANCH   5   6
ATOM      6  C   UNL     1      23.975  12.619   0.652  1.00  0.00     0.000 C 
BRANCH   6   7
ATOM      7  C   UNL     1      25.351  13.289   0.789  1.00  0.00     0.000 C 
BRANCH   7   8
ATOM      8  C   UNL     1      25.428  14.637   0.052  1.00  0.00     0.006 C 
BRANCH   8   9
ATOM      9  C   UNL     1      26.277  15.665   0.811  1.00  0.00     0.053 C 
BRANCH   9  10
ATOM     10  C   UNL     1      26.117  17.044   0.248  1.00  0.00     0.041 C 
ATOM     11  O   UNL     1      26.837  17.988   0.669  1.00  0.00    -0.550 OA
ATOM     12  O   UNL     1      25.194  17.282  -0.764  1.00  0.00    -0.550 OA
ENDBRANCH   9  10
ENDBRANCH   8   9
ENDBRANCH   7   8
ENDBRANCH   6   7
ENDBRANCH   5   6
ENDBRANCH   4   5
ENDBRANCH   3   4
ENDBRANCH   1   3
BRANCH   2  13
ATOM     13  C   UNL     1      22.071  15.936  -2.027  1.00  0.00     0.027 C 
BRANCH  13  14
ATOM     14  C   UNL     1      21.722  16.731  -0.759  1.00  0.00     0.004 C 
BRANCH  14  15
ATOM     15  C   UNL     1      22.092  15.968   0.524  1.00  0.00     0.000 C 
BRANCH  15  16
ATOM     16  C   UNL     1      22.639  16.887   1.633  1.00  0.00     0.000 C 
BRANCH  16  17
ATOM     17  C   UNL     1      23.198  16.158   2.870  1.00  0.00    -0.000 C 
BRANCH  17  18
ATOM     18  C   UNL     1      22.492  14.820   3.146  1.00  0.00    -0.000 C 
BRANCH  18  19
ATOM     19  C   UNL     1      23.295  13.918   4.096  1.00  0.00    -0.003 C 
ATOM     20  C   UNL     1      24.660  14.503   4.459  1.00  0.00     0.004 C 
ENDBRANCH  18  19
ENDBRANCH  17  18
ENDBRANCH  16  17
ENDBRANCH  15  16
ENDBRANCH  14  15
ENDBRANCH  13  14
ENDBRANCH   2  13
TORSDOF 15
ENDMDL
MODEL 4
REMARK VINA RESULT:    -4.826      2.979      5.463
REMARK INTER + INTRA:         -12.088
REMARK INTER:                  -9.183
REMARK INTRA:                  -2.905
REMARK UNBOUND:                -3.030
REMARK SMILES CCCCCCCCC=CCCCCCCCC(=O)[O-]
REMARK SMILES IDX 10 1 9 2 11 3 12 4 13 5 14 6 15 7 16 8 17 9 18 10 19 11
REMARK SMILES IDX 20 12 8 13 7 14 6 15 5 16 4 17 3 18 2 19 1 20
REMARK H PARENT
REMARK Flexibility Score: inf
ROOT
ATOM      1  C   UNL     1      21.576  16.031  -0.636  1.00  0.00    -0.031 C 
ATOM      2  C   UNL     1      22.406  16.477  -1.591  1.00  0.00    -0.031 C 
ENDROOT
BRANCH   1   3
ATOM      3  C   UNL     1      21.552  16.647   0.736  1.00  0.00     0.027 C 
BRANCH   3   4
ATOM      4  C   UNL     1      22.378  15.813   1.727  1.00  0.00     0.004 C 
BRANCH   4   5
ATOM      5  C   UNL     1      23.584  16.586   2.284  1.00  0.00     0.000 C 
BRANCH   5   6
ATOM      6  C   UNL     1      23.761  17.965   1.625  1.00  0.00     0.000 C 
BRANCH   6   7
ATOM      7  C   UNL     1      25.214  18.241   1.210  1.00  0.00     0.000 C 
BRANCH   7   8
ATOM      8  C   UNL     1      25.787  17.143   0.299  1.00  0.00     0.006 C 
BRANCH   8   9
ATOM      9  C   UNL     1      27.312  17.241   0.162  1.00  0.00     0.053 C 
BRANCH   9  10
ATOM     10  C   UNL     1      28.017  16.315   1.106  1.00  0.00     0.041 C 
ATOM     11  O   UNL     1      29.162  15.873   0.822  1.00  0.00    -0.550 OA
ATOM     12  O   UNL     1      27.424  15.963   2.312  1.00  0.00    -0.550 OA
ENDBRANCH   9  10
ENDBRANCH   8   9
ENDBRANCH   7   8
ENDBRANCH   6   7
ENDBRANCH   5   6
ENDBRANCH   4   5
ENDBRANCH   3   4
ENDBRANCH   1   3
BRANCH   2  13
ATOM     13  C   UNL     1      22.437  15.858  -2.962  1.00  0.00     0.027 C 
BRANCH  13  14
ATOM     14  C   UNL     1      21.844  14.441  -2.975  1.00  0.00     0.004 C 
BRANCH  14  15
ATOM     15  C   UNL     1      22.911  13.363  -2.714  1.00  0.00     0.000 C 
BRANCH  15  16
ATOM     16  C   UNL     1      22.564  12.451  -1.524  1.00  0.00     0.000 C 
BRANCH  16  17
ATOM     17  C   UNL     1      23.352  12.735  -0.230  1.00  0.00    -0.000 C 
BRANCH  17  18
ATOM     18  C   UNL     1      24.532  13.697  -0.448  1.00  0.00    -0.000 C 
BRANCH  18  19
ATOM     19  C   UNL     1      25.657  13.487   0.578  1.00  0.00    -0.003 C 
ATOM     20  C   UNL     1      25.133  13.249   1.994  1.00  0.00     0.004 C 
ENDBRANCH  18  19
ENDBRANCH  17  18
ENDBRANCH  16  17
ENDBRANCH  15  16
ENDBRANCH  14  15
ENDBRANCH  13  14
ENDBRANCH   2  13
TORSDOF 15
ENDMDL
MODEL 5
REMARK VINA RESULT:    -4.818      2.589      5.242
REMARK INTER + INTRA:         -12.074
REMARK INTER:                  -9.251
REMARK INTRA:                  -2.823
REMARK UNBOUND:                -3.030
REMARK SMILES CCCCCCCCC=CCCCCCCCC(=O)[O-]
REMARK SMILES IDX 10 1 9 2 11 3 12 4 13 5 14 6 15 7 16 8 17 9 18 10 19 11
REMARK SMILES IDX 20 12 8 13 7 14 6 15 5 16 4 17 3 18 2 19 1 20
REMARK H PARENT
REMARK Flexibility Score: inf
ROOT
ATOM      1  C   UNL     1      24.352  17.612   1.492  1.00  0.00    -0.031 C 
ATOM      2  C   UNL     1      23.579  16.766   0.795  1.00  0.00    -0.031 C 
ENDROOT
BRANCH   1   3
ATOM      3  C   UNL     1      25.720  18.008   1.007  1.00  0.00     0.027 C 
BRANCH   3   4
ATOM      4  C   UNL     1      26.197  17.074  -0.115  1.00  0.00     0.004 C 
BRANCH   4   5
ATOM      5  C   UNL     1      27.630  16.568   0.109  1.00  0.00     0.000 C 
BRANCH   5   6
ATOM      6  C   UNL     1      27.755  15.044  -0.066  1.00  0.00     0.000 C 
BRANCH   6   7
ATOM      7  C   UNL     1      26.605  14.275   0.604  1.00  0.00     0.000 C 
BRANCH   7   8
ATOM      8  C   UNL     1      26.716  14.266   2.138  1.00  0.00     0.006 C 
BRANCH   8   9
ATOM      9  C   UNL     1      25.351  14.097   2.817  1.00  0.00     0.053 C 
BRANCH   9  10
ATOM     10  C   UNL     1      25.208  12.749   3.455  1.00  0.00     0.041 C 
ATOM     11  O   UNL     1      25.969  11.804   3.116  1.00  0.00    -0.550 OA
ATOM     12  O   UNL     1      24.254  12.543   4.444  1.00  0.00    -0.550 OA
ENDBRANCH   9  10
ENDBRANCH   8   9
ENDBRANCH   7   8
ENDBRANCH   6   7
ENDBRANCH   5   6
ENDBRANCH   4   5
ENDBRANCH   3   4
ENDBRANCH   1   3
BRANCH   2  13
ATOM     13  C   UNL     1      22.213  16.362   1.281  1.00  0.00     0.027 C 
BRANCH  13  14
ATOM     14  C   UNL     1      21.154  16.436   0.170  1.00  0.00     0.004 C 
BRANCH  14  15
ATOM     15  C   UNL     1      21.691  17.121  -1.099  1.00  0.00     0.000 C 
BRANCH  15  16
ATOM     16  C   UNL     1      21.385  16.331  -2.384  1.00  0.00     0.000 C 
BRANCH  16  17
ATOM     17  C   UNL     1      22.525  15.420  -2.880  1.00  0.00    -0.000 C 
BRANCH  17  18
ATOM     18  C   UNL     1      22.434  13.990  -2.323  1.00  0.00    -0.000 C 
BRANCH  18  19
ATOM     19  C   UNL     1      23.603  13.648  -1.386  1.00  0.00    -0.003 C 
ATOM     20  C   UNL     1      23.143  13.070  -0.048  1.00  0.00     0.004 C 
ENDBRANCH  18  19
ENDBRANCH  17  18
ENDBRANCH  16  17
ENDBRANCH  15  16
ENDBRANCH  14  15
ENDBRANCH  13  14
ENDBRANCH   2  13
TORSDOF 15
ENDMDL
MODEL 6
REMARK VINA RESULT:    -4.806      2.474      5.048
REMARK INTER + INTRA:         -12.050
REMARK INTER:                  -9.027
REMARK INTRA:                  -3.023
REMARK UNBOUND:                -3.030
REMARK SMILES CCCCCCCCC=CCCCCCCCC(=O)[O-]
REMARK SMILES IDX 10 1 9 2 11 3 12 4 13 5 14 6 15 7 16 8 17 9 18 10 19 11
REMARK SMILES IDX 20 12 8 13 7 14 6 15 5 16 4 17 3 18 2 19 1 20
REMARK H PARENT
REMARK Flexibility Score: inf
ROOT
ATOM      1  C   UNL     1      23.535  12.787  -3.298  1.00  0.00    -0.031 C 
ATOM      2  C   UNL     1      22.486  13.615  -3.185  1.00  0.00    -0.031 C 
ENDROOT
BRANCH   1   3
ATOM      3  C   UNL     1      23.453  11.350  -2.862  1.00  0.00     0.027 C 
BRANCH   3   4
ATOM      4  C   UNL     1      23.928  11.188  -1.410  1.00  0.00     0.004 C 
BRANCH   4   5
ATOM      5  C   UNL     1      22.847  11.578  -0.390  1.00  0.00     0.000 C 
BRANCH   5   6
ATOM      6  C   UNL     1      23.252  12.789   0.469  1.00  0.00     0.000 C 
BRANCH   6   7
ATOM      7  C   UNL     1      24.744  13.133   0.341  1.00  0.00     0.000 C 
BRANCH   7   8
ATOM      8  C   UNL     1      24.980  14.491  -0.342  1.00  0.00     0.006 C 
BRANCH   8   9
ATOM      9  C   UNL     1      25.942  15.382   0.455  1.00  0.00     0.053 C 
BRANCH   9  10
ATOM     10  C   UNL     1      27.248  14.697   0.718  1.00  0.00     0.041 C 
ATOM     11  O   UNL     1      27.603  14.440   1.899  1.00  0.00    -0.550 OA
ATOM     12  O   UNL     1      28.061  14.315  -0.343  1.00  0.00    -0.550 OA
ENDBRANCH   9  10
ENDBRANCH   8   9
ENDBRANCH   7   8
ENDBRANCH   6   7
ENDBRANCH   5   6
ENDBRANCH   4   5
ENDBRANCH   3   4
ENDBRANCH   1   3
BRANCH   2  13
ATOM     13  C   UNL     1      22.567  15.055  -3.613  1.00  0.00     0.027 C 
BRANCH  13  14
ATOM     14  C   UNL     1      22.349  16.025  -2.442  1.00  0.00     0.004 C 
BRANCH  14  15
ATOM     15  C   UNL     1      21.496  15.402  -1.324  1.00  0.00     0.000 C 
BRANCH  15  16
ATOM     16  C   UNL     1      21.383  16.302  -0.080  1.00  0.00     0.000 C 
BRANCH  16  17
ATOM     17  C   UNL     1      22.588  17.230   0.167  1.00  0.00    -0.000 C 
BRANCH  17  18
ATOM     18  C   UNL     1      23.084  17.192   1.622  1.00  0.00    -0.000 C 
BRANCH  18  19
ATOM     19  C   UNL     1      22.539  15.982   2.397  1.00  0.00    -0.003 C 
ATOM     20  C   UNL     1      23.573  15.365   3.339  1.00  0.00     0.004 C 
ENDBRANCH  18  19
ENDBRANCH  17  18
ENDBRANCH  16  17
ENDBRANCH  15  16
ENDBRANCH  14  15
ENDBRANCH  13  14
ENDBRANCH   2  13
TORSDOF 15
ENDMDL
MODEL 7
REMARK VINA RESULT:    -4.781      1.114      1.887
REMARK INTER + INTRA:         -12.004
REMARK INTER:                  -9.456
REMARK INTRA:                  -2.548
REMARK UNBOUND:                -3.030
REMARK SMILES CCCCCCCCC=CCCCCCCCC(=O)[O-]
REMARK SMILES IDX 10 1 9 2 11 3 12 4 13 5 14 6 15 7 16 8 17 9 18 10 19 11
REMARK SMILES IDX 20 12 8 13 7 14 6 15 5 16 4 17 3 18 2 19 1 20
REMARK H PARENT
REMARK Flexibility Score: inf
ROOT
ATOM      1  C   UNL     1      22.371  15.773   1.288  1.00  0.00    -0.031 C 
ATOM      2  C   UNL     1      22.557  15.990   2.599  1.00  0.00    -0.031 C 
ENDROOT
BRANCH   1   3
ATOM      3  C   UNL     1      21.336  16.531   0.504  1.00  0.00     0.027 C 
BRANCH   3   4
ATOM      4  C   UNL     1      21.949  17.152  -0.760  1.00  0.00     0.004 C 
BRANCH   4   5
ATOM      5  C   UNL     1      21.426  16.500  -2.050  1.00  0.00     0.000 C 
BRANCH   5   6
ATOM      6  C   UNL     1      22.428  15.506  -2.661  1.00  0.00     0.000 C 
BRANCH   6   7
ATOM      7  C   UNL     1      22.315  14.100  -2.051  1.00  0.00     0.000 C 
BRANCH   7   8
ATOM      8  C   UNL     1      22.978  13.022  -2.924  1.00  0.00     0.006 C 
BRANCH   8   9
ATOM      9  C   UNL     1      23.517  11.851  -2.091  1.00  0.00     0.053 C 
BRANCH   9  10
ATOM     10  C   UNL     1      22.549  10.709  -2.044  1.00  0.00     0.041 C 
ATOM     11  O   UNL     1      22.493   9.886  -2.997  1.00  0.00    -0.550 OA
ATOM     12  O   UNL     1      21.729  10.535  -0.936  1.00  0.00    -0.550 OA
ENDBRANCH   9  10
ENDBRANCH   8   9
ENDBRANCH   7   8
ENDBRANCH   6   7
ENDBRANCH   5   6
ENDBRANCH   4   5
ENDBRANCH   3   4
ENDBRANCH   1   3
BRANCH   2  13
ATOM     13  C   UNL     1      23.587  15.227   3.387  1.00  0.00     0.027 C 
BRANCH  13  14
ATOM     14  C   UNL     1      23.232  13.739   3.524  1.00  0.00     0.004 C 
BRANCH  14  15
ATOM     15  C   UNL     1      24.377  12.824   3.058  1.00  0.00     0.000 C 
BRANCH  15  16
ATOM     16  C   UNL     1      24.526  12.780   1.526  1.00  0.00     0.000 C 
BRANCH  16  17
ATOM     17  C   UNL     1      25.788  13.467   0.971  1.00  0.00    -0.000 C 
BRANCH  17  18
ATOM     18  C   UNL     1      25.466  14.627   0.014  1.00  0.00    -0.000 C 
BRANCH  18  19
ATOM     19  C   UNL     1      25.972  15.980   0.539  1.00  0.00    -0.003 C 
ATOM     20  C   UNL     1      25.526  17.157  -0.328  1.00  0.00     0.004 C 
ENDBRANCH  18  19
ENDBRANCH  17  18
ENDBRANCH  16  17
ENDBRANCH  15  16
ENDBRANCH  14  15
ENDBRANCH  13  14
ENDBRANCH   2  13
TORSDOF 15
ENDMDL
MODEL 8
REMARK VINA RESULT:    -4.767      3.179      5.988
REMARK INTER + INTRA:         -11.978
REMARK INTER:                  -9.242
REMARK INTRA:                  -2.736
REMARK UNBOUND:                -3.030
REMARK SMILES CCCCCCCCC=CCCCCCCCC(=O)[O-]
REMARK SMILES IDX 10 1 9 2 11 3 12 4 13 5 14 6 15 7 16 8 17 9 18 10 19 11
REMARK SMILES IDX 20 12 8 13 7 14 6 15 5 16 4 17 3 18 2 19 1 20
REMARK H PARENT
REMARK Flexibility Score: inf
ROOT
ATOM      1  C   UNL     1      22.835  15.081   1.906  1.00  0.00    -0.031 C 
ATOM      2  C   UNL     1      23.336  16.261   1.511  1.00  0.00    -0.031 C 
ENDROOT
BRANCH   1   3
ATOM      3  C   UNL     1      23.656  14.102   2.699  1.00  0.00     0.027 C 
BRANCH   3   4
ATOM      4  C   UNL     1      24.993  14.727   3.128  1.00  0.00     0.004 C 
BRANCH   4   5
ATOM      5  C   UNL     1      26.204  13.987   2.540  1.00  0.00     0.000 C 
BRANCH   5   6
ATOM      6  C   UNL     1      25.941  13.452   1.122  1.00  0.00     0.000 C 
BRANCH   6   7
ATOM      7  C   UNL     1      26.334  14.456   0.027  1.00  0.00     0.000 C 
BRANCH   7   8
ATOM      8  C   UNL     1      27.709  15.098   0.281  1.00  0.00     0.006 C 
BRANCH   8   9
ATOM      9  C   UNL     1      27.715  16.600  -0.034  1.00  0.00     0.053 C 
BRANCH   9  10
ATOM     10  C   UNL     1      27.077  17.401   1.059  1.00  0.00     0.041 C 
ATOM     11  O   UNL     1      27.494  17.300   2.244  1.00  0.00    -0.550 OA
ATOM     12  O   UNL     1      26.044  18.282   0.767  1.00  0.00    -0.550 OA
ENDBRANCH   9  10
ENDBRANCH   8   9
ENDBRANCH   7   8
ENDBRANCH   6   7
ENDBRANCH   5   6
ENDBRANCH   4   5
ENDBRANCH   3   4
ENDBRANCH   1   3
BRANCH   2  13
ATOM     13  C   UNL     1      22.519  17.239   0.712  1.00  0.00     0.027 C 
BRANCH  13  14
ATOM     14  C   UNL     1      21.348  16.561  -0.017  1.00  0.00     0.004 C 
BRANCH  14  15
ATOM     15  C   UNL     1      21.363  16.846  -1.529  1.00  0.00     0.000 C 
BRANCH  15  16
ATOM     16  C   UNL     1      22.144  15.789  -2.331  1.00  0.00     0.000 C 
BRANCH  16  17
ATOM     17  C   UNL     1      21.859  14.326  -1.938  1.00  0.00    -0.000 C 
BRANCH  17  18
ATOM     18  C   UNL     1      23.124  13.565  -1.508  1.00  0.00    -0.000 C 
BRANCH  18  19
ATOM     19  C   UNL     1      22.813  12.396  -0.561  1.00  0.00    -0.003 C 
ATOM     20  C   UNL     1      23.399  11.069  -1.043  1.00  0.00     0.004 C 
ENDBRANCH  18  19
ENDBRANCH  17  18
ENDBRANCH  16  17
ENDBRANCH  15  16
ENDBRANCH  14  15
ENDBRANCH  13  14
ENDBRANCH   2  13
TORSDOF 15
ENDMDL
MODEL 9
REMARK VINA RESULT:    -4.750      1.307      3.388
REMARK INTER + INTRA:         -11.945
REMARK INTER:                  -9.256
REMARK INTRA:                  -2.689
REMARK UNBOUND:                -3.030
REMARK SMILES CCCCCCCCC=CCCCCCCCC(=O)[O-]
REMARK SMILES IDX 10 1 9 2 11 3 12 4 13 5 14 6 15 7 16 8 17 9 18 10 19 11
REMARK SMILES IDX 20 12 8 13 7 14 6 15 5 16 4 17 3 18 2 19 1 20
REMARK H PARENT
REMARK Flexibility Score: inf
ROOT
ATOM      1  C   UNL     1      24.613  17.112   1.540  1.00  0.00    -0.031 C 
ATOM      2  C   UNL     1      25.136  17.335   0.325  1.00  0.00    -0.031 C 
ENDROOT
BRANCH   1   3
ATOM      3  C   UNL     1      23.148  17.312   1.815  1.00  0.00     0.027 C 
BRANCH   3   4
ATOM      4  C   UNL     1      22.323  16.130   1.284  1.00  0.00     0.004 C 
BRANCH   4   5
ATOM      5  C   UNL     1      21.333  16.548   0.186  1.00  0.00     0.000 C 
BRANCH   5   6
ATOM      6  C   UNL     1      21.770  16.084  -1.215  1.00  0.00     0.000 C 
BRANCH   6   7
ATOM      7  C   UNL     1      22.758  14.909  -1.168  1.00  0.00     0.000 C 
BRANCH   7   8
ATOM      8  C   UNL     1      22.141  13.597  -1.681  1.00  0.00     0.006 C 
BRANCH   8   9
ATOM      9  C   UNL     1      22.951  12.367  -1.250  1.00  0.00     0.053 C 
BRANCH   9  10
ATOM     10  C   UNL     1      22.316  11.091  -1.711  1.00  0.00     0.041 C 
ATOM     11  O   UNL     1      21.589  10.426  -0.927  1.00  0.00    -0.550 OA
ATOM     12  O   UNL     1      22.503  10.652  -3.016  1.00  0.00    -0.550 OA
ENDBRANCH   9  10
ENDBRANCH   8   9
ENDBRANCH   7   8
ENDBRANCH   6   7
ENDBRANCH   5   6
ENDBRANCH   4   5
ENDBRANCH   3   4
ENDBRANCH   1   3
BRANCH   2  13
ATOM     13  C   UNL     1      26.603  17.143   0.049  1.00  0.00     0.027 C 
BRANCH  13  14
ATOM     14  C   UNL     1      27.203  15.989   0.866  1.00  0.00     0.004 C 
BRANCH  14  15
ATOM     15  C   UNL     1      27.253  14.676   0.066  1.00  0.00     0.000 C 
BRANCH  15  16
ATOM     16  C   UNL     1      26.003  13.801   0.268  1.00  0.00     0.000 C 
BRANCH  16  17
ATOM     17  C   UNL     1      25.793  13.280   1.703  1.00  0.00    -0.000 C 
BRANCH  17  18
ATOM     18  C   UNL     1      24.320  13.314   2.143  1.00  0.00    -0.000 C 
BRANCH  18  19
ATOM     19  C   UNL     1      24.164  13.357   3.671  1.00  0.00    -0.003 C 
ATOM     20  C   UNL     1      24.633  14.678   4.279  1.00  0.00     0.004 C 
ENDBRANCH  18  19
ENDBRANCH  17  18
ENDBRANCH  16  17
ENDBRANCH  15  16
ENDBRANCH  14  15
ENDBRANCH  13  14
ENDBRANCH   2  13
TORSDOF 15
ENDMDL
