MODEL 1
REMARK VINA RESULT:    -3.642      0.000      0.000
REMARK INTER + INTRA:          -9.867
REMARK INTER:                  -7.048
REMARK INTRA:                  -2.819
REMARK UNBOUND:                -2.819
REMARK SMILES CCCCCCCCCCCCCCCCCC(=O)[O-]
REMARK SMILES IDX 10 1 11 2 12 3 13 4 14 5 15 6 16 7 17 8 18 9 19 10 20 11
REMARK SMILES IDX 9 12 8 13 7 14 6 15 5 16 4 17 3 18 2 19 1 20
REMARK H PARENT
REMARK Flexibility Score: inf
ROOT
ATOM      1  C   UNL     1       9.469 -23.212 -38.638  1.00  0.00     0.000 C 
ENDROOT
BRANCH   1   2
ATOM      2  C   UNL     1      10.447 -22.113 -39.087  1.00  0.00     0.000 C 
BRANCH   2   3
ATOM      3  C   UNL     1      10.170 -20.756 -38.418  1.00  0.00     0.000 C 
BRANCH   3   4
ATOM      4  C   UNL     1      11.184 -20.440 -37.296  1.00  0.00     0.000 C 
BRANCH   4   5
ATOM      5  C   UNL     1      12.513 -19.868 -37.816  1.00  0.00     0.000 C 
BRANCH   5   6
ATOM      6  C   UNL     1      13.741 -20.531 -37.170  1.00  0.00     0.000 C 
BRANCH   6   7
ATOM      7  C   UNL     1      14.443 -21.521 -38.112  1.00  0.00     0.006 C 
BRANCH   7   8
ATOM      8  C   UNL     1      13.939 -22.961 -37.934  1.00  0.00     0.053 C 
BRANCH   8   9
ATOM      9  C   UNL     1      14.230 -23.770 -39.158  1.00  0.00     0.041 C 
ATOM     10  O   UNL     1      15.248 -24.510 -39.202  1.00  0.00    -0.550 OA
ATOM     11  O   UNL     1      13.405 -23.667 -40.271  1.00  0.00    -0.550 OA
ENDBRANCH   8   9
ENDBRANCH   7   8
ENDBRANCH   6   7
ENDBRANCH   5   6
ENDBRANCH   4   5
ENDBRANCH   3   4
ENDBRANCH   2   3
ENDBRANCH   1   2
BRANCH   1  12
ATOM     12  C   UNL     1      10.166 -24.453 -38.040  1.00  0.00     0.000 C 
BRANCH  12  13
ATOM     13  C   UNL     1      10.695 -24.196 -36.621  1.00  0.00    -0.000 C 
BRANCH  13  14
ATOM     14  C   UNL     1       9.542 -24.017 -35.627  1.00  0.00    -0.000 C 
BRANCH  14  15
ATOM     15  C   UNL     1       9.717 -22.730 -34.807  1.00  0.00    -0.000 C 
BRANCH  15  16
ATOM     16  C   UNL     1       8.533 -21.763 -34.963  1.00  0.00    -0.000 C 
BRANCH  16  17
ATOM     17  C   UNL     1       7.470 -22.281 -35.945  1.00  0.00    -0.000 C 
BRANCH  17  18
ATOM     18  C   UNL     1       6.778 -21.120 -36.670  1.00  0.00    -0.000 C 
BRANCH  18  19
ATOM     19  C   UNL     1       7.276 -19.769 -36.145  1.00  0.00    -0.003 C 
ATOM     20  C   UNL     1       6.957 -18.646 -37.126  1.00  0.00     0.004 C 
ENDBRANCH  18  19
ENDBRANCH  17  18
ENDBRANCH  16  17
ENDBRANCH  15  16
ENDBRANCH  14  15
ENDBRANCH  13  14
ENDBRANCH  12  13
ENDBRANCH   1  12
TORSDOF 16
ENDMDL
MODEL 2
REMARK VINA RESULT:    -3.637      3.789      7.394
REMARK INTER + INTRA:          -9.857
REMARK INTER:                  -7.922
REMARK INTRA:                  -1.935
REMARK UNBOUND:                -2.819
REMARK SMILES CCCCCCCCCCCCCCCCCC(=O)[O-]
REMARK SMILES IDX 10 1 11 2 12 3 13 4 14 5 15 6 16 7 17 8 18 9 19 10 20 11
REMARK SMILES IDX 9 12 8 13 7 14 6 15 5 16 4 17 3 18 2 19 1 20
REMARK H PARENT
REMARK Flexibility Score: inf
ROOT
ATOM      1  C   UNL     1      10.888 -23.536 -36.961  1.00  0.00     0.000 C 
ENDROOT
BRANCH   1   2
ATOM      2  C   UNL     1       9.641 -23.879 -36.129  1.00  0.00     0.000 C 
BRANCH   2   3
ATOM      3  C   UNL     1       9.509 -23.015 -34.863  1.00  0.00     0.000 C 
BRANCH   3   4
ATOM      4  C   UNL     1       8.352 -21.999 -34.967  1.00  0.00     0.000 C 
BRANCH   4   5
ATOM      5  C   UNL     1       7.419 -22.252 -36.163  1.00  0.00     0.000 C 
BRANCH   5   6
ATOM      6  C   UNL     1       7.065 -20.966 -36.928  1.00  0.00     0.000 C 
BRANCH   6   7
ATOM      7  C   UNL     1       6.990 -19.735 -36.012  1.00  0.00     0.006 C 
BRANCH   7   8
ATOM      8  C   UNL     1       5.906 -18.741 -36.450  1.00  0.00     0.053 C 
BRANCH   8   9
ATOM      9  C   UNL     1       5.996 -17.483 -35.645  1.00  0.00     0.041 C 
ATOM     10  O   UNL     1       5.595 -17.465 -34.452  1.00  0.00    -0.550 OA
ATOM     11  O   UNL     1       6.474 -16.317 -36.228  1.00  0.00    -0.550 OA
ENDBRANCH   8   9
ENDBRANCH   7   8
ENDBRANCH   6   7
ENDBRANCH   5   6
ENDBRANCH   4   5
ENDBRANCH   3   4
ENDBRANCH   2   3
ENDBRANCH   1   2
BRANCH   1  12
ATOM     12  C   UNL     1      10.701 -22.311 -37.880  1.00  0.00     0.000 C 
BRANCH  12  13
ATOM     13  C   UNL     1      11.128 -21.002 -37.199  1.00  0.00    -0.000 C 
BRANCH  13  14
ATOM     14  C   UNL     1      11.616 -19.977 -38.232  1.00  0.00    -0.000 C 
BRANCH  14  15
ATOM     15  C   UNL     1      13.137 -20.072 -38.424  1.00  0.00    -0.000 C 
BRANCH  15  16
ATOM     16  C   UNL     1      13.877 -20.429 -37.126  1.00  0.00    -0.000 C 
BRANCH  16  17
ATOM     17  C   UNL     1      14.816 -21.634 -37.292  1.00  0.00    -0.000 C 
BRANCH  17  18
ATOM     18  C   UNL     1      14.696 -22.236 -38.696  1.00  0.00    -0.000 C 
BRANCH  18  19
ATOM     19  C   UNL     1      14.202 -23.686 -38.633  1.00  0.00    -0.003 C 
ATOM     20  C   UNL     1      15.146 -24.623 -39.380  1.00  0.00     0.004 C 
ENDBRANCH  18  19
ENDBRANCH  17  18
ENDBRANCH  16  17
ENDBRANCH  15  16
ENDBRANCH  14  15
ENDBRANCH  13  14
ENDBRANCH  12  13
ENDBRANCH   1  12
TORSDOF 16
ENDMDL
MODEL 3
REMARK VINA RESULT:    -3.560      1.592      2.933
REMARK INTER + INTRA:          -9.708
REMARK INTER:                  -7.424
REMARK INTRA:                  -2.284
REMARK UNBOUND:                -2.819
REMARK SMILES CCCCCCCCCCCCCCCCCC(=O)[O-]
REMARK SMILES IDX 10 1 11 2 12 3 13 4 14 5 15 6 16 7 17 8 18 9 19 10 20 11
REMARK SMILES IDX 9 12 8 13 7 14 6 15 5 16 4 17 3 18 2 19 1 20
REMARK H PARENT
REMARK Flexibility Score: inf
ROOT
ATOM      1  C   UNL     1       9.749 -24.110 -36.190  1.00  0.00     0.000 C 
ENDROOT
BRANCH   1   2
ATOM      2  C   UNL     1       8.727 -23.881 -37.315  1.00  0.00     0.000 C 
BRANCH   2   3
ATOM      3  C   UNL     1       9.331 -23.167 -38.537  1.00  0.00     0.000 C 
BRANCH   3   4
ATOM      4  C   UNL     1      10.830 -22.850 -38.347  1.00  0.00     0.000 C 
BRANCH   4   5
ATOM      5  C   UNL     1      11.141 -21.344 -38.337  1.00  0.00     0.000 C 
BRANCH   5   6
ATOM      6  C   UNL     1      11.815 -20.882 -37.035  1.00  0.00     0.000 C 
BRANCH   6   7
ATOM      7  C   UNL     1      13.167 -20.195 -37.280  1.00  0.00     0.006 C 
BRANCH   7   8
ATOM      8  C   UNL     1      13.816 -20.627 -38.602  1.00  0.00     0.053 C 
BRANCH   8   9
ATOM      9  C   UNL     1      15.015 -21.482 -38.340  1.00  0.00     0.041 C 
ATOM     10  O   UNL     1      16.023 -21.407 -39.090  1.00  0.00    -0.550 OA
ATOM     11  O   UNL     1      14.999 -22.400 -37.297  1.00  0.00    -0.550 OA
ENDBRANCH   8   9
ENDBRANCH   7   8
ENDBRANCH   6   7
ENDBRANCH   5   6
ENDBRANCH   4   5
ENDBRANCH   3   4
ENDBRANCH   2   3
ENDBRANCH   1   2
BRANCH   1  12
ATOM     12  C   UNL     1       9.471 -23.276 -34.922  1.00  0.00     0.000 C 
BRANCH  12  13
ATOM     13  C   UNL     1       8.253 -22.354 -35.087  1.00  0.00    -0.000 C 
BRANCH  13  14
ATOM     14  C   UNL     1       8.680 -20.882 -35.142  1.00  0.00    -0.000 C 
BRANCH  14  15
ATOM     15  C   UNL     1       8.155 -20.204 -36.416  1.00  0.00    -0.000 C 
BRANCH  15  16
ATOM     16  C   UNL     1       6.776 -20.730 -36.842  1.00  0.00    -0.000 C 
BRANCH  16  17
ATOM     17  C   UNL     1       5.801 -19.601 -37.215  1.00  0.00    -0.000 C 
BRANCH  17  18
ATOM     18  C   UNL     1       6.249 -18.266 -36.609  1.00  0.00    -0.000 C 
BRANCH  18  19
ATOM     19  C   UNL     1       5.077 -17.548 -35.931  1.00  0.00    -0.003 C 
ATOM     20  C   UNL     1       5.437 -17.124 -34.511  1.00  0.00     0.004 C 
ENDBRANCH  18  19
ENDBRANCH  17  18
ENDBRANCH  16  17
ENDBRANCH  15  16
ENDBRANCH  14  15
ENDBRANCH  13  14
ENDBRANCH  12  13
ENDBRANCH   1  12
TORSDOF 16
ENDMDL
MODEL 4
REMARK VINA RESULT:    -3.556      4.330      6.819
REMARK INTER + INTRA:          -9.701
REMARK INTER:                  -7.022
REMARK INTRA:                  -2.680
REMARK UNBOUND:                -2.819
REMARK SMILES CCCCCCCCCCCCCCCCCC(=O)[O-]
REMARK SMILES IDX 10 1 11 2 12 3 13 4 14 5 15 6 16 7 17 8 18 9 19 10 20 11
REMARK SMILES IDX 9 12 8 13 7 14 6 15 5 16 4 17 3 18 2 19 1 20
REMARK H PARENT
REMARK Flexibility Score: inf
ROOT
ATOM      1  C   UNL     1       9.407 -23.998 -35.731  1.00  0.00     0.000 C 
ENDROOT
BRANCH   1   2
ATOM      2  C   UNL     1       9.587 -22.834 -34.742  1.00  0.00     0.000 C 
BRANCH   2   3
ATOM      3  C   UNL     1       8.623 -21.665 -35.010  1.00  0.00     0.000 C 
BRANCH   3   4
ATOM      4  C   UNL     1       7.522 -22.037 -36.026  1.00  0.00     0.000 C 
BRANCH   4   5
ATOM      5  C   UNL     1       7.018 -20.840 -36.849  1.00  0.00     0.000 C 
BRANCH   5   6
ATOM      6  C   UNL     1       7.022 -19.524 -36.054  1.00  0.00     0.000 C 
BRANCH   6   7
ATOM      7  C   UNL     1       5.949 -18.537 -36.537  1.00  0.00     0.006 C 
BRANCH   7   8
ATOM      8  C   UNL     1       6.429 -17.079 -36.496  1.00  0.00     0.053 C 
BRANCH   8   9
ATOM      9  C   UNL     1       5.406 -16.212 -35.832  1.00  0.00     0.041 C 
ATOM     10  O   UNL     1       5.622 -15.742 -34.685  1.00  0.00    -0.550 OA
ATOM     11  O   UNL     1       4.191 -15.966 -36.460  1.00  0.00    -0.550 OA
ENDBRANCH   8   9
ENDBRANCH   7   8
ENDBRANCH   6   7
ENDBRANCH   5   6
ENDBRANCH   4   5
ENDBRANCH   3   4
ENDBRANCH   2   3
ENDBRANCH   1   2
BRANCH   1  12
ATOM     12  C   UNL     1      10.497 -24.058 -36.821  1.00  0.00     0.000 C 
BRANCH  12  13
ATOM     13  C   UNL     1       9.998 -23.527 -38.173  1.00  0.00    -0.000 C 
BRANCH  13  14
ATOM     14  C   UNL     1      10.683 -22.202 -38.531  1.00  0.00    -0.000 C 
BRANCH  14  15
ATOM     15  C   UNL     1      12.031 -22.067 -37.806  1.00  0.00    -0.000 C 
BRANCH  15  16
ATOM     16  C   UNL     1      12.221 -20.687 -37.159  1.00  0.00    -0.000 C 
BRANCH  16  17
ATOM     17  C   UNL     1      10.898 -19.919 -37.003  1.00  0.00    -0.000 C 
BRANCH  17  18
ATOM     18  C   UNL     1      10.942 -18.588 -37.761  1.00  0.00    -0.000 C 
BRANCH  18  19
ATOM     19  C   UNL     1       9.537 -18.153 -38.191  1.00  0.00    -0.003 C 
ATOM     20  C   UNL     1       9.058 -18.949 -39.400  1.00  0.00     0.004 C 
ENDBRANCH  18  19
ENDBRANCH  17  18
ENDBRANCH  16  17
ENDBRANCH  15  16
ENDBRANCH  14  15
ENDBRANCH  13  14
ENDBRANCH  12  13
ENDBRANCH   1  12
TORSDOF 16
ENDMDL
MODEL 5
REMARK VINA RESULT:    -3.542      4.570      7.550
REMARK INTER + INTRA:          -9.675
REMARK INTER:                  -7.848
REMARK INTRA:                  -1.827
REMARK UNBOUND:                -2.819
REMARK SMILES CCCCCCCCCCCCCCCCCC(=O)[O-]
REMARK SMILES IDX 10 1 11 2 12 3 13 4 14 5 15 6 16 7 17 8 18 9 19 10 20 11
REMARK SMILES IDX 9 12 8 13 7 14 6 15 5 16 4 17 3 18 2 19 1 20
REMARK H PARENT
REMARK Flexibility Score: inf
ROOT
ATOM      1  C   UNL     1       6.885 -21.211 -36.793  1.00  0.00     0.000 C 
ENDROOT
BRANCH   1   2
ATOM      2  C   UNL     1       7.540 -19.876 -36.401  1.00  0.00     0.000 C 
BRANCH   2   3
ATOM      3  C   UNL     1       6.663 -18.658 -36.735  1.00  0.00     0.000 C 
BRANCH   3   4
ATOM      4  C   UNL     1       7.322 -17.732 -37.780  1.00  0.00     0.000 C 
BRANCH   4   5
ATOM      5  C   UNL     1       6.779 -16.293 -37.753  1.00  0.00     0.000 C 
BRANCH   5   6
ATOM      6  C   UNL     1       6.557 -15.766 -36.326  1.00  0.00     0.000 C 
BRANCH   6   7
ATOM      7  C   UNL     1       5.167 -15.140 -36.137  1.00  0.00     0.006 C 
BRANCH   7   8
ATOM      8  C   UNL     1       4.288 -15.939 -35.164  1.00  0.00     0.053 C 
BRANCH   8   9
ATOM      9  C   UNL     1       5.009 -16.160 -33.872  1.00  0.00     0.041 C 
ATOM     10  O   UNL     1       5.465 -15.181 -33.225  1.00  0.00    -0.550 OA
ATOM     11  O   UNL     1       5.223 -17.451 -33.407  1.00  0.00    -0.550 OA
ENDBRANCH   8   9
ENDBRANCH   7   8
ENDBRANCH   6   7
ENDBRANCH   5   6
ENDBRANCH   4   5
ENDBRANCH   3   4
ENDBRANCH   2   3
ENDBRANCH   1   2
BRANCH   1  12
ATOM     12  C   UNL     1       7.417 -22.419 -35.993  1.00  0.00     0.000 C 
BRANCH  12  13
ATOM     13  C   UNL     1       8.337 -21.993 -34.839  1.00  0.00    -0.000 C 
BRANCH  13  14
ATOM     14  C   UNL     1       9.645 -22.795 -34.852  1.00  0.00    -0.000 C 
BRANCH  14  15
ATOM     15  C   UNL     1       9.716 -23.709 -36.084  1.00  0.00    -0.000 C 
BRANCH  15  16
ATOM     16  C   UNL     1      10.845 -23.316 -37.050  1.00  0.00    -0.000 C 
BRANCH  16  17
ATOM     17  C   UNL     1      10.641 -21.921 -37.663  1.00  0.00    -0.000 C 
BRANCH  17  18
ATOM     18  C   UNL     1      11.705 -20.939 -37.159  1.00  0.00    -0.000 C 
BRANCH  18  19
ATOM     19  C   UNL     1      11.110 -19.542 -36.952  1.00  0.00    -0.003 C 
ATOM     20  C   UNL     1      11.354 -18.652 -38.166  1.00  0.00     0.004 C 
ENDBRANCH  18  19
ENDBRANCH  17  18
ENDBRANCH  16  17
ENDBRANCH  15  16
ENDBRANCH  14  15
ENDBRANCH  13  14
ENDBRANCH  12  13
ENDBRANCH   1  12
TORSDOF 16
ENDMDL
MODEL 6
REMARK VINA RESULT:    -3.520      4.743      7.603
REMARK INTER + INTRA:          -9.631
REMARK INTER:                  -7.138
REMARK INTRA:                  -2.494
REMARK UNBOUND:                -2.819
REMARK SMILES CCCCCCCCCCCCCCCCCC(=O)[O-]
REMARK SMILES IDX 10 1 11 2 12 3 13 4 14 5 15 6 16 7 17 8 18 9 19 10 20 11
REMARK SMILES IDX 9 12 8 13 7 14 6 15 5 16 4 17 3 18 2 19 1 20
REMARK H PARENT
REMARK Flexibility Score: inf
ROOT
ATOM      1  C   UNL     1       7.472 -22.782 -37.539  1.00  0.00     0.000 C 
ENDROOT
BRANCH   1   2
ATOM      2  C   UNL     1       6.466 -22.037 -36.646  1.00  0.00     0.000 C 
BRANCH   2   3
ATOM      3  C   UNL     1       5.533 -21.107 -37.441  1.00  0.00     0.000 C 
BRANCH   3   4
ATOM      4  C   UNL     1       6.091 -19.672 -37.547  1.00  0.00     0.000 C 
BRANCH   4   5
ATOM      5  C   UNL     1       6.671 -19.140 -36.225  1.00  0.00     0.000 C 
BRANCH   5   6
ATOM      6  C   UNL     1       5.931 -17.896 -35.707  1.00  0.00     0.000 C 
BRANCH   6   7
ATOM      7  C   UNL     1       4.722 -17.521 -36.577  1.00  0.00     0.006 C 
BRANCH   7   8
ATOM      8  C   UNL     1       4.821 -16.097 -37.140  1.00  0.00     0.053 C 
BRANCH   8   9
ATOM      9  C   UNL     1       4.537 -15.091 -36.069  1.00  0.00     0.041 C 
ATOM     10  O   UNL     1       5.334 -14.137 -35.869  1.00  0.00    -0.550 OA
ATOM     11  O   UNL     1       3.419 -15.237 -35.257  1.00  0.00    -0.550 OA
ENDBRANCH   8   9
ENDBRANCH   7   8
ENDBRANCH   6   7
ENDBRANCH   5   6
ENDBRANCH   4   5
ENDBRANCH   3   4
ENDBRANCH   2   3
ENDBRANCH   1   2
BRANCH   1  12
ATOM     12  C   UNL     1       8.591 -23.494 -36.750  1.00  0.00     0.000 C 
BRANCH  12  13
ATOM     13  C   UNL     1       8.595 -23.101 -35.264  1.00  0.00    -0.000 C 
BRANCH  13  14
ATOM     14  C   UNL     1       9.843 -22.280 -34.916  1.00  0.00    -0.000 C 
BRANCH  14  15
ATOM     15  C   UNL     1       9.633 -20.795 -35.249  1.00  0.00    -0.000 C 
BRANCH  15  16
ATOM     16  C   UNL     1      10.605 -20.287 -36.325  1.00  0.00    -0.000 C 
BRANCH  16  17
ATOM     17  C   UNL     1       9.945 -20.157 -37.706  1.00  0.00    -0.000 C 
BRANCH  17  18
ATOM     18  C   UNL     1      10.730 -20.938 -38.767  1.00  0.00    -0.000 C 
BRANCH  18  19
ATOM     19  C   UNL     1      11.716 -21.913 -38.114  1.00  0.00    -0.003 C 
ATOM     20  C   UNL     1      11.681 -23.275 -38.800  1.00  0.00     0.004 C 
ENDBRANCH  18  19
ENDBRANCH  17  18
ENDBRANCH  16  17
ENDBRANCH  15  16
ENDBRANCH  14  15
ENDBRANCH  13  14
ENDBRANCH  12  13
ENDBRANCH   1  12
TORSDOF 16
ENDMDL
MODEL 7
REMARK VINA RESULT:    -3.486      1.365      1.927
REMARK INTER + INTRA:          -9.566
REMARK INTER:                  -7.190
REMARK INTRA:                  -2.376
REMARK UNBOUND:                -2.819
REMARK SMILES CCCCCCCCCCCCCCCCCC(=O)[O-]
REMARK SMILES IDX 10 1 11 2 12 3 13 4 14 5 15 6 16 7 17 8 18 9 19 10 20 11
REMARK SMILES IDX 9 12 8 13 7 14 6 15 5 16 4 17 3 18 2 19 1 20
REMARK H PARENT
REMARK Flexibility Score: inf
ROOT
ATOM      1  C   UNL     1      11.008 -22.870 -37.158  1.00  0.00     0.000 C 
ENDROOT
BRANCH   1   2
ATOM      2  C   UNL     1      10.163 -22.544 -38.400  1.00  0.00     0.000 C 
BRANCH   2   3
ATOM      3  C   UNL     1      10.041 -21.034 -38.664  1.00  0.00     0.000 C 
BRANCH   3   4
ATOM      4  C   UNL     1      10.894 -20.199 -37.684  1.00  0.00     0.000 C 
BRANCH   4   5
ATOM      5  C   UNL     1      12.023 -19.413 -38.371  1.00  0.00     0.000 C 
BRANCH   5   6
ATOM      6  C   UNL     1      12.753 -20.233 -39.447  1.00  0.00     0.000 C 
BRANCH   6   7
ATOM      7  C   UNL     1      14.258 -19.930 -39.501  1.00  0.00     0.006 C 
BRANCH   7   8
ATOM      8  C   UNL     1      15.117 -21.201 -39.437  1.00  0.00     0.053 C 
BRANCH   8   9
ATOM      9  C   UNL     1      14.733 -22.030 -38.252  1.00  0.00     0.041 C 
ATOM     10  O   UNL     1      14.903 -21.586 -37.086  1.00  0.00    -0.550 OA
ATOM     11  O   UNL     1      14.236 -23.314 -38.433  1.00  0.00    -0.550 OA
ENDBRANCH   8   9
ENDBRANCH   7   8
ENDBRANCH   6   7
ENDBRANCH   5   6
ENDBRANCH   4   5
ENDBRANCH   3   4
ENDBRANCH   2   3
ENDBRANCH   1   2
BRANCH   1  12
ATOM     12  C   UNL     1      10.498 -24.092 -36.365  1.00  0.00     0.000 C 
BRANCH  12  13
ATOM     13  C   UNL     1       9.419 -23.710 -35.339  1.00  0.00    -0.000 C 
BRANCH  13  14
ATOM     14  C   UNL     1       9.630 -22.281 -34.824  1.00  0.00    -0.000 C 
BRANCH  14  15
ATOM     15  C   UNL     1       8.413 -21.399 -35.138  1.00  0.00    -0.000 C 
BRANCH  15  16
ATOM     16  C   UNL     1       7.344 -22.135 -35.960  1.00  0.00    -0.000 C 
BRANCH  16  17
ATOM     17  C   UNL     1       6.605 -21.208 -36.938  1.00  0.00    -0.000 C 
BRANCH  17  18
ATOM     18  C   UNL     1       7.089 -19.760 -36.794  1.00  0.00    -0.000 C 
BRANCH  18  19
ATOM     19  C   UNL     1       5.905 -18.791 -36.698  1.00  0.00    -0.003 C 
ATOM     20  C   UNL     1       5.971 -17.964 -35.418  1.00  0.00     0.004 C 
ENDBRANCH  18  19
ENDBRANCH  17  18
ENDBRANCH  16  17
ENDBRANCH  15  16
ENDBRANCH  14  15
ENDBRANCH  13  14
ENDBRANCH  12  13
ENDBRANCH   1  12
TORSDOF 16
ENDMDL
MODEL 8
REMARK VINA RESULT:    -3.473      1.607      3.565
REMARK INTER + INTRA:          -9.540
REMARK INTER:                  -6.505
REMARK INTRA:                  -3.035
REMARK UNBOUND:                -2.819
REMARK SMILES CCCCCCCCCCCCCCCCCC(=O)[O-]
REMARK SMILES IDX 10 1 11 2 12 3 13 4 14 5 15 6 16 7 17 8 18 9 19 10 20 11
REMARK SMILES IDX 9 12 8 13 7 14 6 15 5 16 4 17 3 18 2 19 1 20
REMARK H PARENT
REMARK Flexibility Score: inf
ROOT
ATOM      1  C   UNL     1       8.704 -22.962 -36.512  1.00  0.00     0.000 C 
ENDROOT
BRANCH   1   2
ATOM      2  C   UNL     1       8.662 -22.182 -35.188  1.00  0.00     0.000 C 
BRANCH   2   3
ATOM      3  C   UNL     1       9.615 -20.975 -35.172  1.00  0.00     0.000 C 
BRANCH   3   4
ATOM      4  C   UNL     1      10.559 -20.960 -36.394  1.00  0.00     0.000 C 
BRANCH   4   5
ATOM      5  C   UNL     1      11.230 -19.597 -36.633  1.00  0.00     0.000 C 
BRANCH   5   6
ATOM      6  C   UNL     1      12.377 -19.668 -37.654  1.00  0.00     0.000 C 
BRANCH   6   7
ATOM      7  C   UNL     1      13.702 -20.125 -37.024  1.00  0.00     0.006 C 
BRANCH   7   8
ATOM      8  C   UNL     1      14.199 -21.458 -37.601  1.00  0.00     0.053 C 
BRANCH   8   9
ATOM      9  C   UNL     1      14.371 -21.353 -39.084  1.00  0.00     0.041 C 
ATOM     10  O   UNL     1      15.183 -20.523 -39.570  1.00  0.00    -0.550 OA
ATOM     11  O   UNL     1      13.596 -22.135 -39.931  1.00  0.00    -0.550 OA
ENDBRANCH   8   9
ENDBRANCH   7   8
ENDBRANCH   6   7
ENDBRANCH   5   6
ENDBRANCH   4   5
ENDBRANCH   3   4
ENDBRANCH   2   3
ENDBRANCH   1   2
BRANCH   1  12
ATOM     12  C   UNL     1       7.470 -22.726 -37.409  1.00  0.00     0.000 C 
BRANCH  12  13
ATOM     13  C   UNL     1       6.346 -21.984 -36.668  1.00  0.00    -0.000 C 
BRANCH  13  14
ATOM     14  C   UNL     1       5.976 -20.683 -37.391  1.00  0.00    -0.000 C 
BRANCH  14  15
ATOM     15  C   UNL     1       6.497 -19.460 -36.622  1.00  0.00    -0.000 C 
BRANCH  15  16
ATOM     16  C   UNL     1       7.636 -18.738 -37.359  1.00  0.00    -0.000 C 
BRANCH  16  17
ATOM     17  C   UNL     1       7.565 -18.920 -38.883  1.00  0.00    -0.000 C 
BRANCH  17  18
ATOM     18  C   UNL     1       8.909 -19.400 -39.443  1.00  0.00    -0.000 C 
BRANCH  18  19
ATOM     19  C   UNL     1       8.785 -20.805 -40.042  1.00  0.00    -0.003 C 
ATOM     20  C   UNL     1      10.117 -21.547 -39.987  1.00  0.00     0.004 C 
ENDBRANCH  18  19
ENDBRANCH  17  18
ENDBRANCH  16  17
ENDBRANCH  15  16
ENDBRANCH  14  15
ENDBRANCH  13  14
ENDBRANCH  12  13
ENDBRANCH   1  12
TORSDOF 16
ENDMDL
MODEL 9
REMARK VINA RESULT:    -3.463      1.327      1.873
REMARK INTER + INTRA:          -9.521
REMARK INTER:                  -6.417
REMARK INTRA:                  -3.104
REMARK UNBOUND:                -2.819
REMARK SMILES CCCCCCCCCCCCCCCCCC(=O)[O-]
REMARK SMILES IDX 10 1 11 2 12 3 13 4 14 5 15 6 16 7 17 8 18 9 19 10 20 11
REMARK SMILES IDX 9 12 8 13 7 14 6 15 5 16 4 17 3 18 2 19 1 20
REMARK H PARENT
REMARK Flexibility Score: inf
ROOT
ATOM      1  C   UNL     1       9.115 -21.298 -39.403  1.00  0.00     0.000 C 
ENDROOT
BRANCH   1   2
ATOM      2  C   UNL     1       9.862 -19.962 -39.550  1.00  0.00     0.000 C 
BRANCH   2   3
ATOM      3  C   UNL     1       9.875 -19.136 -38.252  1.00  0.00     0.000 C 
BRANCH   3   4
ATOM      4  C   UNL     1      11.305 -18.733 -37.831  1.00  0.00     0.000 C 
BRANCH   4   5
ATOM      5  C   UNL     1      11.902 -19.642 -36.744  1.00  0.00     0.000 C 
BRANCH   5   6
ATOM      6  C   UNL     1      13.267 -20.228 -37.140  1.00  0.00     0.000 C 
BRANCH   6   7
ATOM      7  C   UNL     1      13.528 -20.151 -38.652  1.00  0.00     0.006 C 
BRANCH   7   8
ATOM      8  C   UNL     1      13.507 -21.531 -39.324  1.00  0.00     0.053 C 
BRANCH   8   9
ATOM      9  C   UNL     1      14.890 -22.101 -39.388  1.00  0.00     0.041 C 
ATOM     10  O   UNL     1      15.062 -23.314 -39.674  1.00  0.00    -0.550 OA
ATOM     11  O   UNL     1      15.985 -21.303 -39.082  1.00  0.00    -0.550 OA
ENDBRANCH   8   9
ENDBRANCH   7   8
ENDBRANCH   6   7
ENDBRANCH   5   6
ENDBRANCH   4   5
ENDBRANCH   3   4
ENDBRANCH   2   3
ENDBRANCH   1   2
BRANCH   1  12
ATOM     12  C   UNL     1      10.033 -22.534 -39.502  1.00  0.00     0.000 C 
BRANCH  12  13
ATOM     13  C   UNL     1       9.845 -23.495 -38.317  1.00  0.00    -0.000 C 
BRANCH  13  14
ATOM     14  C   UNL     1      10.677 -23.048 -37.109  1.00  0.00    -0.000 C 
BRANCH  14  15
ATOM     15  C   UNL     1       9.958 -23.382 -35.793  1.00  0.00    -0.000 C 
BRANCH  15  16
ATOM     16  C   UNL     1       9.697 -22.139 -34.928  1.00  0.00    -0.000 C 
BRANCH  16  17
ATOM     17  C   UNL     1       8.552 -21.269 -35.472  1.00  0.00    -0.000 C 
BRANCH  17  18
ATOM     18  C   UNL     1       7.395 -22.138 -35.977  1.00  0.00    -0.000 C 
BRANCH  18  19
ATOM     19  C   UNL     1       6.422 -21.317 -36.831  1.00  0.00    -0.003 C 
ATOM     20  C   UNL     1       6.627 -19.821 -36.614  1.00  0.00     0.004 C 
ENDBRANCH  18  19
ENDBRANCH  17  18
ENDBRANCH  16  17
ENDBRANCH  15  16
ENDBRANCH  14  15
ENDBRANCH  13  14
ENDBRANCH  12  13
ENDBRANCH   1  12
TORSDOF 16
ENDMDL
