MODEL 1
REMARK VINA RESULT:    -7.150      0.000      0.000
REMARK INTER + INTRA:         -11.919
REMARK INTER:                 -10.495
REMARK INTRA:                  -1.424
REMARK UNBOUND:                -1.424
REMARK SMILES O=c1c(O[C@@H]2O[C@H](CO)[C@@H](O)[C@@H](O)[C@@H]2O)c(-c2ccc(O)c(O)c2)oc2cc(O)cc(O)c12
REMARK SMILES IDX 4 1 3 2 16 3 25 4 2 5 26 6 1 7 33 8 27 9 31 10 28 11 30 12
REMARK SMILES IDX 17 13 18 14 19 15 20 16 24 17 22 18 21 19 23 21 32 23 29 25
REMARK SMILES IDX 5 27 14 28 6 29 12 30 7 31 10 32 15 33 13 35 8 37 9 38 11 40
REMARK H PARENT 21 20 23 22 32 24 29 26 15 34 13 36 9 39 11 41
REMARK Flexibility Score: inf
ROOT
ATOM      1  O   UNL     1     129.625 125.904 124.273  1.00  0.00    -0.454 OA
ENDROOT
BRANCH   1   2
ATOM      2  C   UNL     1     129.331 125.195 125.454  1.00  0.00     0.214 A 
ATOM      3  C   UNL     1     128.423 125.764 126.370  1.00  0.00     0.180 A 
ATOM      4  O   UNL     1     128.089 125.106 127.476  1.00  0.00    -0.452 OA
ATOM      5  C   UNL     1     129.887 123.934 125.758  1.00  0.00     0.239 A 
ATOM      6  C   UNL     1     128.584 123.919 127.796  1.00  0.00     0.146 A 
ATOM      7  O   UNL     1     130.721 123.405 124.977  1.00  0.00    -0.285 OA
ATOM      8  C   UNL     1     129.514 123.275 126.948  1.00  0.00     0.111 A 
ATOM      9  C   UNL     1     128.174 123.310 128.986  1.00  0.00     0.094 A 
ATOM     10  C   UNL     1     130.024 122.007 127.324  1.00  0.00     0.134 A 
ATOM     11  C   UNL     1     128.681 122.059 129.351  1.00  0.00     0.123 A 
ATOM     12  C   UNL     1     129.602 121.414 128.523  1.00  0.00     0.093 A 
BRANCH   3  13
ATOM     13  C   UNL     1     127.775 127.070 126.120  1.00  0.00     0.025 A 
ATOM     14  C   UNL     1     126.733 127.203 125.188  1.00  0.00     0.016 A 
ATOM     15  C   UNL     1     126.135 128.446 124.968  1.00  0.00     0.051 A 
ATOM     16  C   UNL     1     126.578 129.576 125.662  1.00  0.00     0.157 A 
ATOM     17  C   UNL     1     128.235 128.210 126.798  1.00  0.00     0.062 A 
ATOM     18  C   UNL     1     127.637 129.460 126.578  1.00  0.00     0.158 A 
BRANCH  16  19
ATOM     19  O   UNL     1     125.961 130.804 125.423  1.00  0.00    -0.504 OA
ATOM     20  H   UNL     1     124.966 130.941 125.559  1.00  0.00     0.293 HD
ENDBRANCH  16  19
BRANCH  18  21
ATOM     21  O   UNL     1     128.090 130.584 127.267  1.00  0.00    -0.504 OA
ATOM     22  H   UNL     1     128.127 131.497 126.828  1.00  0.00     0.293 HD
ENDBRANCH  18  21
ENDBRANCH   3  13
BRANCH  10  23
ATOM     23  O   UNL     1     130.944 121.334 126.519  1.00  0.00    -0.507 OA
ATOM     24  H   UNL     1     130.826 121.266 125.515  1.00  0.00     0.293 HD
ENDBRANCH  10  23
BRANCH  11  25
ATOM     25  O   UNL     1     128.277 121.448 130.536  1.00  0.00    -0.508 OA
ATOM     26  H   UNL     1     128.911 121.341 131.320  1.00  0.00     0.293 HD
ENDBRANCH  11  25
ENDBRANCH   1   2
BRANCH   1  27
ATOM     27  C   UNL     1     130.547 126.990 124.145  1.00  0.00     0.339 C 
ATOM     28  C   UNL     1     131.802 126.535 123.385  1.00  0.00     0.214 C 
ATOM     29  O   UNL     1     129.940 128.137 123.560  1.00  0.00    -0.332 OA
ATOM     30  C   UNL     1     131.463 126.275 121.912  1.00  0.00     0.180 C 
ATOM     31  C   UNL     1     129.615 127.999 122.179  1.00  0.00     0.179 C 
ATOM     32  C   UNL     1     130.806 127.528 121.312  1.00  0.00     0.177 C 
BRANCH  28  33
ATOM     33  O   UNL     1     132.303 125.365 123.982  1.00  0.00    -0.384 OA
ATOM     34  H   UNL     1     132.747 124.840 123.265  1.00  0.00     0.211 HD
ENDBRANCH  28  33
BRANCH  30  35
ATOM     35  O   UNL     1     132.627 125.965 121.189  1.00  0.00    -0.387 OA
ATOM     36  H   UNL     1     132.841 126.757 120.630  1.00  0.00     0.211 HD
ENDBRANCH  30  35
BRANCH  31  37
ATOM     37  C   UNL     1     128.332 127.182 121.945  1.00  0.00     0.191 C 
BRANCH  37  38
ATOM     38  O   UNL     1     127.271 128.040 121.628  1.00  0.00    -0.394 OA
ATOM     39  H   UNL     1     126.828 127.648 120.831  1.00  0.00     0.210 HD
ENDBRANCH  37  38
ENDBRANCH  31  37
BRANCH  32  40
ATOM     40  O   UNL     1     131.744 128.573 121.229  1.00  0.00    -0.387 OA
ATOM     41  H   UNL     1     132.290 128.413 120.416  1.00  0.00     0.211 HD
ENDBRANCH  32  40
ENDBRANCH   1  27
TORSDOF 12
ENDMDL
MODEL 2
REMARK VINA RESULT:    -6.999      1.608      6.270
REMARK INTER + INTRA:         -11.696
REMARK INTER:                 -10.487
REMARK INTRA:                  -1.209
REMARK UNBOUND:                -1.424
REMARK SMILES O=c1c(O[C@@H]2O[C@H](CO)[C@@H](O)[C@@H](O)[C@@H]2O)c(-c2ccc(O)c(O)c2)oc2cc(O)cc(O)c12
REMARK SMILES IDX 4 1 3 2 16 3 25 4 2 5 26 6 1 7 33 8 27 9 31 10 28 11 30 12
REMARK SMILES IDX 17 13 18 14 19 15 20 16 24 17 22 18 21 19 23 21 32 23 29 25
REMARK SMILES IDX 5 27 14 28 6 29 12 30 7 31 10 32 15 33 13 35 8 37 9 38 11 40
REMARK H PARENT 21 20 23 22 32 24 29 26 15 34 13 36 9 39 11 41
REMARK Flexibility Score: inf
ROOT
ATOM      1  O   UNL     1     129.267 125.235 126.567  1.00  0.00    -0.454 OA
ENDROOT
BRANCH   1   2
ATOM      2  C   UNL     1     129.566 125.690 125.268  1.00  0.00     0.214 A 
ATOM      3  C   UNL     1     129.049 126.935 124.857  1.00  0.00     0.180 A 
ATOM      4  O   UNL     1     129.343 127.416 123.653  1.00  0.00    -0.452 OA
ATOM      5  C   UNL     1     130.371 124.967 124.361  1.00  0.00     0.239 A 
ATOM      6  C   UNL     1     130.100 126.772 122.775  1.00  0.00     0.146 A 
ATOM      7  O   UNL     1     130.830 123.839 124.682  1.00  0.00    -0.285 OA
ATOM      8  C   UNL     1     130.650 125.509 123.089  1.00  0.00     0.111 A 
ATOM      9  C   UNL     1     130.347 127.360 121.531  1.00  0.00     0.094 A 
ATOM     10  C   UNL     1     131.451 124.848 122.125  1.00  0.00     0.134 A 
ATOM     11  C   UNL     1     131.138 126.704 120.583  1.00  0.00     0.123 A 
ATOM     12  C   UNL     1     131.685 125.454 120.882  1.00  0.00     0.093 A 
BRANCH   3  13
ATOM     13  C   UNL     1     128.217 127.769 125.751  1.00  0.00     0.025 A 
ATOM     14  C   UNL     1     126.845 127.521 125.916  1.00  0.00     0.016 A 
ATOM     15  C   UNL     1     126.078 128.322 126.765  1.00  0.00     0.051 A 
ATOM     16  C   UNL     1     126.665 129.391 127.450  1.00  0.00     0.157 A 
ATOM     17  C   UNL     1     128.800 128.858 126.420  1.00  0.00     0.062 A 
ATOM     18  C   UNL     1     128.032 129.664 127.273  1.00  0.00     0.158 A 
BRANCH  16  19
ATOM     19  O   UNL     1     125.875 130.172 128.293  1.00  0.00    -0.504 OA
ATOM     20  H   UNL     1     125.097 129.784 128.813  1.00  0.00     0.293 HD
ENDBRANCH  16  19
BRANCH  18  21
ATOM     21  O   UNL     1     128.622 130.734 127.945  1.00  0.00    -0.504 OA
ATOM     22  H   UNL     1     128.090 131.555 128.209  1.00  0.00     0.293 HD
ENDBRANCH  18  21
ENDBRANCH   3  13
BRANCH  10  23
ATOM     23  O   UNL     1     132.015 123.599 122.390  1.00  0.00    -0.507 OA
ATOM     24  H   UNL     1     132.989 123.497 122.645  1.00  0.00     0.293 HD
ENDBRANCH  10  23
BRANCH  11  25
ATOM     25  O   UNL     1     131.387 127.284 119.341  1.00  0.00    -0.508 OA
ATOM     26  H   UNL     1     131.681 128.250 119.258  1.00  0.00     0.293 HD
ENDBRANCH  11  25
ENDBRANCH   1   2
BRANCH   1  27
ATOM     27  C   UNL     1     130.182 125.143 127.663  1.00  0.00     0.339 C 
ATOM     28  C   UNL     1     129.449 125.400 128.989  1.00  0.00     0.214 C 
ATOM     29  O   UNL     1     130.893 123.910 127.662  1.00  0.00    -0.332 OA
ATOM     30  C   UNL     1     128.507 124.232 129.306  1.00  0.00     0.180 C 
ATOM     31  C   UNL     1     130.102 122.767 127.977  1.00  0.00     0.179 C 
ATOM     32  C   UNL     1     129.302 122.918 129.292  1.00  0.00     0.177 C 
BRANCH  28  33
ATOM     33  O   UNL     1     128.721 126.598 128.888  1.00  0.00    -0.384 OA
ATOM     34  H   UNL     1     128.708 127.008 129.793  1.00  0.00     0.211 HD
ENDBRANCH  28  33
BRANCH  30  35
ATOM     35  O   UNL     1     127.918 124.409 130.570  1.00  0.00    -0.387 OA
ATOM     36  H   UNL     1     128.004 125.371 130.798  1.00  0.00     0.211 HD
ENDBRANCH  30  35
BRANCH  31  37
ATOM     37  C   UNL     1     129.242 122.289 126.794  1.00  0.00     0.191 C 
BRANCH  37  38
ATOM     38  O   UNL     1     129.896 121.254 126.114  1.00  0.00    -0.394 OA
ATOM     39  H   UNL     1     129.818 121.465 125.148  1.00  0.00     0.210 HD
ENDBRANCH  37  38
ENDBRANCH  31  37
BRANCH  32  40
ATOM     40  O   UNL     1     130.203 122.886 130.373  1.00  0.00    -0.387 OA
ATOM     41  H   UNL     1     129.980 122.085 130.915  1.00  0.00     0.211 HD
ENDBRANCH  32  40
ENDBRANCH   1  27
TORSDOF 12
ENDMDL
MODEL 3
REMARK VINA RESULT:    -6.927      2.747      4.386
REMARK INTER + INTRA:         -11.591
REMARK INTER:                 -10.252
REMARK INTRA:                  -1.339
REMARK UNBOUND:                -1.424
REMARK SMILES O=c1c(O[C@@H]2O[C@H](CO)[C@@H](O)[C@@H](O)[C@@H]2O)c(-c2ccc(O)c(O)c2)oc2cc(O)cc(O)c12
REMARK SMILES IDX 4 1 3 2 16 3 25 4 2 5 26 6 1 7 33 8 27 9 31 10 28 11 30 12
REMARK SMILES IDX 17 13 18 14 19 15 20 16 24 17 22 18 21 19 23 21 32 23 29 25
REMARK SMILES IDX 5 27 14 28 6 29 12 30 7 31 10 32 15 33 13 35 8 37 9 38 11 40
REMARK H PARENT 21 20 23 22 32 24 29 26 15 34 13 36 9 39 11 41
REMARK Flexibility Score: inf
ROOT
ATOM      1  O   UNL     1     131.979 127.287 125.140  1.00  0.00    -0.454 OA
ENDROOT
BRANCH   1   2
ATOM      2  C   UNL     1     131.337 126.131 125.625  1.00  0.00     0.214 A 
ATOM      3  C   UNL     1     130.431 125.461 124.778  1.00  0.00     0.180 A 
ATOM      4  O   UNL     1     129.837 124.343 125.185  1.00  0.00    -0.452 OA
ATOM      5  C   UNL     1     131.569 125.599 126.912  1.00  0.00     0.239 A 
ATOM      6  C   UNL     1     130.032 123.808 126.382  1.00  0.00     0.146 A 
ATOM      7  O   UNL     1     132.351 126.184 127.706  1.00  0.00    -0.285 OA
ATOM      8  C   UNL     1     130.909 124.417 127.308  1.00  0.00     0.111 A 
ATOM      9  C   UNL     1     129.355 122.632 126.719  1.00  0.00     0.094 A 
ATOM     10  C   UNL     1     131.090 123.819 128.580  1.00  0.00     0.134 A 
ATOM     11  C   UNL     1     129.537 122.047 127.976  1.00  0.00     0.123 A 
ATOM     12  C   UNL     1     130.401 122.640 128.899  1.00  0.00     0.093 A 
BRANCH   3  13
ATOM     13  C   UNL     1     130.148 125.934 123.405  1.00  0.00     0.025 A 
ATOM     14  C   UNL     1     130.948 125.549 122.318  1.00  0.00     0.016 A 
ATOM     15  C   UNL     1     130.661 126.008 121.030  1.00  0.00     0.051 A 
ATOM     16  C   UNL     1     129.582 126.870 120.811  1.00  0.00     0.157 A 
ATOM     17  C   UNL     1     129.079 126.819 123.187  1.00  0.00     0.062 A 
ATOM     18  C   UNL     1     128.789 127.282 121.895  1.00  0.00     0.158 A 
BRANCH  16  19
ATOM     19  O   UNL     1     129.318 127.310 119.515  1.00  0.00    -0.504 OA
ATOM     20  H   UNL     1     129.058 126.672 118.772  1.00  0.00     0.293 HD
ENDBRANCH  16  19
BRANCH  18  21
ATOM     21  O   UNL     1     127.717 128.149 121.686  1.00  0.00    -0.504 OA
ATOM     22  H   UNL     1     127.636 128.699 120.839  1.00  0.00     0.293 HD
ENDBRANCH  18  21
ENDBRANCH   3  13
BRANCH  10  23
ATOM     23  O   UNL     1     131.946 124.384 129.526  1.00  0.00    -0.507 OA
ATOM     24  H   UNL     1     131.594 124.853 130.352  1.00  0.00     0.293 HD
ENDBRANCH  10  23
BRANCH  11  25
ATOM     25  O   UNL     1     128.865 120.875 128.317  1.00  0.00    -0.508 OA
ATOM     26  H   UNL     1     127.853 120.841 128.368  1.00  0.00     0.293 HD
ENDBRANCH  11  25
ENDBRANCH   1   2
BRANCH   1  27
ATOM     27  C   UNL     1     131.474 128.624 125.202  1.00  0.00     0.339 C 
ATOM     28  C   UNL     1     132.333 129.474 126.151  1.00  0.00     0.214 C 
ATOM     29  O   UNL     1     131.350 129.207 123.909  1.00  0.00    -0.332 OA
ATOM     30  C   UNL     1     133.716 129.720 125.533  1.00  0.00     0.180 C 
ATOM     31  C   UNL     1     132.588 129.499 123.267  1.00  0.00     0.179 C 
ATOM     32  C   UNL     1     133.547 130.343 124.139  1.00  0.00     0.177 C 
BRANCH  28  33
ATOM     33  O   UNL     1     132.463 128.804 127.379  1.00  0.00    -0.384 OA
ATOM     34  H   UNL     1     131.863 129.261 128.025  1.00  0.00     0.211 HD
ENDBRANCH  28  33
BRANCH  30  35
ATOM     35  O   UNL     1     134.467 130.586 126.345  1.00  0.00    -0.387 OA
ATOM     36  H   UNL     1     134.579 131.433 125.840  1.00  0.00     0.211 HD
ENDBRANCH  30  35
BRANCH  31  37
ATOM     37  C   UNL     1     133.256 128.254 122.658  1.00  0.00     0.191 C 
BRANCH  37  38
ATOM     38  O   UNL     1     134.649 128.377 122.725  1.00  0.00    -0.394 OA
ATOM     39  H   UNL     1     134.983 128.243 121.800  1.00  0.00     0.210 HD
ENDBRANCH  37  38
ENDBRANCH  31  37
BRANCH  32  40
ATOM     40  O   UNL     1     133.027 131.645 124.250  1.00  0.00    -0.387 OA
ATOM     41  H   UNL     1     133.119 132.074 123.361  1.00  0.00     0.211 HD
ENDBRANCH  32  40
ENDBRANCH   1  27
TORSDOF 12
ENDMDL
MODEL 4
REMARK VINA RESULT:    -6.818      4.843      7.967
REMARK INTER + INTRA:         -11.431
REMARK INTER:                  -9.997
REMARK INTRA:                  -1.434
REMARK UNBOUND:                -1.424
REMARK SMILES O=c1c(O[C@@H]2O[C@H](CO)[C@@H](O)[C@@H](O)[C@@H]2O)c(-c2ccc(O)c(O)c2)oc2cc(O)cc(O)c12
REMARK SMILES IDX 4 1 3 2 16 3 25 4 2 5 26 6 1 7 33 8 27 9 31 10 28 11 30 12
REMARK SMILES IDX 17 13 18 14 19 15 20 16 24 17 22 18 21 19 23 21 32 23 29 25
REMARK SMILES IDX 5 27 14 28 6 29 12 30 7 31 10 32 15 33 13 35 8 37 9 38 11 40
REMARK H PARENT 21 20 23 22 32 24 29 26 15 34 13 36 9 39 11 41
REMARK Flexibility Score: inf
ROOT
ATOM      1  O   UNL     1     131.203 122.940 129.965  1.00  0.00    -0.454 OA
ENDROOT
BRANCH   1   2
ATOM      2  C   UNL     1     132.199 122.877 130.959  1.00  0.00     0.214 A 
ATOM      3  C   UNL     1     131.801 122.878 132.311  1.00  0.00     0.180 A 
ATOM      4  O   UNL     1     132.710 122.779 133.276  1.00  0.00    -0.452 OA
ATOM      5  C   UNL     1     133.578 122.795 130.667  1.00  0.00     0.239 A 
ATOM      6  C   UNL     1     134.013 122.694 133.044  1.00  0.00     0.146 A 
ATOM      7  O   UNL     1     133.974 122.816 129.472  1.00  0.00    -0.285 OA
ATOM      8  C   UNL     1     134.510 122.701 131.722  1.00  0.00     0.111 A 
ATOM      9  C   UNL     1     134.890 122.598 134.128  1.00  0.00     0.094 A 
ATOM     10  C   UNL     1     135.909 122.612 131.512  1.00  0.00     0.134 A 
ATOM     11  C   UNL     1     136.270 122.511 133.916  1.00  0.00     0.123 A 
ATOM     12  C   UNL     1     136.773 122.519 132.613  1.00  0.00     0.093 A 
BRANCH   3  13
ATOM     13  C   UNL     1     130.377 122.937 132.706  1.00  0.00     0.025 A 
ATOM     14  C   UNL     1     129.554 121.801 132.650  1.00  0.00     0.016 A 
ATOM     15  C   UNL     1     128.212 121.879 133.029  1.00  0.00     0.051 A 
ATOM     16  C   UNL     1     127.667 123.095 133.453  1.00  0.00     0.157 A 
ATOM     17  C   UNL     1     129.822 124.162 133.110  1.00  0.00     0.062 A 
ATOM     18  C   UNL     1     128.474 124.244 133.490  1.00  0.00     0.158 A 
BRANCH  16  19
ATOM     19  O   UNL     1     126.324 123.143 133.827  1.00  0.00    -0.504 OA
ATOM     20  H   UNL     1     125.583 123.290 133.153  1.00  0.00     0.293 HD
ENDBRANCH  16  19
BRANCH  18  21
ATOM     21  O   UNL     1     127.936 125.462 133.903  1.00  0.00    -0.504 OA
ATOM     22  H   UNL     1     128.326 125.978 134.684  1.00  0.00     0.293 HD
ENDBRANCH  18  21
ENDBRANCH   3  13
BRANCH  10  23
ATOM     23  O   UNL     1     136.446 122.616 130.224  1.00  0.00    -0.507 OA
ATOM     24  H   UNL     1     135.887 122.852 129.413  1.00  0.00     0.293 HD
ENDBRANCH  10  23
BRANCH  11  25
ATOM     25  O   UNL     1     137.149 122.416 134.992  1.00  0.00    -0.508 OA
ATOM     26  H   UNL     1     137.115 121.635 135.637  1.00  0.00     0.293 HD
ENDBRANCH  11  25
ENDBRANCH   1   2
BRANCH   1  27
ATOM     27  C   UNL     1     130.584 124.127 129.461  1.00  0.00     0.339 C 
ATOM     28  C   UNL     1     130.969 124.342 127.989  1.00  0.00     0.214 C 
ATOM     29  O   UNL     1     129.175 124.120 129.662  1.00  0.00    -0.332 OA
ATOM     30  C   UNL     1     130.302 123.277 127.108  1.00  0.00     0.180 C 
ATOM     31  C   UNL     1     128.465 123.180 128.861  1.00  0.00     0.179 C 
ATOM     32  C   UNL     1     128.785 123.292 127.352  1.00  0.00     0.177 C 
BRANCH  28  33
ATOM     33  O   UNL     1     132.367 124.270 127.863  1.00  0.00    -0.384 OA
ATOM     34  H   UNL     1     132.693 123.665 128.579  1.00  0.00     0.211 HD
ENDBRANCH  28  33
BRANCH  30  35
ATOM     35  O   UNL     1     130.560 123.533 125.751  1.00  0.00    -0.387 OA
ATOM     36  H   UNL     1     130.137 122.801 125.232  1.00  0.00     0.211 HD
ENDBRANCH  30  35
BRANCH  31  37
ATOM     37  C   UNL     1     128.563 121.741 129.398  1.00  0.00     0.191 C 
BRANCH  37  38
ATOM     38  O   UNL     1     127.283 121.247 129.680  1.00  0.00    -0.394 OA
ATOM     39  H   UNL     1     127.159 121.344 130.659  1.00  0.00     0.210 HD
ENDBRANCH  37  38
ENDBRANCH  31  37
BRANCH  32  40
ATOM     40  O   UNL     1     128.228 124.487 126.861  1.00  0.00    -0.387 OA
ATOM     41  H   UNL     1     128.642 125.233 127.368  1.00  0.00     0.211 HD
ENDBRANCH  32  40
ENDBRANCH   1  27
TORSDOF 12
ENDMDL
MODEL 5
REMARK VINA RESULT:    -6.634      4.999      7.289
REMARK INTER + INTRA:         -11.160
REMARK INTER:                  -9.705
REMARK INTRA:                  -1.456
REMARK UNBOUND:                -1.424
REMARK SMILES O=c1c(O[C@@H]2O[C@H](CO)[C@@H](O)[C@@H](O)[C@@H]2O)c(-c2ccc(O)c(O)c2)oc2cc(O)cc(O)c12
REMARK SMILES IDX 4 1 3 2 16 3 25 4 2 5 26 6 1 7 33 8 27 9 31 10 28 11 30 12
REMARK SMILES IDX 17 13 18 14 19 15 20 16 24 17 22 18 21 19 23 21 32 23 29 25
REMARK SMILES IDX 5 27 14 28 6 29 12 30 7 31 10 32 15 33 13 35 8 37 9 38 11 40
REMARK H PARENT 21 20 23 22 32 24 29 26 15 34 13 36 9 39 11 41
REMARK Flexibility Score: inf
ROOT
ATOM      1  O   UNL     1     134.188 129.771 124.257  1.00  0.00    -0.454 OA
ENDROOT
BRANCH   1   2
ATOM      2  C   UNL     1     132.932 129.301 123.825  1.00  0.00     0.214 A 
ATOM      3  C   UNL     1     131.813 129.521 124.652  1.00  0.00     0.180 A 
ATOM      4  O   UNL     1     130.605 129.128 124.260  1.00  0.00    -0.452 OA
ATOM      5  C   UNL     1     132.737 128.634 122.596  1.00  0.00     0.239 A 
ATOM      6  C   UNL     1     130.377 128.504 123.113  1.00  0.00     0.146 A 
ATOM      7  O   UNL     1     133.716 128.397 121.842  1.00  0.00    -0.285 OA
ATOM      8  C   UNL     1     131.439 128.224 122.223  1.00  0.00     0.111 A 
ATOM      9  C   UNL     1     129.070 128.126 122.793  1.00  0.00     0.094 A 
ATOM     10  C   UNL     1     131.160 127.554 121.007  1.00  0.00     0.134 A 
ATOM     11  C   UNL     1     128.800 127.464 121.591  1.00  0.00     0.123 A 
ATOM     12  C   UNL     1     129.842 127.180 120.705  1.00  0.00     0.093 A 
BRANCH   3  13
ATOM     13  C   UNL     1     131.923 130.232 125.945  1.00  0.00     0.025 A 
ATOM     14  C   UNL     1     132.036 129.534 127.157  1.00  0.00     0.016 A 
ATOM     15  C   UNL     1     132.139 130.226 128.366  1.00  0.00     0.051 A 
ATOM     16  C   UNL     1     132.115 131.624 128.384  1.00  0.00     0.157 A 
ATOM     17  C   UNL     1     131.875 131.635 125.967  1.00  0.00     0.062 A 
ATOM     18  C   UNL     1     131.978 132.333 127.179  1.00  0.00     0.158 A 
BRANCH  16  19
ATOM     19  O   UNL     1     132.222 132.289 129.605  1.00  0.00    -0.504 OA
ATOM     20  H   UNL     1     132.601 133.226 129.677  1.00  0.00     0.293 HD
ENDBRANCH  16  19
BRANCH  18  21
ATOM     21  O   UNL     1     131.944 133.727 127.190  1.00  0.00    -0.504 OA
ATOM     22  H   UNL     1     132.054 134.268 126.340  1.00  0.00     0.293 HD
ENDBRANCH  18  21
ENDBRANCH   3  13
BRANCH  10  23
ATOM     23  O   UNL     1     132.176 127.255 120.098  1.00  0.00    -0.507 OA
ATOM     24  H   UNL     1     132.003 126.703 119.267  1.00  0.00     0.293 HD
ENDBRANCH  10  23
BRANCH  11  25
ATOM     25  O   UNL     1     127.499 127.084 121.267  1.00  0.00    -0.508 OA
ATOM     26  H   UNL     1     126.903 127.670 120.695  1.00  0.00     0.293 HD
ENDBRANCH  11  25
ENDBRANCH   1   2
BRANCH   1  27
ATOM     27  C   UNL     1     135.116 129.067 125.087  1.00  0.00     0.339 C 
ATOM     28  C   UNL     1     136.418 128.797 124.317  1.00  0.00     0.214 C 
ATOM     29  O   UNL     1     135.341 129.737 126.322  1.00  0.00    -0.332 OA
ATOM     30  C   UNL     1     137.179 130.110 124.090  1.00  0.00     0.180 C 
ATOM     31  C   UNL     1     136.069 130.957 126.213  1.00  0.00     0.179 C 
ATOM     32  C   UNL     1     137.400 130.810 125.439  1.00  0.00     0.177 C 
BRANCH  28  33
ATOM     33  O   UNL     1     136.110 128.196 123.085  1.00  0.00    -0.384 OA
ATOM     34  H   UNL     1     136.496 127.281 123.102  1.00  0.00     0.211 HD
ENDBRANCH  28  33
BRANCH  30  35
ATOM     35  O   UNL     1     138.422 129.856 123.485  1.00  0.00    -0.387 OA
ATOM     36  H   UNL     1     139.104 130.360 124.001  1.00  0.00     0.211 HD
ENDBRANCH  30  35
BRANCH  31  37
ATOM     37  C   UNL     1     135.204 132.129 125.718  1.00  0.00     0.191 C 
BRANCH  37  38
ATOM     38  O   UNL     1     136.016 133.232 125.424  1.00  0.00    -0.394 OA
ATOM     39  H   UNL     1     135.413 134.019 125.397  1.00  0.00     0.210 HD
ENDBRANCH  37  38
ENDBRANCH  31  37
BRANCH  32  40
ATOM     40  O   UNL     1     138.300 130.068 126.227  1.00  0.00    -0.387 OA
ATOM     41  H   UNL     1     139.133 129.961 125.698  1.00  0.00     0.211 HD
ENDBRANCH  32  40
ENDBRANCH   1  27
TORSDOF 12
ENDMDL
MODEL 6
REMARK VINA RESULT:    -6.562      7.372      9.991
REMARK INTER + INTRA:         -11.056
REMARK INTER:                  -9.628
REMARK INTRA:                  -1.427
REMARK UNBOUND:                -1.424
REMARK SMILES O=c1c(O[C@@H]2O[C@H](CO)[C@@H](O)[C@@H](O)[C@@H]2O)c(-c2ccc(O)c(O)c2)oc2cc(O)cc(O)c12
REMARK SMILES IDX 4 1 3 2 16 3 25 4 2 5 26 6 1 7 33 8 27 9 31 10 28 11 30 12
REMARK SMILES IDX 17 13 18 14 19 15 20 16 24 17 22 18 21 19 23 21 32 23 29 25
REMARK SMILES IDX 5 27 14 28 6 29 12 30 7 31 10 32 15 33 13 35 8 37 9 38 11 40
REMARK H PARENT 21 20 23 22 32 24 29 26 15 34 13 36 9 39 11 41
REMARK Flexibility Score: inf
ROOT
ATOM      1  O   UNL     1     134.717 133.845 127.504  1.00  0.00    -0.454 OA
ENDROOT
BRANCH   1   2
ATOM      2  C   UNL     1     134.330 132.715 126.756  1.00  0.00     0.214 A 
ATOM      3  C   UNL     1     133.001 132.260 126.866  1.00  0.00     0.180 A 
ATOM      4  O   UNL     1     132.588 131.222 126.145  1.00  0.00    -0.452 OA
ATOM      5  C   UNL     1     135.204 132.026 125.887  1.00  0.00     0.239 A 
ATOM      6  C   UNL     1     133.375 130.552 125.315  1.00  0.00     0.146 A 
ATOM      7  O   UNL     1     136.406 132.388 125.781  1.00  0.00    -0.285 OA
ATOM      8  C   UNL     1     134.728 130.923 125.148  1.00  0.00     0.111 A 
ATOM      9  C   UNL     1     132.847 129.470 124.604  1.00  0.00     0.094 A 
ATOM     10  C   UNL     1     135.540 130.182 124.255  1.00  0.00     0.134 A 
ATOM     11  C   UNL     1     133.653 128.742 123.723  1.00  0.00     0.123 A 
ATOM     12  C   UNL     1     134.992 129.098 123.552  1.00  0.00     0.093 A 
BRANCH   3  13
ATOM     13  C   UNL     1     132.012 132.937 127.733  1.00  0.00     0.025 A 
ATOM     14  C   UNL     1     131.760 132.492 129.041  1.00  0.00     0.016 A 
ATOM     15  C   UNL     1     130.822 133.147 129.843  1.00  0.00     0.051 A 
ATOM     16  C   UNL     1     130.111 134.244 129.346  1.00  0.00     0.157 A 
ATOM     17  C   UNL     1     131.281 134.024 127.229  1.00  0.00     0.062 A 
ATOM     18  C   UNL     1     130.337 134.683 128.031  1.00  0.00     0.158 A 
BRANCH  16  19
ATOM     19  O   UNL     1     129.182 134.879 130.170  1.00  0.00    -0.504 OA
ATOM     20  H   UNL     1     129.062 135.885 130.170  1.00  0.00     0.293 HD
ENDBRANCH  16  19
BRANCH  18  21
ATOM     21  O   UNL     1     129.626 135.770 127.526  1.00  0.00    -0.504 OA
ATOM     22  H   UNL     1     129.648 136.677 127.979  1.00  0.00     0.293 HD
ENDBRANCH  18  21
ENDBRANCH   3  13
BRANCH  10  23
ATOM     23  O   UNL     1     136.882 130.511 124.058  1.00  0.00    -0.507 OA
ATOM     24  H   UNL     1     137.577 129.808 123.840  1.00  0.00     0.293 HD
ENDBRANCH  10  23
BRANCH  11  25
ATOM     25  O   UNL     1     133.133 127.662 123.013  1.00  0.00    -0.508 OA
ATOM     26  H   UNL     1     132.173 127.359 123.137  1.00  0.00     0.293 HD
ENDBRANCH  11  25
ENDBRANCH   1   2
BRANCH   1  27
ATOM     27  C   UNL     1     135.277 133.837 128.820  1.00  0.00     0.339 C 
ATOM     28  C   UNL     1     136.692 134.435 128.800  1.00  0.00     0.214 C 
ATOM     29  O   UNL     1     134.426 134.479 129.764  1.00  0.00    -0.332 OA
ATOM     30  C   UNL     1     136.623 135.944 128.528  1.00  0.00     0.180 C 
ATOM     31  C   UNL     1     134.323 135.892 129.608  1.00  0.00     0.179 C 
ATOM     32  C   UNL     1     135.695 136.605 129.558  1.00  0.00     0.177 C 
BRANCH  28  33
ATOM     33  O   UNL     1     137.448 133.797 127.802  1.00  0.00    -0.384 OA
ATOM     34  H   UNL     1     137.297 132.820 127.902  1.00  0.00     0.211 HD
ENDBRANCH  28  33
BRANCH  30  35
ATOM     35  O   UNL     1     137.904 136.515 128.617  1.00  0.00    -0.387 OA
ATOM     36  H   UNL     1     137.947 137.238 127.938  1.00  0.00     0.211 HD
ENDBRANCH  30  35
BRANCH  31  37
ATOM     37  C   UNL     1     133.384 136.301 128.460  1.00  0.00     0.191 C 
BRANCH  37  38
ATOM     38  O   UNL     1     132.307 137.042 128.965  1.00  0.00    -0.394 OA
ATOM     39  H   UNL     1     131.721 136.393 129.434  1.00  0.00     0.210 HD
ENDBRANCH  37  38
ENDBRANCH  31  37
BRANCH  32  40
ATOM     40  O   UNL     1     136.277 136.551 130.838  1.00  0.00    -0.387 OA
ATOM     41  H   UNL     1     136.876 135.761 130.855  1.00  0.00     0.211 HD
ENDBRANCH  32  40
ENDBRANCH   1  27
TORSDOF 12
ENDMDL
MODEL 7
REMARK VINA RESULT:    -6.555      2.791      6.481
REMARK INTER + INTRA:         -11.045
REMARK INTER:                  -9.401
REMARK INTRA:                  -1.644
REMARK UNBOUND:                -1.424
REMARK SMILES O=c1c(O[C@@H]2O[C@H](CO)[C@@H](O)[C@@H](O)[C@@H]2O)c(-c2ccc(O)c(O)c2)oc2cc(O)cc(O)c12
REMARK SMILES IDX 4 1 3 2 16 3 25 4 2 5 26 6 1 7 33 8 27 9 31 10 28 11 30 12
REMARK SMILES IDX 17 13 18 14 19 15 20 16 24 17 22 18 21 19 23 21 32 23 29 25
REMARK SMILES IDX 5 27 14 28 6 29 12 30 7 31 10 32 15 33 13 35 8 37 9 38 11 40
REMARK H PARENT 21 20 23 22 32 24 29 26 15 34 13 36 9 39 11 41
REMARK Flexibility Score: inf
ROOT
ATOM      1  O   UNL     1     130.790 126.364 126.318  1.00  0.00    -0.454 OA
ENDROOT
BRANCH   1   2
ATOM      2  C   UNL     1     131.884 126.915 125.623  1.00  0.00     0.214 A 
ATOM      3  C   UNL     1     131.635 127.619 124.427  1.00  0.00     0.180 A 
ATOM      4  O   UNL     1     132.638 128.188 123.765  1.00  0.00    -0.452 OA
ATOM      5  C   UNL     1     133.218 126.813 126.074  1.00  0.00     0.239 A 
ATOM      6  C   UNL     1     133.902 128.120 124.157  1.00  0.00     0.146 A 
ATOM      7  O   UNL     1     133.483 126.171 127.124  1.00  0.00    -0.285 OA
ATOM      8  C   UNL     1     134.253 127.422 125.335  1.00  0.00     0.111 A 
ATOM      9  C   UNL     1     134.886 128.747 123.388  1.00  0.00     0.094 A 
ATOM     10  C   UNL     1     135.615 127.367 125.722  1.00  0.00     0.134 A 
ATOM     11  C   UNL     1     136.229 128.690 123.775  1.00  0.00     0.123 A 
ATOM     12  C   UNL     1     136.588 128.002 124.936  1.00  0.00     0.093 A 
BRANCH   3  13
ATOM     13  C   UNL     1     130.266 127.796 123.895  1.00  0.00     0.025 A 
ATOM     14  C   UNL     1     129.810 127.059 122.790  1.00  0.00     0.016 A 
ATOM     15  C   UNL     1     128.513 127.243 122.304  1.00  0.00     0.051 A 
ATOM     16  C   UNL     1     127.659 128.174 122.903  1.00  0.00     0.157 A 
ATOM     17  C   UNL     1     129.415 128.747 124.480  1.00  0.00     0.062 A 
ATOM     18  C   UNL     1     128.113 128.934 123.994  1.00  0.00     0.158 A 
BRANCH  16  19
ATOM     19  O   UNL     1     126.368 128.334 122.399  1.00  0.00    -0.504 OA
ATOM     20  H   UNL     1     126.188 128.822 121.529  1.00  0.00     0.293 HD
ENDBRANCH  16  19
BRANCH  18  21
ATOM     21  O   UNL     1     127.270 129.871 124.591  1.00  0.00    -0.504 OA
ATOM     22  H   UNL     1     127.195 129.952 125.599  1.00  0.00     0.293 HD
ENDBRANCH  18  21
ENDBRANCH   3  13
BRANCH  10  23
ATOM     23  O   UNL     1     136.010 126.690 126.877  1.00  0.00    -0.507 OA
ATOM     24  H   UNL     1     136.986 126.550 127.106  1.00  0.00     0.293 HD
ENDBRANCH  10  23
BRANCH  11  25
ATOM     25  O   UNL     1     137.215 129.313 123.012  1.00  0.00    -0.508 OA
ATOM     26  H   UNL     1     137.039 129.608 122.058  1.00  0.00     0.293 HD
ENDBRANCH  11  25
ENDBRANCH   1   2
BRANCH   1  27
ATOM     27  C   UNL     1     130.093 125.161 125.983  1.00  0.00     0.339 C 
ATOM     28  C   UNL     1     130.347 124.085 127.050  1.00  0.00     0.214 C 
ATOM     29  O   UNL     1     128.706 125.393 125.760  1.00  0.00    -0.332 OA
ATOM     30  C   UNL     1     129.644 124.465 128.359  1.00  0.00     0.180 C 
ATOM     31  C   UNL     1     127.963 125.724 126.929  1.00  0.00     0.179 C 
ATOM     32  C   UNL     1     128.154 124.713 128.084  1.00  0.00     0.177 C 
BRANCH  28  33
ATOM     33  O   UNL     1     131.731 123.961 127.259  1.00  0.00    -0.384 OA
ATOM     34  H   UNL     1     132.147 124.816 126.971  1.00  0.00     0.211 HD
ENDBRANCH  28  33
BRANCH  30  35
ATOM     35  O   UNL     1     129.780 123.434 129.304  1.00  0.00    -0.387 OA
ATOM     36  H   UNL     1     129.501 122.592 128.858  1.00  0.00     0.211 HD
ENDBRANCH  30  35
BRANCH  31  37
ATOM     37  C   UNL     1     128.153 127.188 127.365  1.00  0.00     0.191 C 
BRANCH  37  38
ATOM     38  O   UNL     1     127.007 127.931 127.056  1.00  0.00    -0.394 OA
ATOM     39  H   UNL     1     127.278 128.885 127.093  1.00  0.00     0.210 HD
ENDBRANCH  37  38
ENDBRANCH  31  37
BRANCH  32  40
ATOM     40  O   UNL     1     127.518 123.507 127.736  1.00  0.00    -0.387 OA
ATOM     41  H   UNL     1     128.183 122.957 127.245  1.00  0.00     0.211 HD
ENDBRANCH  32  40
ENDBRANCH   1  27
TORSDOF 12
ENDMDL
MODEL 8
REMARK VINA RESULT:    -6.540      1.465      2.024
REMARK INTER + INTRA:         -11.023
REMARK INTER:                  -9.418
REMARK INTRA:                  -1.604
REMARK UNBOUND:                -1.424
REMARK SMILES O=c1c(O[C@@H]2O[C@H](CO)[C@@H](O)[C@@H](O)[C@@H]2O)c(-c2ccc(O)c(O)c2)oc2cc(O)cc(O)c12
REMARK SMILES IDX 4 1 3 2 16 3 25 4 2 5 26 6 1 7 33 8 27 9 31 10 28 11 30 12
REMARK SMILES IDX 17 13 18 14 19 15 20 16 24 17 22 18 21 19 23 21 32 23 29 25
REMARK SMILES IDX 5 27 14 28 6 29 12 30 7 31 10 32 15 33 13 35 8 37 9 38 11 40
REMARK H PARENT 21 20 23 22 32 24 29 26 15 34 13 36 9 39 11 41
REMARK Flexibility Score: inf
ROOT
ATOM      1  O   UNL     1     129.190 125.914 125.523  1.00  0.00    -0.454 OA
ENDROOT
BRANCH   1   2
ATOM      2  C   UNL     1     129.053 125.171 126.711  1.00  0.00     0.214 A 
ATOM      3  C   UNL     1     128.768 125.862 127.906  1.00  0.00     0.180 A 
ATOM      4  O   UNL     1     128.591 125.191 129.040  1.00  0.00    -0.452 OA
ATOM      5  C   UNL     1     129.171 123.765 126.762  1.00  0.00     0.239 A 
ATOM      6  C   UNL     1     128.688 123.872 129.130  1.00  0.00     0.146 A 
ATOM      7  O   UNL     1     129.450 123.115 125.721  1.00  0.00    -0.285 OA
ATOM      8  C   UNL     1     128.987 123.093 127.989  1.00  0.00     0.111 A 
ATOM      9  C   UNL     1     128.490 123.259 130.371  1.00  0.00     0.094 A 
ATOM     10  C   UNL     1     129.085 121.686 128.123  1.00  0.00     0.134 A 
ATOM     11  C   UNL     1     128.588 121.870 130.497  1.00  0.00     0.123 A 
ATOM     12  C   UNL     1     128.885 121.090 129.377  1.00  0.00     0.093 A 
BRANCH   3  13
ATOM     13  C   UNL     1     128.604 127.331 127.939  1.00  0.00     0.025 A 
ATOM     14  C   UNL     1     129.648 128.176 128.348  1.00  0.00     0.016 A 
ATOM     15  C   UNL     1     129.471 129.561 128.371  1.00  0.00     0.051 A 
ATOM     16  C   UNL     1     128.244 130.123 128.003  1.00  0.00     0.157 A 
ATOM     17  C   UNL     1     127.365 127.896 127.592  1.00  0.00     0.062 A 
ATOM     18  C   UNL     1     127.184 129.287 127.616  1.00  0.00     0.158 A 
BRANCH  16  19
ATOM     19  O   UNL     1     128.097 131.509 128.034  1.00  0.00    -0.504 OA
ATOM     20  H   UNL     1     128.617 132.091 128.680  1.00  0.00     0.293 HD
ENDBRANCH  16  19
BRANCH  18  21
ATOM     21  O   UNL     1     125.956 129.839 127.255  1.00  0.00    -0.504 OA
ATOM     22  H   UNL     1     125.869 130.813 126.988  1.00  0.00     0.293 HD
ENDBRANCH  18  21
ENDBRANCH   3  13
BRANCH  10  23
ATOM     23  O   UNL     1     129.379 120.877 127.024  1.00  0.00    -0.507 OA
ATOM     24  H   UNL     1     129.419 119.867 127.101  1.00  0.00     0.293 HD
ENDBRANCH  10  23
BRANCH  11  25
ATOM     25  O   UNL     1     128.394 121.254 131.731  1.00  0.00    -0.508 OA
ATOM     26  H   UNL     1     127.734 121.620 132.408  1.00  0.00     0.293 HD
ENDBRANCH  11  25
ENDBRANCH   1   2
BRANCH   1  27
ATOM     27  C   UNL     1     130.361 126.614 125.092  1.00  0.00     0.339 C 
ATOM     28  C   UNL     1     130.964 125.930 123.855  1.00  0.00     0.214 C 
ATOM     29  O   UNL     1     130.106 127.998 124.880  1.00  0.00    -0.332 OA
ATOM     30  C   UNL     1     130.048 126.132 122.641  1.00  0.00     0.180 C 
ATOM     31  C   UNL     1     129.285 128.286 123.751  1.00  0.00     0.179 C 
ATOM     32  C   UNL     1     129.789 127.633 122.443  1.00  0.00     0.177 C 
BRANCH  28  33
ATOM     33  O   UNL     1     131.124 124.559 124.119  1.00  0.00    -0.384 OA
ATOM     34  H   UNL     1     132.091 124.404 124.283  1.00  0.00     0.211 HD
ENDBRANCH  28  33
BRANCH  30  35
ATOM     35  O   UNL     1     130.646 125.604 121.484  1.00  0.00    -0.387 OA
ATOM     36  H   UNL     1     131.061 124.739 121.741  1.00  0.00     0.211 HD
ENDBRANCH  30  35
BRANCH  31  37
ATOM     37  C   UNL     1     127.790 128.037 124.019  1.00  0.00     0.191 C 
BRANCH  37  38
ATOM     38  O   UNL     1     127.143 129.250 124.285  1.00  0.00    -0.394 OA
ATOM     39  H   UNL     1     126.774 129.171 125.203  1.00  0.00     0.210 HD
ENDBRANCH  37  38
ENDBRANCH  31  37
BRANCH  32  40
ATOM     40  O   UNL     1     130.973 128.280 122.043  1.00  0.00    -0.387 OA
ATOM     41  H   UNL     1     130.937 128.372 121.056  1.00  0.00     0.211 HD
ENDBRANCH  32  40
ENDBRANCH   1  27
TORSDOF 12
ENDMDL
MODEL 9
REMARK VINA RESULT:    -6.400      7.501     10.063
REMARK INTER + INTRA:         -10.818
REMARK INTER:                  -9.306
REMARK INTRA:                  -1.513
REMARK UNBOUND:                -1.424
REMARK SMILES O=c1c(O[C@@H]2O[C@H](CO)[C@@H](O)[C@@H](O)[C@@H]2O)c(-c2ccc(O)c(O)c2)oc2cc(O)cc(O)c12
REMARK SMILES IDX 4 1 3 2 16 3 25 4 2 5 26 6 1 7 33 8 27 9 31 10 28 11 30 12
REMARK SMILES IDX 17 13 18 14 19 15 20 16 24 17 22 18 21 19 23 21 32 23 29 25
REMARK SMILES IDX 5 27 14 28 6 29 12 30 7 31 10 32 15 33 13 35 8 37 9 38 11 40
REMARK H PARENT 21 20 23 22 32 24 29 26 15 34 13 36 9 39 11 41
REMARK Flexibility Score: inf
ROOT
ATOM      1  O   UNL     1     135.029 133.331 127.647  1.00  0.00    -0.454 OA
ENDROOT
BRANCH   1   2
ATOM      2  C   UNL     1     134.365 132.430 126.792  1.00  0.00     0.214 A 
ATOM      3  C   UNL     1     132.960 132.347 126.864  1.00  0.00     0.180 A 
ATOM      4  O   UNL     1     132.295 131.537 126.045  1.00  0.00    -0.452 OA
ATOM      5  C   UNL     1     135.036 131.616 125.854  1.00  0.00     0.239 A 
ATOM      6  C   UNL     1     132.887 130.762 125.147  1.00  0.00     0.146 A 
ATOM      7  O   UNL     1     136.293 131.644 125.777  1.00  0.00    -0.285 OA
ATOM      8  C   UNL     1     134.294 130.763 125.011  1.00  0.00     0.111 A 
ATOM      9  C   UNL     1     132.100 129.941 124.335  1.00  0.00     0.094 A 
ATOM     10  C   UNL     1     134.892 129.919 124.043  1.00  0.00     0.134 A 
ATOM     11  C   UNL     1     132.696 129.110 123.381  1.00  0.00     0.123 A 
ATOM     12  C   UNL     1     134.085 129.101 123.239  1.00  0.00     0.093 A 
BRANCH   3  13
ATOM     13  C   UNL     1     132.174 133.180 127.800  1.00  0.00     0.025 A 
ATOM     14  C   UNL     1     132.286 133.022 129.191  1.00  0.00     0.016 A 
ATOM     15  C   UNL     1     131.535 133.821 130.057  1.00  0.00     0.051 A 
ATOM     16  C   UNL     1     130.649 134.776 129.548  1.00  0.00     0.157 A 
ATOM     17  C   UNL     1     131.267 134.123 127.291  1.00  0.00     0.062 A 
ATOM     18  C   UNL     1     130.511 134.926 128.158  1.00  0.00     0.158 A 
BRANCH  16  19
ATOM     19  O   UNL     1     129.914 135.560 130.436  1.00  0.00    -0.504 OA
ATOM     20  H   UNL     1     128.989 135.907 130.209  1.00  0.00     0.293 HD
ENDBRANCH  16  19
BRANCH  18  21
ATOM     21  O   UNL     1     129.623 135.870 127.643  1.00  0.00    -0.504 OA
ATOM     22  H   UNL     1     129.467 135.964 126.646  1.00  0.00     0.293 HD
ENDBRANCH  18  21
ENDBRANCH   3  13
BRANCH  10  23
ATOM     23  O   UNL     1     136.277 129.886 123.873  1.00  0.00    -0.507 OA
ATOM     24  H   UNL     1     136.905 129.694 124.644  1.00  0.00     0.293 HD
ENDBRANCH  10  23
BRANCH  11  25
ATOM     25  O   UNL     1     131.916 128.288 122.569  1.00  0.00    -0.508 OA
ATOM     26  H   UNL     1     132.170 127.322 122.394  1.00  0.00     0.293 HD
ENDBRANCH  11  25
ENDBRANCH   1   2
BRANCH   1  27
ATOM     27  C   UNL     1     135.825 134.449 127.245  1.00  0.00     0.339 C 
ATOM     28  C   UNL     1     135.461 135.688 128.077  1.00  0.00     0.214 C 
ATOM     29  O   UNL     1     137.217 134.154 127.284  1.00  0.00    -0.332 OA
ATOM     30  C   UNL     1     135.935 135.508 129.525  1.00  0.00     0.180 C 
ATOM     31  C   UNL     1     137.754 133.998 128.595  1.00  0.00     0.179 C 
ATOM     32  C   UNL     1     137.436 135.185 129.534  1.00  0.00     0.177 C 
BRANCH  28  33
ATOM     33  O   UNL     1     134.069 135.874 128.042  1.00  0.00    -0.384 OA
ATOM     34  H   UNL     1     133.698 135.185 127.432  1.00  0.00     0.211 HD
ENDBRANCH  28  33
BRANCH  30  35
ATOM     35  O   UNL     1     135.704 136.680 130.265  1.00  0.00    -0.387 OA
ATOM     36  H   UNL     1     136.570 137.160 130.326  1.00  0.00     0.211 HD
ENDBRANCH  30  35
BRANCH  31  37
ATOM     37  C   UNL     1     137.431 132.628 129.216  1.00  0.00     0.191 C 
BRANCH  37  38
ATOM     38  O   UNL     1     137.602 131.617 128.262  1.00  0.00    -0.394 OA
ATOM     39  H   UNL     1     137.808 132.077 127.407  1.00  0.00     0.210 HD
ENDBRANCH  37  38
ENDBRANCH  31  37
BRANCH  32  40
ATOM     40  O   UNL     1     138.174 136.306 129.109  1.00  0.00    -0.387 OA
ATOM     41  H   UNL     1     137.770 136.616 128.257  1.00  0.00     0.211 HD
ENDBRANCH  32  40
ENDBRANCH   1  27
TORSDOF 12
ENDMDL
