MODEL 1
REMARK VINA RESULT:    -4.109      0.000      0.000
REMARK INTER + INTRA:         -10.709
REMARK INTER:                  -7.711
REMARK INTRA:                  -2.998
REMARK UNBOUND:                -2.998
REMARK SMILES CCCCCCCCC=CCCCCCCCC(=O)[O-]
REMARK SMILES IDX 10 1 9 2 11 3 12 4 13 5 14 6 15 7 16 8 17 9 18 10 19 11
REMARK SMILES IDX 20 12 8 13 7 14 6 15 5 16 4 17 3 18 2 19 1 20
REMARK H PARENT
REMARK Flexibility Score: inf
ROOT
ATOM      1  C   UNL     1      39.425  23.833 227.118  1.00  0.00    -0.031 C 
ATOM      2  C   UNL     1      40.497  24.589 226.815  1.00  0.00    -0.031 C 
ENDROOT
BRANCH   1   3
ATOM      3  C   UNL     1      39.427  22.325 227.171  1.00  0.00     0.027 C 
BRANCH   3   4
ATOM      4  C   UNL     1      38.692  21.708 225.972  1.00  0.00     0.004 C 
BRANCH   4   5
ATOM      5  C   UNL     1      39.366  20.413 225.486  1.00  0.00     0.000 C 
BRANCH   5   6
ATOM      6  C   UNL     1      40.087  19.662 226.617  1.00  0.00     0.000 C 
BRANCH   6   7
ATOM      7  C   UNL     1      39.387  18.351 226.999  1.00  0.00     0.000 C 
BRANCH   7   8
ATOM      8  C   UNL     1      38.116  18.144 226.161  1.00  0.00     0.006 C 
BRANCH   8   9
ATOM      9  C   UNL     1      36.837  18.366 226.980  1.00  0.00     0.053 C 
BRANCH   9  10
ATOM     10  C   UNL     1      35.844  19.209 226.241  1.00  0.00     0.041 C 
ATOM     11  O   UNL     1      35.401  18.836 225.123  1.00  0.00    -0.550 OA
ATOM     12  O   UNL     1      35.428  20.423 226.775  1.00  0.00    -0.550 OA
ENDBRANCH   9  10
ENDBRANCH   8   9
ENDBRANCH   7   8
ENDBRANCH   6   7
ENDBRANCH   5   6
ENDBRANCH   4   5
ENDBRANCH   3   4
ENDBRANCH   1   3
BRANCH   2  13
ATOM     13  C   UNL     1      41.837  24.043 226.390  1.00  0.00     0.027 C 
BRANCH  13  14
ATOM     14  C   UNL     1      42.012  24.163 224.872  1.00  0.00     0.004 C 
BRANCH  14  15
ATOM     15  C   UNL     1      41.983  22.783 224.204  1.00  0.00     0.000 C 
BRANCH  15  16
ATOM     16  C   UNL     1      40.916  22.725 223.105  1.00  0.00     0.000 C 
BRANCH  16  17
ATOM     17  C   UNL     1      40.090  24.019 223.067  1.00  0.00    -0.000 C 
BRANCH  17  18
ATOM     18  C   UNL     1      38.582  23.743 222.893  1.00  0.00    -0.000 C 
BRANCH  18  19
ATOM     19  C   UNL     1      37.696  24.538 223.866  1.00  0.00    -0.003 C 
ATOM     20  C   UNL     1      38.251  25.926 224.181  1.00  0.00     0.004 C 
ENDBRANCH  18  19
ENDBRANCH  17  18
ENDBRANCH  16  17
ENDBRANCH  15  16
ENDBRANCH  14  15
ENDBRANCH  13  14
ENDBRANCH   2  13
TORSDOF 15
ENDMDL
MODEL 2
REMARK VINA RESULT:    -4.042      2.027      3.352
REMARK INTER + INTRA:         -10.583
REMARK INTER:                  -8.873
REMARK INTRA:                  -1.710
REMARK UNBOUND:                -2.998
REMARK SMILES CCCCCCCCC=CCCCCCCCC(=O)[O-]
REMARK SMILES IDX 10 1 9 2 11 3 12 4 13 5 14 6 15 7 16 8 17 9 18 10 19 11
REMARK SMILES IDX 20 12 8 13 7 14 6 15 5 16 4 17 3 18 2 19 1 20
REMARK H PARENT
REMARK Flexibility Score: inf
ROOT
ATOM      1  C   UNL     1      41.997  22.030 223.836  1.00  0.00    -0.031 C 
ATOM      2  C   UNL     1      41.301  23.178 223.942  1.00  0.00    -0.031 C 
ENDROOT
BRANCH   1   3
ATOM      3  C   UNL     1      41.908  21.079 222.668  1.00  0.00     0.027 C 
BRANCH   3   4
ATOM      4  C   UNL     1      41.415  19.689 223.096  1.00  0.00     0.004 C 
BRANCH   4   5
ATOM      5  C   UNL     1      40.278  19.774 224.131  1.00  0.00     0.000 C 
BRANCH   5   6
ATOM      6  C   UNL     1      40.489  18.823 225.320  1.00  0.00     0.000 C 
BRANCH   6   7
ATOM      7  C   UNL     1      39.188  18.519 226.074  1.00  0.00     0.000 C 
BRANCH   7   8
ATOM      8  C   UNL     1      38.220  19.710 225.999  1.00  0.00     0.006 C 
BRANCH   8   9
ATOM      9  C   UNL     1      37.099  19.616 227.042  1.00  0.00     0.053 C 
BRANCH   9  10
ATOM     10  C   UNL     1      36.400  18.293 226.988  1.00  0.00     0.041 C 
ATOM     11  O   UNL     1      35.786  17.941 225.947  1.00  0.00    -0.550 OA
ATOM     12  O   UNL     1      36.402  17.458 228.100  1.00  0.00    -0.550 OA
ENDBRANCH   9  10
ENDBRANCH   8   9
ENDBRANCH   7   8
ENDBRANCH   6   7
ENDBRANCH   5   6
ENDBRANCH   4   5
ENDBRANCH   3   4
ENDBRANCH   1   3
BRANCH   2  13
ATOM     13  C   UNL     1      40.257  23.640 222.958  1.00  0.00     0.027 C 
BRANCH  13  14
ATOM     14  C   UNL     1      39.061  24.260 223.690  1.00  0.00     0.004 C 
BRANCH  14  15
ATOM     15  C   UNL     1      38.372  23.227 224.588  1.00  0.00     0.000 C 
BRANCH  15  16
ATOM     16  C   UNL     1      36.858  23.208 224.346  1.00  0.00     0.000 C 
BRANCH  16  17
ATOM     17  C   UNL     1      36.462  24.203 223.245  1.00  0.00    -0.000 C 
BRANCH  17  18
ATOM     18  C   UNL     1      35.860  23.498 222.012  1.00  0.00    -0.000 C 
BRANCH  18  19
ATOM     19  C   UNL     1      36.684  23.693 220.729  1.00  0.00    -0.003 C 
ATOM     20  C   UNL     1      35.837  24.124 219.534  1.00  0.00     0.004 C 
ENDBRANCH  18  19
ENDBRANCH  17  18
ENDBRANCH  16  17
ENDBRANCH  15  16
ENDBRANCH  14  15
ENDBRANCH  13  14
ENDBRANCH   2  13
TORSDOF 15
ENDMDL
MODEL 3
REMARK VINA RESULT:    -4.024      1.369      3.431
REMARK INTER + INTRA:         -10.550
REMARK INTER:                  -7.655
REMARK INTRA:                  -2.895
REMARK UNBOUND:                -2.998
REMARK SMILES CCCCCCCCC=CCCCCCCCC(=O)[O-]
REMARK SMILES IDX 10 1 9 2 11 3 12 4 13 5 14 6 15 7 16 8 17 9 18 10 19 11
REMARK SMILES IDX 20 12 8 13 7 14 6 15 5 16 4 17 3 18 2 19 1 20
REMARK H PARENT
REMARK Flexibility Score: inf
ROOT
ATOM      1  C   UNL     1      41.058  23.355 223.457  1.00  0.00    -0.031 C 
ATOM      2  C   UNL     1      39.987  24.090 223.099  1.00  0.00    -0.031 C 
ENDROOT
BRANCH   1   3
ATOM      3  C   UNL     1      41.313  21.938 223.006  1.00  0.00     0.027 C 
BRANCH   3   4
ATOM      4  C   UNL     1      42.072  21.127 224.067  1.00  0.00     0.004 C 
BRANCH   4   5
ATOM      5  C   UNL     1      41.446  21.277 225.465  1.00  0.00     0.000 C 
BRANCH   5   6
ATOM      6  C   UNL     1      40.725  20.002 225.931  1.00  0.00     0.000 C 
BRANCH   6   7
ATOM      7  C   UNL     1      39.393  19.775 225.204  1.00  0.00     0.000 C 
BRANCH   7   8
ATOM      8  C   UNL     1      38.516  18.770 225.967  1.00  0.00     0.006 C 
BRANCH   8   9
ATOM      9  C   UNL     1      37.568  19.461 226.957  1.00  0.00     0.053 C 
BRANCH   9  10
ATOM     10  C   UNL     1      36.135  19.303 226.555  1.00  0.00     0.041 C 
ATOM     11  O   UNL     1      35.294  20.198 226.836  1.00  0.00    -0.550 OA
ATOM     12  O   UNL     1      35.719  18.154 225.893  1.00  0.00    -0.550 OA
ENDBRANCH   9  10
ENDBRANCH   8   9
ENDBRANCH   7   8
ENDBRANCH   6   7
ENDBRANCH   5   6
ENDBRANCH   4   5
ENDBRANCH   3   4
ENDBRANCH   1   3
BRANCH   2  13
ATOM     13  C   UNL     1      38.834  23.577 222.274  1.00  0.00     0.027 C 
BRANCH  13  14
ATOM     14  C   UNL     1      37.504  24.124 222.805  1.00  0.00     0.004 C 
BRANCH  14  15
ATOM     15  C   UNL     1      36.527  22.985 223.116  1.00  0.00     0.000 C 
BRANCH  15  16
ATOM     16  C   UNL     1      36.904  22.276 224.422  1.00  0.00     0.000 C 
BRANCH  16  17
ATOM     17  C   UNL     1      37.003  23.275 225.584  1.00  0.00    -0.000 C 
BRANCH  17  18
ATOM     18  C   UNL     1      38.292  23.081 226.411  1.00  0.00    -0.000 C 
BRANCH  18  19
ATOM     19  C   UNL     1      38.932  24.401 226.869  1.00  0.00    -0.003 C 
ATOM     20  C   UNL     1      38.343  25.625 226.171  1.00  0.00     0.004 C 
ENDBRANCH  18  19
ENDBRANCH  17  18
ENDBRANCH  16  17
ENDBRANCH  15  16
ENDBRANCH  14  15
ENDBRANCH  13  14
ENDBRANCH   2  13
TORSDOF 15
ENDMDL
MODEL 4
REMARK VINA RESULT:    -4.021      1.492      3.162
REMARK INTER + INTRA:         -10.545
REMARK INTER:                  -7.724
REMARK INTRA:                  -2.821
REMARK UNBOUND:                -2.998
REMARK SMILES CCCCCCCCC=CCCCCCCCC(=O)[O-]
REMARK SMILES IDX 10 1 9 2 11 3 12 4 13 5 14 6 15 7 16 8 17 9 18 10 19 11
REMARK SMILES IDX 20 12 8 13 7 14 6 15 5 16 4 17 3 18 2 19 1 20
REMARK H PARENT
REMARK Flexibility Score: inf
ROOT
ATOM      1  C   UNL     1      41.982  23.921 226.445  1.00  0.00    -0.031 C 
ATOM      2  C   UNL     1      41.173  24.411 227.404  1.00  0.00    -0.031 C 
ENDROOT
BRANCH   1   3
ATOM      3  C   UNL     1      41.923  24.315 224.990  1.00  0.00     0.027 C 
BRANCH   3   4
ATOM      4  C   UNL     1      41.658  23.107 224.079  1.00  0.00     0.004 C 
BRANCH   4   5
ATOM      5  C   UNL     1      40.154  22.886 223.837  1.00  0.00     0.000 C 
BRANCH   5   6
ATOM      6  C   UNL     1      39.637  21.588 224.478  1.00  0.00     0.000 C 
BRANCH   6   7
ATOM      7  C   UNL     1      38.228  21.738 225.067  1.00  0.00     0.000 C 
BRANCH   7   8
ATOM      8  C   UNL     1      38.148  21.104 226.464  1.00  0.00     0.006 C 
BRANCH   8   9
ATOM      9  C   UNL     1      36.713  20.718 226.846  1.00  0.00     0.053 C 
BRANCH   9  10
ATOM     10  C   UNL     1      36.297  19.429 226.208  1.00  0.00     0.041 C 
ATOM     11  O   UNL     1      37.159  18.562 225.906  1.00  0.00    -0.550 OA
ATOM     12  O   UNL     1      34.957  19.195 225.921  1.00  0.00    -0.550 OA
ENDBRANCH   9  10
ENDBRANCH   8   9
ENDBRANCH   7   8
ENDBRANCH   6   7
ENDBRANCH   5   6
ENDBRANCH   4   5
ENDBRANCH   3   4
ENDBRANCH   1   3
BRANCH   2  13
ATOM     13  C   UNL     1      40.024  25.354 227.154  1.00  0.00     0.027 C 
BRANCH  13  14
ATOM     14  C   UNL     1      38.683  24.634 227.343  1.00  0.00     0.004 C 
BRANCH  14  15
ATOM     15  C   UNL     1      37.648  25.125 226.325  1.00  0.00     0.000 C 
BRANCH  15  16
ATOM     16  C   UNL     1      38.330  25.698 225.077  1.00  0.00     0.000 C 
BRANCH  16  17
ATOM     17  C   UNL     1      37.403  25.619 223.855  1.00  0.00    -0.000 C 
BRANCH  17  18
ATOM     18  C   UNL     1      36.160  24.744 224.122  1.00  0.00    -0.000 C 
BRANCH  18  19
ATOM     19  C   UNL     1      36.015  23.568 223.142  1.00  0.00    -0.003 C 
ATOM     20  C   UNL     1      36.491  23.904 221.731  1.00  0.00     0.004 C 
ENDBRANCH  18  19
ENDBRANCH  17  18
ENDBRANCH  16  17
ENDBRANCH  15  16
ENDBRANCH  14  15
ENDBRANCH  13  14
ENDBRANCH   2  13
TORSDOF 15
ENDMDL
MODEL 5
REMARK VINA RESULT:    -4.016      1.793      3.782
REMARK INTER + INTRA:         -10.536
REMARK INTER:                  -8.089
REMARK INTRA:                  -2.447
REMARK UNBOUND:                -2.998
REMARK SMILES CCCCCCCCC=CCCCCCCCC(=O)[O-]
REMARK SMILES IDX 10 1 9 2 11 3 12 4 13 5 14 6 15 7 16 8 17 9 18 10 19 11
REMARK SMILES IDX 20 12 8 13 7 14 6 15 5 16 4 17 3 18 2 19 1 20
REMARK H PARENT
REMARK Flexibility Score: inf
ROOT
ATOM      1  C   UNL     1      39.767  25.511 227.200  1.00  0.00    -0.031 C 
ATOM      2  C   UNL     1      38.725  25.906 226.444  1.00  0.00    -0.031 C 
ENDROOT
BRANCH   1   3
ATOM      3  C   UNL     1      41.212  25.584 226.773  1.00  0.00     0.027 C 
BRANCH   3   4
ATOM      4  C   UNL     1      41.780  24.199 226.429  1.00  0.00     0.004 C 
BRANCH   4   5
ATOM      5  C   UNL     1      41.700  23.902 224.920  1.00  0.00     0.000 C 
BRANCH   5   6
ATOM      6  C   UNL     1      40.636  22.845 224.582  1.00  0.00     0.000 C 
BRANCH   6   7
ATOM      7  C   UNL     1      40.184  22.044 225.810  1.00  0.00     0.000 C 
BRANCH   7   8
ATOM      8  C   UNL     1      38.652  21.933 225.858  1.00  0.00     0.006 C 
BRANCH   8   9
ATOM      9  C   UNL     1      38.166  20.498 225.614  1.00  0.00     0.053 C 
BRANCH   9  10
ATOM     10  C   UNL     1      36.705  20.349 225.910  1.00  0.00     0.041 C 
ATOM     11  O   UNL     1      36.130  21.153 226.691  1.00  0.00    -0.550 OA
ATOM     12  O   UNL     1      35.983  19.304 225.345  1.00  0.00    -0.550 OA
ENDBRANCH   9  10
ENDBRANCH   8   9
ENDBRANCH   7   8
ENDBRANCH   6   7
ENDBRANCH   5   6
ENDBRANCH   4   5
ENDBRANCH   3   4
ENDBRANCH   1   3
BRANCH   2  13
ATOM     13  C   UNL     1      38.836  26.391 225.021  1.00  0.00     0.027 C 
BRANCH  13  14
ATOM     14  C   UNL     1      38.210  25.379 224.055  1.00  0.00     0.004 C 
BRANCH  14  15
ATOM     15  C   UNL     1      36.679  25.433 224.120  1.00  0.00     0.000 C 
BRANCH  15  16
ATOM     16  C   UNL     1      36.081  24.023 224.206  1.00  0.00     0.000 C 
BRANCH  16  17
ATOM     17  C   UNL     1      36.486  23.176 222.991  1.00  0.00    -0.000 C 
BRANCH  17  18
ATOM     18  C   UNL     1      35.977  23.778 221.665  1.00  0.00    -0.000 C 
BRANCH  18  19
ATOM     19  C   UNL     1      36.977  23.644 220.506  1.00  0.00    -0.003 C 
ATOM     20  C   UNL     1      36.317  23.748 219.132  1.00  0.00     0.004 C 
ENDBRANCH  18  19
ENDBRANCH  17  18
ENDBRANCH  16  17
ENDBRANCH  15  16
ENDBRANCH  14  15
ENDBRANCH  13  14
ENDBRANCH   2  13
TORSDOF 15
ENDMDL
MODEL 6
REMARK VINA RESULT:    -4.008      1.692      3.659
REMARK INTER + INTRA:         -10.520
REMARK INTER:                  -8.304
REMARK INTRA:                  -2.216
REMARK UNBOUND:                -2.998
REMARK SMILES CCCCCCCCC=CCCCCCCCC(=O)[O-]
REMARK SMILES IDX 10 1 9 2 11 3 12 4 13 5 14 6 15 7 16 8 17 9 18 10 19 11
REMARK SMILES IDX 20 12 8 13 7 14 6 15 5 16 4 17 3 18 2 19 1 20
REMARK H PARENT
REMARK Flexibility Score: inf
ROOT
ATOM      1  C   UNL     1      38.044  26.100 224.174  1.00  0.00    -0.031 C 
ATOM      2  C   UNL     1      38.783  26.351 225.272  1.00  0.00    -0.031 C 
ENDROOT
BRANCH   1   3
ATOM      3  C   UNL     1      36.871  25.153 224.128  1.00  0.00     0.027 C 
BRANCH   3   4
ATOM      4  C   UNL     1      37.101  24.002 223.138  1.00  0.00     0.004 C 
BRANCH   4   5
ATOM      5  C   UNL     1      36.808  22.630 223.771  1.00  0.00     0.000 C 
BRANCH   5   6
ATOM      6  C   UNL     1      37.089  22.603 225.281  1.00  0.00     0.000 C 
BRANCH   6   7
ATOM      7  C   UNL     1      37.811  21.324 225.727  1.00  0.00     0.000 C 
BRANCH   7   8
ATOM      8  C   UNL     1      37.211  20.784 227.035  1.00  0.00     0.006 C 
BRANCH   8   9
ATOM      9  C   UNL     1      35.873  20.068 226.809  1.00  0.00     0.053 C 
BRANCH   9  10
ATOM     10  C   UNL     1      36.055  18.591 226.641  1.00  0.00     0.041 C 
ATOM     11  O   UNL     1      36.097  18.084 225.489  1.00  0.00    -0.550 OA
ATOM     12  O   UNL     1      36.150  17.769 227.757  1.00  0.00    -0.550 OA
ENDBRANCH   9  10
ENDBRANCH   8   9
ENDBRANCH   7   8
ENDBRANCH   6   7
ENDBRANCH   5   6
ENDBRANCH   4   5
ENDBRANCH   3   4
ENDBRANCH   1   3
BRANCH   2  13
ATOM     13  C   UNL     1      38.611  25.652 226.596  1.00  0.00     0.027 C 
BRANCH  13  14
ATOM     14  C   UNL     1      39.776  24.689 226.855  1.00  0.00     0.004 C 
BRANCH  14  15
ATOM     15  C   UNL     1      40.765  24.697 225.683  1.00  0.00     0.000 C 
BRANCH  15  16
ATOM     16  C   UNL     1      40.817  23.327 224.996  1.00  0.00     0.000 C 
BRANCH  16  17
ATOM     17  C   UNL     1      41.046  23.474 223.485  1.00  0.00    -0.000 C 
BRANCH  17  18
ATOM     18  C   UNL     1      41.367  22.125 222.810  1.00  0.00    -0.000 C 
BRANCH  18  19
ATOM     19  C   UNL     1      42.299  21.228 223.641  1.00  0.00    -0.003 C 
ATOM     20  C   UNL     1      43.382  20.552 222.803  1.00  0.00     0.004 C 
ENDBRANCH  18  19
ENDBRANCH  17  18
ENDBRANCH  16  17
ENDBRANCH  15  16
ENDBRANCH  14  15
ENDBRANCH  13  14
ENDBRANCH   2  13
TORSDOF 15
ENDMDL
MODEL 7
REMARK VINA RESULT:    -3.936      1.740      4.508
REMARK INTER + INTRA:         -10.385
REMARK INTER:                  -7.524
REMARK INTRA:                  -2.862
REMARK UNBOUND:                -2.998
REMARK SMILES CCCCCCCCC=CCCCCCCCC(=O)[O-]
REMARK SMILES IDX 10 1 9 2 11 3 12 4 13 5 14 6 15 7 16 8 17 9 18 10 19 11
REMARK SMILES IDX 20 12 8 13 7 14 6 15 5 16 4 17 3 18 2 19 1 20
REMARK H PARENT
REMARK Flexibility Score: inf
ROOT
ATOM      1  C   UNL     1      40.340  24.216 226.473  1.00  0.00    -0.031 C 
ATOM      2  C   UNL     1      40.826  23.173 225.774  1.00  0.00    -0.031 C 
ENDROOT
BRANCH   1   3
ATOM      3  C   UNL     1      40.636  25.664 226.169  1.00  0.00     0.027 C 
BRANCH   3   4
ATOM      4  C   UNL     1      39.392  26.550 226.329  1.00  0.00     0.004 C 
BRANCH   4   5
ATOM      5  C   UNL     1      38.129  25.881 225.755  1.00  0.00     0.000 C 
BRANCH   5   6
ATOM      6  C   UNL     1      38.063  25.962 224.222  1.00  0.00     0.000 C 
BRANCH   6   7
ATOM      7  C   UNL     1      37.711  24.618 223.572  1.00  0.00     0.000 C 
BRANCH   7   8
ATOM      8  C   UNL     1      37.066  23.667 224.593  1.00  0.00     0.006 C 
BRANCH   8   9
ATOM      9  C   UNL     1      37.490  22.209 224.377  1.00  0.00     0.053 C 
BRANCH   9  10
ATOM     10  C   UNL     1      37.046  21.329 225.505  1.00  0.00     0.041 C 
ATOM     11  O   UNL     1      36.201  20.417 225.304  1.00  0.00    -0.550 OA
ATOM     12  O   UNL     1      37.545  21.534 226.786  1.00  0.00    -0.550 OA
ENDBRANCH   9  10
ENDBRANCH   8   9
ENDBRANCH   7   8
ENDBRANCH   6   7
ENDBRANCH   5   6
ENDBRANCH   4   5
ENDBRANCH   3   4
ENDBRANCH   1   3
BRANCH   2  13
ATOM     13  C   UNL     1      41.814  23.288 224.641  1.00  0.00     0.027 C 
BRANCH  13  14
ATOM     14  C   UNL     1      41.089  23.550 223.316  1.00  0.00     0.004 C 
BRANCH  14  15
ATOM     15  C   UNL     1      40.742  22.235 222.609  1.00  0.00     0.000 C 
BRANCH  15  16
ATOM     16  C   UNL     1      41.888  21.224 222.734  1.00  0.00     0.000 C 
BRANCH  16  17
ATOM     17  C   UNL     1      41.363  19.782 222.663  1.00  0.00    -0.000 C 
BRANCH  17  18
ATOM     18  C   UNL     1      40.764  19.314 224.006  1.00  0.00    -0.000 C 
BRANCH  18  19
ATOM     19  C   UNL     1      41.732  19.455 225.192  1.00  0.00    -0.003 C 
ATOM     20  C   UNL     1      41.016  19.560 226.538  1.00  0.00     0.004 C 
ENDBRANCH  18  19
ENDBRANCH  17  18
ENDBRANCH  16  17
ENDBRANCH  15  16
ENDBRANCH  14  15
ENDBRANCH  13  14
ENDBRANCH   2  13
TORSDOF 15
ENDMDL
MODEL 8
REMARK VINA RESULT:    -3.930      1.720      3.750
REMARK INTER + INTRA:         -10.373
REMARK INTER:                  -7.838
REMARK INTRA:                  -2.536
REMARK UNBOUND:                -2.998
REMARK SMILES CCCCCCCCC=CCCCCCCCC(=O)[O-]
REMARK SMILES IDX 10 1 9 2 11 3 12 4 13 5 14 6 15 7 16 8 17 9 18 10 19 11
REMARK SMILES IDX 20 12 8 13 7 14 6 15 5 16 4 17 3 18 2 19 1 20
REMARK H PARENT
REMARK Flexibility Score: inf
ROOT
ATOM      1  C   UNL     1      40.961  23.638 223.586  1.00  0.00    -0.031 C 
ATOM      2  C   UNL     1      39.825  24.056 222.997  1.00  0.00    -0.031 C 
ENDROOT
BRANCH   1   3
ATOM      3  C   UNL     1      41.059  22.452 224.513  1.00  0.00     0.027 C 
BRANCH   3   4
ATOM      4  C   UNL     1      41.566  22.854 225.906  1.00  0.00     0.004 C 
BRANCH   4   5
ATOM      5  C   UNL     1      40.526  22.565 227.004  1.00  0.00     0.000 C 
BRANCH   5   6
ATOM      6  C   UNL     1      39.462  21.550 226.557  1.00  0.00     0.000 C 
BRANCH   6   7
ATOM      7  C   UNL     1      38.034  22.101 226.669  1.00  0.00     0.000 C 
BRANCH   7   8
ATOM      8  C   UNL     1      37.046  21.229 225.878  1.00  0.00     0.006 C 
BRANCH   8   9
ATOM      9  C   UNL     1      36.351  20.188 226.765  1.00  0.00     0.053 C 
BRANCH   9  10
ATOM     10  C   UNL     1      35.882  19.007 225.972  1.00  0.00     0.041 C 
ATOM     11  O   UNL     1      35.310  19.173 224.862  1.00  0.00    -0.550 OA
ATOM     12  O   UNL     1      36.052  17.721 226.472  1.00  0.00    -0.550 OA
ENDBRANCH   9  10
ENDBRANCH   8   9
ENDBRANCH   7   8
ENDBRANCH   6   7
ENDBRANCH   5   6
ENDBRANCH   4   5
ENDBRANCH   3   4
ENDBRANCH   1   3
BRANCH   2  13
ATOM     13  C   UNL     1      38.462  23.463 223.250  1.00  0.00     0.027 C 
BRANCH  13  14
ATOM     14  C   UNL     1      37.393  24.562 223.290  1.00  0.00     0.004 C 
BRANCH  14  15
ATOM     15  C   UNL     1      37.863  25.754 224.133  1.00  0.00     0.000 C 
BRANCH  15  16
ATOM     16  C   UNL     1      37.489  25.567 225.609  1.00  0.00     0.000 C 
BRANCH  16  17
ATOM     17  C   UNL     1      38.726  25.684 226.511  1.00  0.00    -0.000 C 
BRANCH  17  18
ATOM     18  C   UNL     1      39.740  26.718 225.979  1.00  0.00    -0.000 C 
BRANCH  18  19
ATOM     19  C   UNL     1      40.099  27.809 227.000  1.00  0.00    -0.003 C 
ATOM     20  C   UNL     1      40.888  28.965 226.388  1.00  0.00     0.004 C 
ENDBRANCH  18  19
ENDBRANCH  17  18
ENDBRANCH  16  17
ENDBRANCH  15  16
ENDBRANCH  14  15
ENDBRANCH  13  14
ENDBRANCH   2  13
TORSDOF 15
ENDMDL
MODEL 9
REMARK VINA RESULT:    -3.908      1.267      3.151
REMARK INTER + INTRA:         -10.332
REMARK INTER:                  -7.778
REMARK INTRA:                  -2.554
REMARK UNBOUND:                -2.998
REMARK SMILES CCCCCCCCC=CCCCCCCCC(=O)[O-]
REMARK SMILES IDX 10 1 9 2 11 3 12 4 13 5 14 6 15 7 16 8 17 9 18 10 19 11
REMARK SMILES IDX 20 12 8 13 7 14 6 15 5 16 4 17 3 18 2 19 1 20
REMARK H PARENT
REMARK Flexibility Score: inf
ROOT
ATOM      1  C   UNL     1      37.574  24.846 223.717  1.00  0.00    -0.031 C 
ATOM      2  C   UNL     1      38.262  25.793 224.382  1.00  0.00    -0.031 C 
ENDROOT
BRANCH   1   3
ATOM      3  C   UNL     1      36.562  23.921 224.347  1.00  0.00     0.027 C 
BRANCH   3   4
ATOM      4  C   UNL     1      37.176  22.561 224.711  1.00  0.00     0.004 C 
BRANCH   4   5
ATOM      5  C   UNL     1      37.293  22.370 226.234  1.00  0.00     0.000 C 
BRANCH   5   6
ATOM      6  C   UNL     1      38.745  22.166 226.695  1.00  0.00     0.000 C 
BRANCH   6   7
ATOM      7  C   UNL     1      38.963  20.816 227.392  1.00  0.00     0.000 C 
BRANCH   7   8
ATOM      8  C   UNL     1      38.512  19.656 226.491  1.00  0.00     0.006 C 
BRANCH   8   9
ATOM      9  C   UNL     1      37.373  18.842 227.119  1.00  0.00     0.053 C 
BRANCH   9  10
ATOM     10  C   UNL     1      36.162  18.811 226.239  1.00  0.00     0.041 C 
ATOM     11  O   UNL     1      36.128  18.059 225.229  1.00  0.00    -0.550 OA
ATOM     12  O   UNL     1      35.078  19.637 226.517  1.00  0.00    -0.550 OA
ENDBRANCH   9  10
ENDBRANCH   8   9
ENDBRANCH   7   8
ENDBRANCH   6   7
ENDBRANCH   5   6
ENDBRANCH   4   5
ENDBRANCH   3   4
ENDBRANCH   1   3
BRANCH   2  13
ATOM     13  C   UNL     1      38.199  26.009 225.873  1.00  0.00     0.027 C 
BRANCH  13  14
ATOM     14  C   UNL     1      39.532  26.554 226.397  1.00  0.00     0.004 C 
BRANCH  14  15
ATOM     15  C   UNL     1      40.533  25.417 226.638  1.00  0.00     0.000 C 
BRANCH  15  16
ATOM     16  C   UNL     1      41.875  25.710 225.956  1.00  0.00     0.000 C 
BRANCH  16  17
ATOM     17  C   UNL     1      42.521  24.419 225.433  1.00  0.00    -0.000 C 
BRANCH  17  18
ATOM     18  C   UNL     1      41.480  23.442 224.847  1.00  0.00    -0.000 C 
BRANCH  18  19
ATOM     19  C   UNL     1      41.125  23.731 223.379  1.00  0.00    -0.003 C 
ATOM     20  C   UNL     1      40.308  22.615 222.732  1.00  0.00     0.004 C 
ENDBRANCH  18  19
ENDBRANCH  17  18
ENDBRANCH  16  17
ENDBRANCH  15  16
ENDBRANCH  14  15
ENDBRANCH  13  14
ENDBRANCH   2  13
TORSDOF 15
ENDMDL
