MODEL 1
REMARK VINA RESULT:    -6.362      0.000      0.000
REMARK INTER + INTRA:          -8.074
REMARK INTER:                  -7.664
REMARK INTRA:                  -0.410
REMARK UNBOUND:                -0.410
REMARK SMILES O=c1c(O)c(-c2ccc(O)cc2O)oc2cc(O)cc(O)c12
REMARK SMILES IDX 5 1 3 2 2 3 1 4 22 5 20 6 19 7 17 8 16 9 15 10 14 11 6 12
REMARK SMILES IDX 8 13 7 14 9 15 11 16 12 17 10 18 13 20 4 22 21 24 18 26
REMARK H PARENT 10 19 13 21 4 23 21 25 18 27
REMARK Flexibility Score: inf
ROOT
ATOM      1  C   UNL     1      14.425  55.847  34.581  1.00  0.00     0.184 A 
ATOM      2  C   UNL     1      14.256  55.559  33.215  1.00  0.00     0.208 A 
ATOM      3  C   UNL     1      14.755  56.463  32.265  1.00  0.00     0.238 A 
ATOM      4  O   UNL     1      14.620  56.210  31.037  1.00  0.00    -0.285 OA
ATOM      5  C   UNL     1      15.393  57.644  32.696  1.00  0.00     0.111 A 
ATOM      6  C   UNL     1      15.922  58.609  31.804  1.00  0.00     0.134 A 
ATOM      7  C   UNL     1      16.534  59.764  32.313  1.00  0.00     0.093 A 
ATOM      8  C   UNL     1      16.629  59.972  33.693  1.00  0.00     0.123 A 
ATOM      9  C   UNL     1      16.112  59.024  34.576  1.00  0.00     0.094 A 
ATOM     10  C   UNL     1      15.497  57.865  34.090  1.00  0.00     0.146 A 
ATOM     11  O   UNL     1      15.017  56.977  34.953  1.00  0.00    -0.451 OA
ENDROOT
BRANCH   1  12
ATOM     12  C   UNL     1      13.934  54.933  35.633  1.00  0.00     0.063 A 
ATOM     13  C   UNL     1      14.350  53.037  37.097  1.00  0.00     0.047 A 
ATOM     14  C   UNL     1      14.785  53.922  36.107  1.00  0.00     0.020 A 
ATOM     15  C   UNL     1      13.057  53.141  37.615  1.00  0.00     0.119 A 
ATOM     16  C   UNL     1      12.192  54.133  37.133  1.00  0.00     0.093 A 
ATOM     17  C   UNL     1      12.618  55.021  36.135  1.00  0.00     0.130 A 
BRANCH  15  18
ATOM     18  O   UNL     1      12.639  52.254  38.605  1.00  0.00    -0.508 OA
ATOM     19  H   UNL     1      12.465  52.563  39.554  1.00  0.00     0.293 HD
ENDBRANCH  15  18
BRANCH  17  20
ATOM     20  O   UNL     1      11.732  55.972  35.628  1.00  0.00    -0.507 OA
ATOM     21  H   UNL     1      11.860  56.962  35.798  1.00  0.00     0.293 HD
ENDBRANCH  17  20
ENDBRANCH   1  12
BRANCH   2  22
ATOM     22  O   UNL     1      13.579  54.402  32.820  1.00  0.00    -0.502 OA
ATOM     23  H   UNL     1      13.984  53.478  32.913  1.00  0.00     0.293 HD
ENDBRANCH   2  22
BRANCH   6  24
ATOM     24  O   UNL     1      15.841  58.429  30.423  1.00  0.00    -0.507 OA
ATOM     25  H   UNL     1      15.120  58.876  29.868  1.00  0.00     0.293 HD
ENDBRANCH   6  24
BRANCH   8  26
ATOM     26  O   UNL     1      17.237  61.120  34.198  1.00  0.00    -0.508 OA
ATOM     27  H   UNL     1      16.889  61.582  35.029  1.00  0.00     0.293 HD
ENDBRANCH   8  26
TORSDOF 6
ENDMDL
MODEL 2
REMARK VINA RESULT:    -5.539      1.895      2.553
REMARK INTER + INTRA:          -7.083
REMARK INTER:                  -6.660
REMARK INTRA:                  -0.423
REMARK UNBOUND:                -0.410
REMARK SMILES O=c1c(O)c(-c2ccc(O)cc2O)oc2cc(O)cc(O)c12
REMARK SMILES IDX 5 1 3 2 2 3 1 4 22 5 20 6 19 7 17 8 16 9 15 10 14 11 6 12
REMARK SMILES IDX 8 13 7 14 9 15 11 16 12 17 10 18 13 20 4 22 21 24 18 26
REMARK H PARENT 10 19 13 21 4 23 21 25 18 27
REMARK Flexibility Score: inf
ROOT
ATOM      1  C   UNL     1      14.299  56.158  34.858  1.00  0.00     0.184 A 
ATOM      2  C   UNL     1      13.029  56.634  34.485  1.00  0.00     0.208 A 
ATOM      3  C   UNL     1      12.916  57.938  33.979  1.00  0.00     0.238 A 
ATOM      4  O   UNL     1      11.785  58.372  33.630  1.00  0.00    -0.285 OA
ATOM      5  C   UNL     1      14.067  58.747  33.876  1.00  0.00     0.111 A 
ATOM      6  C   UNL     1      14.040  60.073  33.380  1.00  0.00     0.134 A 
ATOM      7  C   UNL     1      15.228  60.816  33.318  1.00  0.00     0.093 A 
ATOM      8  C   UNL     1      16.440  60.260  33.740  1.00  0.00     0.123 A 
ATOM      9  C   UNL     1      16.473  58.953  34.228  1.00  0.00     0.094 A 
ATOM     10  C   UNL     1      15.300  58.194  34.298  1.00  0.00     0.146 A 
ATOM     11  O   UNL     1      15.360  56.951  34.763  1.00  0.00    -0.451 OA
ENDROOT
BRANCH   1  12
ATOM     12  C   UNL     1      14.490  54.791  35.387  1.00  0.00     0.063 A 
ATOM     13  C   UNL     1      14.373  53.257  37.269  1.00  0.00     0.047 A 
ATOM     14  C   UNL     1      14.198  54.537  36.736  1.00  0.00     0.020 A 
ATOM     15  C   UNL     1      14.854  52.221  36.467  1.00  0.00     0.119 A 
ATOM     16  C   UNL     1      15.169  52.468  35.124  1.00  0.00     0.093 A 
ATOM     17  C   UNL     1      15.003  53.752  34.582  1.00  0.00     0.130 A 
BRANCH  15  18
ATOM     18  O   UNL     1      15.019  50.948  37.011  1.00  0.00    -0.508 OA
ATOM     19  H   UNL     1      15.654  50.780  37.781  1.00  0.00     0.293 HD
ENDBRANCH  15  18
BRANCH  17  20
ATOM     20  O   UNL     1      15.367  53.999  33.258  1.00  0.00    -0.507 OA
ATOM     21  H   UNL     1      15.666  54.916  32.951  1.00  0.00     0.293 HD
ENDBRANCH  17  20
ENDBRANCH   1  12
BRANCH   2  22
ATOM     22  O   UNL     1      11.902  55.824  34.642  1.00  0.00    -0.502 OA
ATOM     23  H   UNL     1      11.492  55.633  35.548  1.00  0.00     0.293 HD
ENDBRANCH   2  22
BRANCH   6  24
ATOM     24  O   UNL     1      12.846  60.654  32.953  1.00  0.00    -0.507 OA
ATOM     25  H   UNL     1      11.974  60.136  32.940  1.00  0.00     0.293 HD
ENDBRANCH   6  24
BRANCH   8  26
ATOM     26  O   UNL     1      17.620  60.999  33.679  1.00  0.00    -0.508 OA
ATOM     27  H   UNL     1      17.963  61.518  34.479  1.00  0.00     0.293 HD
ENDBRANCH   8  26
TORSDOF 6
ENDMDL
MODEL 3
REMARK VINA RESULT:    -5.213      2.403      3.449
REMARK INTER + INTRA:          -6.689
REMARK INTER:                  -6.278
REMARK INTRA:                  -0.411
REMARK UNBOUND:                -0.410
REMARK SMILES O=c1c(O)c(-c2ccc(O)cc2O)oc2cc(O)cc(O)c12
REMARK SMILES IDX 5 1 3 2 2 3 1 4 22 5 20 6 19 7 17 8 16 9 15 10 14 11 6 12
REMARK SMILES IDX 8 13 7 14 9 15 11 16 12 17 10 18 13 20 4 22 21 24 18 26
REMARK H PARENT 10 19 13 21 4 23 21 25 18 27
REMARK Flexibility Score: inf
ROOT
ATOM      1  C   UNL     1      15.012  56.214  33.944  1.00  0.00     0.184 A 
ATOM      2  C   UNL     1      16.200  56.812  33.487  1.00  0.00     0.208 A 
ATOM      3  C   UNL     1      16.305  58.211  33.504  1.00  0.00     0.238 A 
ATOM      4  O   UNL     1      17.369  58.759  33.108  1.00  0.00    -0.285 OA
ATOM      5  C   UNL     1      15.215  58.985  33.955  1.00  0.00     0.111 A 
ATOM      6  C   UNL     1      15.237  60.400  34.002  1.00  0.00     0.134 A 
ATOM      7  C   UNL     1      14.108  61.098  34.455  1.00  0.00     0.093 A 
ATOM      8  C   UNL     1      12.960  60.409  34.864  1.00  0.00     0.123 A 
ATOM      9  C   UNL     1      12.934  59.015  34.822  1.00  0.00     0.094 A 
ATOM     10  C   UNL     1      14.049  58.299  34.373  1.00  0.00     0.146 A 
ATOM     11  O   UNL     1      13.999  56.973  34.347  1.00  0.00    -0.451 OA
ENDROOT
BRANCH   1  12
ATOM     12  C   UNL     1      14.840  54.746  33.964  1.00  0.00     0.063 A 
ATOM     13  C   UNL     1      15.091  52.642  35.156  1.00  0.00     0.047 A 
ATOM     14  C   UNL     1      15.234  54.031  35.106  1.00  0.00     0.020 A 
ATOM     15  C   UNL     1      14.567  51.949  34.062  1.00  0.00     0.119 A 
ATOM     16  C   UNL     1      14.192  52.650  32.908  1.00  0.00     0.093 A 
ATOM     17  C   UNL     1      14.339  54.044  32.847  1.00  0.00     0.130 A 
BRANCH  15  18
ATOM     18  O   UNL     1      14.426  50.564  34.127  1.00  0.00    -0.508 OA
ATOM     19  H   UNL     1      14.521  49.983  33.304  1.00  0.00     0.293 HD
ENDBRANCH  15  18
BRANCH  17  20
ATOM     20  O   UNL     1      14.009  54.726  31.676  1.00  0.00    -0.507 OA
ATOM     21  H   UNL     1      13.638  55.669  31.695  1.00  0.00     0.293 HD
ENDBRANCH  17  20
ENDBRANCH   1  12
BRANCH   2  22
ATOM     22  O   UNL     1      17.244  56.019  33.003  1.00  0.00    -0.502 OA
ATOM     23  H   UNL     1      17.483  55.126  33.416  1.00  0.00     0.293 HD
ENDBRANCH   2  22
BRANCH   6  24
ATOM     24  O   UNL     1      16.366  61.113  33.600  1.00  0.00    -0.507 OA
ATOM     25  H   UNL     1      16.418  61.564  32.693  1.00  0.00     0.293 HD
ENDBRANCH   6  24
BRANCH   8  26
ATOM     26  O   UNL     1      11.838  61.103  35.314  1.00  0.00    -0.508 OA
ATOM     27  H   UNL     1      11.825  62.116  35.361  1.00  0.00     0.293 HD
ENDBRANCH   8  26
TORSDOF 6
ENDMDL
MODEL 4
REMARK VINA RESULT:    -5.120      2.997      3.916
REMARK INTER + INTRA:          -6.578
REMARK INTER:                  -6.256
REMARK INTRA:                  -0.323
REMARK UNBOUND:                -0.410
REMARK SMILES O=c1c(O)c(-c2ccc(O)cc2O)oc2cc(O)cc(O)c12
REMARK SMILES IDX 5 1 3 2 2 3 1 4 22 5 20 6 19 7 17 8 16 9 15 10 14 11 6 12
REMARK SMILES IDX 8 13 7 14 9 15 11 16 12 17 10 18 13 20 4 22 21 24 18 26
REMARK H PARENT 10 19 13 21 4 23 21 25 18 27
REMARK Flexibility Score: inf
ROOT
ATOM      1  C   UNL     1      13.999  54.048  33.692  1.00  0.00     0.184 A 
ATOM      2  C   UNL     1      12.973  54.865  34.200  1.00  0.00     0.208 A 
ATOM      3  C   UNL     1      13.223  56.234  34.381  1.00  0.00     0.238 A 
ATOM      4  O   UNL     1      12.308  56.979  34.825  1.00  0.00    -0.285 OA
ATOM      5  C   UNL     1      14.497  56.755  34.071  1.00  0.00     0.111 A 
ATOM      6  C   UNL     1      14.832  58.122  34.226  1.00  0.00     0.134 A 
ATOM      7  C   UNL     1      16.125  58.561  33.904  1.00  0.00     0.093 A 
ATOM      8  C   UNL     1      17.086  57.662  33.429  1.00  0.00     0.123 A 
ATOM      9  C   UNL     1      16.760  56.314  33.273  1.00  0.00     0.094 A 
ATOM     10  C   UNL     1      15.477  55.855  33.588  1.00  0.00     0.146 A 
ATOM     11  O   UNL     1      15.192  54.568  33.425  1.00  0.00    -0.451 OA
ENDROOT
BRANCH   1  12
ATOM     12  C   UNL     1      13.799  52.601  33.467  1.00  0.00     0.063 A 
ATOM     13  C   UNL     1      12.561  50.823  32.364  1.00  0.00     0.047 A 
ATOM     14  C   UNL     1      12.781  52.183  32.595  1.00  0.00     0.020 A 
ATOM     15  C   UNL     1      13.343  49.864  33.012  1.00  0.00     0.119 A 
ATOM     16  C   UNL     1      14.347  50.270  33.902  1.00  0.00     0.093 A 
ATOM     17  C   UNL     1      14.570  51.633  34.144  1.00  0.00     0.130 A 
BRANCH  15  18
ATOM     18  O   UNL     1      13.115  48.511  32.768  1.00  0.00    -0.508 OA
ATOM     19  H   UNL     1      12.321  48.197  32.225  1.00  0.00     0.293 HD
ENDBRANCH  15  18
BRANCH  17  20
ATOM     20  O   UNL     1      15.539  52.024  35.069  1.00  0.00    -0.507 OA
ATOM     21  H   UNL     1      15.291  52.491  35.933  1.00  0.00     0.293 HD
ENDBRANCH  17  20
ENDBRANCH   1  12
BRANCH   2  22
ATOM     22  O   UNL     1      11.737  54.310  34.541  1.00  0.00    -0.502 OA
ATOM     23  H   UNL     1      11.517  54.013  35.484  1.00  0.00     0.293 HD
ENDBRANCH   2  22
BRANCH   6  24
ATOM     24  O   UNL     1      13.896  59.042  34.698  1.00  0.00    -0.507 OA
ATOM     25  H   UNL     1      13.018  58.745  35.111  1.00  0.00     0.293 HD
ENDBRANCH   6  24
BRANCH   8  26
ATOM     26  O   UNL     1      18.371  58.098  33.110  1.00  0.00    -0.508 OA
ATOM     27  H   UNL     1      19.064  58.276  33.828  1.00  0.00     0.293 HD
ENDBRANCH   8  26
TORSDOF 6
ENDMDL
MODEL 5
REMARK VINA RESULT:    -5.083      5.098      6.743
REMARK INTER + INTRA:          -6.533
REMARK INTER:                  -6.235
REMARK INTRA:                  -0.298
REMARK UNBOUND:                -0.410
REMARK SMILES O=c1c(O)c(-c2ccc(O)cc2O)oc2cc(O)cc(O)c12
REMARK SMILES IDX 5 1 3 2 2 3 1 4 22 5 20 6 19 7 17 8 16 9 15 10 14 11 6 12
REMARK SMILES IDX 8 13 7 14 9 15 11 16 12 17 10 18 13 20 4 22 21 24 18 26
REMARK H PARENT 10 19 13 21 4 23 21 25 18 27
REMARK Flexibility Score: inf
ROOT
ATOM      1  C   UNL     1      14.441  50.239  33.152  1.00  0.00     0.184 A 
ATOM      2  C   UNL     1      14.263  51.093  32.049  1.00  0.00     0.208 A 
ATOM      3  C   UNL     1      14.267  52.481  32.258  1.00  0.00     0.238 A 
ATOM      4  O   UNL     1      14.119  53.257  31.275  1.00  0.00    -0.285 OA
ATOM      5  C   UNL     1      14.429  52.987  33.565  1.00  0.00     0.111 A 
ATOM      6  C   UNL     1      14.443  54.371  33.862  1.00  0.00     0.134 A 
ATOM      7  C   UNL     1      14.600  54.795  35.190  1.00  0.00     0.093 A 
ATOM      8  C   UNL     1      14.744  53.863  36.224  1.00  0.00     0.123 A 
ATOM      9  C   UNL     1      14.733  52.497  35.935  1.00  0.00     0.094 A 
ATOM     10  C   UNL     1      14.578  52.054  34.618  1.00  0.00     0.146 A 
ATOM     11  O   UNL     1      14.576  50.749  34.371  1.00  0.00    -0.451 OA
ENDROOT
BRANCH   1  12
ATOM     12  C   UNL     1      14.458  48.769  32.999  1.00  0.00     0.063 A 
ATOM     13  C   UNL     1      13.436  46.619  33.489  1.00  0.00     0.047 A 
ATOM     14  C   UNL     1      13.446  48.011  33.609  1.00  0.00     0.020 A 
ATOM     15  C   UNL     1      14.442  45.967  32.773  1.00  0.00     0.119 A 
ATOM     16  C   UNL     1      15.469  46.712  32.180  1.00  0.00     0.093 A 
ATOM     17  C   UNL     1      15.491  48.110  32.300  1.00  0.00     0.130 A 
BRANCH  15  18
ATOM     18  O   UNL     1      14.416  44.578  32.659  1.00  0.00    -0.508 OA
ATOM     19  H   UNL     1      15.052  44.085  32.044  1.00  0.00     0.293 HD
ENDBRANCH  15  18
BRANCH  17  20
ATOM     20  O   UNL     1      16.546  48.837  31.748  1.00  0.00    -0.507 OA
ATOM     21  H   UNL     1      17.337  49.134  32.306  1.00  0.00     0.293 HD
ENDBRANCH  17  20
ENDBRANCH   1  12
BRANCH   2  22
ATOM     22  O   UNL     1      14.059  50.560  30.773  1.00  0.00    -0.502 OA
ATOM     23  H   UNL     1      13.145  50.271  30.445  1.00  0.00     0.293 HD
ENDBRANCH   2  22
BRANCH   6  24
ATOM     24  O   UNL     1      14.300  55.324  32.853  1.00  0.00    -0.507 OA
ATOM     25  H   UNL     1      13.561  55.262  32.162  1.00  0.00     0.293 HD
ENDBRANCH   6  24
BRANCH   8  26
ATOM     26  O   UNL     1      14.899  54.284  37.543  1.00  0.00    -0.508 OA
ATOM     27  H   UNL     1      15.564  53.842  38.166  1.00  0.00     0.293 HD
ENDBRANCH   8  26
TORSDOF 6
ENDMDL
MODEL 6
REMARK VINA RESULT:    -5.052      2.587      6.437
REMARK INTER + INTRA:          -6.495
REMARK INTER:                  -6.073
REMARK INTRA:                  -0.422
REMARK UNBOUND:                -0.410
REMARK SMILES O=c1c(O)c(-c2ccc(O)cc2O)oc2cc(O)cc(O)c12
REMARK SMILES IDX 5 1 3 2 2 3 1 4 22 5 20 6 19 7 17 8 16 9 15 10 14 11 6 12
REMARK SMILES IDX 8 13 7 14 9 15 11 16 12 17 10 18 13 20 4 22 21 24 18 26
REMARK H PARENT 10 19 13 21 4 23 21 25 18 27
REMARK Flexibility Score: inf
ROOT
ATOM      1  C   UNL     1      15.293  55.833  33.296  1.00  0.00     0.184 A 
ATOM      2  C   UNL     1      14.974  54.856  34.256  1.00  0.00     0.208 A 
ATOM      3  C   UNL     1      14.606  53.573  33.822  1.00  0.00     0.238 A 
ATOM      4  O   UNL     1      14.329  52.686  34.674  1.00  0.00    -0.285 OA
ATOM      5  C   UNL     1      14.544  53.298  32.440  1.00  0.00     0.111 A 
ATOM      6  C   UNL     1      14.180  52.032  31.919  1.00  0.00     0.134 A 
ATOM      7  C   UNL     1      14.133  51.841  30.530  1.00  0.00     0.093 A 
ATOM      8  C   UNL     1      14.443  52.887  29.654  1.00  0.00     0.123 A 
ATOM      9  C   UNL     1      14.804  54.135  30.163  1.00  0.00     0.094 A 
ATOM     10  C   UNL     1      14.858  54.348  31.545  1.00  0.00     0.146 A 
ATOM     11  O   UNL     1      15.209  55.544  32.002  1.00  0.00    -0.451 OA
ENDROOT
BRANCH   1  12
ATOM     12  C   UNL     1      15.698  57.200  33.685  1.00  0.00     0.063 A 
ATOM     13  C   UNL     1      15.073  59.387  34.542  1.00  0.00     0.047 A 
ATOM     14  C   UNL     1      14.724  58.086  34.170  1.00  0.00     0.020 A 
ATOM     15  C   UNL     1      16.394  59.823  34.420  1.00  0.00     0.119 A 
ATOM     16  C   UNL     1      17.370  58.953  33.916  1.00  0.00     0.093 A 
ATOM     17  C   UNL     1      17.028  57.648  33.535  1.00  0.00     0.130 A 
BRANCH  15  18
ATOM     18  O   UNL     1      16.728  61.122  34.799  1.00  0.00    -0.508 OA
ATOM     19  H   UNL     1      16.404  61.519  35.672  1.00  0.00     0.293 HD
ENDBRANCH  15  18
BRANCH  17  20
ATOM     20  O   UNL     1      17.998  56.807  32.988  1.00  0.00    -0.507 OA
ATOM     21  H   UNL     1      18.909  56.696  33.417  1.00  0.00     0.293 HD
ENDBRANCH  17  20
ENDBRANCH   1  12
BRANCH   2  22
ATOM     22  O   UNL     1      15.001  55.174  35.616  1.00  0.00    -0.502 OA
ATOM     23  H   UNL     1      14.774  54.498  36.336  1.00  0.00     0.293 HD
ENDBRANCH   2  22
BRANCH   6  24
ATOM     24  O   UNL     1      13.865  50.971  32.767  1.00  0.00    -0.507 OA
ATOM     25  H   UNL     1      14.336  50.075  32.698  1.00  0.00     0.293 HD
ENDBRANCH   6  24
BRANCH   8  26
ATOM     26  O   UNL     1      14.395  52.696  28.275  1.00  0.00    -0.508 OA
ATOM     27  H   UNL     1      15.196  52.352  27.759  1.00  0.00     0.293 HD
ENDBRANCH   8  26
TORSDOF 6
ENDMDL
MODEL 7
REMARK VINA RESULT:    -5.008      2.226      3.244
REMARK INTER + INTRA:          -6.443
REMARK INTER:                  -6.036
REMARK INTRA:                  -0.406
REMARK UNBOUND:                -0.410
REMARK SMILES O=c1c(O)c(-c2ccc(O)cc2O)oc2cc(O)cc(O)c12
REMARK SMILES IDX 5 1 3 2 2 3 1 4 22 5 20 6 19 7 17 8 16 9 15 10 14 11 6 12
REMARK SMILES IDX 8 13 7 14 9 15 11 16 12 17 10 18 13 20 4 22 21 24 18 26
REMARK H PARENT 10 19 13 21 4 23 21 25 18 27
REMARK Flexibility Score: inf
ROOT
ATOM      1  C   UNL     1      14.213  55.822  34.261  1.00  0.00     0.184 A 
ATOM      2  C   UNL     1      12.984  56.424  34.584  1.00  0.00     0.208 A 
ATOM      3  C   UNL     1      12.912  57.823  34.658  1.00  0.00     0.238 A 
ATOM      4  O   UNL     1      11.813  58.375  34.936  1.00  0.00    -0.285 OA
ATOM      5  C   UNL     1      14.073  58.592  34.429  1.00  0.00     0.111 A 
ATOM      6  C   UNL     1      14.088  60.007  34.488  1.00  0.00     0.134 A 
ATOM      7  C   UNL     1      15.286  60.699  34.257  1.00  0.00     0.093 A 
ATOM      8  C   UNL     1      16.466  60.005  33.968  1.00  0.00     0.123 A 
ATOM      9  C   UNL     1      16.456  58.611  33.908  1.00  0.00     0.094 A 
ATOM     10  C   UNL     1      15.272  57.901  34.135  1.00  0.00     0.146 A 
ATOM     11  O   UNL     1      15.290  56.575  34.066  1.00  0.00    -0.451 OA
ENDROOT
BRANCH   1  12
ATOM     12  C   UNL     1      14.354  54.355  34.154  1.00  0.00     0.063 A 
ATOM     13  C   UNL     1      14.158  52.342  32.805  1.00  0.00     0.047 A 
ATOM     14  C   UNL     1      14.041  53.728  32.938  1.00  0.00     0.020 A 
ATOM     15  C   UNL     1      14.575  51.565  33.888  1.00  0.00     0.119 A 
ATOM     16  C   UNL     1      14.869  52.178  35.113  1.00  0.00     0.093 A 
ATOM     17  C   UNL     1      14.748  53.568  35.257  1.00  0.00     0.130 A 
BRANCH  15  18
ATOM     18  O   UNL     1      14.692  50.184  33.740  1.00  0.00    -0.508 OA
ATOM     19  H   UNL     1      15.248  49.628  34.377  1.00  0.00     0.293 HD
ENDBRANCH  15  18
BRANCH  17  20
ATOM     20  O   UNL     1      14.996  54.162  36.495  1.00  0.00    -0.507 OA
ATOM     21  H   UNL     1      15.771  54.798  36.634  1.00  0.00     0.293 HD
ENDBRANCH  17  20
ENDBRANCH   1  12
BRANCH   2  22
ATOM     22  O   UNL     1      11.863  55.633  34.850  1.00  0.00    -0.502 OA
ATOM     23  H   UNL     1      11.838  54.641  34.643  1.00  0.00     0.293 HD
ENDBRANCH   2  22
BRANCH   6  24
ATOM     24  O   UNL     1      12.927  60.725  34.774  1.00  0.00    -0.507 OA
ATOM     25  H   UNL     1      12.160  60.315  35.296  1.00  0.00     0.293 HD
ENDBRANCH   6  24
BRANCH   8  26
ATOM     26  O   UNL     1      17.656  60.694  33.740  1.00  0.00    -0.508 OA
ATOM     27  H   UNL     1      17.942  61.468  34.328  1.00  0.00     0.293 HD
ENDBRANCH   8  26
TORSDOF 6
ENDMDL
MODEL 8
REMARK VINA RESULT:    -4.986      2.098      4.066
REMARK INTER + INTRA:          -6.416
REMARK INTER:                  -6.024
REMARK INTRA:                  -0.392
REMARK UNBOUND:                -0.410
REMARK SMILES O=c1c(O)c(-c2ccc(O)cc2O)oc2cc(O)cc(O)c12
REMARK SMILES IDX 5 1 3 2 2 3 1 4 22 5 20 6 19 7 17 8 16 9 15 10 14 11 6 12
REMARK SMILES IDX 8 13 7 14 9 15 11 16 12 17 10 18 13 20 4 22 21 24 18 26
REMARK H PARENT 10 19 13 21 4 23 21 25 18 27
REMARK Flexibility Score: inf
ROOT
ATOM      1  C   UNL     1      14.482  54.774  33.763  1.00  0.00     0.184 A 
ATOM      2  C   UNL     1      14.848  56.130  33.698  1.00  0.00     0.208 A 
ATOM      3  C   UNL     1      15.246  56.667  32.464  1.00  0.00     0.238 A 
ATOM      4  O   UNL     1      15.566  57.884  32.391  1.00  0.00    -0.285 OA
ATOM      5  C   UNL     1      15.291  55.834  31.326  1.00  0.00     0.111 A 
ATOM      6  C   UNL     1      15.684  56.295  30.045  1.00  0.00     0.134 A 
ATOM      7  C   UNL     1      15.711  55.402  28.964  1.00  0.00     0.093 A 
ATOM      8  C   UNL     1      15.352  54.060  29.138  1.00  0.00     0.123 A 
ATOM      9  C   UNL     1      14.963  53.602  30.397  1.00  0.00     0.094 A 
ATOM     10  C   UNL     1      14.929  54.476  31.488  1.00  0.00     0.146 A 
ATOM     11  O   UNL     1      14.550  54.015  32.675  1.00  0.00    -0.451 OA
ENDROOT
BRANCH   1  12
ATOM     12  C   UNL     1      14.042  54.149  35.028  1.00  0.00     0.063 A 
ATOM     13  C   UNL     1      12.386  53.993  36.801  1.00  0.00     0.047 A 
ATOM     14  C   UNL     1      12.828  54.559  35.603  1.00  0.00     0.020 A 
ATOM     15  C   UNL     1      13.155  53.022  37.446  1.00  0.00     0.119 A 
ATOM     16  C   UNL     1      14.378  52.622  36.893  1.00  0.00     0.093 A 
ATOM     17  C   UNL     1      14.833  53.190  35.694  1.00  0.00     0.130 A 
BRANCH  15  18
ATOM     18  O   UNL     1      12.699  52.463  38.639  1.00  0.00    -0.508 OA
ATOM     19  H   UNL     1      12.956  51.524  38.916  1.00  0.00     0.293 HD
ENDBRANCH  15  18
BRANCH  17  20
ATOM     20  O   UNL     1      16.076  52.820  35.178  1.00  0.00    -0.507 OA
ATOM     21  H   UNL     1      16.867  52.630  35.782  1.00  0.00     0.293 HD
ENDBRANCH  17  20
ENDBRANCH   1  12
BRANCH   2  22
ATOM     22  O   UNL     1      14.837  56.916  34.853  1.00  0.00    -0.502 OA
ATOM     23  H   UNL     1      13.988  57.326  35.223  1.00  0.00     0.293 HD
ENDBRANCH   2  22
BRANCH   6  24
ATOM     24  O   UNL     1      16.047  57.626  29.842  1.00  0.00    -0.507 OA
ATOM     25  H   UNL     1      16.268  57.984  28.919  1.00  0.00     0.293 HD
ENDBRANCH   6  24
BRANCH   8  26
ATOM     26  O   UNL     1      15.380  53.174  28.063  1.00  0.00    -0.508 OA
ATOM     27  H   UNL     1      15.985  52.361  28.062  1.00  0.00     0.293 HD
ENDBRANCH   8  26
TORSDOF 6
ENDMDL
MODEL 9
REMARK VINA RESULT:    -4.871     14.265     15.065
REMARK INTER + INTRA:          -6.278
REMARK INTER:                  -5.920
REMARK INTRA:                  -0.358
REMARK UNBOUND:                -0.410
REMARK SMILES O=c1c(O)c(-c2ccc(O)cc2O)oc2cc(O)cc(O)c12
REMARK SMILES IDX 5 1 3 2 2 3 1 4 22 5 20 6 19 7 17 8 16 9 15 10 14 11 6 12
REMARK SMILES IDX 8 13 7 14 9 15 11 16 12 17 10 18 13 20 4 22 21 24 18 26
REMARK H PARENT 10 19 13 21 4 23 21 25 18 27
REMARK Flexibility Score: inf
ROOT
ATOM      1  C   UNL     1      28.870  51.462  32.863  1.00  0.00     0.184 A 
ATOM      2  C   UNL     1      29.644  51.934  31.789  1.00  0.00     0.208 A 
ATOM      3  C   UNL     1      29.043  52.771  30.836  1.00  0.00     0.238 A 
ATOM      4  O   UNL     1      29.730  53.210  29.874  1.00  0.00    -0.285 OA
ATOM      5  C   UNL     1      27.678  53.102  30.964  1.00  0.00     0.111 A 
ATOM      6  C   UNL     1      26.995  53.937  30.047  1.00  0.00     0.134 A 
ATOM      7  C   UNL     1      25.633  54.212  30.239  1.00  0.00     0.093 A 
ATOM      8  C   UNL     1      24.943  53.671  31.329  1.00  0.00     0.123 A 
ATOM      9  C   UNL     1      25.612  52.849  32.237  1.00  0.00     0.094 A 
ATOM     10  C   UNL     1      26.970  52.562  32.064  1.00  0.00     0.146 A 
ATOM     11  O   UNL     1      27.583  51.781  32.945  1.00  0.00    -0.451 OA
ENDROOT
BRANCH   1  12
ATOM     12  C   UNL     1      29.444  50.587  33.907  1.00  0.00     0.063 A 
ATOM     13  C   UNL     1      30.452  48.458  34.508  1.00  0.00     0.047 A 
ATOM     14  C   UNL     1      29.909  49.312  33.545  1.00  0.00     0.020 A 
ATOM     15  C   UNL     1      30.524  48.859  35.844  1.00  0.00     0.119 A 
ATOM     16  C   UNL     1      30.042  50.120  36.220  1.00  0.00     0.093 A 
ATOM     17  C   UNL     1      29.490  50.981  35.261  1.00  0.00     0.130 A 
BRANCH  15  18
ATOM     18  O   UNL     1      31.073  47.997  36.793  1.00  0.00    -0.508 OA
ATOM     19  H   UNL     1      32.034  47.686  36.732  1.00  0.00     0.293 HD
ENDBRANCH  15  18
BRANCH  17  20
ATOM     20  O   UNL     1      28.968  52.214  35.654  1.00  0.00    -0.507 OA
ATOM     21  H   UNL     1      28.747  52.414  36.622  1.00  0.00     0.293 HD
ENDBRANCH  17  20
ENDBRANCH   1  12
BRANCH   2  22
ATOM     22  O   UNL     1      30.982  51.550  31.665  1.00  0.00    -0.502 OA
ATOM     23  H   UNL     1      31.636  52.045  31.070  1.00  0.00     0.293 HD
ENDBRANCH   2  22
BRANCH   6  24
ATOM     24  O   UNL     1      27.656  54.491  28.950  1.00  0.00    -0.507 OA
ATOM     25  H   UNL     1      28.583  54.895  29.035  1.00  0.00     0.293 HD
ENDBRANCH   6  24
BRANCH   8  26
ATOM     26  O   UNL     1      23.590  53.944  31.519  1.00  0.00    -0.508 OA
ATOM     27  H   UNL     1      23.229  54.891  31.478  1.00  0.00     0.293 HD
ENDBRANCH   8  26
TORSDOF 6
ENDMDL
