MODEL 1
REMARK VINA RESULT:    -5.251      0.000      0.000
REMARK INTER + INTRA:         -10.420
REMARK INTER:                  -8.934
REMARK INTRA:                  -1.486
REMARK UNBOUND:                -1.486
REMARK SMILES CCCCCCCCCCCCCC(=O)[O-]
REMARK SMILES IDX 8 1 9 2 10 3 11 4 12 5 13 6 14 7 15 8 16 9 7 10 6 11 5 12
REMARK SMILES IDX 4 13 3 14 2 15 1 16
REMARK H PARENT
REMARK Flexibility Score: inf
ROOT
ATOM      1  C   UNL     1      48.836  50.035  23.493  1.00  0.00     0.000 C 
ENDROOT
BRANCH   1   2
ATOM      2  C   UNL     1      50.183  50.021  22.753  1.00  0.00     0.000 C 
BRANCH   2   3
ATOM      3  C   UNL     1      50.310  51.235  21.824  1.00  0.00     0.000 C 
BRANCH   3   4
ATOM      4  C   UNL     1      51.574  51.134  20.957  1.00  0.00     0.000 C 
BRANCH   4   5
ATOM      5  C   UNL     1      52.717  52.025  21.470  1.00  0.00     0.006 C 
BRANCH   5   6
ATOM      6  C   UNL     1      52.208  53.290  22.173  1.00  0.00     0.053 C 
BRANCH   6   7
ATOM      7  C   UNL     1      53.118  53.661  23.301  1.00  0.00     0.041 C 
ATOM      8  O   UNL     1      52.828  54.626  24.057  1.00  0.00    -0.550 OA
ATOM      9  O   UNL     1      54.261  52.913  23.549  1.00  0.00    -0.550 OA
ENDBRANCH   6   7
ENDBRANCH   5   6
ENDBRANCH   4   5
ENDBRANCH   3   4
ENDBRANCH   2   3
ENDBRANCH   1   2
BRANCH   1  10
ATOM     10  C   UNL     1      47.834  51.028  22.884  1.00  0.00     0.000 C 
BRANCH  10  11
ATOM     11  C   UNL     1      46.513  51.092  23.670  1.00  0.00    -0.000 C 
BRANCH  11  12
ATOM     12  C   UNL     1      46.712  50.954  25.190  1.00  0.00    -0.000 C 
BRANCH  12  13
ATOM     13  C   UNL     1      46.234  52.159  26.023  1.00  0.00    -0.000 C 
BRANCH  13  14
ATOM     14  C   UNL     1      47.226  53.335  25.995  1.00  0.00    -0.000 C 
BRANCH  14  15
ATOM     15  C   UNL     1      48.683  52.879  26.169  1.00  0.00    -0.003 C 
ATOM     16  C   UNL     1      49.592  53.372  25.043  1.00  0.00     0.004 C 
ENDBRANCH  14  15
ENDBRANCH  13  14
ENDBRANCH  12  13
ENDBRANCH  11  12
ENDBRANCH  10  11
ENDBRANCH   1  10
TORSDOF 12
ENDMDL
MODEL 2
REMARK VINA RESULT:    -5.225      0.762      1.609
REMARK INTER + INTRA:         -10.377
REMARK INTER:                  -9.076
REMARK INTRA:                  -1.301
REMARK UNBOUND:                -1.486
REMARK SMILES CCCCCCCCCCCCCC(=O)[O-]
REMARK SMILES IDX 8 1 9 2 10 3 11 4 12 5 13 6 14 7 15 8 16 9 7 10 6 11 5 12
REMARK SMILES IDX 4 13 3 14 2 15 1 16
REMARK H PARENT
REMARK Flexibility Score: inf
ROOT
ATOM      1  C   UNL     1      50.216  49.617  22.368  1.00  0.00     0.000 C 
ENDROOT
BRANCH   1   2
ATOM      2  C   UNL     1      50.383  50.649  21.242  1.00  0.00     0.000 C 
BRANCH   2   3
ATOM      3  C   UNL     1      51.850  51.074  21.102  1.00  0.00     0.000 C 
BRANCH   3   4
ATOM      4  C   UNL     1      51.999  52.596  21.250  1.00  0.00     0.000 C 
BRANCH   4   5
ATOM      5  C   UNL     1      50.934  53.208  22.173  1.00  0.00     0.006 C 
BRANCH   5   6
ATOM      6  C   UNL     1      51.332  53.149  23.654  1.00  0.00     0.053 C 
BRANCH   6   7
ATOM      7  C   UNL     1      52.711  53.695  23.845  1.00  0.00     0.041 C 
ATOM      8  O   UNL     1      52.977  54.877  23.503  1.00  0.00    -0.550 OA
ATOM      9  O   UNL     1      53.691  52.916  24.447  1.00  0.00    -0.550 OA
ENDBRANCH   6   7
ENDBRANCH   5   6
ENDBRANCH   4   5
ENDBRANCH   3   4
ENDBRANCH   2   3
ENDBRANCH   1   2
BRANCH   1  10
ATOM     10  C   UNL     1      49.035  49.939  23.298  1.00  0.00     0.000 C 
BRANCH  10  11
ATOM     11  C   UNL     1      48.086  50.994  22.704  1.00  0.00    -0.000 C 
BRANCH  11  12
ATOM     12  C   UNL     1      46.746  51.086  23.457  1.00  0.00    -0.000 C 
BRANCH  12  13
ATOM     13  C   UNL     1      46.857  51.038  24.993  1.00  0.00    -0.000 C 
BRANCH  13  14
ATOM     14  C   UNL     1      46.077  52.170  25.684  1.00  0.00    -0.000 C 
BRANCH  14  15
ATOM     15  C   UNL     1      47.002  53.248  26.270  1.00  0.00    -0.003 C 
ATOM     16  C   UNL     1      48.480  52.962  26.006  1.00  0.00     0.004 C 
ENDBRANCH  14  15
ENDBRANCH  13  14
ENDBRANCH  12  13
ENDBRANCH  11  12
ENDBRANCH  10  11
ENDBRANCH   1  10
TORSDOF 12
ENDMDL
MODEL 3
REMARK VINA RESULT:    -5.170      2.033      5.477
REMARK INTER + INTRA:         -10.282
REMARK INTER:                  -9.280
REMARK INTRA:                  -1.002
REMARK UNBOUND:                -1.486
REMARK SMILES CCCCCCCCCCCCCC(=O)[O-]
REMARK SMILES IDX 8 1 9 2 10 3 11 4 12 5 13 6 14 7 15 8 16 9 7 10 6 11 5 12
REMARK SMILES IDX 4 13 3 14 2 15 1 16
REMARK H PARENT
REMARK Flexibility Score: inf
ROOT
ATOM      1  C   UNL     1      49.557  50.351  22.250  1.00  0.00     0.000 C 
ENDROOT
BRANCH   1   2
ATOM      2  C   UNL     1      49.268  49.536  23.521  1.00  0.00     0.000 C 
BRANCH   2   3
ATOM      3  C   UNL     1      47.925  49.942  24.140  1.00  0.00     0.000 C 
BRANCH   3   4
ATOM      4  C   UNL     1      47.214  50.992  23.273  1.00  0.00     0.000 C 
BRANCH   4   5
ATOM      5  C   UNL     1      46.878  52.274  24.052  1.00  0.00     0.006 C 
BRANCH   5   6
ATOM      6  C   UNL     1      47.191  52.154  25.549  1.00  0.00     0.053 C 
BRANCH   6   7
ATOM      7  C   UNL     1      48.415  52.940  25.892  1.00  0.00     0.041 C 
ATOM      8  O   UNL     1      48.620  53.309  27.079  1.00  0.00    -0.550 OA
ATOM      9  O   UNL     1      49.357  53.225  24.911  1.00  0.00    -0.550 OA
ENDBRANCH   6   7
ENDBRANCH   5   6
ENDBRANCH   4   5
ENDBRANCH   3   4
ENDBRANCH   2   3
ENDBRANCH   1   2
BRANCH   1  10
ATOM     10  C   UNL     1      50.793  51.252  22.391  1.00  0.00     0.000 C 
BRANCH  10  11
ATOM     11  C   UNL     1      51.746  51.140  21.188  1.00  0.00    -0.000 C 
BRANCH  11  12
ATOM     12  C   UNL     1      52.783  52.277  21.136  1.00  0.00    -0.000 C 
BRANCH  12  13
ATOM     13  C   UNL     1      53.160  52.877  22.504  1.00  0.00    -0.000 C 
BRANCH  13  14
ATOM     14  C   UNL     1      52.901  54.391  22.584  1.00  0.00    -0.000 C 
BRANCH  14  15
ATOM     15  C   UNL     1      52.060  54.907  21.406  1.00  0.00    -0.003 C 
ATOM     16  C   UNL     1      52.581  56.230  20.845  1.00  0.00     0.004 C 
ENDBRANCH  14  15
ENDBRANCH  13  14
ENDBRANCH  12  13
ENDBRANCH  11  12
ENDBRANCH  10  11
ENDBRANCH   1  10
TORSDOF 12
ENDMDL
MODEL 4
REMARK VINA RESULT:    -5.130      2.766      5.814
REMARK INTER + INTRA:         -10.214
REMARK INTER:                  -9.003
REMARK INTRA:                  -1.212
REMARK UNBOUND:                -1.486
REMARK SMILES CCCCCCCCCCCCCC(=O)[O-]
REMARK SMILES IDX 8 1 9 2 10 3 11 4 12 5 13 6 14 7 15 8 16 9 7 10 6 11 5 12
REMARK SMILES IDX 4 13 3 14 2 15 1 16
REMARK H PARENT
REMARK Flexibility Score: inf
ROOT
ATOM      1  C   UNL     1      49.237  53.209  25.340  1.00  0.00     0.000 C 
ENDROOT
BRANCH   1   2
ATOM      2  C   UNL     1      48.113  52.162  25.290  1.00  0.00     0.000 C 
BRANCH   2   3
ATOM      3  C   UNL     1      47.453  52.131  23.907  1.00  0.00     0.000 C 
BRANCH   3   4
ATOM      4  C   UNL     1      47.473  50.713  23.318  1.00  0.00     0.000 C 
BRANCH   4   5
ATOM      5  C   UNL     1      48.301  49.732  24.164  1.00  0.00     0.006 C 
BRANCH   5   6
ATOM      6  C   UNL     1      49.424  49.063  23.360  1.00  0.00     0.053 C 
BRANCH   6   7
ATOM      7  C   UNL     1      49.938  47.860  24.084  1.00  0.00     0.041 C 
ATOM      8  O   UNL     1      51.154  47.540  23.997  1.00  0.00    -0.550 OA
ATOM      9  O   UNL     1      49.089  47.119  24.895  1.00  0.00    -0.550 OA
ENDBRANCH   6   7
ENDBRANCH   5   6
ENDBRANCH   4   5
ENDBRANCH   3   4
ENDBRANCH   2   3
ENDBRANCH   1   2
BRANCH   1  10
ATOM     10  C   UNL     1      50.067  53.251  24.047  1.00  0.00     0.000 C 
BRANCH  10  11
ATOM     11  C   UNL     1      51.580  53.305  24.316  1.00  0.00    -0.000 C 
BRANCH  11  12
ATOM     12  C   UNL     1      52.362  54.027  23.204  1.00  0.00    -0.000 C 
BRANCH  12  13
ATOM     13  C   UNL     1      51.649  54.086  21.839  1.00  0.00    -0.000 C 
BRANCH  13  14
ATOM     14  C   UNL     1      52.376  53.280  20.750  1.00  0.00    -0.000 C 
BRANCH  14  15
ATOM     15  C   UNL     1      52.604  51.815  21.155  1.00  0.00    -0.003 C 
ATOM     16  C   UNL     1      51.312  50.998  21.156  1.00  0.00     0.004 C 
ENDBRANCH  14  15
ENDBRANCH  13  14
ENDBRANCH  12  13
ENDBRANCH  11  12
ENDBRANCH  10  11
ENDBRANCH   1  10
TORSDOF 12
ENDMDL
MODEL 5
REMARK VINA RESULT:    -5.123      2.526      5.131
REMARK INTER + INTRA:         -10.203
REMARK INTER:                  -8.702
REMARK INTRA:                  -1.501
REMARK UNBOUND:                -1.486
REMARK SMILES CCCCCCCCCCCCCC(=O)[O-]
REMARK SMILES IDX 8 1 9 2 10 3 11 4 12 5 13 6 14 7 15 8 16 9 7 10 6 11 5 12
REMARK SMILES IDX 4 13 3 14 2 15 1 16
REMARK H PARENT
REMARK Flexibility Score: inf
ROOT
ATOM      1  C   UNL     1      52.281  53.292  20.819  1.00  0.00     0.000 C 
ENDROOT
BRANCH   1   2
ATOM      2  C   UNL     1      51.974  54.394  21.844  1.00  0.00     0.000 C 
BRANCH   2   3
ATOM      3  C   UNL     1      52.896  54.281  23.065  1.00  0.00     0.000 C 
BRANCH   3   4
ATOM      4  C   UNL     1      52.087  54.301  24.370  1.00  0.00     0.000 C 
BRANCH   4   5
ATOM      5  C   UNL     1      51.092  53.132  24.468  1.00  0.00     0.006 C 
BRANCH   5   6
ATOM      6  C   UNL     1      49.631  53.600  24.472  1.00  0.00     0.053 C 
BRANCH   6   7
ATOM      7  C   UNL     1      48.847  52.854  25.504  1.00  0.00     0.041 C 
ATOM      8  O   UNL     1      48.894  53.205  26.712  1.00  0.00    -0.550 OA
ATOM      9  O   UNL     1      48.025  51.801  25.126  1.00  0.00    -0.550 OA
ENDBRANCH   6   7
ENDBRANCH   5   6
ENDBRANCH   4   5
ENDBRANCH   3   4
ENDBRANCH   2   3
ENDBRANCH   1   2
BRANCH   1  10
ATOM     10  C   UNL     1      52.558  51.930  21.476  1.00  0.00     0.000 C 
BRANCH  10  11
ATOM     11  C   UNL     1      51.568  50.843  21.023  1.00  0.00    -0.000 C 
BRANCH  11  12
ATOM     12  C   UNL     1      50.104  51.194  21.340  1.00  0.00    -0.000 C 
BRANCH  12  13
ATOM     13  C   UNL     1      49.399  50.231  22.314  1.00  0.00    -0.000 C 
BRANCH  13  14
ATOM     14  C   UNL     1      50.351  49.648  23.372  1.00  0.00    -0.000 C 
BRANCH  14  15
ATOM     15  C   UNL     1      50.037  48.180  23.701  1.00  0.00    -0.003 C 
ATOM     16  C   UNL     1      51.290  47.307  23.746  1.00  0.00     0.004 C 
ENDBRANCH  14  15
ENDBRANCH  13  14
ENDBRANCH  12  13
ENDBRANCH  11  12
ENDBRANCH  10  11
ENDBRANCH   1  10
TORSDOF 12
ENDMDL
MODEL 6
REMARK VINA RESULT:    -5.087      2.341      5.419
REMARK INTER + INTRA:         -10.142
REMARK INTER:                  -8.777
REMARK INTRA:                  -1.365
REMARK UNBOUND:                -1.486
REMARK SMILES CCCCCCCCCCCCCC(=O)[O-]
REMARK SMILES IDX 8 1 9 2 10 3 11 4 12 5 13 6 14 7 15 8 16 9 7 10 6 11 5 12
REMARK SMILES IDX 4 13 3 14 2 15 1 16
REMARK H PARENT
REMARK Flexibility Score: inf
ROOT
ATOM      1  C   UNL     1      50.390  49.718  22.386  1.00  0.00     0.000 C 
ENDROOT
BRANCH   1   2
ATOM      2  C   UNL     1      49.218  50.041  23.326  1.00  0.00     0.000 C 
BRANCH   2   3
ATOM      3  C   UNL     1      48.256  51.044  22.679  1.00  0.00     0.000 C 
BRANCH   3   4
ATOM      4  C   UNL     1      46.867  50.977  23.332  1.00  0.00     0.000 C 
BRANCH   4   5
ATOM      5  C   UNL     1      46.937  50.725  24.847  1.00  0.00     0.006 C 
BRANCH   5   6
ATOM      6  C   UNL     1      46.068  51.703  25.649  1.00  0.00     0.053 C 
BRANCH   6   7
ATOM      7  C   UNL     1      46.816  52.970  25.912  1.00  0.00     0.041 C 
ATOM      8  O   UNL     1      46.191  54.032  26.172  1.00  0.00    -0.550 OA
ATOM      9  O   UNL     1      48.205  52.971  25.919  1.00  0.00    -0.550 OA
ENDBRANCH   6   7
ENDBRANCH   5   6
ENDBRANCH   4   5
ENDBRANCH   3   4
ENDBRANCH   2   3
ENDBRANCH   1   2
BRANCH   1  10
ATOM     10  C   UNL     1      50.494  50.699  21.208  1.00  0.00     0.000 C 
BRANCH  10  11
ATOM     11  C   UNL     1      51.869  51.385  21.129  1.00  0.00    -0.000 C 
BRANCH  11  12
ATOM     12  C   UNL     1      51.772  52.921  21.091  1.00  0.00    -0.000 C 
BRANCH  12  13
ATOM     13  C   UNL     1      50.821  53.539  22.133  1.00  0.00    -0.000 C 
BRANCH  13  14
ATOM     14  C   UNL     1      51.377  53.470  23.565  1.00  0.00    -0.000 C 
BRANCH  14  15
ATOM     15  C   UNL     1      52.834  53.952  23.655  1.00  0.00    -0.003 C 
ATOM     16  C   UNL     1      53.728  52.983  24.427  1.00  0.00     0.004 C 
ENDBRANCH  14  15
ENDBRANCH  13  14
ENDBRANCH  12  13
ENDBRANCH  11  12
ENDBRANCH  10  11
ENDBRANCH   1  10
TORSDOF 12
ENDMDL
MODEL 7
REMARK VINA RESULT:    -5.036      2.881      5.720
REMARK INTER + INTRA:         -10.054
REMARK INTER:                  -9.047
REMARK INTRA:                  -1.007
REMARK UNBOUND:                -1.486
REMARK SMILES CCCCCCCCCCCCCC(=O)[O-]
REMARK SMILES IDX 8 1 9 2 10 3 11 4 12 5 13 6 14 7 15 8 16 9 7 10 6 11 5 12
REMARK SMILES IDX 4 13 3 14 2 15 1 16
REMARK H PARENT
REMARK Flexibility Score: inf
ROOT
ATOM      1  C   UNL     1      53.321  53.063  22.287  1.00  0.00     0.000 C 
ENDROOT
BRANCH   1   2
ATOM      2  C   UNL     1      52.143  53.865  22.862  1.00  0.00     0.000 C 
BRANCH   2   3
ATOM      3  C   UNL     1      51.752  53.347  24.251  1.00  0.00     0.000 C 
BRANCH   3   4
ATOM      4  C   UNL     1      50.400  53.924  24.695  1.00  0.00     0.000 C 
BRANCH   4   5
ATOM      5  C   UNL     1      49.347  52.835  24.953  1.00  0.00     0.006 C 
BRANCH   5   6
ATOM      6  C   UNL     1      48.521  53.101  26.219  1.00  0.00     0.053 C 
BRANCH   6   7
ATOM      7  C   UNL     1      47.095  52.707  26.004  1.00  0.00     0.041 C 
ATOM      8  O   UNL     1      46.814  51.562  25.559  1.00  0.00    -0.550 OA
ATOM      9  O   UNL     1      46.072  53.584  26.340  1.00  0.00    -0.550 OA
ENDBRANCH   6   7
ENDBRANCH   5   6
ENDBRANCH   4   5
ENDBRANCH   3   4
ENDBRANCH   2   3
ENDBRANCH   1   2
BRANCH   1  10
ATOM     10  C   UNL     1      52.899  52.123  21.147  1.00  0.00     0.000 C 
BRANCH  10  11
ATOM     11  C   UNL     1      51.374  51.929  21.074  1.00  0.00    -0.000 C 
BRANCH  11  12
ATOM     12  C   UNL     1      50.935  50.494  21.415  1.00  0.00    -0.000 C 
BRANCH  12  13
ATOM     13  C   UNL     1      50.541  50.265  22.887  1.00  0.00    -0.000 C 
BRANCH  13  14
ATOM     14  C   UNL     1      49.264  49.421  23.039  1.00  0.00    -0.000 C 
BRANCH  14  15
ATOM     15  C   UNL     1      49.462  48.220  23.977  1.00  0.00    -0.003 C 
ATOM     16  C   UNL     1      50.857  47.605  23.859  1.00  0.00     0.004 C 
ENDBRANCH  14  15
ENDBRANCH  13  14
ENDBRANCH  12  13
ENDBRANCH  11  12
ENDBRANCH  10  11
ENDBRANCH   1  10
TORSDOF 12
ENDMDL
MODEL 8
REMARK VINA RESULT:    -4.911      2.150      5.371
REMARK INTER + INTRA:          -9.842
REMARK INTER:                  -8.519
REMARK INTRA:                  -1.323
REMARK UNBOUND:                -1.486
REMARK SMILES CCCCCCCCCCCCCC(=O)[O-]
REMARK SMILES IDX 8 1 9 2 10 3 11 4 12 5 13 6 14 7 15 8 16 9 7 10 6 11 5 12
REMARK SMILES IDX 4 13 3 14 2 15 1 16
REMARK H PARENT
REMARK Flexibility Score: inf
ROOT
ATOM      1  C   UNL     1      51.897  50.999  21.015  1.00  0.00     0.000 C 
ENDROOT
BRANCH   1   2
ATOM      2  C   UNL     1      50.528  51.038  21.712  1.00  0.00     0.000 C 
BRANCH   2   3
ATOM      3  C   UNL     1      50.243  49.716  22.435  1.00  0.00     0.000 C 
BRANCH   3   4
ATOM      4  C   UNL     1      49.017  49.843  23.352  1.00  0.00     0.000 C 
BRANCH   4   5
ATOM      5  C   UNL     1      48.648  51.305  23.649  1.00  0.00     0.006 C 
BRANCH   5   6
ATOM      6  C   UNL     1      47.729  51.445  24.869  1.00  0.00     0.053 C 
BRANCH   6   7
ATOM      7  C   UNL     1      48.094  52.659  25.661  1.00  0.00     0.041 C 
ATOM      8  O   UNL     1      49.191  53.243  25.456  1.00  0.00    -0.550 OA
ATOM      9  O   UNL     1      47.203  53.178  26.591  1.00  0.00    -0.550 OA
ENDBRANCH   6   7
ENDBRANCH   5   6
ENDBRANCH   4   5
ENDBRANCH   3   4
ENDBRANCH   2   3
ENDBRANCH   1   2
BRANCH   1  10
ATOM     10  C   UNL     1      52.488  52.400  20.788  1.00  0.00     0.000 C 
BRANCH  10  11
ATOM     11  C   UNL     1      51.516  53.523  21.190  1.00  0.00    -0.000 C 
BRANCH  11  12
ATOM     12  C   UNL     1      52.228  54.858  21.474  1.00  0.00    -0.000 C 
BRANCH  12  13
ATOM     13  C   UNL     1      52.968  54.928  22.823  1.00  0.00    -0.000 C 
BRANCH  13  14
ATOM     14  C   UNL     1      52.250  54.151  23.939  1.00  0.00    -0.000 C 
BRANCH  14  15
ATOM     15  C   UNL     1      53.091  52.983  24.478  1.00  0.00    -0.003 C 
ATOM     16  C   UNL     1      54.439  52.854  23.769  1.00  0.00     0.004 C 
ENDBRANCH  14  15
ENDBRANCH  13  14
ENDBRANCH  12  13
ENDBRANCH  11  12
ENDBRANCH  10  11
ENDBRANCH   1  10
TORSDOF 12
ENDMDL
MODEL 9
REMARK VINA RESULT:    -4.906      1.232      3.500
REMARK INTER + INTRA:          -9.834
REMARK INTER:                  -8.378
REMARK INTRA:                  -1.456
REMARK UNBOUND:                -1.486
REMARK SMILES CCCCCCCCCCCCCC(=O)[O-]
REMARK SMILES IDX 8 1 9 2 10 3 11 4 12 5 13 6 14 7 15 8 16 9 7 10 6 11 5 12
REMARK SMILES IDX 4 13 3 14 2 15 1 16
REMARK H PARENT
REMARK Flexibility Score: inf
ROOT
ATOM      1  C   UNL     1      47.491  53.298  26.353  1.00  0.00     0.000 C 
ENDROOT
BRANCH   1   2
ATOM      2  C   UNL     1      48.898  52.819  25.964  1.00  0.00     0.000 C 
BRANCH   2   3
ATOM      3  C   UNL     1      49.503  53.718  24.879  1.00  0.00     0.000 C 
BRANCH   3   4
ATOM      4  C   UNL     1      50.561  52.960  24.062  1.00  0.00     0.000 C 
BRANCH   4   5
ATOM      5  C   UNL     1      50.525  53.320  22.568  1.00  0.00     0.006 C 
BRANCH   5   6
ATOM      6  C   UNL     1      51.755  54.123  22.125  1.00  0.00     0.053 C 
BRANCH   6   7
ATOM      7  C   UNL     1      52.998  53.312  22.300  1.00  0.00     0.041 C 
ATOM      8  O   UNL     1      53.829  53.612  23.198  1.00  0.00    -0.550 OA
ATOM      9  O   UNL     1      53.219  52.195  21.506  1.00  0.00    -0.550 OA
ENDBRANCH   6   7
ENDBRANCH   5   6
ENDBRANCH   4   5
ENDBRANCH   3   4
ENDBRANCH   2   3
ENDBRANCH   1   2
BRANCH   1  10
ATOM     10  C   UNL     1      46.415  52.859  25.347  1.00  0.00     0.000 C 
BRANCH  10  11
ATOM     11  C   UNL     1      46.450  51.347  25.067  1.00  0.00    -0.000 C 
BRANCH  11  12
ATOM     12  C   UNL     1      46.509  51.017  23.564  1.00  0.00    -0.000 C 
BRANCH  12  13
ATOM     13  C   UNL     1      47.919  50.728  23.016  1.00  0.00    -0.000 C 
BRANCH  13  14
ATOM     14  C   UNL     1      48.691  49.701  23.862  1.00  0.00    -0.000 C 
BRANCH  14  15
ATOM     15  C   UNL     1      49.903  49.118  23.118  1.00  0.00    -0.003 C 
ATOM     16  C   UNL     1      50.494  47.898  23.824  1.00  0.00     0.004 C 
ENDBRANCH  14  15
ENDBRANCH  13  14
ENDBRANCH  12  13
ENDBRANCH  11  12
ENDBRANCH  10  11
ENDBRANCH   1  10
TORSDOF 12
ENDMDL
