MODEL 1
REMARK VINA RESULT:    -0.456      0.000      0.000
REMARK INTER + INTRA:           2.448
REMARK INTER:                  -1.042
REMARK INTRA:                   3.489
REMARK UNBOUND:                 3.489
REMARK SMILES CCCCCCCCCCCCCCCCCCCCCCCC(=O)[O-]
REMARK SMILES IDX 13 1 14 2 15 3 16 4 17 5 18 6 19 7 20 8 21 9 22 10 23 11
REMARK SMILES IDX 24 12 25 13 26 14 12 15 11 16 10 17 9 18 8 19 7 20 6 21 5 22
REMARK SMILES IDX 4 23 3 24 2 25 1 26
REMARK H PARENT
REMARK Flexibility Score: inf
ROOT
ATOM      1  C   UNL     1     -31.754 -20.983 -33.694  1.00  0.00     0.000 C 
ENDROOT
BRANCH   1   2
ATOM      2  C   UNL     1     -30.462 -21.512 -34.338  1.00  0.00     0.000 C 
BRANCH   2   3
ATOM      3  C   UNL     1     -29.217 -21.244 -33.475  1.00  0.00     0.000 C 
BRANCH   3   4
ATOM      4  C   UNL     1     -29.287 -19.900 -32.725  1.00  0.00     0.000 C 
BRANCH   4   5
ATOM      5  C   UNL     1     -28.618 -19.957 -31.342  1.00  0.00     0.000 C 
BRANCH   5   6
ATOM      6  C   UNL     1     -29.632 -19.876 -30.185  1.00  0.00     0.000 C 
BRANCH   6   7
ATOM      7  C   UNL     1     -30.624 -21.057 -30.178  1.00  0.00     0.000 C 
BRANCH   7   8
ATOM      8  C   UNL     1     -30.408 -22.070 -31.319  1.00  0.00     0.000 C 
BRANCH   8   9
ATOM      9  C   UNL     1     -30.621 -23.545 -30.934  1.00  0.00     0.000 C 
BRANCH   9  10
ATOM     10  C   UNL     1     -30.414 -23.806 -29.429  1.00  0.00     0.006 C 
BRANCH  10  11
ATOM     11  C   UNL     1     -29.632 -22.675 -28.744  1.00  0.00     0.053 C 
BRANCH  11  12
ATOM     12  C   UNL     1     -28.718 -23.195 -27.675  1.00  0.00     0.041 C 
ATOM     13  O   UNL     1     -28.823 -24.386 -27.275  1.00  0.00    -0.550 OA
ATOM     14  O   UNL     1     -27.723 -22.379 -27.151  1.00  0.00    -0.550 OA
ENDBRANCH  11  12
ENDBRANCH  10  11
ENDBRANCH   9  10
ENDBRANCH   8   9
ENDBRANCH   7   8
ENDBRANCH   6   7
ENDBRANCH   5   6
ENDBRANCH   4   5
ENDBRANCH   3   4
ENDBRANCH   2   3
ENDBRANCH   1   2
BRANCH   1  15
ATOM     15  C   UNL     1     -32.643 -20.280 -34.728  1.00  0.00     0.000 C 
BRANCH  15  16
ATOM     16  C   UNL     1     -33.707 -21.237 -35.286  1.00  0.00     0.000 C 
BRANCH  16  17
ATOM     17  C   UNL     1     -33.845 -21.160 -36.815  1.00  0.00     0.000 C 
BRANCH  17  18
ATOM     18  C   UNL     1     -33.469 -22.449 -37.569  1.00  0.00    -0.000 C 
BRANCH  18  19
ATOM     19  C   UNL     1     -31.981 -22.813 -37.424  1.00  0.00    -0.000 C 
BRANCH  19  20
ATOM     20  C   UNL     1     -31.779 -24.267 -36.959  1.00  0.00    -0.000 C 
BRANCH  20  21
ATOM     21  C   UNL     1     -31.166 -25.149 -38.060  1.00  0.00    -0.000 C 
BRANCH  21  22
ATOM     22  C   UNL     1     -32.220 -26.005 -38.780  1.00  0.00    -0.000 C 
BRANCH  22  23
ATOM     23  C   UNL     1     -33.121 -26.771 -37.800  1.00  0.00    -0.000 C 
BRANCH  23  24
ATOM     24  C   UNL     1     -33.930 -27.849 -38.530  1.00  0.00    -0.000 C 
BRANCH  24  25
ATOM     25  C   UNL     1     -33.019 -28.978 -39.026  1.00  0.00    -0.003 C 
ATOM     26  C   UNL     1     -31.558 -28.697 -38.682  1.00  0.00     0.004 C 
ENDBRANCH  24  25
ENDBRANCH  23  24
ENDBRANCH  22  23
ENDBRANCH  21  22
ENDBRANCH  20  21
ENDBRANCH  19  20
ENDBRANCH  18  19
ENDBRANCH  17  18
ENDBRANCH  16  17
ENDBRANCH  15  16
ENDBRANCH   1  15
TORSDOF 22
ENDMDL
MODEL 2
REMARK VINA RESULT:    -0.198      4.003      8.964
REMARK INTER + INTRA:           3.036
REMARK INTER:                   2.253
REMARK INTRA:                   0.783
REMARK UNBOUND:                 3.489
REMARK SMILES CCCCCCCCCCCCCCCCCCCCCCCC(=O)[O-]
REMARK SMILES IDX 13 1 14 2 15 3 16 4 17 5 18 6 19 7 20 8 21 9 22 10 23 11
REMARK SMILES IDX 24 12 25 13 26 14 12 15 11 16 10 17 9 18 8 19 7 20 6 21 5 22
REMARK SMILES IDX 4 23 3 24 2 25 1 26
REMARK H PARENT
REMARK Flexibility Score: inf
ROOT
ATOM      1  C   UNL     1     -31.876 -22.818 -34.160  1.00  0.00     0.000 C 
ENDROOT
BRANCH   1   2
ATOM      2  C   UNL     1     -32.078 -22.757 -35.683  1.00  0.00     0.000 C 
BRANCH   2   3
ATOM      3  C   UNL     1     -33.302 -21.917 -36.086  1.00  0.00     0.000 C 
BRANCH   3   4
ATOM      4  C   UNL     1     -34.125 -22.563 -37.217  1.00  0.00     0.000 C 
BRANCH   4   5
ATOM      5  C   UNL     1     -33.446 -22.439 -38.590  1.00  0.00     0.000 C 
BRANCH   5   6
ATOM      6  C   UNL     1     -32.040 -21.817 -38.507  1.00  0.00     0.000 C 
BRANCH   6   7
ATOM      7  C   UNL     1     -30.920 -22.829 -38.826  1.00  0.00     0.000 C 
BRANCH   7   8
ATOM      8  C   UNL     1     -31.424 -24.255 -39.123  1.00  0.00     0.000 C 
BRANCH   8   9
ATOM      9  C   UNL     1     -32.698 -24.670 -38.367  1.00  0.00     0.000 C 
BRANCH   9  10
ATOM     10  C   UNL     1     -32.679 -26.148 -37.930  1.00  0.00     0.006 C 
BRANCH  10  11
ATOM     11  C   UNL     1     -32.005 -27.055 -38.971  1.00  0.00     0.053 C 
BRANCH  11  12
ATOM     12  C   UNL     1     -32.548 -28.452 -38.931  1.00  0.00     0.041 C 
ATOM     13  O   UNL     1     -33.788 -28.648 -38.822  1.00  0.00    -0.550 OA
ATOM     14  O   UNL     1     -31.689 -29.537 -39.056  1.00  0.00    -0.550 OA
ENDBRANCH  11  12
ENDBRANCH  10  11
ENDBRANCH   9  10
ENDBRANCH   8   9
ENDBRANCH   7   8
ENDBRANCH   6   7
ENDBRANCH   5   6
ENDBRANCH   4   5
ENDBRANCH   3   4
ENDBRANCH   2   3
ENDBRANCH   1   2
BRANCH   1  15
ATOM     15  C   UNL     1     -31.809 -21.411 -33.551  1.00  0.00     0.000 C 
BRANCH  15  16
ATOM     16  C   UNL     1     -30.611 -20.626 -34.107  1.00  0.00     0.000 C 
BRANCH  16  17
ATOM     17  C   UNL     1     -29.276 -21.375 -33.954  1.00  0.00     0.000 C 
BRANCH  17  18
ATOM     18  C   UNL     1     -28.287 -20.746 -32.957  1.00  0.00    -0.000 C 
BRANCH  18  19
ATOM     19  C   UNL     1     -28.985 -19.919 -31.864  1.00  0.00    -0.000 C 
BRANCH  19  20
ATOM     20  C   UNL     1     -28.270 -20.026 -30.504  1.00  0.00    -0.000 C 
BRANCH  20  21
ATOM     21  C   UNL     1     -29.243 -19.877 -29.323  1.00  0.00    -0.000 C 
BRANCH  21  22
ATOM     22  C   UNL     1     -30.713 -19.983 -29.757  1.00  0.00    -0.000 C 
BRANCH  22  23
ATOM     23  C   UNL     1     -31.314 -21.364 -29.456  1.00  0.00    -0.000 C 
BRANCH  23  24
ATOM     24  C   UNL     1     -30.210 -22.417 -29.299  1.00  0.00    -0.000 C 
BRANCH  24  25
ATOM     25  C   UNL     1     -30.132 -23.319 -30.536  1.00  0.00    -0.003 C 
ATOM     26  C   UNL     1     -30.984 -24.573 -30.357  1.00  0.00     0.004 C 
ENDBRANCH  24  25
ENDBRANCH  23  24
ENDBRANCH  22  23
ENDBRANCH  21  22
ENDBRANCH  20  21
ENDBRANCH  19  20
ENDBRANCH  18  19
ENDBRANCH  17  18
ENDBRANCH  16  17
ENDBRANCH  15  16
ENDBRANCH   1  15
TORSDOF 22
ENDMDL
MODEL 3
REMARK VINA RESULT:     1.030      1.408      2.022
REMARK INTER + INTRA:           5.845
REMARK INTER:                   5.205
REMARK INTRA:                   0.640
REMARK UNBOUND:                 3.489
REMARK SMILES CCCCCCCCCCCCCCCCCCCCCCCC(=O)[O-]
REMARK SMILES IDX 13 1 14 2 15 3 16 4 17 5 18 6 19 7 20 8 21 9 22 10 23 11
REMARK SMILES IDX 24 12 25 13 26 14 12 15 11 16 10 17 9 18 8 19 7 20 6 21 5 22
REMARK SMILES IDX 4 23 3 24 2 25 1 26
REMARK H PARENT
REMARK Flexibility Score: inf
ROOT
ATOM      1  C   UNL     1     -31.923 -19.903 -34.065  1.00  0.00     0.000 C 
ENDROOT
BRANCH   1   2
ATOM      2  C   UNL     1     -31.973 -19.897 -32.529  1.00  0.00     0.000 C 
BRANCH   2   3
ATOM      3  C   UNL     1     -30.574 -19.875 -31.890  1.00  0.00     0.000 C 
BRANCH   3   4
ATOM      4  C   UNL     1     -29.445 -20.104 -32.913  1.00  0.00     0.000 C 
BRANCH   4   5
ATOM      5  C   UNL     1     -29.700 -21.322 -33.816  1.00  0.00     0.000 C 
BRANCH   5   6
ATOM      6  C   UNL     1     -29.654 -22.655 -33.046  1.00  0.00     0.000 C 
BRANCH   6   7
ATOM      7  C   UNL     1     -30.960 -22.947 -32.279  1.00  0.00     0.000 C 
BRANCH   7   8
ATOM      8  C   UNL     1     -30.916 -22.563 -30.787  1.00  0.00     0.000 C 
BRANCH   8   9
ATOM      9  C   UNL     1     -29.617 -22.939 -30.053  1.00  0.00     0.000 C 
BRANCH   9  10
ATOM     10  C   UNL     1     -29.599 -22.465 -28.587  1.00  0.00     0.006 C 
BRANCH  10  11
ATOM     11  C   UNL     1     -28.185 -22.484 -27.986  1.00  0.00     0.053 C 
BRANCH  11  12
ATOM     12  C   UNL     1     -27.500 -21.158 -28.130  1.00  0.00     0.041 C 
ATOM     13  O   UNL     1     -27.941 -20.301 -28.941  1.00  0.00    -0.550 OA
ATOM     14  O   UNL     1     -26.400 -20.853 -27.337  1.00  0.00    -0.550 OA
ENDBRANCH  11  12
ENDBRANCH  10  11
ENDBRANCH   9  10
ENDBRANCH   8   9
ENDBRANCH   7   8
ENDBRANCH   6   7
ENDBRANCH   5   6
ENDBRANCH   4   5
ENDBRANCH   3   4
ENDBRANCH   2   3
ENDBRANCH   1   2
BRANCH   1  15
ATOM     15  C   UNL     1     -32.863 -20.967 -34.648  1.00  0.00     0.000 C 
BRANCH  15  16
ATOM     16  C   UNL     1     -34.056 -20.317 -35.366  1.00  0.00     0.000 C 
BRANCH  16  17
ATOM     17  C   UNL     1     -33.961 -20.412 -36.898  1.00  0.00     0.000 C 
BRANCH  17  18
ATOM     18  C   UNL     1     -33.927 -21.845 -37.461  1.00  0.00    -0.000 C 
BRANCH  18  19
ATOM     19  C   UNL     1     -32.678 -22.122 -38.315  1.00  0.00    -0.000 C 
BRANCH  19  20
ATOM     20  C   UNL     1     -31.781 -23.212 -37.700  1.00  0.00    -0.000 C 
BRANCH  20  21
ATOM     21  C   UNL     1     -31.194 -24.151 -38.768  1.00  0.00    -0.000 C 
BRANCH  21  22
ATOM     22  C   UNL     1     -32.082 -25.381 -39.019  1.00  0.00    -0.000 C 
BRANCH  22  23
ATOM     23  C   UNL     1     -32.886 -25.786 -37.775  1.00  0.00    -0.000 C 
BRANCH  23  24
ATOM     24  C   UNL     1     -33.025 -27.310 -37.686  1.00  0.00    -0.000 C 
BRANCH  24  25
ATOM     25  C   UNL     1     -33.163 -27.931 -39.082  1.00  0.00    -0.003 C 
ATOM     26  C   UNL     1     -33.998 -29.208 -39.034  1.00  0.00     0.004 C 
ENDBRANCH  24  25
ENDBRANCH  23  24
ENDBRANCH  22  23
ENDBRANCH  21  22
ENDBRANCH  20  21
ENDBRANCH  19  20
ENDBRANCH  18  19
ENDBRANCH  17  18
ENDBRANCH  16  17
ENDBRANCH  15  16
ENDBRANCH   1  15
TORSDOF 22
ENDMDL
MODEL 4
REMARK VINA RESULT:     1.264      3.556      9.007
REMARK INTER + INTRA:           6.380
REMARK INTER:                   4.952
REMARK INTRA:                   1.428
REMARK UNBOUND:                 3.489
REMARK SMILES CCCCCCCCCCCCCCCCCCCCCCCC(=O)[O-]
REMARK SMILES IDX 13 1 14 2 15 3 16 4 17 5 18 6 19 7 20 8 21 9 22 10 23 11
REMARK SMILES IDX 24 12 25 13 26 14 12 15 11 16 10 17 9 18 8 19 7 20 6 21 5 22
REMARK SMILES IDX 4 23 3 24 2 25 1 26
REMARK H PARENT
REMARK Flexibility Score: inf
ROOT
ATOM      1  C   UNL     1     -31.972 -19.913 -32.495  1.00  0.00     0.000 C 
ENDROOT
BRANCH   1   2
ATOM      2  C   UNL     1     -32.863 -19.986 -33.746  1.00  0.00     0.000 C 
BRANCH   2   3
ATOM      3  C   UNL     1     -32.677 -21.296 -34.530  1.00  0.00     0.000 C 
BRANCH   3   4
ATOM      4  C   UNL     1     -33.841 -21.585 -35.497  1.00  0.00     0.000 C 
BRANCH   4   5
ATOM      5  C   UNL     1     -33.848 -20.648 -36.716  1.00  0.00     0.000 C 
BRANCH   5   6
ATOM      6  C   UNL     1     -34.091 -21.395 -38.041  1.00  0.00     0.000 C 
BRANCH   6   7
ATOM      7  C   UNL     1     -32.890 -21.307 -39.004  1.00  0.00     0.000 C 
BRANCH   7   8
ATOM      8  C   UNL     1     -31.752 -22.299 -38.687  1.00  0.00     0.000 C 
BRANCH   8   9
ATOM      9  C   UNL     1     -32.161 -23.782 -38.678  1.00  0.00     0.000 C 
BRANCH   9  10
ATOM     10  C   UNL     1     -31.253 -24.647 -37.784  1.00  0.00     0.006 C 
BRANCH  10  11
ATOM     11  C   UNL     1     -31.292 -26.132 -38.178  1.00  0.00     0.053 C 
BRANCH  11  12
ATOM     12  C   UNL     1     -32.659 -26.722 -38.001  1.00  0.00     0.041 C 
ATOM     13  O   UNL     1     -33.482 -26.189 -37.209  1.00  0.00    -0.550 OA
ATOM     14  O   UNL     1     -33.040 -27.834 -38.742  1.00  0.00    -0.550 OA
ENDBRANCH  11  12
ENDBRANCH  10  11
ENDBRANCH   9  10
ENDBRANCH   8   9
ENDBRANCH   7   8
ENDBRANCH   6   7
ENDBRANCH   5   6
ENDBRANCH   4   5
ENDBRANCH   3   4
ENDBRANCH   2   3
ENDBRANCH   1   2
BRANCH   1  15
ATOM     15  C   UNL     1     -31.247 -21.243 -32.250  1.00  0.00     0.000 C 
BRANCH  15  16
ATOM     16  C   UNL     1     -30.044 -21.400 -33.194  1.00  0.00     0.000 C 
BRANCH  16  17
ATOM     17  C   UNL     1     -29.475 -20.053 -33.671  1.00  0.00     0.000 C 
BRANCH  17  18
ATOM     18  C   UNL     1     -27.960 -19.875 -33.460  1.00  0.00    -0.000 C 
BRANCH  18  19
ATOM     19  C   UNL     1     -27.493 -20.335 -32.068  1.00  0.00    -0.000 C 
BRANCH  19  20
ATOM     20  C   UNL     1     -28.449 -19.877 -30.951  1.00  0.00    -0.000 C 
BRANCH  20  21
ATOM     21  C   UNL     1     -27.806 -19.980 -29.558  1.00  0.00    -0.000 C 
BRANCH  21  22
ATOM     22  C   UNL     1     -28.100 -21.325 -28.875  1.00  0.00    -0.000 C 
BRANCH  22  23
ATOM     23  C   UNL     1     -29.520 -21.387 -28.292  1.00  0.00    -0.000 C 
BRANCH  23  24
ATOM     24  C   UNL     1     -30.566 -21.453 -29.411  1.00  0.00    -0.000 C 
BRANCH  24  25
ATOM     25  C   UNL     1     -31.315 -20.121 -29.542  1.00  0.00    -0.003 C 
ATOM     26  C   UNL     1     -32.723 -20.223 -28.962  1.00  0.00     0.004 C 
ENDBRANCH  24  25
ENDBRANCH  23  24
ENDBRANCH  22  23
ENDBRANCH  21  22
ENDBRANCH  20  21
ENDBRANCH  19  20
ENDBRANCH  18  19
ENDBRANCH  17  18
ENDBRANCH  16  17
ENDBRANCH  15  16
ENDBRANCH   1  15
TORSDOF 22
ENDMDL
MODEL 5
REMARK VINA RESULT:     1.265      2.586      3.263
REMARK INTER + INTRA:           6.382
REMARK INTER:                   3.284
REMARK INTRA:                   3.099
REMARK UNBOUND:                 3.489
REMARK SMILES CCCCCCCCCCCCCCCCCCCCCCCC(=O)[O-]
REMARK SMILES IDX 13 1 14 2 15 3 16 4 17 5 18 6 19 7 20 8 21 9 22 10 23 11
REMARK SMILES IDX 24 12 25 13 26 14 12 15 11 16 10 17 9 18 8 19 7 20 6 21 5 22
REMARK SMILES IDX 4 23 3 24 2 25 1 26
REMARK H PARENT
REMARK Flexibility Score: inf
ROOT
ATOM      1  C   UNL     1     -31.915 -20.557 -33.804  1.00  0.00     0.000 C 
ENDROOT
BRANCH   1   2
ATOM      2  C   UNL     1     -30.557 -21.073 -34.307  1.00  0.00     0.000 C 
BRANCH   2   3
ATOM      3  C   UNL     1     -29.516 -21.196 -33.181  1.00  0.00     0.000 C 
BRANCH   3   4
ATOM      4  C   UNL     1     -29.301 -19.875 -32.417  1.00  0.00     0.000 C 
BRANCH   4   5
ATOM      5  C   UNL     1     -28.867 -20.097 -30.960  1.00  0.00     0.000 C 
BRANCH   5   6
ATOM      6  C   UNL     1     -30.033 -19.961 -29.963  1.00  0.00     0.000 C 
BRANCH   6   7
ATOM      7  C   UNL     1     -30.806 -21.281 -29.765  1.00  0.00     0.000 C 
BRANCH   7   8
ATOM      8  C   UNL     1     -29.960 -22.549 -29.996  1.00  0.00     0.000 C 
BRANCH   8   9
ATOM      9  C   UNL     1     -30.551 -23.558 -30.996  1.00  0.00     0.000 C 
BRANCH   9  10
ATOM     10  C   UNL     1     -31.039 -22.894 -32.298  1.00  0.00     0.006 C 
BRANCH  10  11
ATOM     11  C   UNL     1     -32.212 -23.654 -32.935  1.00  0.00     0.053 C 
BRANCH  11  12
ATOM     12  C   UNL     1     -32.087 -23.725 -34.428  1.00  0.00     0.041 C 
ATOM     13  O   UNL     1     -30.951 -23.687 -34.972  1.00  0.00    -0.550 OA
ATOM     14  O   UNL     1     -33.222 -23.877 -35.216  1.00  0.00    -0.550 OA
ENDBRANCH  11  12
ENDBRANCH  10  11
ENDBRANCH   9  10
ENDBRANCH   8   9
ENDBRANCH   7   8
ENDBRANCH   6   7
ENDBRANCH   5   6
ENDBRANCH   4   5
ENDBRANCH   3   4
ENDBRANCH   2   3
ENDBRANCH   1   2
BRANCH   1  15
ATOM     15  C   UNL     1     -32.704 -19.878 -34.932  1.00  0.00     0.000 C 
BRANCH  15  16
ATOM     16  C   UNL     1     -33.869 -20.762 -35.402  1.00  0.00     0.000 C 
BRANCH  16  17
ATOM     17  C   UNL     1     -34.081 -20.720 -36.925  1.00  0.00     0.000 C 
BRANCH  17  18
ATOM     18  C   UNL     1     -33.648 -21.991 -37.678  1.00  0.00    -0.000 C 
BRANCH  18  19
ATOM     19  C   UNL     1     -32.202 -21.916 -38.196  1.00  0.00    -0.000 C 
BRANCH  19  20
ATOM     20  C   UNL     1     -31.352 -23.112 -37.731  1.00  0.00    -0.000 C 
BRANCH  20  21
ATOM     21  C   UNL     1     -31.064 -24.100 -38.874  1.00  0.00    -0.000 C 
BRANCH  21  22
ATOM     22  C   UNL     1     -32.040 -25.287 -38.883  1.00  0.00    -0.000 C 
BRANCH  22  23
ATOM     23  C   UNL     1     -32.382 -25.774 -37.466  1.00  0.00    -0.000 C 
BRANCH  23  24
ATOM     24  C   UNL     1     -33.222 -27.055 -37.517  1.00  0.00    -0.000 C 
BRANCH  24  25
ATOM     25  C   UNL     1     -33.652 -27.374 -38.954  1.00  0.00    -0.003 C 
ATOM     26  C   UNL     1     -33.933 -28.865 -39.125  1.00  0.00     0.004 C 
ENDBRANCH  24  25
ENDBRANCH  23  24
ENDBRANCH  22  23
ENDBRANCH  21  22
ENDBRANCH  20  21
ENDBRANCH  19  20
ENDBRANCH  18  19
ENDBRANCH  17  18
ENDBRANCH  16  17
ENDBRANCH  15  16
ENDBRANCH   1  15
TORSDOF 22
ENDMDL
MODEL 6
REMARK VINA RESULT:     1.828      3.950      9.561
REMARK INTER + INTRA:           7.668
REMARK INTER:                   6.531
REMARK INTRA:                   1.136
REMARK UNBOUND:                 3.489
REMARK SMILES CCCCCCCCCCCCCCCCCCCCCCCC(=O)[O-]
REMARK SMILES IDX 13 1 14 2 15 3 16 4 17 5 18 6 19 7 20 8 21 9 22 10 23 11
REMARK SMILES IDX 24 12 25 13 26 14 12 15 11 16 10 17 9 18 8 19 7 20 6 21 5 22
REMARK SMILES IDX 4 23 3 24 2 25 1 26
REMARK H PARENT
REMARK Flexibility Score: inf
ROOT
ATOM      1  C   UNL     1     -31.685 -21.077 -34.153  1.00  0.00     0.000 C 
ENDROOT
BRANCH   1   2
ATOM      2  C   UNL     1     -33.148 -20.793 -34.531  1.00  0.00     0.000 C 
BRANCH   2   3
ATOM      3  C   UNL     1     -33.554 -21.446 -35.863  1.00  0.00     0.000 C 
BRANCH   3   4
ATOM      4  C   UNL     1     -33.872 -20.414 -36.962  1.00  0.00     0.000 C 
BRANCH   4   5
ATOM      5  C   UNL     1     -34.125 -21.065 -38.332  1.00  0.00     0.000 C 
BRANCH   5   6
ATOM      6  C   UNL     1     -32.883 -21.788 -38.887  1.00  0.00     0.000 C 
BRANCH   6   7
ATOM      7  C   UNL     1     -32.201 -22.692 -37.839  1.00  0.00     0.000 C 
BRANCH   7   8
ATOM      8  C   UNL     1     -31.425 -23.881 -38.441  1.00  0.00     0.000 C 
BRANCH   8   9
ATOM      9  C   UNL     1     -32.297 -24.975 -39.081  1.00  0.00     0.000 C 
BRANCH   9  10
ATOM     10  C   UNL     1     -32.359 -26.262 -38.236  1.00  0.00     0.006 C 
BRANCH  10  11
ATOM     11  C   UNL     1     -31.320 -27.302 -38.681  1.00  0.00     0.053 C 
BRANCH  11  12
ATOM     12  C   UNL     1     -31.924 -28.667 -38.830  1.00  0.00     0.041 C 
ATOM     13  O   UNL     1     -31.197 -29.654 -39.123  1.00  0.00    -0.550 OA
ATOM     14  O   UNL     1     -33.282 -28.856 -38.601  1.00  0.00    -0.550 OA
ENDBRANCH  11  12
ENDBRANCH  10  11
ENDBRANCH   9  10
ENDBRANCH   8   9
ENDBRANCH   7   8
ENDBRANCH   6   7
ENDBRANCH   5   6
ENDBRANCH   4   5
ENDBRANCH   3   4
ENDBRANCH   2   3
ENDBRANCH   1   2
BRANCH   1  15
ATOM     15  C   UNL     1     -31.066 -19.893 -33.399  1.00  0.00     0.000 C 
BRANCH  15  16
ATOM     16  C   UNL     1     -31.360 -19.981 -31.894  1.00  0.00     0.000 C 
BRANCH  16  17
ATOM     17  C   UNL     1     -30.093 -19.901 -31.026  1.00  0.00     0.000 C 
BRANCH  17  18
ATOM     18  C   UNL     1     -28.995 -20.920 -31.382  1.00  0.00    -0.000 C 
BRANCH  18  19
ATOM     19  C   UNL     1     -29.554 -22.323 -31.675  1.00  0.00    -0.000 C 
BRANCH  19  20
ATOM     20  C   UNL     1     -30.605 -22.760 -30.639  1.00  0.00    -0.000 C 
BRANCH  20  21
ATOM     21  C   UNL     1     -30.602 -21.860 -29.392  1.00  0.00    -0.000 C 
BRANCH  21  22
ATOM     22  C   UNL     1     -29.933 -22.534 -28.183  1.00  0.00    -0.000 C 
BRANCH  22  23
ATOM     23  C   UNL     1     -28.409 -22.635 -28.339  1.00  0.00    -0.000 C 
BRANCH  23  24
ATOM     24  C   UNL     1     -27.695 -22.033 -27.123  1.00  0.00    -0.000 C 
BRANCH  24  25
ATOM     25  C   UNL     1     -26.412 -21.305 -27.544  1.00  0.00    -0.003 C 
ATOM     26  C   UNL     1     -26.689 -20.306 -28.664  1.00  0.00     0.004 C 
ENDBRANCH  24  25
ENDBRANCH  23  24
ENDBRANCH  22  23
ENDBRANCH  21  22
ENDBRANCH  20  21
ENDBRANCH  19  20
ENDBRANCH  18  19
ENDBRANCH  17  18
ENDBRANCH  16  17
ENDBRANCH  15  16
ENDBRANCH   1  15
TORSDOF 22
ENDMDL
MODEL 7
REMARK VINA RESULT:     2.349      4.218     10.840
REMARK INTER + INTRA:           8.860
REMARK INTER:                  10.243
REMARK INTRA:                  -1.383
REMARK UNBOUND:                 3.489
REMARK SMILES CCCCCCCCCCCCCCCCCCCCCCCC(=O)[O-]
REMARK SMILES IDX 13 1 14 2 15 3 16 4 17 5 18 6 19 7 20 8 21 9 22 10 23 11
REMARK SMILES IDX 24 12 25 13 26 14 12 15 11 16 10 17 9 18 8 19 7 20 6 21 5 22
REMARK SMILES IDX 4 23 3 24 2 25 1 26
REMARK H PARENT
REMARK Flexibility Score: inf
ROOT
ATOM      1  C   UNL     1     -29.525 -21.316 -32.820  1.00  0.00     0.000 C 
ENDROOT
BRANCH   1   2
ATOM      2  C   UNL     1     -31.010 -21.320 -33.219  1.00  0.00     0.000 C 
BRANCH   2   3
ATOM      3  C   UNL     1     -31.500 -22.708 -33.664  1.00  0.00     0.000 C 
BRANCH   3   4
ATOM      4  C   UNL     1     -31.622 -22.839 -35.194  1.00  0.00     0.000 C 
BRANCH   4   5
ATOM      5  C   UNL     1     -32.702 -21.918 -35.784  1.00  0.00     0.000 C 
BRANCH   5   6
ATOM      6  C   UNL     1     -33.536 -22.605 -36.882  1.00  0.00     0.000 C 
BRANCH   6   7
ATOM      7  C   UNL     1     -33.004 -22.320 -38.302  1.00  0.00     0.000 C 
BRANCH   7   8
ATOM      8  C   UNL     1     -31.662 -23.007 -38.623  1.00  0.00     0.000 C 
BRANCH   8   9
ATOM      9  C   UNL     1     -31.772 -24.466 -39.101  1.00  0.00     0.000 C 
BRANCH   9  10
ATOM     10  C   UNL     1     -31.499 -25.485 -37.978  1.00  0.00     0.006 C 
BRANCH  10  11
ATOM     11  C   UNL     1     -31.399 -26.924 -38.509  1.00  0.00     0.053 C 
BRANCH  11  12
ATOM     12  C   UNL     1     -32.712 -27.643 -38.425  1.00  0.00     0.041 C 
ATOM     13  O   UNL     1     -33.737 -27.045 -38.003  1.00  0.00    -0.550 OA
ATOM     14  O   UNL     1     -32.813 -28.962 -38.853  1.00  0.00    -0.550 OA
ENDBRANCH  11  12
ENDBRANCH  10  11
ENDBRANCH   9  10
ENDBRANCH   8   9
ENDBRANCH   7   8
ENDBRANCH   6   7
ENDBRANCH   5   6
ENDBRANCH   4   5
ENDBRANCH   3   4
ENDBRANCH   2   3
ENDBRANCH   1   2
BRANCH   1  15
ATOM     15  C   UNL     1     -29.282 -20.423 -31.596  1.00  0.00     0.000 C 
BRANCH  15  16
ATOM     16  C   UNL     1     -30.540 -20.332 -30.719  1.00  0.00     0.000 C 
BRANCH  16  17
ATOM     17  C   UNL     1     -30.586 -21.405 -29.618  1.00  0.00     0.000 C 
BRANCH  17  18
ATOM     18  C   UNL     1     -29.215 -21.967 -29.200  1.00  0.00    -0.000 C 
BRANCH  18  19
ATOM     19  C   UNL     1     -29.324 -23.087 -28.150  1.00  0.00    -0.000 C 
BRANCH  19  20
ATOM     20  C   UNL     1     -28.464 -22.805 -26.905  1.00  0.00    -0.000 C 
BRANCH  20  21
ATOM     21  C   UNL     1     -27.364 -21.766 -27.180  1.00  0.00    -0.000 C 
BRANCH  21  22
ATOM     22  C   UNL     1     -27.058 -20.896 -25.950  1.00  0.00    -0.000 C 
BRANCH  22  23
ATOM     23  C   UNL     1     -27.814 -21.366 -24.699  1.00  0.00    -0.000 C 
BRANCH  23  24
ATOM     24  C   UNL     1     -26.886 -21.392 -23.478  1.00  0.00    -0.000 C 
BRANCH  24  25
ATOM     25  C   UNL     1     -27.524 -22.167 -22.319  1.00  0.00    -0.003 C 
ATOM     26  C   UNL     1     -26.558 -23.208 -21.758  1.00  0.00     0.004 C 
ENDBRANCH  24  25
ENDBRANCH  23  24
ENDBRANCH  22  23
ENDBRANCH  21  22
ENDBRANCH  20  21
ENDBRANCH  19  20
ENDBRANCH  18  19
ENDBRANCH  17  18
ENDBRANCH  16  17
ENDBRANCH  15  16
ENDBRANCH   1  15
TORSDOF 22
ENDMDL
