MODEL 1
REMARK VINA RESULT:    -4.285      0.000      0.000
REMARK INTER + INTRA:          -9.729
REMARK INTER:                  -7.791
REMARK INTRA:                  -1.938
REMARK UNBOUND:                -1.938
REMARK SMILES CCCCCCCCCCCCCCCC(=O)[O-]
REMARK SMILES IDX 9 1 10 2 11 3 12 4 13 5 14 6 15 7 16 8 17 9 18 10 8 11 7 12
REMARK SMILES IDX 6 13 5 14 4 15 3 16 2 17 1 18
REMARK H PARENT
REMARK Flexibility Score: inf
ROOT
ATOM      1  C   UNL     1     -11.362   1.956  19.423  1.00  0.00     0.000 C 
ENDROOT
BRANCH   1   2
ATOM      2  C   UNL     1     -12.149   3.226  19.790  1.00  0.00     0.000 C 
BRANCH   2   3
ATOM      3  C   UNL     1     -12.284   4.199  18.607  1.00  0.00     0.000 C 
BRANCH   3   4
ATOM      4  C   UNL     1     -12.423   3.474  17.258  1.00  0.00     0.000 C 
BRANCH   4   5
ATOM      5  C   UNL     1     -11.351   3.907  16.243  1.00  0.00     0.000 C 
BRANCH   5   6
ATOM      6  C   UNL     1     -10.705   2.714  15.521  1.00  0.00     0.006 C 
BRANCH   6   7
ATOM      7  C   UNL     1     -11.524   1.424  15.656  1.00  0.00     0.053 C 
BRANCH   7   8
ATOM      8  C   UNL     1     -11.360   0.571  14.438  1.00  0.00     0.041 C 
ATOM      9  O   UNL     1     -12.370   0.203  13.782  1.00  0.00    -0.550 OA
ATOM     10  O   UNL     1     -10.096   0.140  14.054  1.00  0.00    -0.550 OA
ENDBRANCH   7   8
ENDBRANCH   6   7
ENDBRANCH   5   6
ENDBRANCH   4   5
ENDBRANCH   3   4
ENDBRANCH   2   3
ENDBRANCH   1   2
BRANCH   1  11
ATOM     11  C   UNL     1      -9.888   2.026  19.856  1.00  0.00     0.000 C 
BRANCH  11  12
ATOM     12  C   UNL     1      -8.933   2.224  18.668  1.00  0.00    -0.000 C 
BRANCH  12  13
ATOM     13  C   UNL     1      -8.238   3.593  18.689  1.00  0.00    -0.000 C 
BRANCH  13  14
ATOM     14  C   UNL     1      -8.339   4.239  20.079  1.00  0.00    -0.000 C 
BRANCH  14  15
ATOM     15  C   UNL     1      -7.222   5.263  20.349  1.00  0.00    -0.000 C 
BRANCH  15  16
ATOM     16  C   UNL     1      -6.246   5.484  19.178  1.00  0.00    -0.000 C 
BRANCH  16  17
ATOM     17  C   UNL     1      -4.859   4.875  19.432  1.00  0.00    -0.003 C 
ATOM     18  C   UNL     1      -4.442   3.962  18.283  1.00  0.00     0.004 C 
ENDBRANCH  16  17
ENDBRANCH  15  16
ENDBRANCH  14  15
ENDBRANCH  13  14
ENDBRANCH  12  13
ENDBRANCH  11  12
ENDBRANCH   1  11
TORSDOF 14
ENDMDL
MODEL 2
REMARK VINA RESULT:    -4.185      2.580      4.110
REMARK INTER + INTRA:          -9.548
REMARK INTER:                  -7.639
REMARK INTRA:                  -1.909
REMARK UNBOUND:                -1.938
REMARK SMILES CCCCCCCCCCCCCCCC(=O)[O-]
REMARK SMILES IDX 9 1 10 2 11 3 12 4 13 5 14 6 15 7 16 8 17 9 18 10 8 11 7 12
REMARK SMILES IDX 6 13 5 14 4 15 3 16 2 17 1 18
REMARK H PARENT
REMARK Flexibility Score: inf
ROOT
ATOM      1  C   UNL     1     -10.785   3.404  20.359  1.00  0.00     0.000 C 
ENDROOT
BRANCH   1   2
ATOM      2  C   UNL     1     -12.132   3.179  19.650  1.00  0.00     0.000 C 
BRANCH   2   3
ATOM      3  C   UNL     1     -12.395   4.214  18.543  1.00  0.00     0.000 C 
BRANCH   3   4
ATOM      4  C   UNL     1     -12.901   3.570  17.241  1.00  0.00     0.000 C 
BRANCH   4   5
ATOM      5  C   UNL     1     -12.137   2.283  16.884  1.00  0.00     0.000 C 
BRANCH   5   6
ATOM      6  C   UNL     1     -11.005   2.529  15.874  1.00  0.00     0.006 C 
BRANCH   6   7
ATOM      7  C   UNL     1     -10.014   1.361  15.797  1.00  0.00     0.053 C 
BRANCH   7   8
ATOM      8  C   UNL     1     -10.175   0.624  14.505  1.00  0.00     0.041 C 
ATOM      9  O   UNL     1      -9.169   0.370  13.791  1.00  0.00    -0.550 OA
ATOM     10  O   UNL     1     -11.441   0.259  14.065  1.00  0.00    -0.550 OA
ENDBRANCH   7   8
ENDBRANCH   6   7
ENDBRANCH   5   6
ENDBRANCH   4   5
ENDBRANCH   3   4
ENDBRANCH   2   3
ENDBRANCH   1   2
BRANCH   1  11
ATOM     11  C   UNL     1      -9.692   2.436  19.875  1.00  0.00     0.000 C 
BRANCH  11  12
ATOM     12  C   UNL     1     -10.200   0.991  19.740  1.00  0.00    -0.000 C 
BRANCH  12  13
ATOM     13  C   UNL     1      -9.071  -0.045  19.831  1.00  0.00    -0.000 C 
BRANCH  13  14
ATOM     14  C   UNL     1      -9.347  -1.062  20.948  1.00  0.00    -0.000 C 
BRANCH  14  15
ATOM     15  C   UNL     1      -8.369  -0.938  22.130  1.00  0.00    -0.000 C 
BRANCH  15  16
ATOM     16  C   UNL     1      -9.001  -0.460  23.451  1.00  0.00    -0.000 C 
BRANCH  16  17
ATOM     17  C   UNL     1      -9.387   1.026  23.426  1.00  0.00    -0.003 C 
ATOM     18  C   UNL     1     -10.903   1.199  23.422  1.00  0.00     0.004 C 
ENDBRANCH  16  17
ENDBRANCH  15  16
ENDBRANCH  14  15
ENDBRANCH  13  14
ENDBRANCH  12  13
ENDBRANCH  11  12
ENDBRANCH   1  11
TORSDOF 14
ENDMDL
MODEL 3
REMARK VINA RESULT:    -4.169      2.054      4.003
REMARK INTER + INTRA:          -9.519
REMARK INTER:                  -7.470
REMARK INTRA:                  -2.049
REMARK UNBOUND:                -1.938
REMARK SMILES CCCCCCCCCCCCCCCC(=O)[O-]
REMARK SMILES IDX 9 1 10 2 11 3 12 4 13 5 14 6 15 7 16 8 17 9 18 10 8 11 7 12
REMARK SMILES IDX 6 13 5 14 4 15 3 16 2 17 1 18
REMARK H PARENT
REMARK Flexibility Score: inf
ROOT
ATOM      1  C   UNL     1      -9.400   4.177  18.760  1.00  0.00     0.000 C 
ENDROOT
BRANCH   1   2
ATOM      2  C   UNL     1     -10.067   4.949  17.608  1.00  0.00     0.000 C 
BRANCH   2   3
ATOM      3  C   UNL     1     -11.584   5.106  17.804  1.00  0.00     0.000 C 
BRANCH   3   4
ATOM      4  C   UNL     1     -12.300   3.756  17.978  1.00  0.00     0.000 C 
BRANCH   4   5
ATOM      5  C   UNL     1     -12.702   3.125  16.634  1.00  0.00     0.000 C 
BRANCH   5   6
ATOM      6  C   UNL     1     -12.018   1.770  16.390  1.00  0.00     0.006 C 
BRANCH   6   7
ATOM      7  C   UNL     1     -10.787   1.881  15.482  1.00  0.00     0.053 C 
BRANCH   7   8
ATOM      8  C   UNL     1     -10.718   0.714  14.550  1.00  0.00     0.041 C 
ATOM      9  O   UNL     1      -9.602   0.288  14.150  1.00  0.00    -0.550 OA
ATOM     10  O   UNL     1     -11.886   0.125  14.082  1.00  0.00    -0.550 OA
ENDBRANCH   7   8
ENDBRANCH   6   7
ENDBRANCH   5   6
ENDBRANCH   4   5
ENDBRANCH   3   4
ENDBRANCH   2   3
ENDBRANCH   1   2
BRANCH   1  11
ATOM     11  C   UNL     1      -8.715   2.883  18.289  1.00  0.00     0.000 C 
BRANCH  11  12
ATOM     12  C   UNL     1      -9.139   1.657  19.114  1.00  0.00    -0.000 C 
BRANCH  12  13
ATOM     13  C   UNL     1     -10.049   2.025  20.295  1.00  0.00    -0.000 C 
BRANCH  13  14
ATOM     14  C   UNL     1     -11.264   1.087  20.366  1.00  0.00    -0.000 C 
BRANCH  14  15
ATOM     15  C   UNL     1     -11.110  -0.016  21.428  1.00  0.00    -0.000 C 
BRANCH  15  16
ATOM     16  C   UNL     1     -10.462   0.438  22.749  1.00  0.00    -0.000 C 
BRANCH  16  17
ATOM     17  C   UNL     1      -9.116  -0.250  23.023  1.00  0.00    -0.003 C 
ATOM     18  C   UNL     1      -8.705  -1.137  21.851  1.00  0.00     0.004 C 
ENDBRANCH  16  17
ENDBRANCH  15  16
ENDBRANCH  14  15
ENDBRANCH  13  14
ENDBRANCH  12  13
ENDBRANCH  11  12
ENDBRANCH   1  11
TORSDOF 14
ENDMDL
MODEL 4
REMARK VINA RESULT:    -4.144      3.046      5.789
REMARK INTER + INTRA:          -9.473
REMARK INTER:                  -7.137
REMARK INTRA:                  -2.336
REMARK UNBOUND:                -1.938
REMARK SMILES CCCCCCCCCCCCCCCC(=O)[O-]
REMARK SMILES IDX 9 1 10 2 11 3 12 4 13 5 14 6 15 7 16 8 17 9 18 10 8 11 7 12
REMARK SMILES IDX 6 13 5 14 4 15 3 16 2 17 1 18
REMARK H PARENT
REMARK Flexibility Score: inf
ROOT
ATOM      1  C   UNL     1     -13.200   3.530  20.842  1.00  0.00     0.000 C 
ENDROOT
BRANCH   1   2
ATOM      2  C   UNL     1     -11.937   2.699  21.127  1.00  0.00     0.000 C 
BRANCH   2   3
ATOM      3  C   UNL     1     -11.757   1.539  20.132  1.00  0.00     0.000 C 
BRANCH   3   4
ATOM      4  C   UNL     1     -10.303   1.391  19.654  1.00  0.00     0.000 C 
BRANCH   4   5
ATOM      5  C   UNL     1      -9.505   2.700  19.780  1.00  0.00     0.000 C 
BRANCH   5   6
ATOM      6  C   UNL     1      -8.409   2.829  18.711  1.00  0.00     0.006 C 
BRANCH   6   7
ATOM      7  C   UNL     1      -7.922   4.272  18.530  1.00  0.00     0.053 C 
BRANCH   7   8
ATOM      8  C   UNL     1      -6.605   4.469  19.211  1.00  0.00     0.041 C 
ATOM      9  O   UNL     1      -6.524   5.197  20.235  1.00  0.00    -0.550 OA
ATOM     10  O   UNL     1      -5.457   3.888  18.688  1.00  0.00    -0.550 OA
ENDBRANCH   7   8
ENDBRANCH   6   7
ENDBRANCH   5   6
ENDBRANCH   4   5
ENDBRANCH   3   4
ENDBRANCH   2   3
ENDBRANCH   1   2
BRANCH   1  11
ATOM     11  C   UNL     1     -13.413   3.787  19.340  1.00  0.00     0.000 C 
BRANCH  11  12
ATOM     12  C   UNL     1     -12.467   4.864  18.785  1.00  0.00    -0.000 C 
BRANCH  12  13
ATOM     13  C   UNL     1     -11.881   4.489  17.417  1.00  0.00    -0.000 C 
BRANCH  13  14
ATOM     14  C   UNL     1     -12.685   3.352  16.768  1.00  0.00    -0.000 C 
BRANCH  14  15
ATOM     15  C   UNL     1     -11.810   2.152  16.362  1.00  0.00    -0.000 C 
BRANCH  15  16
ATOM     16  C   UNL     1     -10.439   2.520  15.766  1.00  0.00    -0.000 C 
BRANCH  16  17
ATOM     17  C   UNL     1      -9.732   1.326  15.108  1.00  0.00    -0.003 C 
ATOM     18  C   UNL     1     -10.663   0.604  14.137  1.00  0.00     0.004 C 
ENDBRANCH  16  17
ENDBRANCH  15  16
ENDBRANCH  14  15
ENDBRANCH  13  14
ENDBRANCH  12  13
ENDBRANCH  11  12
ENDBRANCH   1  11
TORSDOF 14
ENDMDL
MODEL 5
REMARK VINA RESULT:    -4.118      1.597      3.976
REMARK INTER + INTRA:          -9.427
REMARK INTER:                  -6.988
REMARK INTRA:                  -2.439
REMARK UNBOUND:                -1.938
REMARK SMILES CCCCCCCCCCCCCCCC(=O)[O-]
REMARK SMILES IDX 9 1 10 2 11 3 12 4 13 5 14 6 15 7 16 8 17 9 18 10 8 11 7 12
REMARK SMILES IDX 6 13 5 14 4 15 3 16 2 17 1 18
REMARK H PARENT
REMARK Flexibility Score: inf
ROOT
ATOM      1  C   UNL     1      -9.121   5.222  17.262  1.00  0.00     0.000 C 
ENDROOT
BRANCH   1   2
ATOM      2  C   UNL     1     -10.356   6.107  17.508  1.00  0.00     0.000 C 
BRANCH   2   3
ATOM      3  C   UNL     1     -11.677   5.348  17.297  1.00  0.00     0.000 C 
BRANCH   3   4
ATOM      4  C   UNL     1     -11.516   4.129  16.373  1.00  0.00     0.000 C 
BRANCH   4   5
ATOM      5  C   UNL     1     -12.522   3.010  16.694  1.00  0.00     0.000 C 
BRANCH   5   6
ATOM      6  C   UNL     1     -12.148   1.673  16.034  1.00  0.00     0.006 C 
BRANCH   6   7
ATOM      7  C   UNL     1     -10.772   1.708  15.359  1.00  0.00     0.053 C 
BRANCH   7   8
ATOM      8  C   UNL     1     -10.649   0.599  14.363  1.00  0.00     0.041 C 
ATOM      9  O   UNL     1      -9.513   0.217  13.977  1.00  0.00    -0.550 OA
ATOM     10  O   UNL     1     -11.790   0.019  13.823  1.00  0.00    -0.550 OA
ENDBRANCH   7   8
ENDBRANCH   6   7
ENDBRANCH   5   6
ENDBRANCH   4   5
ENDBRANCH   3   4
ENDBRANCH   2   3
ENDBRANCH   1   2
BRANCH   1  11
ATOM     11  C   UNL     1      -8.165   5.191  18.467  1.00  0.00     0.000 C 
BRANCH  11  12
ATOM     12  C   UNL     1      -7.927   3.767  18.995  1.00  0.00    -0.000 C 
BRANCH  12  13
ATOM     13  C   UNL     1      -8.754   2.713  18.245  1.00  0.00    -0.000 C 
BRANCH  13  14
ATOM     14  C   UNL     1      -9.557   1.845  19.226  1.00  0.00    -0.000 C 
BRANCH  14  15
ATOM     15  C   UNL     1      -9.975   2.606  20.498  1.00  0.00    -0.000 C 
BRANCH  15  16
ATOM     16  C   UNL     1     -11.158   3.574  20.316  1.00  0.00    -0.000 C 
BRANCH  16  17
ATOM     17  C   UNL     1     -12.523   2.884  20.455  1.00  0.00    -0.003 C 
ATOM     18  C   UNL     1     -13.664   3.870  20.218  1.00  0.00     0.004 C 
ENDBRANCH  16  17
ENDBRANCH  15  16
ENDBRANCH  14  15
ENDBRANCH  13  14
ENDBRANCH  12  13
ENDBRANCH  11  12
ENDBRANCH   1  11
TORSDOF 14
ENDMDL
MODEL 6
REMARK VINA RESULT:    -4.088      3.317      6.398
REMARK INTER + INTRA:          -9.371
REMARK INTER:                  -7.417
REMARK INTRA:                  -1.954
REMARK UNBOUND:                -1.938
REMARK SMILES CCCCCCCCCCCCCCCC(=O)[O-]
REMARK SMILES IDX 9 1 10 2 11 3 12 4 13 5 14 6 15 7 16 8 17 9 18 10 8 11 7 12
REMARK SMILES IDX 6 13 5 14 4 15 3 16 2 17 1 18
REMARK H PARENT
REMARK Flexibility Score: inf
ROOT
ATOM      1  C   UNL     1     -10.102   1.921  20.075  1.00  0.00     0.000 C 
ENDROOT
BRANCH   1   2
ATOM      2  C   UNL     1      -9.271   1.669  18.805  1.00  0.00     0.000 C 
BRANCH   2   3
ATOM      3  C   UNL     1      -8.351   2.853  18.458  1.00  0.00     0.000 C 
BRANCH   3   4
ATOM      4  C   UNL     1      -8.341   3.933  19.553  1.00  0.00     0.000 C 
BRANCH   4   5
ATOM      5  C   UNL     1      -7.011   4.705  19.607  1.00  0.00     0.000 C 
BRANCH   5   6
ATOM      6  C   UNL     1      -5.918   4.059  18.741  1.00  0.00     0.006 C 
BRANCH   6   7
ATOM      7  C   UNL     1      -4.526   4.643  19.009  1.00  0.00     0.053 C 
BRANCH   7   8
ATOM      8  C   UNL     1      -4.282   5.835  18.138  1.00  0.00     0.041 C 
ATOM      9  O   UNL     1      -4.500   6.995  18.576  1.00  0.00    -0.550 OA
ATOM     10  O   UNL     1      -3.862   5.663  16.824  1.00  0.00    -0.550 OA
ENDBRANCH   7   8
ENDBRANCH   6   7
ENDBRANCH   5   6
ENDBRANCH   4   5
ENDBRANCH   3   4
ENDBRANCH   2   3
ENDBRANCH   1   2
BRANCH   1  11
ATOM     11  C   UNL     1     -11.610   2.025  19.785  1.00  0.00     0.000 C 
BRANCH  11  12
ATOM     12  C   UNL     1     -12.141   3.460  19.933  1.00  0.00    -0.000 C 
BRANCH  12  13
ATOM     13  C   UNL     1     -12.971   3.911  18.722  1.00  0.00    -0.000 C 
BRANCH  13  14
ATOM     14  C   UNL     1     -12.496   3.210  17.439  1.00  0.00    -0.000 C 
BRANCH  14  15
ATOM     15  C   UNL     1     -11.409   4.002  16.690  1.00  0.00    -0.000 C 
BRANCH  15  16
ATOM     16  C   UNL     1     -10.694   3.223  15.570  1.00  0.00    -0.000 C 
BRANCH  16  17
ATOM     17  C   UNL     1     -11.079   1.736  15.535  1.00  0.00    -0.003 C 
ATOM     18  C   UNL     1      -9.891   0.871  15.122  1.00  0.00     0.004 C 
ENDBRANCH  16  17
ENDBRANCH  15  16
ENDBRANCH  14  15
ENDBRANCH  13  14
ENDBRANCH  12  13
ENDBRANCH  11  12
ENDBRANCH   1  11
TORSDOF 14
ENDMDL
MODEL 7
REMARK VINA RESULT:    -4.075      3.161      6.131
REMARK INTER + INTRA:          -9.347
REMARK INTER:                  -7.241
REMARK INTRA:                  -2.106
REMARK UNBOUND:                -1.938
REMARK SMILES CCCCCCCCCCCCCCCC(=O)[O-]
REMARK SMILES IDX 9 1 10 2 11 3 12 4 13 5 14 6 15 7 16 8 17 9 18 10 8 11 7 12
REMARK SMILES IDX 6 13 5 14 4 15 3 16 2 17 1 18
REMARK H PARENT
REMARK Flexibility Score: inf
ROOT
ATOM      1  C   UNL     1      -9.622   4.700  18.618  1.00  0.00     0.000 C 
ENDROOT
BRANCH   1   2
ATOM      2  C   UNL     1      -8.991   3.374  18.160  1.00  0.00     0.000 C 
BRANCH   2   3
ATOM      3  C   UNL     1      -9.412   2.184  19.040  1.00  0.00     0.000 C 
BRANCH   3   4
ATOM      4  C   UNL     1      -9.781   2.611  20.471  1.00  0.00     0.000 C 
BRANCH   4   5
ATOM      5  C   UNL     1     -11.152   2.069  20.913  1.00  0.00     0.000 C 
BRANCH   5   6
ATOM      6  C   UNL     1     -11.242   0.538  20.811  1.00  0.00     0.006 C 
BRANCH   6   7
ATOM      7  C   UNL     1     -10.556  -0.176  21.982  1.00  0.00     0.053 C 
BRANCH   7   8
ATOM      8  C   UNL     1      -9.271  -0.797  21.535  1.00  0.00     0.041 C 
ATOM      9  O   UNL     1      -9.109  -1.121  20.329  1.00  0.00    -0.550 OA
ATOM     10  O   UNL     1      -8.269  -1.065  22.459  1.00  0.00    -0.550 OA
ENDBRANCH   7   8
ENDBRANCH   6   7
ENDBRANCH   5   6
ENDBRANCH   4   5
ENDBRANCH   3   4
ENDBRANCH   2   3
ENDBRANCH   1   2
BRANCH   1  11
ATOM     11  C   UNL     1     -10.794   5.139  17.722  1.00  0.00     0.000 C 
BRANCH  11  12
ATOM     12  C   UNL     1     -12.154   5.015  18.428  1.00  0.00    -0.000 C 
BRANCH  12  13
ATOM     13  C   UNL     1     -12.863   3.689  18.116  1.00  0.00    -0.000 C 
BRANCH  13  14
ATOM     14  C   UNL     1     -12.530   3.209  16.695  1.00  0.00    -0.000 C 
BRANCH  14  15
ATOM     15  C   UNL     1     -12.055   1.746  16.651  1.00  0.00    -0.000 C 
BRANCH  15  16
ATOM     16  C   UNL     1     -12.354   1.004  15.335  1.00  0.00    -0.000 C 
BRANCH  16  17
ATOM     17  C   UNL     1     -11.084   0.640  14.552  1.00  0.00    -0.003 C 
ATOM     18  C   UNL     1      -9.837   1.177  15.247  1.00  0.00     0.004 C 
ENDBRANCH  16  17
ENDBRANCH  15  16
ENDBRANCH  14  15
ENDBRANCH  13  14
ENDBRANCH  12  13
ENDBRANCH  11  12
ENDBRANCH   1  11
TORSDOF 14
ENDMDL
MODEL 8
REMARK VINA RESULT:    -4.032      1.767      2.784
REMARK INTER + INTRA:          -9.270
REMARK INTER:                  -6.878
REMARK INTRA:                  -2.392
REMARK UNBOUND:                -1.938
REMARK SMILES CCCCCCCCCCCCCCCC(=O)[O-]
REMARK SMILES IDX 9 1 10 2 11 3 12 4 13 5 14 6 15 7 16 8 17 9 18 10 8 11 7 12
REMARK SMILES IDX 6 13 5 14 4 15 3 16 2 17 1 18
REMARK H PARENT
REMARK Flexibility Score: inf
ROOT
ATOM      1  C   UNL     1     -13.817   3.991  19.446  1.00  0.00     0.000 C 
ENDROOT
BRANCH   1   2
ATOM      2  C   UNL     1     -12.589   4.316  18.578  1.00  0.00     0.000 C 
BRANCH   2   3
ATOM      3  C   UNL     1     -12.844   4.071  17.081  1.00  0.00     0.000 C 
BRANCH   3   4
ATOM      4  C   UNL     1     -12.473   2.644  16.645  1.00  0.00     0.000 C 
BRANCH   4   5
ATOM      5  C   UNL     1     -11.340   2.043  17.496  1.00  0.00     0.000 C 
BRANCH   5   6
ATOM      6  C   UNL     1     -10.193   1.483  16.640  1.00  0.00     0.006 C 
BRANCH   6   7
ATOM      7  C   UNL     1     -10.254   1.956  15.182  1.00  0.00     0.053 C 
BRANCH   7   8
ATOM      8  C   UNL     1     -10.308   0.785  14.254  1.00  0.00     0.041 C 
ATOM      9  O   UNL     1     -11.411   0.242  13.982  1.00  0.00    -0.550 OA
ATOM     10  O   UNL     1      -9.135   0.259  13.727  1.00  0.00    -0.550 OA
ENDBRANCH   7   8
ENDBRANCH   6   7
ENDBRANCH   5   6
ENDBRANCH   4   5
ENDBRANCH   3   4
ENDBRANCH   2   3
ENDBRANCH   1   2
BRANCH   1  11
ATOM     11  C   UNL     1     -13.434   3.447  20.833  1.00  0.00     0.000 C 
BRANCH  11  12
ATOM     12  C   UNL     1     -11.929   3.569  21.120  1.00  0.00    -0.000 C 
BRANCH  12  13
ATOM     13  C   UNL     1     -11.258   2.207  21.352  1.00  0.00    -0.000 C 
BRANCH  13  14
ATOM     14  C   UNL     1      -9.835   2.191  20.774  1.00  0.00    -0.000 C 
BRANCH  14  15
ATOM     15  C   UNL     1      -9.374   3.571  20.271  1.00  0.00    -0.000 C 
BRANCH  15  16
ATOM     16  C   UNL     1      -8.347   3.535  19.124  1.00  0.00    -0.000 C 
BRANCH  16  17
ATOM     17  C   UNL     1      -8.167   4.898  18.440  1.00  0.00    -0.003 C 
ATOM     18  C   UNL     1      -9.148   5.066  17.284  1.00  0.00     0.004 C 
ENDBRANCH  16  17
ENDBRANCH  15  16
ENDBRANCH  14  15
ENDBRANCH  13  14
ENDBRANCH  12  13
ENDBRANCH  11  12
ENDBRANCH   1  11
TORSDOF 14
ENDMDL
MODEL 9
REMARK VINA RESULT:    -4.030      3.710      6.462
REMARK INTER + INTRA:          -9.266
REMARK INTER:                  -7.045
REMARK INTRA:                  -2.221
REMARK UNBOUND:                -1.938
REMARK SMILES CCCCCCCCCCCCCCCC(=O)[O-]
REMARK SMILES IDX 9 1 10 2 11 3 12 4 13 5 14 6 15 7 16 8 17 9 18 10 8 11 7 12
REMARK SMILES IDX 6 13 5 14 4 15 3 16 2 17 1 18
REMARK H PARENT
REMARK Flexibility Score: inf
ROOT
ATOM      1  C   UNL     1      -8.639   3.339  18.816  1.00  0.00     0.000 C 
ENDROOT
BRANCH   1   2
ATOM      2  C   UNL     1      -9.036   1.866  18.614  1.00  0.00     0.000 C 
BRANCH   2   3
ATOM      3  C   UNL     1      -9.926   1.333  19.750  1.00  0.00     0.000 C 
BRANCH   3   4
ATOM      4  C   UNL     1     -10.461   2.455  20.656  1.00  0.00     0.000 C 
BRANCH   4   5
ATOM      5  C   UNL     1     -11.994   2.428  20.785  1.00  0.00     0.000 C 
BRANCH   5   6
ATOM      6  C   UNL     1     -12.684   3.409  19.824  1.00  0.00     0.006 C 
BRANCH   6   7
ATOM      7  C   UNL     1     -12.309   4.871  20.096  1.00  0.00     0.053 C 
BRANCH   7   8
ATOM      8  C   UNL     1     -13.250   5.476  21.089  1.00  0.00     0.041 C 
ATOM      9  O   UNL     1     -12.919   5.568  22.301  1.00  0.00    -0.550 OA
ATOM     10  O   UNL     1     -14.513   5.892  20.688  1.00  0.00    -0.550 OA
ENDBRANCH   7   8
ENDBRANCH   6   7
ENDBRANCH   5   6
ENDBRANCH   4   5
ENDBRANCH   3   4
ENDBRANCH   2   3
ENDBRANCH   1   2
BRANCH   1  11
ATOM     11  C   UNL     1      -9.353   4.285  17.835  1.00  0.00     0.000 C 
BRANCH  11  12
ATOM     12  C   UNL     1     -10.018   3.535  16.670  1.00  0.00    -0.000 C 
BRANCH  12  13
ATOM     13  C   UNL     1     -11.417   4.074  16.341  1.00  0.00    -0.000 C 
BRANCH  13  14
ATOM     14  C   UNL     1     -12.467   2.955  16.405  1.00  0.00    -0.000 C 
BRANCH  14  15
ATOM     15  C   UNL     1     -11.863   1.552  16.212  1.00  0.00    -0.000 C 
BRANCH  15  16
ATOM     16  C   UNL     1     -12.527   0.705  15.110  1.00  0.00    -0.000 C 
BRANCH  16  17
ATOM     17  C   UNL     1     -11.533   0.233  14.038  1.00  0.00    -0.003 C 
ATOM     18  C   UNL     1     -10.120   0.718  14.348  1.00  0.00     0.004 C 
ENDBRANCH  16  17
ENDBRANCH  15  16
ENDBRANCH  14  15
ENDBRANCH  13  14
ENDBRANCH  12  13
ENDBRANCH  11  12
ENDBRANCH   1  11
TORSDOF 14
ENDMDL
