MODEL 1
REMARK VINA RESULT:    -6.951      0.000      0.000
REMARK INTER + INTRA:         -10.846
REMARK INTER:                  -9.998
REMARK INTRA:                  -0.848
REMARK UNBOUND:                -0.848
REMARK SMILES O=c1cc(-c2ccc(O)c(O)c2)oc2cc(O[C@H]3O[C@H](CO)[C@H](O)[C@H](O)[C@H]3O)cc(O)c12
REMARK SMILES IDX 17 1 16 2 4 3 3 4 13 5 2 6 14 7 1 8 32 9 15 10 30 11 29 12
REMARK SMILES IDX 5 13 6 14 7 15 8 16 12 17 10 18 9 19 11 21 31 23 18 25 27 26
REMARK SMILES IDX 19 27 25 28 20 29 23 30 28 31 26 33 21 35 22 36 24 38
REMARK H PARENT 9 20 11 22 31 24 28 32 26 34 22 37 24 39
REMARK Flexibility Score: inf
ROOT
ATOM      1  O   UNL     1      -7.780  29.166   5.883  1.00  0.00    -0.462 OA
ENDROOT
BRANCH   1   2
ATOM      2  C   UNL     1      -8.847  29.775   6.567  1.00  0.00     0.130 A 
ATOM      3  C   UNL     1     -10.818  33.915   7.866  1.00  0.00     0.138 A 
ATOM      4  C   UNL     1     -11.822  33.284   8.614  1.00  0.00     0.100 A 
ATOM      5  O   UNL     1      -9.913  33.175   7.236  1.00  0.00    -0.456 OA
ATOM      6  C   UNL     1     -11.871  31.891   8.665  1.00  0.00     0.197 A 
ATOM      7  C   UNL     1      -9.919  31.845   7.247  1.00  0.00     0.146 A 
ATOM      8  O   UNL     1     -12.743  31.353   9.396  1.00  0.00    -0.289 OA
ATOM      9  C   UNL     1     -10.928  31.127   7.936  1.00  0.00     0.107 A 
ATOM     10  C   UNL     1      -8.902  31.168   6.571  1.00  0.00     0.094 A 
ATOM     11  C   UNL     1     -10.908  29.703   7.878  1.00  0.00     0.134 A 
ATOM     12  C   UNL     1      -9.856  29.051   7.223  1.00  0.00     0.093 A 
BRANCH   3  13
ATOM     13  C   UNL     1     -10.721  35.395   7.776  1.00  0.00     0.021 A 
ATOM     14  C   UNL     1     -11.777  36.232   8.182  1.00  0.00     0.016 A 
ATOM     15  C   UNL     1     -11.660  37.620   8.075  1.00  0.00     0.051 A 
ATOM     16  C   UNL     1     -10.494  38.195   7.558  1.00  0.00     0.157 A 
ATOM     17  C   UNL     1      -9.557  35.980   7.244  1.00  0.00     0.062 A 
ATOM     18  C   UNL     1      -9.438  37.369   7.138  1.00  0.00     0.158 A 
BRANCH  16  19
ATOM     19  O   UNL     1     -10.381  39.582   7.455  1.00  0.00    -0.504 OA
ATOM     20  H   UNL     1     -10.362  40.174   8.276  1.00  0.00     0.293 HD
ENDBRANCH  16  19
BRANCH  18  21
ATOM     21  O   UNL     1      -8.265  37.911   6.614  1.00  0.00    -0.504 OA
ATOM     22  H   UNL     1      -7.581  37.344   6.126  1.00  0.00     0.293 HD
ENDBRANCH  18  21
ENDBRANCH   3  13
BRANCH  11  23
ATOM     23  O   UNL     1     -11.904  28.887   8.424  1.00  0.00    -0.507 OA
ATOM     24  H   UNL     1     -11.735  28.029   8.928  1.00  0.00     0.293 HD
ENDBRANCH  11  23
ENDBRANCH   1   2
BRANCH   1  25
ATOM     25  C   UNL     1      -6.940  29.769   4.888  1.00  0.00     0.339 C 
ATOM     26  C   UNL     1      -6.583  28.778   3.755  1.00  0.00     0.214 C 
ATOM     27  O   UNL     1      -5.763  30.289   5.490  1.00  0.00    -0.332 OA
ATOM     28  C   UNL     1      -5.676  27.655   4.289  1.00  0.00     0.180 C 
ATOM     29  C   UNL     1      -5.000  29.271   6.120  1.00  0.00     0.179 C 
ATOM     30  C   UNL     1      -4.489  28.239   5.083  1.00  0.00     0.177 C 
BRANCH  26  31
ATOM     31  O   UNL     1      -7.752  28.230   3.206  1.00  0.00    -0.384 OA
ATOM     32  H   UNL     1      -7.998  28.791   2.426  1.00  0.00     0.211 HD
ENDBRANCH  26  31
BRANCH  28  33
ATOM     33  O   UNL     1      -5.209  26.876   3.217  1.00  0.00    -0.387 OA
ATOM     34  H   UNL     1      -4.831  27.505   2.550  1.00  0.00     0.211 HD
ENDBRANCH  28  33
BRANCH  29  35
ATOM     35  C   UNL     1      -3.842  29.929   6.885  1.00  0.00     0.191 C 
BRANCH  35  36
ATOM     36  O   UNL     1      -4.282  31.053   7.598  1.00  0.00    -0.394 OA
ATOM     37  H   UNL     1      -5.275  31.019   7.597  1.00  0.00     0.210 HD
ENDBRANCH  35  36
ENDBRANCH  29  35
BRANCH  30  38
ATOM     38  O   UNL     1      -3.520  28.789   4.220  1.00  0.00    -0.387 OA
ATOM     39  H   UNL     1      -3.864  29.655   3.880  1.00  0.00     0.211 HD
ENDBRANCH  30  38
ENDBRANCH   1  25
TORSDOF 11
ENDMDL
MODEL 2
REMARK VINA RESULT:    -6.860      1.522      8.544
REMARK INTER + INTRA:         -10.715
REMARK INTER:                  -9.802
REMARK INTRA:                  -0.913
REMARK UNBOUND:                -0.848
REMARK SMILES O=c1cc(-c2ccc(O)c(O)c2)oc2cc(O[C@H]3O[C@H](CO)[C@H](O)[C@H](O)[C@H]3O)cc(O)c12
REMARK SMILES IDX 17 1 16 2 4 3 3 4 13 5 2 6 14 7 1 8 32 9 15 10 30 11 29 12
REMARK SMILES IDX 5 13 6 14 7 15 8 16 12 17 10 18 9 19 11 21 31 23 18 25 27 26
REMARK SMILES IDX 19 27 25 28 20 29 23 30 28 31 26 33 21 35 22 36 24 38
REMARK H PARENT 9 20 11 22 31 24 28 32 26 34 22 37 24 39
REMARK Flexibility Score: inf
ROOT
ATOM      1  O   UNL     1     -10.029  35.431   7.359  1.00  0.00    -0.462 OA
ENDROOT
BRANCH   1   2
ATOM      2  C   UNL     1     -10.174  34.046   7.554  1.00  0.00     0.130 A 
ATOM      3  C   UNL     1      -8.639  29.723   6.262  1.00  0.00     0.138 A 
ATOM      4  C   UNL     1      -9.589  29.069   7.060  1.00  0.00     0.100 A 
ATOM      5  O   UNL     1      -8.612  31.051   6.238  1.00  0.00    -0.456 OA
ATOM      6  C   UNL     1     -10.474  29.821   7.833  1.00  0.00     0.197 A 
ATOM      7  C   UNL     1      -9.428  31.813   6.960  1.00  0.00     0.146 A 
ATOM      8  O   UNL     1     -11.357  29.209   8.488  1.00  0.00    -0.289 OA
ATOM      9  C   UNL     1     -10.384  31.233   7.832  1.00  0.00     0.107 A 
ATOM     10  C   UNL     1      -9.330  33.200   6.836  1.00  0.00     0.094 A 
ATOM     11  C   UNL     1     -11.203  32.099   8.613  1.00  0.00     0.134 A 
ATOM     12  C   UNL     1     -11.107  33.486   8.442  1.00  0.00     0.093 A 
BRANCH   3  13
ATOM     13  C   UNL     1      -7.671  28.973   5.421  1.00  0.00     0.021 A 
ATOM     14  C   UNL     1      -8.065  27.860   4.655  1.00  0.00     0.016 A 
ATOM     15  C   UNL     1      -7.131  27.167   3.880  1.00  0.00     0.051 A 
ATOM     16  C   UNL     1      -5.790  27.568   3.862  1.00  0.00     0.157 A 
ATOM     17  C   UNL     1      -6.319  29.361   5.407  1.00  0.00     0.062 A 
ATOM     18  C   UNL     1      -5.383  28.670   4.632  1.00  0.00     0.158 A 
BRANCH  16  19
ATOM     19  O   UNL     1      -4.861  26.875   3.086  1.00  0.00    -0.504 OA
ATOM     20  H   UNL     1      -4.361  26.073   3.449  1.00  0.00     0.293 HD
ENDBRANCH  16  19
BRANCH  18  21
ATOM     21  O   UNL     1      -4.054  29.092   4.639  1.00  0.00    -0.504 OA
ATOM     22  H   UNL     1      -3.560  29.302   5.498  1.00  0.00     0.293 HD
ENDBRANCH  18  21
ENDBRANCH   3  13
BRANCH  11  23
ATOM     23  O   UNL     1     -12.105  31.652   9.584  1.00  0.00    -0.507 OA
ATOM     24  H   UNL     1     -11.913  30.928  10.259  1.00  0.00     0.293 HD
ENDBRANCH  11  23
ENDBRANCH   1   2
BRANCH   1  25
ATOM     25  C   UNL     1     -10.215  36.151   6.131  1.00  0.00     0.339 C 
ATOM     26  C   UNL     1      -8.894  36.770   5.619  1.00  0.00     0.214 C 
ATOM     27  O   UNL     1     -11.209  37.153   6.297  1.00  0.00    -0.332 OA
ATOM     28  C   UNL     1      -8.420  37.888   6.566  1.00  0.00     0.180 C 
ATOM     29  C   UNL     1     -10.840  38.102   7.287  1.00  0.00     0.179 C 
ATOM     30  C   UNL     1      -9.566  38.877   6.864  1.00  0.00     0.177 C 
BRANCH  26  31
ATOM     31  O   UNL     1      -7.905  35.781   5.513  1.00  0.00    -0.384 OA
ATOM     32  H   UNL     1      -8.372  34.908   5.453  1.00  0.00     0.211 HD
ENDBRANCH  26  31
BRANCH  28  33
ATOM     33  O   UNL     1      -7.331  38.563   5.992  1.00  0.00    -0.387 OA
ATOM     34  H   UNL     1      -7.326  39.477   6.377  1.00  0.00     0.211 HD
ENDBRANCH  28  33
BRANCH  29  35
ATOM     35  C   UNL     1     -12.027  39.048   7.525  1.00  0.00     0.191 C 
BRANCH  35  36
ATOM     36  O   UNL     1     -11.588  40.316   7.928  1.00  0.00    -0.394 OA
ATOM     37  H   UNL     1     -10.762  40.509   7.411  1.00  0.00     0.210 HD
ENDBRANCH  35  36
ENDBRANCH  29  35
BRANCH  30  38
ATOM     38  O   UNL     1      -9.803  39.729   5.767  1.00  0.00    -0.387 OA
ATOM     39  H   UNL     1      -9.015  39.686   5.166  1.00  0.00     0.211 HD
ENDBRANCH  30  38
ENDBRANCH   1  25
TORSDOF 11
ENDMDL
MODEL 3
REMARK VINA RESULT:    -6.655      1.429      8.446
REMARK INTER + INTRA:         -10.421
REMARK INTER:                  -9.448
REMARK INTRA:                  -0.974
REMARK UNBOUND:                -0.848
REMARK SMILES O=c1cc(-c2ccc(O)c(O)c2)oc2cc(O[C@H]3O[C@H](CO)[C@H](O)[C@H](O)[C@H]3O)cc(O)c12
REMARK SMILES IDX 17 1 16 2 4 3 3 4 13 5 2 6 14 7 1 8 32 9 15 10 30 11 29 12
REMARK SMILES IDX 5 13 6 14 7 15 8 16 12 17 10 18 9 19 11 21 31 23 18 25 27 26
REMARK SMILES IDX 19 27 25 28 20 29 23 30 28 31 26 33 21 35 22 36 24 38
REMARK H PARENT 9 20 11 22 31 24 28 32 26 34 22 37 24 39
REMARK Flexibility Score: inf
ROOT
ATOM      1  O   UNL     1     -11.308  35.188   8.421  1.00  0.00    -0.462 OA
ENDROOT
BRANCH   1   2
ATOM      2  C   UNL     1     -11.276  33.782   8.418  1.00  0.00     0.130 A 
ATOM      3  C   UNL     1      -9.227  29.909   6.545  1.00  0.00     0.138 A 
ATOM      4  C   UNL     1     -10.081  29.037   7.235  1.00  0.00     0.100 A 
ATOM      5  O   UNL     1      -9.367  31.220   6.707  1.00  0.00    -0.456 OA
ATOM      6  C   UNL     1     -11.046  29.556   8.099  1.00  0.00     0.197 A 
ATOM      7  C   UNL     1     -10.265  31.766   7.523  1.00  0.00     0.146 A 
ATOM      8  O   UNL     1     -11.839  28.753   8.654  1.00  0.00    -0.289 OA
ATOM      9  C   UNL     1     -11.132  30.955   8.297  1.00  0.00     0.107 A 
ATOM     10  C   UNL     1     -10.341  33.157   7.595  1.00  0.00     0.094 A 
ATOM     11  C   UNL     1     -12.046  31.593   9.185  1.00  0.00     0.134 A 
ATOM     12  C   UNL     1     -12.124  32.992   9.211  1.00  0.00     0.093 A 
BRANCH   3  13
ATOM     13  C   UNL     1      -8.182  29.411   5.614  1.00  0.00     0.021 A 
ATOM     14  C   UNL     1      -8.508  28.647   4.478  1.00  0.00     0.016 A 
ATOM     15  C   UNL     1      -7.502  28.183   3.625  1.00  0.00     0.051 A 
ATOM     16  C   UNL     1      -6.158  28.467   3.895  1.00  0.00     0.157 A 
ATOM     17  C   UNL     1      -6.829  29.681   5.885  1.00  0.00     0.062 A 
ATOM     18  C   UNL     1      -5.821  29.218   5.033  1.00  0.00     0.158 A 
BRANCH  16  19
ATOM     19  O   UNL     1      -5.158  28.004   3.041  1.00  0.00    -0.504 OA
ATOM     20  H   UNL     1      -5.039  28.383   2.109  1.00  0.00     0.293 HD
ENDBRANCH  16  19
BRANCH  18  21
ATOM     21  O   UNL     1      -4.492  29.515   5.332  1.00  0.00    -0.504 OA
ATOM     22  H   UNL     1      -3.885  28.853   5.801  1.00  0.00     0.293 HD
ENDBRANCH  18  21
ENDBRANCH   3  13
BRANCH  11  23
ATOM     23  O   UNL     1     -12.876  30.906  10.077  1.00  0.00    -0.507 OA
ATOM     24  H   UNL     1     -13.754  30.476   9.831  1.00  0.00     0.293 HD
ENDBRANCH  11  23
ENDBRANCH   1   2
BRANCH   1  25
ATOM     25  C   UNL     1     -10.235  36.071   8.781  1.00  0.00     0.339 C 
ATOM     26  C   UNL     1     -10.756  37.393   9.393  1.00  0.00     0.214 C 
ATOM     27  O   UNL     1      -9.413  36.329   7.652  1.00  0.00    -0.332 OA
ATOM     28  C   UNL     1     -11.497  38.223   8.330  1.00  0.00     0.180 C 
ATOM     29  C   UNL     1     -10.138  36.958   6.605  1.00  0.00     0.179 C 
ATOM     30  C   UNL     1     -10.651  38.353   7.046  1.00  0.00     0.177 C 
BRANCH  26  31
ATOM     31  O   UNL     1     -11.611  37.123  10.472  1.00  0.00    -0.384 OA
ATOM     32  H   UNL     1     -11.449  36.182  10.743  1.00  0.00     0.211 HD
ENDBRANCH  26  31
BRANCH  28  33
ATOM     33  O   UNL     1     -11.796  39.494   8.847  1.00  0.00    -0.387 OA
ATOM     34  H   UNL     1     -10.931  39.964   8.968  1.00  0.00     0.211 HD
ENDBRANCH  28  33
BRANCH  29  35
ATOM     35  C   UNL     1      -9.231  37.052   5.368  1.00  0.00     0.191 C 
BRANCH  35  36
ATOM     36  O   UNL     1      -7.919  37.388   5.729  1.00  0.00    -0.394 OA
ATOM     37  H   UNL     1      -7.336  36.657   5.395  1.00  0.00     0.210 HD
ENDBRANCH  35  36
ENDBRANCH  29  35
BRANCH  30  38
ATOM     38  O   UNL     1      -9.600  39.275   7.219  1.00  0.00    -0.387 OA
ATOM     39  H   UNL     1      -9.918  40.166   6.922  1.00  0.00     0.211 HD
ENDBRANCH  30  38
ENDBRANCH   1  25
TORSDOF 11
ENDMDL
MODEL 4
REMARK VINA RESULT:    -6.616     15.316     18.971
REMARK INTER + INTRA:         -10.365
REMARK INTER:                  -9.594
REMARK INTRA:                  -0.771
REMARK UNBOUND:                -0.848
REMARK SMILES O=c1cc(-c2ccc(O)c(O)c2)oc2cc(O[C@H]3O[C@H](CO)[C@H](O)[C@H](O)[C@H]3O)cc(O)c12
REMARK SMILES IDX 17 1 16 2 4 3 3 4 13 5 2 6 14 7 1 8 32 9 15 10 30 11 29 12
REMARK SMILES IDX 5 13 6 14 7 15 8 16 12 17 10 18 9 19 11 21 31 23 18 25 27 26
REMARK SMILES IDX 19 27 25 28 20 29 23 30 28 31 26 33 21 35 22 36 24 38
REMARK H PARENT 9 20 11 22 31 24 28 32 26 34 22 37 24 39
REMARK Flexibility Score: inf
ROOT
ATOM      1  O   UNL     1       1.572  45.218  -0.141  1.00  0.00    -0.462 OA
ENDROOT
BRANCH   1   2
ATOM      2  C   UNL     1       2.686  45.563   0.645  1.00  0.00     0.130 A 
ATOM      3  C   UNL     1       4.286  46.298   5.073  1.00  0.00     0.138 A 
ATOM      4  C   UNL     1       5.554  46.696   4.625  1.00  0.00     0.100 A 
ATOM      5  O   UNL     1       3.360  45.954   4.185  1.00  0.00    -0.456 OA
ATOM      6  C   UNL     1       5.832  46.700   3.259  1.00  0.00     0.197 A 
ATOM      7  C   UNL     1       3.576  45.934   2.873  1.00  0.00     0.146 A 
ATOM      8  O   UNL     1       6.956  47.123   2.882  1.00  0.00    -0.289 OA
ATOM      9  C   UNL     1       4.845  46.271   2.339  1.00  0.00     0.107 A 
ATOM     10  C   UNL     1       2.522  45.581   2.029  1.00  0.00     0.094 A 
ATOM     11  C   UNL     1       5.031  46.192   0.928  1.00  0.00     0.134 A 
ATOM     12  C   UNL     1       3.946  45.869   0.103  1.00  0.00     0.093 A 
BRANCH   3  13
ATOM     13  C   UNL     1       3.936  46.274   6.517  1.00  0.00     0.021 A 
ATOM     14  C   UNL     1       2.601  46.172   6.952  1.00  0.00     0.016 A 
ATOM     15  C   UNL     1       2.302  46.161   8.317  1.00  0.00     0.051 A 
ATOM     16  C   UNL     1       3.324  46.258   9.268  1.00  0.00     0.157 A 
ATOM     17  C   UNL     1       4.956  46.384   7.478  1.00  0.00     0.062 A 
ATOM     18  C   UNL     1       4.658  46.373   8.844  1.00  0.00     0.158 A 
BRANCH  16  19
ATOM     19  O   UNL     1       3.020  46.246  10.629  1.00  0.00    -0.504 OA
ATOM     20  H   UNL     1       2.068  46.146  10.958  1.00  0.00     0.293 HD
ENDBRANCH  16  19
BRANCH  18  21
ATOM     21  O   UNL     1       5.700  46.476   9.766  1.00  0.00    -0.504 OA
ATOM     22  H   UNL     1       5.575  46.255  10.747  1.00  0.00     0.293 HD
ENDBRANCH  18  21
ENDBRANCH   3  13
BRANCH  11  23
ATOM     23  O   UNL     1       6.259  46.395   0.291  1.00  0.00    -0.507 OA
ATOM     24  H   UNL     1       6.537  45.963  -0.577  1.00  0.00     0.293 HD
ENDBRANCH  11  23
ENDBRANCH   1   2
BRANCH   1  25
ATOM     25  C   UNL     1       1.403  44.021  -0.915  1.00  0.00     0.339 C 
ATOM     26  C   UNL     1       0.045  43.999  -1.655  1.00  0.00     0.214 C 
ATOM     27  O   UNL     1       1.542  42.877  -0.084  1.00  0.00    -0.332 OA
ATOM     28  C   UNL     1      -1.114  43.885  -0.649  1.00  0.00     0.180 C 
ATOM     29  C   UNL     1       0.563  42.852   0.945  1.00  0.00     0.179 C 
ATOM     30  C   UNL     1      -0.864  42.736   0.350  1.00  0.00     0.177 C 
BRANCH  26  31
ATOM     31  O   UNL     1      -0.103  45.160  -2.428  1.00  0.00    -0.384 OA
ATOM     32  H   UNL     1       0.809  45.483  -2.647  1.00  0.00     0.211 HD
ENDBRANCH  26  31
BRANCH  28  33
ATOM     33  O   UNL     1      -2.319  43.676  -1.340  1.00  0.00    -0.387 OA
ATOM     34  H   UNL     1      -2.928  44.416  -1.081  1.00  0.00     0.211 HD
ENDBRANCH  28  33
BRANCH  29  35
ATOM     35  C   UNL     1       0.879  41.685   1.893  1.00  0.00     0.191 C 
BRANCH  35  36
ATOM     36  O   UNL     1       2.122  41.112   1.591  1.00  0.00    -0.394 OA
ATOM     37  H   UNL     1       2.644  41.103   2.435  1.00  0.00     0.210 HD
ENDBRANCH  35  36
ENDBRANCH  29  35
BRANCH  30  38
ATOM     38  O   UNL     1      -1.089  41.481  -0.249  1.00  0.00    -0.387 OA
ATOM     39  H   UNL     1      -0.212  41.034  -0.372  1.00  0.00     0.211 HD
ENDBRANCH  30  38
ENDBRANCH   1  25
TORSDOF 11
ENDMDL
MODEL 5
REMARK VINA RESULT:    -6.449      1.541      8.791
REMARK INTER + INTRA:         -10.124
REMARK INTER:                  -9.124
REMARK INTRA:                  -1.000
REMARK UNBOUND:                -0.848
REMARK SMILES O=c1cc(-c2ccc(O)c(O)c2)oc2cc(O[C@H]3O[C@H](CO)[C@H](O)[C@H](O)[C@H]3O)cc(O)c12
REMARK SMILES IDX 17 1 16 2 4 3 3 4 13 5 2 6 14 7 1 8 32 9 15 10 30 11 29 12
REMARK SMILES IDX 5 13 6 14 7 15 8 16 12 17 10 18 9 19 11 21 31 23 18 25 27 26
REMARK SMILES IDX 19 27 25 28 20 29 23 30 28 31 26 33 21 35 22 36 24 38
REMARK H PARENT 9 20 11 22 31 24 28 32 26 34 22 37 24 39
REMARK Flexibility Score: inf
ROOT
ATOM      1  O   UNL     1     -11.347  35.174   8.093  1.00  0.00    -0.462 OA
ENDROOT
BRANCH   1   2
ATOM      2  C   UNL     1     -11.256  33.771   8.054  1.00  0.00     0.130 A 
ATOM      3  C   UNL     1      -8.672  30.048   6.581  1.00  0.00     0.138 A 
ATOM      4  C   UNL     1      -9.622  29.120   7.032  1.00  0.00     0.100 A 
ATOM      5  O   UNL     1      -8.901  31.346   6.747  1.00  0.00    -0.456 OA
ATOM      6  C   UNL     1     -10.778  29.571   7.668  1.00  0.00     0.197 A 
ATOM      7  C   UNL     1      -9.982  31.827   7.353  1.00  0.00     0.146 A 
ATOM      8  O   UNL     1     -11.642  28.720   8.004  1.00  0.00    -0.289 OA
ATOM      9  C   UNL     1     -10.967  30.957   7.884  1.00  0.00     0.107 A 
ATOM     10  C   UNL     1     -10.132  33.211   7.448  1.00  0.00     0.094 A 
ATOM     11  C   UNL     1     -12.084  31.528   8.559  1.00  0.00     0.134 A 
ATOM     12  C   UNL     1     -12.227  32.921   8.609  1.00  0.00     0.093 A 
BRANCH   3  13
ATOM     13  C   UNL     1      -7.423  29.623   5.899  1.00  0.00     0.021 A 
ATOM     14  C   UNL     1      -6.200  30.287   6.113  1.00  0.00     0.016 A 
ATOM     15  C   UNL     1      -5.043  29.871   5.449  1.00  0.00     0.051 A 
ATOM     16  C   UNL     1      -5.087  28.793   4.557  1.00  0.00     0.157 A 
ATOM     17  C   UNL     1      -7.461  28.549   4.991  1.00  0.00     0.062 A 
ATOM     18  C   UNL     1      -6.304  28.131   4.326  1.00  0.00     0.158 A 
BRANCH  16  19
ATOM     19  O   UNL     1      -3.929  28.381   3.898  1.00  0.00    -0.504 OA
ATOM     20  H   UNL     1      -3.912  28.241   2.895  1.00  0.00     0.293 HD
ENDBRANCH  16  19
BRANCH  18  21
ATOM     21  O   UNL     1      -6.382  27.056   3.441  1.00  0.00    -0.504 OA
ATOM     22  H   UNL     1      -5.672  26.334   3.408  1.00  0.00     0.293 HD
ENDBRANCH  18  21
ENDBRANCH   3  13
BRANCH  11  23
ATOM     23  O   UNL     1     -13.065  30.778   9.217  1.00  0.00    -0.507 OA
ATOM     24  H   UNL     1     -14.027  30.705   8.925  1.00  0.00     0.293 HD
ENDBRANCH  11  23
ENDBRANCH   1   2
BRANCH   1  25
ATOM     25  C   UNL     1     -10.291  36.096   8.401  1.00  0.00     0.339 C 
ATOM     26  C   UNL     1     -10.729  37.147   9.447  1.00  0.00     0.214 C 
ATOM     27  O   UNL     1      -9.831  36.728   7.214  1.00  0.00    -0.332 OA
ATOM     28  C   UNL     1     -11.797  38.085   8.853  1.00  0.00     0.180 C 
ATOM     29  C   UNL     1     -10.862  37.470   6.579  1.00  0.00     0.179 C 
ATOM     30  C   UNL     1     -11.345  38.632   7.483  1.00  0.00     0.177 C 
BRANCH  26  31
ATOM     31  O   UNL     1     -11.233  36.511  10.591  1.00  0.00    -0.384 OA
ATOM     32  H   UNL     1     -10.541  35.869  10.896  1.00  0.00     0.211 HD
ENDBRANCH  26  31
BRANCH  28  33
ATOM     33  O   UNL     1     -12.044  39.142   9.743  1.00  0.00    -0.387 OA
ATOM     34  H   UNL     1     -11.221  39.259  10.284  1.00  0.00     0.211 HD
ENDBRANCH  28  33
BRANCH  29  35
ATOM     35  C   UNL     1     -10.337  37.981   5.229  1.00  0.00     0.191 C 
BRANCH  35  36
ATOM     36  O   UNL     1     -10.987  39.164   4.851  1.00  0.00    -0.394 OA
ATOM     37  H   UNL     1     -10.773  39.841   5.545  1.00  0.00     0.210 HD
ENDBRANCH  35  36
ENDBRANCH  29  35
BRANCH  30  38
ATOM     38  O   UNL     1     -10.364  39.632   7.632  1.00  0.00    -0.387 OA
ATOM     39  H   UNL     1     -10.774  40.506   7.399  1.00  0.00     0.211 HD
ENDBRANCH  30  38
ENDBRANCH   1  25
TORSDOF 11
ENDMDL
MODEL 6
REMARK VINA RESULT:    -6.180      2.330      8.827
REMARK INTER + INTRA:          -9.737
REMARK INTER:                  -8.789
REMARK INTRA:                  -0.948
REMARK UNBOUND:                -0.848
REMARK SMILES O=c1cc(-c2ccc(O)c(O)c2)oc2cc(O[C@H]3O[C@H](CO)[C@H](O)[C@H](O)[C@H]3O)cc(O)c12
REMARK SMILES IDX 17 1 16 2 4 3 3 4 13 5 2 6 14 7 1 8 32 9 15 10 30 11 29 12
REMARK SMILES IDX 5 13 6 14 7 15 8 16 12 17 10 18 9 19 11 21 31 23 18 25 27 26
REMARK SMILES IDX 19 27 25 28 20 29 23 30 28 31 26 33 21 35 22 36 24 38
REMARK H PARENT 9 20 11 22 31 24 28 32 26 34 22 37 24 39
REMARK Flexibility Score: inf
ROOT
ATOM      1  O   UNL     1     -12.061  35.474   9.248  1.00  0.00    -0.462 OA
ENDROOT
BRANCH   1   2
ATOM      2  C   UNL     1     -12.001  34.075   9.376  1.00  0.00     0.130 A 
ATOM      3  C   UNL     1     -10.392  30.025   7.448  1.00  0.00     0.138 A 
ATOM      4  C   UNL     1     -11.031  29.230   8.410  1.00  0.00     0.100 A 
ATOM      5  O   UNL     1     -10.516  31.347   7.509  1.00  0.00    -0.456 OA
ATOM      6  C   UNL     1     -11.764  29.837   9.430  1.00  0.00     0.197 A 
ATOM      7  C   UNL     1     -11.197  31.975   8.463  1.00  0.00     0.146 A 
ATOM      8  O   UNL     1     -12.379  29.097  10.241  1.00  0.00    -0.289 OA
ATOM      9  C   UNL     1     -11.829  31.249   9.504  1.00  0.00     0.107 A 
ATOM     10  C   UNL     1     -11.284  33.367   8.414  1.00  0.00     0.094 A 
ATOM     11  C   UNL     1     -12.510  31.978  10.522  1.00  0.00     0.134 A 
ATOM     12  C   UNL     1     -12.610  33.372  10.428  1.00  0.00     0.093 A 
BRANCH   3  13
ATOM     13  C   UNL     1      -9.598  29.432   6.342  1.00  0.00     0.021 A 
ATOM     14  C   UNL     1      -8.203  29.269   6.438  1.00  0.00     0.016 A 
ATOM     15  C   UNL     1      -7.480  28.717   5.377  1.00  0.00     0.051 A 
ATOM     16  C   UNL     1      -8.134  28.326   4.203  1.00  0.00     0.157 A 
ATOM     17  C   UNL     1     -10.245  29.049   5.153  1.00  0.00     0.062 A 
ATOM     18  C   UNL     1      -9.523  28.496   4.091  1.00  0.00     0.158 A 
BRANCH  16  19
ATOM     19  O   UNL     1      -7.408  27.774   3.147  1.00  0.00    -0.504 OA
ATOM     20  H   UNL     1      -7.068  26.820   3.179  1.00  0.00     0.293 HD
ENDBRANCH  16  19
BRANCH  18  21
ATOM     21  O   UNL     1     -10.203  28.120   2.933  1.00  0.00    -0.504 OA
ATOM     22  H   UNL     1     -11.179  27.849   2.946  1.00  0.00     0.293 HD
ENDBRANCH  18  21
ENDBRANCH   3  13
BRANCH  11  23
ATOM     23  O   UNL     1     -13.080  31.387  11.655  1.00  0.00    -0.507 OA
ATOM     24  H   UNL     1     -13.932  31.694  12.098  1.00  0.00     0.293 HD
ENDBRANCH  11  23
ENDBRANCH   1   2
BRANCH   1  25
ATOM     25  C   UNL     1     -10.993  36.406   9.475  1.00  0.00     0.339 C 
ATOM     26  C   UNL     1     -11.518  37.787   9.931  1.00  0.00     0.214 C 
ATOM     27  O   UNL     1     -10.195  36.531   8.307  1.00  0.00    -0.332 OA
ATOM     28  C   UNL     1     -12.290  38.473   8.789  1.00  0.00     0.180 C 
ATOM     29  C   UNL     1     -10.948  37.019   7.205  1.00  0.00     0.179 C 
ATOM     30  C   UNL     1     -11.469  38.452   7.482  1.00  0.00     0.177 C 
BRANCH  26  31
ATOM     31  O   UNL     1     -12.350  37.643  11.052  1.00  0.00    -0.384 OA
ATOM     32  H   UNL     1     -12.662  36.702  11.064  1.00  0.00     0.211 HD
ENDBRANCH  26  31
BRANCH  28  33
ATOM     33  O   UNL     1     -12.595  39.795   9.152  1.00  0.00    -0.387 OA
ATOM     34  H   UNL     1     -11.885  40.089   9.779  1.00  0.00     0.211 HD
ENDBRANCH  28  33
BRANCH  29  35
ATOM     35  C   UNL     1     -10.065  36.968   5.949  1.00  0.00     0.191 C 
BRANCH  35  36
ATOM     36  O   UNL     1     -10.579  37.794   4.939  1.00  0.00    -0.394 OA
ATOM     37  H   UNL     1     -11.397  37.348   4.595  1.00  0.00     0.210 HD
ENDBRANCH  35  36
ENDBRANCH  29  35
BRANCH  30  38
ATOM     38  O   UNL     1     -10.427  39.398   7.520  1.00  0.00    -0.387 OA
ATOM     39  H   UNL     1      -9.873  39.283   6.704  1.00  0.00     0.211 HD
ENDBRANCH  30  38
ENDBRANCH   1  25
TORSDOF 11
ENDMDL
MODEL 7
REMARK VINA RESULT:    -5.972     15.402     19.065
REMARK INTER + INTRA:          -9.439
REMARK INTER:                  -8.572
REMARK INTRA:                  -0.866
REMARK UNBOUND:                -0.848
REMARK SMILES O=c1cc(-c2ccc(O)c(O)c2)oc2cc(O[C@H]3O[C@H](CO)[C@H](O)[C@H](O)[C@H]3O)cc(O)c12
REMARK SMILES IDX 17 1 16 2 4 3 3 4 13 5 2 6 14 7 1 8 32 9 15 10 30 11 29 12
REMARK SMILES IDX 5 13 6 14 7 15 8 16 12 17 10 18 9 19 11 21 31 23 18 25 27 26
REMARK SMILES IDX 19 27 25 28 20 29 23 30 28 31 26 33 21 35 22 36 24 38
REMARK H PARENT 9 20 11 22 31 24 28 32 26 34 22 37 24 39
REMARK Flexibility Score: inf
ROOT
ATOM      1  O   UNL     1       1.780  44.481   0.539  1.00  0.00    -0.462 OA
ENDROOT
BRANCH   1   2
ATOM      2  C   UNL     1       2.857  44.981   1.292  1.00  0.00     0.130 A 
ATOM      3  C   UNL     1       4.289  46.441   5.597  1.00  0.00     0.138 A 
ATOM      4  C   UNL     1       5.558  46.810   5.128  1.00  0.00     0.100 A 
ATOM      5  O   UNL     1       3.404  45.932   4.747  1.00  0.00    -0.456 OA
ATOM      6  C   UNL     1       5.880  46.614   3.785  1.00  0.00     0.197 A 
ATOM      7  C   UNL     1       3.662  45.719   3.460  1.00  0.00     0.146 A 
ATOM      8  O   UNL     1       7.002  47.014   3.378  1.00  0.00    -0.289 OA
ATOM      9  C   UNL     1       4.937  46.016   2.915  1.00  0.00     0.107 A 
ATOM     10  C   UNL     1       2.648  45.204   2.652  1.00  0.00     0.094 A 
ATOM     11  C   UNL     1       5.170  45.728   1.539  1.00  0.00     0.134 A 
ATOM     12  C   UNL     1       4.123  45.245   0.744  1.00  0.00     0.093 A 
BRANCH   3  13
ATOM     13  C   UNL     1       3.894  46.625   7.017  1.00  0.00     0.021 A 
ATOM     14  C   UNL     1       4.843  46.610   8.056  1.00  0.00     0.016 A 
ATOM     15  C   UNL     1       4.440  46.775   9.384  1.00  0.00     0.051 A 
ATOM     16  C   UNL     1       3.087  46.952   9.697  1.00  0.00     0.157 A 
ATOM     17  C   UNL     1       2.535  46.789   7.341  1.00  0.00     0.062 A 
ATOM     18  C   UNL     1       2.130  46.956   8.669  1.00  0.00     0.158 A 
BRANCH  16  19
ATOM     19  O   UNL     1       2.690  47.118  11.024  1.00  0.00    -0.504 OA
ATOM     20  H   UNL     1       2.128  46.423  11.500  1.00  0.00     0.293 HD
ENDBRANCH  16  19
BRANCH  18  21
ATOM     21  O   UNL     1       0.774  47.125   8.948  1.00  0.00    -0.504 OA
ATOM     22  H   UNL     1       0.447  47.451   9.849  1.00  0.00     0.293 HD
ENDBRANCH  18  21
ENDBRANCH   3  13
BRANCH  11  23
ATOM     23  O   UNL     1       6.412  45.874   0.912  1.00  0.00    -0.507 OA
ATOM     24  H   UNL     1       7.210  46.342   1.315  1.00  0.00     0.293 HD
ENDBRANCH  11  23
ENDBRANCH   1   2
BRANCH   1  25
ATOM     25  C   UNL     1       0.383  44.699   0.787  1.00  0.00     0.339 C 
ATOM     26  C   UNL     1      -0.377  43.372   1.018  1.00  0.00     0.214 C 
ATOM     27  O   UNL     1      -0.197  45.430  -0.285  1.00  0.00    -0.332 OA
ATOM     28  C   UNL     1      -0.417  42.541  -0.278  1.00  0.00     0.180 C 
ATOM     29  C   UNL     1      -0.094  44.729  -1.516  1.00  0.00     0.179 C 
ATOM     30  C   UNL     1      -0.894  43.402  -1.466  1.00  0.00     0.177 C 
BRANCH  26  31
ATOM     31  O   UNL     1       0.238  42.634   2.041  1.00  0.00    -0.384 OA
ATOM     32  H   UNL     1       1.203  42.577   1.819  1.00  0.00     0.211 HD
ENDBRANCH  26  31
BRANCH  28  33
ATOM     33  O   UNL     1      -1.266  41.436  -0.104  1.00  0.00    -0.387 OA
ATOM     34  H   UNL     1      -0.696  40.626  -0.164  1.00  0.00     0.211 HD
ENDBRANCH  28  33
BRANCH  29  35
ATOM     35  C   UNL     1      -0.587  45.646  -2.645  1.00  0.00     0.191 C 
BRANCH  35  36
ATOM     36  O   UNL     1       0.096  46.870  -2.634  1.00  0.00    -0.394 OA
ATOM     37  H   UNL     1       0.147  47.176  -3.578  1.00  0.00     0.210 HD
ENDBRANCH  35  36
ENDBRANCH  29  35
BRANCH  30  38
ATOM     38  O   UNL     1      -2.284  43.621  -1.411  1.00  0.00    -0.387 OA
ATOM     39  H   UNL     1      -2.451  44.589  -1.556  1.00  0.00     0.211 HD
ENDBRANCH  30  38
ENDBRANCH   1  25
TORSDOF 11
ENDMDL
MODEL 8
REMARK VINA RESULT:    -5.729      1.138      2.520
REMARK INTER + INTRA:          -9.089
REMARK INTER:                  -8.433
REMARK INTRA:                  -0.656
REMARK UNBOUND:                -0.848
REMARK SMILES O=c1cc(-c2ccc(O)c(O)c2)oc2cc(O[C@H]3O[C@H](CO)[C@H](O)[C@H](O)[C@H]3O)cc(O)c12
REMARK SMILES IDX 17 1 16 2 4 3 3 4 13 5 2 6 14 7 1 8 32 9 15 10 30 11 29 12
REMARK SMILES IDX 5 13 6 14 7 15 8 16 12 17 10 18 9 19 11 21 31 23 18 25 27 26
REMARK SMILES IDX 19 27 25 28 20 29 23 30 28 31 26 33 21 35 22 36 24 38
REMARK H PARENT 9 20 11 22 31 24 28 32 26 34 22 37 24 39
REMARK Flexibility Score: inf
ROOT
ATOM      1  O   UNL     1      -7.659  30.239   6.174  1.00  0.00    -0.462 OA
ENDROOT
BRANCH   1   2
ATOM      2  C   UNL     1      -8.837  30.717   6.775  1.00  0.00     0.130 A 
ATOM      3  C   UNL     1     -11.287  34.597   8.062  1.00  0.00     0.138 A 
ATOM      4  C   UNL     1     -12.297  33.842   8.676  1.00  0.00     0.100 A 
ATOM      5  O   UNL     1     -10.263  33.972   7.492  1.00  0.00    -0.456 OA
ATOM      6  C   UNL     1     -12.226  32.449   8.656  1.00  0.00     0.197 A 
ATOM      7  C   UNL     1     -10.150  32.648   7.441  1.00  0.00     0.146 A 
ATOM      8  O   UNL     1     -13.112  31.800   9.270  1.00  0.00    -0.289 OA
ATOM      9  C   UNL     1     -11.153  31.810   7.990  1.00  0.00     0.107 A 
ATOM     10  C   UNL     1      -9.017  32.098   6.839  1.00  0.00     0.094 A 
ATOM     11  C   UNL     1     -10.999  30.398   7.869  1.00  0.00     0.134 A 
ATOM     12  C   UNL     1      -9.835  29.875   7.292  1.00  0.00     0.093 A 
BRANCH   3  13
ATOM     13  C   UNL     1     -11.314  36.082   8.052  1.00  0.00     0.021 A 
ATOM     14  C   UNL     1     -12.469  36.803   8.408  1.00  0.00     0.016 A 
ATOM     15  C   UNL     1     -12.468  38.200   8.379  1.00  0.00     0.051 A 
ATOM     16  C   UNL     1     -11.320  38.900   7.988  1.00  0.00     0.157 A 
ATOM     17  C   UNL     1     -10.169  36.792   7.647  1.00  0.00     0.062 A 
ATOM     18  C   UNL     1     -10.166  38.190   7.618  1.00  0.00     0.158 A 
BRANCH  16  19
ATOM     19  O   UNL     1     -11.323  40.294   7.962  1.00  0.00    -0.504 OA
ATOM     20  H   UNL     1     -11.796  40.837   8.674  1.00  0.00     0.293 HD
ENDBRANCH  16  19
BRANCH  18  21
ATOM     21  O   UNL     1      -9.008  38.857   7.220  1.00  0.00    -0.504 OA
ATOM     22  H   UNL     1      -9.038  39.738   6.721  1.00  0.00     0.293 HD
ENDBRANCH  18  21
ENDBRANCH   3  13
BRANCH  11  23
ATOM     23  O   UNL     1     -11.966  29.471   8.273  1.00  0.00    -0.507 OA
ATOM     24  H   UNL     1     -12.005  29.039   9.183  1.00  0.00     0.293 HD
ENDBRANCH  11  23
ENDBRANCH   1   2
BRANCH   1  25
ATOM     25  C   UNL     1      -7.108  28.919   6.293  1.00  0.00     0.339 C 
ATOM     26  C   UNL     1      -5.627  28.870   5.849  1.00  0.00     0.214 C 
ATOM     27  O   UNL     1      -7.887  27.994   5.548  1.00  0.00    -0.332 OA
ATOM     28  C   UNL     1      -5.510  29.120   4.334  1.00  0.00     0.180 C 
ATOM     29  C   UNL     1      -7.907  28.315   4.165  1.00  0.00     0.179 C 
ATOM     30  C   UNL     1      -6.487  28.217   3.553  1.00  0.00     0.177 C 
BRANCH  26  31
ATOM     31  O   UNL     1      -4.879  29.827   6.552  1.00  0.00    -0.384 OA
ATOM     32  H   UNL     1      -5.057  29.684   7.517  1.00  0.00     0.211 HD
ENDBRANCH  26  31
BRANCH  28  33
ATOM     33  O   UNL     1      -4.190  28.886   3.917  1.00  0.00    -0.387 OA
ATOM     34  H   UNL     1      -3.770  29.775   3.788  1.00  0.00     0.211 HD
ENDBRANCH  28  33
BRANCH  29  35
ATOM     35  C   UNL     1      -8.897  27.376   3.459  1.00  0.00     0.191 C 
BRANCH  35  36
ATOM     36  O   UNL     1     -10.042  28.070   3.043  1.00  0.00    -0.394 OA
ATOM     37  H   UNL     1     -10.144  28.844   3.657  1.00  0.00     0.210 HD
ENDBRANCH  35  36
ENDBRANCH  29  35
BRANCH  30  38
ATOM     38  O   UNL     1      -6.022  26.889   3.500  1.00  0.00    -0.387 OA
ATOM     39  H   UNL     1      -5.219  26.864   2.917  1.00  0.00     0.211 HD
ENDBRANCH  30  38
ENDBRANCH   1  25
TORSDOF 11
ENDMDL
MODEL 9
REMARK VINA RESULT:    -5.439      1.830      8.968
REMARK INTER + INTRA:          -8.671
REMARK INTER:                  -7.907
REMARK INTRA:                  -0.764
REMARK UNBOUND:                -0.848
REMARK SMILES O=c1cc(-c2ccc(O)c(O)c2)oc2cc(O[C@H]3O[C@H](CO)[C@H](O)[C@H](O)[C@H]3O)cc(O)c12
REMARK SMILES IDX 17 1 16 2 4 3 3 4 13 5 2 6 14 7 1 8 32 9 15 10 30 11 29 12
REMARK SMILES IDX 5 13 6 14 7 15 8 16 12 17 10 18 9 19 11 21 31 23 18 25 27 26
REMARK SMILES IDX 19 27 25 28 20 29 23 30 28 31 26 33 21 35 22 36 24 38
REMARK H PARENT 9 20 11 22 31 24 28 32 26 34 22 37 24 39
REMARK Flexibility Score: inf
ROOT
ATOM      1  O   UNL     1     -11.631  36.184   8.825  1.00  0.00    -0.462 OA
ENDROOT
BRANCH   1   2
ATOM      2  C   UNL     1     -11.646  34.782   8.934  1.00  0.00     0.130 A 
ATOM      3  C   UNL     1      -9.986  30.692   7.137  1.00  0.00     0.138 A 
ATOM      4  C   UNL     1     -10.769  29.913   8.001  1.00  0.00     0.100 A 
ATOM      5  O   UNL     1     -10.061  32.017   7.208  1.00  0.00    -0.456 OA
ATOM      6  C   UNL     1     -11.593  30.537   8.937  1.00  0.00     0.197 A 
ATOM      7  C   UNL     1     -10.826  32.661   8.085  1.00  0.00     0.146 A 
ATOM      8  O   UNL     1     -12.332  29.814   9.655  1.00  0.00    -0.289 OA
ATOM      9  C   UNL     1     -11.608  31.950   9.028  1.00  0.00     0.107 A 
ATOM     10  C   UNL     1     -10.847  34.056   8.052  1.00  0.00     0.094 A 
ATOM     11  C   UNL     1     -12.376  32.694   9.971  1.00  0.00     0.134 A 
ATOM     12  C   UNL     1     -12.406  34.092   9.892  1.00  0.00     0.093 A 
BRANCH   3  13
ATOM     13  C   UNL     1      -9.089  30.080   6.124  1.00  0.00     0.021 A 
ATOM     14  C   UNL     1      -9.588  29.263   5.092  1.00  0.00     0.016 A 
ATOM     15  C   UNL     1      -8.719  28.692   4.159  1.00  0.00     0.051 A 
ATOM     16  C   UNL     1      -7.341  28.920   4.243  1.00  0.00     0.157 A 
ATOM     17  C   UNL     1      -7.702  30.293   6.209  1.00  0.00     0.062 A 
ATOM     18  C   UNL     1      -6.830  29.723   5.275  1.00  0.00     0.158 A 
BRANCH  16  19
ATOM     19  O   UNL     1      -6.477  28.349   3.308  1.00  0.00    -0.504 OA
ATOM     20  H   UNL     1      -6.091  28.890   2.543  1.00  0.00     0.293 HD
ENDBRANCH  16  19
BRANCH  18  21
ATOM     21  O   UNL     1      -5.462  29.966   5.389  1.00  0.00    -0.504 OA
ATOM     22  H   UNL     1      -4.868  30.090   4.578  1.00  0.00     0.293 HD
ENDBRANCH  18  21
ENDBRANCH   3  13
BRANCH  11  23
ATOM     23  O   UNL     1     -13.103  32.113  11.016  1.00  0.00    -0.507 OA
ATOM     24  H   UNL     1     -13.362  32.584  11.869  1.00  0.00     0.293 HD
ENDBRANCH  11  23
ENDBRANCH   1   2
BRANCH   1  25
ATOM     25  C   UNL     1     -12.390  36.983   7.905  1.00  0.00     0.339 C 
ATOM     26  C   UNL     1     -11.492  37.626   6.822  1.00  0.00     0.214 C 
ATOM     27  O   UNL     1     -13.121  37.978   8.607  1.00  0.00    -0.332 OA
ATOM     28  C   UNL     1     -10.559  38.677   7.450  1.00  0.00     0.180 C 
ATOM     29  C   UNL     1     -12.262  38.859   9.317  1.00  0.00     0.179 C 
ATOM     30  C   UNL     1     -11.353  39.652   8.343  1.00  0.00     0.177 C 
BRANCH  26  31
ATOM     31  O   UNL     1     -10.734  36.638   6.174  1.00  0.00    -0.384 OA
ATOM     32  H   UNL     1     -10.891  35.786   6.657  1.00  0.00     0.211 HD
ENDBRANCH  26  31
BRANCH  28  33
ATOM     33  O   UNL     1      -9.889  39.380   6.436  1.00  0.00    -0.387 OA
ATOM     34  H   UNL     1      -9.143  38.801   6.131  1.00  0.00     0.211 HD
ENDBRANCH  28  33
BRANCH  29  35
ATOM     35  C   UNL     1     -13.125  39.795  10.178  1.00  0.00     0.191 C 
BRANCH  35  36
ATOM     36  O   UNL     1     -12.648  41.113  10.122  1.00  0.00    -0.394 OA
ATOM     37  H   UNL     1     -11.687  41.078  10.368  1.00  0.00     0.210 HD
ENDBRANCH  35  36
ENDBRANCH  29  35
BRANCH  30  38
ATOM     38  O   UNL     1     -12.083  40.574   7.568  1.00  0.00    -0.387 OA
ATOM     39  H   UNL     1     -11.992  40.317   6.614  1.00  0.00     0.211 HD
ENDBRANCH  30  38
ENDBRANCH   1  25
TORSDOF 11
ENDMDL
