MODEL 1
REMARK VINA RESULT:    -7.696      0.000      0.000
REMARK INTER + INTRA:          -9.852
REMARK INTER:                  -9.496
REMARK INTRA:                  -0.357
REMARK UNBOUND:                -0.357
REMARK SMILES Oc1cc(O)c2cc(O)c(-c3cc(O)c(O)c(O)c3)[o+]c2c1.[Cl-]
REMARK SMILES IDX 10 1 20 2 21 3 22 4 2 5 3 6 4 7 6 8 7 9 8 10 11 11 12 12
REMARK SMILES IDX 13 13 19 14 15 15 17 16 14 17 16 19 18 21 9 23 1 25 5 27
REMARK H PARENT 14 18 16 20 18 22 9 24 1 26 5 28
REMARK Flexibility Score: inf
ROOT
ATOM      1  C   UNL     1     -17.013  38.880  12.542  1.00  0.00     0.402 A 
ATOM      2  O   UNL     1     -16.376  38.931  11.374  1.00  0.00    -0.202 OA
ATOM      3  C   UNL     1     -16.521  39.929  10.508  1.00  0.00     0.368 A 
ATOM      4  C   UNL     1     -15.820  39.905   9.299  1.00  0.00     0.162 A 
ATOM      5  C   UNL     1     -15.968  40.950   8.377  1.00  0.00     0.128 A 
ATOM      6  C   UNL     1     -16.820  42.020   8.668  1.00  0.00     0.093 A 
ATOM      7  C   UNL     1     -17.529  42.058   9.877  1.00  0.00     0.136 A 
ATOM      8  C   UNL     1     -17.381  41.008  10.803  1.00  0.00     0.125 A 
ATOM      9  C   UNL     1     -18.058  40.998  12.028  1.00  0.00     0.078 A 
ATOM     10  C   UNL     1     -17.871  39.934  12.916  1.00  0.00     0.223 A 
ENDROOT
BRANCH   1  11
ATOM     11  C   UNL     1     -16.776  37.711  13.419  1.00  0.00     0.091 A 
ATOM     12  C   UNL     1     -17.727  36.678  13.465  1.00  0.00     0.068 A 
ATOM     13  C   UNL     1     -17.537  35.570  14.302  1.00  0.00     0.162 A 
ATOM     14  C   UNL     1     -15.645  37.637  14.251  1.00  0.00     0.068 A 
ATOM     15  C   UNL     1     -16.393  35.495  15.115  1.00  0.00     0.200 A 
ATOM     16  C   UNL     1     -15.451  36.531  15.090  1.00  0.00     0.162 A 
BRANCH  13  17
ATOM     17  O   UNL     1     -18.480  34.544  14.329  1.00  0.00    -0.504 OA
ATOM     18  H   UNL     1     -18.241  33.611  14.645  1.00  0.00     0.293 HD
ENDBRANCH  13  17
BRANCH  15  19
ATOM     19  O   UNL     1     -16.181  34.401  15.955  1.00  0.00    -0.502 OA
ATOM     20  H   UNL     1     -15.271  33.968  16.056  1.00  0.00     0.293 HD
ENDBRANCH  15  19
BRANCH  16  21
ATOM     21  O   UNL     1     -14.325  36.459  15.909  1.00  0.00    -0.504 OA
ATOM     22  H   UNL     1     -13.459  36.923  15.663  1.00  0.00     0.293 HD
ENDBRANCH  16  21
ENDBRANCH   1  11
BRANCH  10  23
ATOM     23  O   UNL     1     -18.503  39.943  14.159  1.00  0.00    -0.500 OA
ATOM     24  H   UNL     1     -19.115  39.191  14.449  1.00  0.00     0.294 HD
ENDBRANCH  10  23
BRANCH   5  25
ATOM     25  O   UNL     1     -15.272  40.933   7.170  1.00  0.00    -0.507 OA
ATOM     26  H   UNL     1     -15.410  40.197   6.488  1.00  0.00     0.293 HD
ENDBRANCH   5  25
BRANCH   7  27
ATOM     27  O   UNL     1     -18.375  43.133  10.154  1.00  0.00    -0.507 OA
ATOM     28  H   UNL     1     -18.047  43.955  10.646  1.00  0.00     0.293 HD
ENDBRANCH   7  27
TORSDOF 7
ENDMDL
MODEL 2
REMARK VINA RESULT:    -7.334      1.211      7.169
REMARK INTER + INTRA:          -9.406
REMARK INTER:                  -9.269
REMARK INTRA:                  -0.137
REMARK UNBOUND:                -0.357
REMARK SMILES Oc1cc(O)c2cc(O)c(-c3cc(O)c(O)c(O)c3)[o+]c2c1.[Cl-]
REMARK SMILES IDX 10 1 20 2 21 3 22 4 2 5 3 6 4 7 6 8 7 9 8 10 11 11 12 12
REMARK SMILES IDX 13 13 19 14 15 15 17 16 14 17 16 19 18 21 9 23 1 25 5 27
REMARK H PARENT 14 18 16 20 18 22 9 24 1 26 5 28
REMARK Flexibility Score: inf
ROOT
ATOM      1  C   UNL     1     -16.226  39.234  12.179  1.00  0.00     0.402 A 
ATOM      2  O   UNL     1     -17.163  38.312  12.394  1.00  0.00    -0.202 OA
ATOM      3  C   UNL     1     -16.981  37.260  13.186  1.00  0.00     0.368 A 
ATOM      4  C   UNL     1     -18.015  36.333  13.354  1.00  0.00     0.162 A 
ATOM      5  C   UNL     1     -17.834  35.218  14.184  1.00  0.00     0.128 A 
ATOM      6  C   UNL     1     -16.615  35.032  14.845  1.00  0.00     0.093 A 
ATOM      7  C   UNL     1     -15.570  35.954  14.687  1.00  0.00     0.136 A 
ATOM      8  C   UNL     1     -15.752  37.073  13.853  1.00  0.00     0.125 A 
ATOM      9  C   UNL     1     -14.747  38.029  13.664  1.00  0.00     0.078 A 
ATOM     10  C   UNL     1     -14.980  39.127  12.830  1.00  0.00     0.223 A 
ENDROOT
BRANCH   1  11
ATOM     11  C   UNL     1     -16.544  40.357  11.269  1.00  0.00     0.091 A 
ATOM     12  C   UNL     1     -17.727  41.088  11.461  1.00  0.00     0.068 A 
ATOM     13  C   UNL     1     -18.063  42.142  10.601  1.00  0.00     0.162 A 
ATOM     14  C   UNL     1     -15.715  40.673  10.179  1.00  0.00     0.068 A 
ATOM     15  C   UNL     1     -17.217  42.465   9.526  1.00  0.00     0.200 A 
ATOM     16  C   UNL     1     -16.046  41.726   9.315  1.00  0.00     0.162 A 
BRANCH  13  17
ATOM     17  O   UNL     1     -19.233  42.871  10.810  1.00  0.00    -0.504 OA
ATOM     18  H   UNL     1     -19.750  43.278  10.039  1.00  0.00     0.293 HD
ENDBRANCH  13  17
BRANCH  15  19
ATOM     19  O   UNL     1     -17.528  43.512   8.658  1.00  0.00    -0.502 OA
ATOM     20  H   UNL     1     -17.322  43.470   7.668  1.00  0.00     0.293 HD
ENDBRANCH  15  19
BRANCH  16  21
ATOM     21  O   UNL     1     -15.217  42.040   8.239  1.00  0.00    -0.504 OA
ATOM     22  H   UNL     1     -15.587  42.174   7.306  1.00  0.00     0.293 HD
ENDBRANCH  16  21
ENDBRANCH   1  11
BRANCH  10  23
ATOM     23  O   UNL     1     -14.001  40.109  12.677  1.00  0.00    -0.500 OA
ATOM     24  H   UNL     1     -13.659  40.646  13.465  1.00  0.00     0.294 HD
ENDBRANCH  10  23
BRANCH   5  25
ATOM     25  O   UNL     1     -18.859  34.291  14.358  1.00  0.00    -0.507 OA
ATOM     26  H   UNL     1     -19.009  33.826  15.245  1.00  0.00     0.293 HD
ENDBRANCH   5  25
BRANCH   7  27
ATOM     27  O   UNL     1     -14.360  35.756  15.353  1.00  0.00    -0.507 OA
ATOM     28  H   UNL     1     -14.328  35.422  16.309  1.00  0.00     0.293 HD
ENDBRANCH   7  27
TORSDOF 7
ENDMDL
MODEL 3
REMARK VINA RESULT:    -7.084      2.033      7.289
REMARK INTER + INTRA:          -9.098
REMARK INTER:                  -8.786
REMARK INTRA:                  -0.312
REMARK UNBOUND:                -0.357
REMARK SMILES Oc1cc(O)c2cc(O)c(-c3cc(O)c(O)c(O)c3)[o+]c2c1.[Cl-]
REMARK SMILES IDX 10 1 20 2 21 3 22 4 2 5 3 6 4 7 6 8 7 9 8 10 11 11 12 12
REMARK SMILES IDX 13 13 19 14 15 15 17 16 14 17 16 19 18 21 9 23 1 25 5 27
REMARK H PARENT 14 18 16 20 18 22 9 24 1 26 5 28
REMARK Flexibility Score: inf
ROOT
ATOM      1  C   UNL     1     -15.790  40.199  11.912  1.00  0.00     0.402 A 
ATOM      2  O   UNL     1     -14.837  39.528  12.556  1.00  0.00    -0.202 OA
ATOM      3  C   UNL     1     -15.088  38.511  13.373  1.00  0.00     0.368 A 
ATOM      4  C   UNL     1     -14.029  37.862  14.017  1.00  0.00     0.162 A 
ATOM      5  C   UNL     1     -14.282  36.790  14.884  1.00  0.00     0.128 A 
ATOM      6  C   UNL     1     -15.597  36.367  15.105  1.00  0.00     0.093 A 
ATOM      7  C   UNL     1     -16.668  37.007  14.465  1.00  0.00     0.136 A 
ATOM      8  C   UNL     1     -16.415  38.085  13.595  1.00  0.00     0.125 A 
ATOM      9  C   UNL     1     -17.444  38.755  12.924  1.00  0.00     0.078 A 
ATOM     10  C   UNL     1     -17.138  39.815  12.065  1.00  0.00     0.223 A 
ENDROOT
BRANCH   1  11
ATOM     11  C   UNL     1     -15.387  41.321  11.034  1.00  0.00     0.091 A 
ATOM     12  C   UNL     1     -15.643  42.640  11.440  1.00  0.00     0.068 A 
ATOM     13  C   UNL     1     -15.290  43.720  10.620  1.00  0.00     0.162 A 
ATOM     14  C   UNL     1     -14.803  41.093   9.776  1.00  0.00     0.068 A 
ATOM     15  C   UNL     1     -14.688  43.484   9.372  1.00  0.00     0.200 A 
ATOM     16  C   UNL     1     -14.449  42.170   8.951  1.00  0.00     0.162 A 
BRANCH  13  17
ATOM     17  O   UNL     1     -15.536  45.027  11.039  1.00  0.00    -0.504 OA
ATOM     18  H   UNL     1     -16.335  45.552  10.699  1.00  0.00     0.293 HD
ENDBRANCH  13  17
BRANCH  15  19
ATOM     19  O   UNL     1     -14.326  44.543   8.539  1.00  0.00    -0.502 OA
ATOM     20  H   UNL     1     -14.564  44.561   7.555  1.00  0.00     0.293 HD
ENDBRANCH  15  19
BRANCH  16  21
ATOM     21  O   UNL     1     -13.865  41.940   7.707  1.00  0.00    -0.504 OA
ATOM     22  H   UNL     1     -14.298  42.260   6.850  1.00  0.00     0.293 HD
ENDBRANCH  16  21
ENDBRANCH   1  11
BRANCH  10  23
ATOM     23  O   UNL     1     -18.154  40.454  11.355  1.00  0.00    -0.500 OA
ATOM     24  H   UNL     1     -18.227  40.379  10.348  1.00  0.00     0.294 HD
ENDBRANCH  10  23
BRANCH   5  25
ATOM     25  O   UNL     1     -13.233  36.139  15.529  1.00  0.00    -0.507 OA
ATOM     26  H   UNL     1     -12.639  36.620  16.194  1.00  0.00     0.293 HD
ENDBRANCH   5  25
BRANCH   7  27
ATOM     27  O   UNL     1     -17.975  36.574  14.694  1.00  0.00    -0.507 OA
ATOM     28  H   UNL     1     -18.245  35.606  14.565  1.00  0.00     0.293 HD
ENDBRANCH   7  27
TORSDOF 7
ENDMDL
MODEL 4
REMARK VINA RESULT:    -7.058      2.052      2.629
REMARK INTER + INTRA:          -9.066
REMARK INTER:                  -8.804
REMARK INTRA:                  -0.262
REMARK UNBOUND:                -0.357
REMARK SMILES Oc1cc(O)c2cc(O)c(-c3cc(O)c(O)c(O)c3)[o+]c2c1.[Cl-]
REMARK SMILES IDX 10 1 20 2 21 3 22 4 2 5 3 6 4 7 6 8 7 9 8 10 11 11 12 12
REMARK SMILES IDX 13 13 19 14 15 15 17 16 14 17 16 19 18 21 9 23 1 25 5 27
REMARK H PARENT 14 18 16 20 18 22 9 24 1 26 5 28
REMARK Flexibility Score: inf
ROOT
ATOM      1  C   UNL     1     -15.703  39.055  12.482  1.00  0.00     0.402 A 
ATOM      2  O   UNL     1     -16.626  39.684  11.756  1.00  0.00    -0.202 OA
ATOM      3  C   UNL     1     -16.411  40.853  11.161  1.00  0.00     0.368 A 
ATOM      4  C   UNL     1     -17.435  41.451  10.419  1.00  0.00     0.162 A 
ATOM      5  C   UNL     1     -17.222  42.685   9.790  1.00  0.00     0.128 A 
ATOM      6  C   UNL     1     -15.981  43.320   9.903  1.00  0.00     0.093 A 
ATOM      7  C   UNL     1     -14.945  42.731  10.643  1.00  0.00     0.136 A 
ATOM      8  C   UNL     1     -15.159  41.492  11.276  1.00  0.00     0.125 A 
ATOM      9  C   UNL     1     -14.158  40.856  12.019  1.00  0.00     0.078 A 
ATOM     10  C   UNL     1     -14.420  39.622  12.622  1.00  0.00     0.223 A 
ENDROOT
BRANCH   1  11
ATOM     11  C   UNL     1     -16.064  37.761  13.104  1.00  0.00     0.091 A 
ATOM     12  C   UNL     1     -16.416  36.676  12.286  1.00  0.00     0.068 A 
ATOM     13  C   UNL     1     -16.781  35.446  12.849  1.00  0.00     0.162 A 
ATOM     14  C   UNL     1     -16.116  37.609  14.501  1.00  0.00     0.068 A 
ATOM     15  C   UNL     1     -16.810  35.297  14.246  1.00  0.00     0.200 A 
ATOM     16  C   UNL     1     -16.482  36.381  15.069  1.00  0.00     0.162 A 
BRANCH  13  17
ATOM     17  O   UNL     1     -17.115  34.371  12.026  1.00  0.00    -0.504 OA
ATOM     18  H   UNL     1     -17.242  34.487  11.027  1.00  0.00     0.293 HD
ENDBRANCH  13  17
BRANCH  15  19
ATOM     19  O   UNL     1     -17.169  34.081  14.830  1.00  0.00    -0.502 OA
ATOM     20  H   UNL     1     -16.487  33.365  15.044  1.00  0.00     0.293 HD
ENDBRANCH  15  19
BRANCH  16  21
ATOM     21  O   UNL     1     -16.526  36.233  16.454  1.00  0.00    -0.504 OA
ATOM     22  H   UNL     1     -16.435  37.027  17.076  1.00  0.00     0.293 HD
ENDBRANCH  16  21
ENDBRANCH   1  11
BRANCH  10  23
ATOM     23  O   UNL     1     -13.412  38.959  13.322  1.00  0.00    -0.500 OA
ATOM     24  H   UNL     1     -13.528  38.006  13.646  1.00  0.00     0.294 HD
ENDBRANCH  10  23
BRANCH   5  25
ATOM     25  O   UNL     1     -18.237  43.286   9.049  1.00  0.00    -0.507 OA
ATOM     26  H   UNL     1     -18.035  43.970   8.329  1.00  0.00     0.293 HD
ENDBRANCH   5  25
BRANCH   7  27
ATOM     27  O   UNL     1     -13.711  43.376  10.747  1.00  0.00    -0.507 OA
ATOM     28  H   UNL     1     -13.638  44.336  11.064  1.00  0.00     0.293 HD
ENDBRANCH   7  27
TORSDOF 7
ENDMDL
MODEL 5
REMARK VINA RESULT:    -6.966      1.951      2.488
REMARK INTER + INTRA:          -8.951
REMARK INTER:                  -9.100
REMARK INTRA:                   0.149
REMARK UNBOUND:                -0.357
REMARK SMILES Oc1cc(O)c2cc(O)c(-c3cc(O)c(O)c(O)c3)[o+]c2c1.[Cl-]
REMARK SMILES IDX 10 1 20 2 21 3 22 4 2 5 3 6 4 7 6 8 7 9 8 10 11 11 12 12
REMARK SMILES IDX 13 13 19 14 15 15 17 16 14 17 16 19 18 21 9 23 1 25 5 27
REMARK H PARENT 14 18 16 20 18 22 9 24 1 26 5 28
REMARK Flexibility Score: inf
ROOT
ATOM      1  C   UNL     1     -16.011  39.595  12.317  1.00  0.00     0.402 A 
ATOM      2  O   UNL     1     -15.034  40.380  11.866  1.00  0.00    -0.202 OA
ATOM      3  C   UNL     1     -15.245  41.407  11.049  1.00  0.00     0.368 A 
ATOM      4  C   UNL     1     -14.163  42.180  10.616  1.00  0.00     0.162 A 
ATOM      5  C   UNL     1     -14.372  43.264   9.751  1.00  0.00     0.128 A 
ATOM      6  C   UNL     1     -15.667  43.573   9.322  1.00  0.00     0.093 A 
ATOM      7  C   UNL     1     -16.761  42.807   9.749  1.00  0.00     0.136 A 
ATOM      8  C   UNL     1     -16.551  41.718  10.616  1.00  0.00     0.125 A 
ATOM      9  C   UNL     1     -17.606  40.925  11.081  1.00  0.00     0.078 A 
ATOM     10  C   UNL     1     -17.345  39.859  11.947  1.00  0.00     0.223 A 
ENDROOT
BRANCH   1  11
ATOM     11  C   UNL     1     -15.651  38.476  13.217  1.00  0.00     0.091 A 
ATOM     12  C   UNL     1     -14.465  37.759  12.987  1.00  0.00     0.068 A 
ATOM     13  C   UNL     1     -14.111  36.683  13.810  1.00  0.00     0.162 A 
ATOM     14  C   UNL     1     -16.499  38.076  14.264  1.00  0.00     0.068 A 
ATOM     15  C   UNL     1     -14.955  36.303  14.868  1.00  0.00     0.200 A 
ATOM     16  C   UNL     1     -16.150  36.998  15.090  1.00  0.00     0.162 A 
BRANCH  13  17
ATOM     17  O   UNL     1     -12.924  35.988  13.582  1.00  0.00    -0.504 OA
ATOM     18  H   UNL     1     -12.482  35.977  12.669  1.00  0.00     0.293 HD
ENDBRANCH  13  17
BRANCH  15  19
ATOM     19  O   UNL     1     -14.622  35.235  15.703  1.00  0.00    -0.502 OA
ATOM     20  H   UNL     1     -14.321  35.372  16.659  1.00  0.00     0.293 HD
ENDBRANCH  15  19
BRANCH  16  21
ATOM     21  O   UNL     1     -16.991  36.609  16.131  1.00  0.00    -0.504 OA
ATOM     22  H   UNL     1     -17.985  36.801  16.110  1.00  0.00     0.293 HD
ENDBRANCH  16  21
ENDBRANCH   1  11
BRANCH  10  23
ATOM     23  O   UNL     1     -18.397  39.096  12.453  1.00  0.00    -0.500 OA
ATOM     24  H   UNL     1     -19.331  39.476  12.551  1.00  0.00     0.294 HD
ENDBRANCH  10  23
BRANCH   5  25
ATOM     25  O   UNL     1     -13.300  44.039   9.316  1.00  0.00    -0.507 OA
ATOM     26  H   UNL     1     -12.463  43.617   8.929  1.00  0.00     0.293 HD
ENDBRANCH   5  25
BRANCH   7  27
ATOM     27  O   UNL     1     -18.047  43.127   9.312  1.00  0.00    -0.507 OA
ATOM     28  H   UNL     1     -18.203  43.689   8.484  1.00  0.00     0.293 HD
ENDBRANCH   7  27
TORSDOF 7
ENDMDL
MODEL 6
REMARK VINA RESULT:    -6.764      2.483      3.632
REMARK INTER + INTRA:          -8.703
REMARK INTER:                  -8.379
REMARK INTRA:                  -0.323
REMARK UNBOUND:                -0.357
REMARK SMILES Oc1cc(O)c2cc(O)c(-c3cc(O)c(O)c(O)c3)[o+]c2c1.[Cl-]
REMARK SMILES IDX 10 1 20 2 21 3 22 4 2 5 3 6 4 7 6 8 7 9 8 10 11 11 12 12
REMARK SMILES IDX 13 13 19 14 15 15 17 16 14 17 16 19 18 21 9 23 1 25 5 27
REMARK H PARENT 14 18 16 20 18 22 9 24 1 26 5 28
REMARK Flexibility Score: inf
ROOT
ATOM      1  C   UNL     1     -15.829  40.796  11.186  1.00  0.00     0.402 A 
ATOM      2  O   UNL     1     -15.593  42.026  11.638  1.00  0.00    -0.202 OA
ATOM      3  C   UNL     1     -15.495  43.087  10.844  1.00  0.00     0.368 A 
ATOM      4  C   UNL     1     -15.240  44.346  11.397  1.00  0.00     0.162 A 
ATOM      5  C   UNL     1     -15.131  45.471  10.569  1.00  0.00     0.128 A 
ATOM      6  C   UNL     1     -15.279  45.335   9.185  1.00  0.00     0.093 A 
ATOM      7  C   UNL     1     -15.537  44.079   8.616  1.00  0.00     0.136 A 
ATOM      8  C   UNL     1     -15.645  42.948   9.447  1.00  0.00     0.125 A 
ATOM      9  C   UNL     1     -15.909  41.673   8.935  1.00  0.00     0.078 A 
ATOM     10  C   UNL     1     -16.014  40.583   9.805  1.00  0.00     0.223 A 
ENDROOT
BRANCH   1  11
ATOM     11  C   UNL     1     -15.908  39.691  12.169  1.00  0.00     0.091 A 
ATOM     12  C   UNL     1     -17.165  39.193  12.548  1.00  0.00     0.068 A 
ATOM     13  C   UNL     1     -17.269  38.162  13.492  1.00  0.00     0.162 A 
ATOM     14  C   UNL     1     -14.753  39.168  12.776  1.00  0.00     0.068 A 
ATOM     15  C   UNL     1     -16.107  37.630  14.078  1.00  0.00     0.200 A 
ATOM     16  C   UNL     1     -14.852  38.138  13.722  1.00  0.00     0.162 A 
BRANCH  13  17
ATOM     17  O   UNL     1     -18.521  37.665  13.850  1.00  0.00    -0.504 OA
ATOM     18  H   UNL     1     -18.972  36.929  13.317  1.00  0.00     0.293 HD
ENDBRANCH  13  17
BRANCH  15  19
ATOM     19  O   UNL     1     -16.185  36.602  15.019  1.00  0.00    -0.502 OA
ATOM     20  H   UNL     1     -17.060  36.333  15.451  1.00  0.00     0.293 HD
ENDBRANCH  15  19
BRANCH  16  21
ATOM     21  O   UNL     1     -13.704  37.617  14.316  1.00  0.00    -0.504 OA
ATOM     22  H   UNL     1     -12.915  37.304  13.764  1.00  0.00     0.293 HD
ENDBRANCH  16  21
ENDBRANCH   1  11
BRANCH  10  23
ATOM     23  O   UNL     1     -16.326  39.319   9.306  1.00  0.00    -0.500 OA
ATOM     24  H   UNL     1     -16.537  38.542   9.920  1.00  0.00     0.294 HD
ENDBRANCH  10  23
BRANCH   5  25
ATOM     25  O   UNL     1     -14.877  46.728  11.113  1.00  0.00    -0.507 OA
ATOM     26  H   UNL     1     -15.356  47.557  10.779  1.00  0.00     0.293 HD
ENDBRANCH   5  25
BRANCH   7  27
ATOM     27  O   UNL     1     -15.682  43.958   7.233  1.00  0.00    -0.507 OA
ATOM     28  H   UNL     1     -15.010  43.450   6.670  1.00  0.00     0.293 HD
ENDBRANCH   7  27
TORSDOF 7
ENDMDL
MODEL 7
REMARK VINA RESULT:    -6.738      2.555      4.070
REMARK INTER + INTRA:          -8.670
REMARK INTER:                  -8.351
REMARK INTRA:                  -0.319
REMARK UNBOUND:                -0.357
REMARK SMILES Oc1cc(O)c2cc(O)c(-c3cc(O)c(O)c(O)c3)[o+]c2c1.[Cl-]
REMARK SMILES IDX 10 1 20 2 21 3 22 4 2 5 3 6 4 7 6 8 7 9 8 10 11 11 12 12
REMARK SMILES IDX 13 13 19 14 15 15 17 16 14 17 16 19 18 21 9 23 1 25 5 27
REMARK H PARENT 14 18 16 20 18 22 9 24 1 26 5 28
REMARK Flexibility Score: inf
ROOT
ATOM      1  C   UNL     1     -15.807  40.906  11.195  1.00  0.00     0.402 A 
ATOM      2  O   UNL     1     -15.576  42.137  11.647  1.00  0.00    -0.202 OA
ATOM      3  C   UNL     1     -15.471  43.197  10.852  1.00  0.00     0.368 A 
ATOM      4  C   UNL     1     -15.221  44.456  11.406  1.00  0.00     0.162 A 
ATOM      5  C   UNL     1     -15.105  45.581  10.577  1.00  0.00     0.128 A 
ATOM      6  C   UNL     1     -15.240  45.442   9.192  1.00  0.00     0.093 A 
ATOM      7  C   UNL     1     -15.491  44.186   8.623  1.00  0.00     0.136 A 
ATOM      8  C   UNL     1     -15.607  43.056   9.455  1.00  0.00     0.125 A 
ATOM      9  C   UNL     1     -15.864  41.780   8.942  1.00  0.00     0.078 A 
ATOM     10  C   UNL     1     -15.978  40.691   9.812  1.00  0.00     0.223 A 
ENDROOT
BRANCH   1  11
ATOM     11  C   UNL     1     -15.895  39.803  12.178  1.00  0.00     0.091 A 
ATOM     12  C   UNL     1     -14.717  39.271  12.726  1.00  0.00     0.068 A 
ATOM     13  C   UNL     1     -14.770  38.214  13.644  1.00  0.00     0.162 A 
ATOM     14  C   UNL     1     -17.131  39.236  12.534  1.00  0.00     0.068 A 
ATOM     15  C   UNL     1     -16.012  37.667  14.010  1.00  0.00     0.200 A 
ATOM     16  C   UNL     1     -17.190  38.177  13.451  1.00  0.00     0.162 A 
BRANCH  13  17
ATOM     17  O   UNL     1     -13.595  37.703  14.193  1.00  0.00    -0.504 OA
ATOM     18  H   UNL     1     -12.962  37.125  13.651  1.00  0.00     0.293 HD
ENDBRANCH  13  17
BRANCH  15  19
ATOM     19  O   UNL     1     -16.091  36.615  14.924  1.00  0.00    -0.502 OA
ATOM     20  H   UNL     1     -16.977  36.238  15.236  1.00  0.00     0.293 HD
ENDBRANCH  15  19
BRANCH  16  21
ATOM     21  O   UNL     1     -18.419  37.623  13.806  1.00  0.00    -0.504 OA
ATOM     22  H   UNL     1     -18.923  37.006  13.181  1.00  0.00     0.293 HD
ENDBRANCH  16  21
ENDBRANCH   1  11
BRANCH  10  23
ATOM     23  O   UNL     1     -16.285  39.426   9.312  1.00  0.00    -0.500 OA
ATOM     24  H   UNL     1     -16.092  39.173   8.350  1.00  0.00     0.294 HD
ENDBRANCH  10  23
BRANCH   5  25
ATOM     25  O   UNL     1     -14.858  46.838  11.122  1.00  0.00    -0.507 OA
ATOM     26  H   UNL     1     -15.613  47.459  11.390  1.00  0.00     0.293 HD
ENDBRANCH   5  25
BRANCH   7  27
ATOM     27  O   UNL     1     -15.623  44.063   7.239  1.00  0.00    -0.507 OA
ATOM     28  H   UNL     1     -16.506  43.815   6.809  1.00  0.00     0.293 HD
ENDBRANCH   7  27
TORSDOF 7
ENDMDL
MODEL 8
REMARK VINA RESULT:    -6.572      2.318      3.103
REMARK INTER + INTRA:          -8.466
REMARK INTER:                  -8.114
REMARK INTRA:                  -0.352
REMARK UNBOUND:                -0.357
REMARK SMILES Oc1cc(O)c2cc(O)c(-c3cc(O)c(O)c(O)c3)[o+]c2c1.[Cl-]
REMARK SMILES IDX 10 1 20 2 21 3 22 4 2 5 3 6 4 7 6 8 7 9 8 10 11 11 12 12
REMARK SMILES IDX 13 13 19 14 15 15 17 16 14 17 16 19 18 21 9 23 1 25 5 27
REMARK H PARENT 14 18 16 20 18 22 9 24 1 26 5 28
REMARK Flexibility Score: inf
ROOT
ATOM      1  C   UNL     1     -15.863  39.598  11.736  1.00  0.00     0.402 A 
ATOM      2  O   UNL     1     -16.659  40.280  10.914  1.00  0.00    -0.202 OA
ATOM      3  C   UNL     1     -16.379  41.503  10.477  1.00  0.00     0.368 A 
ATOM      4  C   UNL     1     -17.271  42.153   9.620  1.00  0.00     0.162 A 
ATOM      5  C   UNL     1     -16.987  43.445   9.155  1.00  0.00     0.128 A 
ATOM      6  C   UNL     1     -15.808  44.084   9.550  1.00  0.00     0.093 A 
ATOM      7  C   UNL     1     -14.903  43.444  10.408  1.00  0.00     0.136 A 
ATOM      8  C   UNL     1     -15.188  42.147  10.876  1.00  0.00     0.125 A 
ATOM      9  C   UNL     1     -14.318  41.457  11.728  1.00  0.00     0.078 A 
ATOM     10  C   UNL     1     -14.645  40.168  12.159  1.00  0.00     0.223 A 
ENDROOT
BRANCH   1  11
ATOM     11  C   UNL     1     -16.288  38.245  12.162  1.00  0.00     0.091 A 
ATOM     12  C   UNL     1     -16.841  38.065  13.440  1.00  0.00     0.068 A 
ATOM     13  C   UNL     1     -17.233  36.792  13.875  1.00  0.00     0.162 A 
ATOM     14  C   UNL     1     -16.098  37.124  11.335  1.00  0.00     0.068 A 
ATOM     15  C   UNL     1     -17.058  35.680  13.034  1.00  0.00     0.200 A 
ATOM     16  C   UNL     1     -16.487  35.848  11.766  1.00  0.00     0.162 A 
BRANCH  13  17
ATOM     17  O   UNL     1     -17.794  36.627  15.141  1.00  0.00    -0.504 OA
ATOM     18  H   UNL     1     -18.661  37.084  15.401  1.00  0.00     0.293 HD
ENDBRANCH  13  17
BRANCH  15  19
ATOM     19  O   UNL     1     -17.442  34.403  13.444  1.00  0.00    -0.502 OA
ATOM     20  H   UNL     1     -17.951  34.244  14.305  1.00  0.00     0.293 HD
ENDBRANCH  15  19
BRANCH  16  21
ATOM     21  O   UNL     1     -16.303  34.741  10.940  1.00  0.00    -0.504 OA
ATOM     22  H   UNL     1     -17.071  34.128  10.695  1.00  0.00     0.293 HD
ENDBRANCH  16  21
ENDBRANCH   1  11
BRANCH  10  23
ATOM     23  O   UNL     1     -13.759  39.456  12.967  1.00  0.00    -0.500 OA
ATOM     24  H   UNL     1     -12.955  39.899  13.394  1.00  0.00     0.294 HD
ENDBRANCH  10  23
BRANCH   5  25
ATOM     25  O   UNL     1     -17.872  44.099   8.300  1.00  0.00    -0.507 OA
ATOM     26  H   UNL     1     -18.597  44.711   8.654  1.00  0.00     0.293 HD
ENDBRANCH   5  25
BRANCH   7  27
ATOM     27  O   UNL     1     -13.730  44.094  10.794  1.00  0.00    -0.507 OA
ATOM     28  H   UNL     1     -13.611  45.093  10.673  1.00  0.00     0.293 HD
ENDBRANCH   7  27
TORSDOF 7
ENDMDL
MODEL 9
REMARK VINA RESULT:    -6.349     14.305     15.676
REMARK INTER + INTRA:          -8.190
REMARK INTER:                  -7.825
REMARK INTRA:                  -0.366
REMARK UNBOUND:                -0.357
REMARK SMILES Oc1cc(O)c2cc(O)c(-c3cc(O)c(O)c(O)c3)[o+]c2c1.[Cl-]
REMARK SMILES IDX 10 1 20 2 21 3 22 4 2 5 3 6 4 7 6 8 7 9 8 10 11 11 12 12
REMARK SMILES IDX 13 13 19 14 15 15 17 16 14 17 16 19 18 21 9 23 1 25 5 27
REMARK H PARENT 14 18 16 20 18 22 9 24 1 26 5 28
REMARK Flexibility Score: inf
ROOT
ATOM      1  C   UNL     1     -30.492  37.716  20.000  1.00  0.00     0.402 A 
ATOM      2  O   UNL     1     -29.708  38.672  19.504  1.00  0.00    -0.202 OA
ATOM      3  C   UNL     1     -30.100  39.934  19.364  1.00  0.00     0.368 A 
ATOM      4  C   UNL     1     -29.216  40.878  18.829  1.00  0.00     0.162 A 
ATOM      5  C   UNL     1     -29.619  42.211  18.674  1.00  0.00     0.128 A 
ATOM      6  C   UNL     1     -30.908  42.599  19.055  1.00  0.00     0.093 A 
ATOM      7  C   UNL     1     -31.803  41.665  19.593  1.00  0.00     0.136 A 
ATOM      8  C   UNL     1     -31.400  40.325  19.749  1.00  0.00     0.125 A 
ATOM      9  C   UNL     1     -32.249  39.352  20.288  1.00  0.00     0.078 A 
ATOM     10  C   UNL     1     -31.797  38.036  20.428  1.00  0.00     0.223 A 
ENDROOT
BRANCH   1  11
ATOM     11  C   UNL     1     -29.947  36.343  20.099  1.00  0.00     0.091 A 
ATOM     12  C   UNL     1     -29.047  36.031  21.131  1.00  0.00     0.068 A 
ATOM     13  C   UNL     1     -28.500  34.745  21.236  1.00  0.00     0.162 A 
ATOM     14  C   UNL     1     -30.265  35.359  19.148  1.00  0.00     0.068 A 
ATOM     15  C   UNL     1     -28.840  33.761  20.292  1.00  0.00     0.200 A 
ATOM     16  C   UNL     1     -29.719  34.071  19.247  1.00  0.00     0.162 A 
BRANCH  13  17
ATOM     17  O   UNL     1     -27.619  34.442  22.273  1.00  0.00    -0.504 OA
ATOM     18  H   UNL     1     -26.626  34.635  22.201  1.00  0.00     0.293 HD
ENDBRANCH  13  17
BRANCH  15  19
ATOM     19  O   UNL     1     -28.309  32.473  20.377  1.00  0.00    -0.502 OA
ATOM     20  H   UNL     1     -28.571  31.829  21.113  1.00  0.00     0.293 HD
ENDBRANCH  15  19
BRANCH  16  21
ATOM     21  O   UNL     1     -30.042  33.096  18.305  1.00  0.00    -0.504 OA
ATOM     22  H   UNL     1     -29.561  32.205  18.277  1.00  0.00     0.293 HD
ENDBRANCH  16  21
ENDBRANCH   1  11
BRANCH  10  23
ATOM     23  O   UNL     1     -32.620  37.073  21.011  1.00  0.00    -0.500 OA
ATOM     24  H   UNL     1     -33.200  36.460  20.451  1.00  0.00     0.294 HD
ENDBRANCH  10  23
BRANCH   5  25
ATOM     25  O   UNL     1     -28.745  43.157  18.142  1.00  0.00    -0.507 OA
ATOM     26  H   UNL     1     -27.740  43.052  18.219  1.00  0.00     0.293 HD
ENDBRANCH   5  25
BRANCH   7  27
ATOM     27  O   UNL     1     -33.086  42.066  19.969  1.00  0.00    -0.507 OA
ATOM     28  H   UNL     1     -33.285  42.403  20.904  1.00  0.00     0.293 HD
ENDBRANCH   7  27
TORSDOF 7
ENDMDL
