MODEL 1
REMARK VINA RESULT:    32.911      0.000      0.000
REMARK INTER + INTRA:          47.499
REMARK INTER:                  48.303
REMARK INTRA:                  -0.804
REMARK UNBOUND:                -0.804
REMARK SMILES O=c1c(O[C@@H]2O[C@H](CO)[C@H](O)[C@H](O)[C@H]2O)c(-c2ccc(O)c(O)c2)oc2cc(O)cc(O)c12
REMARK SMILES IDX 4 1 3 2 16 3 25 4 2 5 26 6 1 7 33 8 27 9 31 10 28 11 30 12
REMARK SMILES IDX 17 13 18 14 19 15 20 16 24 17 22 18 21 19 23 21 32 23 29 25
REMARK SMILES IDX 5 27 14 28 6 29 12 30 7 31 10 32 15 33 13 35 8 37 9 38 11 40
REMARK H PARENT 21 20 23 22 32 24 29 26 15 34 13 36 9 39 11 41
REMARK Flexibility Score: inf
ROOT
ATOM      1  O   UNL     1     136.246 128.559 128.541  1.00  0.00    -0.454 OA
ENDROOT
BRANCH   1   2
ATOM      2  C   UNL     1     135.054 128.922 127.874  1.00  0.00     0.214 A 
ATOM      3  C   UNL     1     135.159 129.760 126.753  1.00  0.00     0.180 A 
ATOM      4  O   UNL     1     134.080 130.124 126.074  1.00  0.00    -0.452 OA
ATOM      5  C   UNL     1     133.765 128.496 128.267  1.00  0.00     0.239 A 
ATOM      6  C   UNL     1     132.854 129.727 126.391  1.00  0.00     0.146 A 
ATOM      7  O   UNL     1     133.617 127.854 129.338  1.00  0.00    -0.285 OA
ATOM      8  C   UNL     1     132.638 128.846 127.481  1.00  0.00     0.111 A 
ATOM      9  C   UNL     1     131.776 130.205 125.642  1.00  0.00     0.094 A 
ATOM     10  C   UNL     1     131.306 128.411 127.751  1.00  0.00     0.134 A 
ATOM     11  C   UNL     1     130.470 129.837 125.968  1.00  0.00     0.123 A 
ATOM     12  C   UNL     1     130.242 128.949 127.019  1.00  0.00     0.093 A 
BRANCH   3  13
ATOM     13  C   UNL     1     136.471 130.252 126.306  1.00  0.00     0.025 A 
ATOM     14  C   UNL     1     136.752 131.627 126.335  1.00  0.00     0.016 A 
ATOM     15  C   UNL     1     137.978 132.101 125.857  1.00  0.00     0.051 A 
ATOM     16  C   UNL     1     138.938 131.202 125.366  1.00  0.00     0.157 A 
ATOM     17  C   UNL     1     137.437 129.351 125.827  1.00  0.00     0.062 A 
ATOM     18  C   UNL     1     138.672 129.824 125.360  1.00  0.00     0.158 A 
BRANCH  16  19
ATOM     19  O   UNL     1     140.155 131.667 124.876  1.00  0.00    -0.504 OA
ATOM     20  H   UNL     1     140.956 131.048 124.753  1.00  0.00     0.293 HD
ENDBRANCH  16  19
BRANCH  18  21
ATOM     21  O   UNL     1     139.631 128.935 124.876  1.00  0.00    -0.504 OA
ATOM     22  H   UNL     1     139.408 127.967 124.675  1.00  0.00     0.293 HD
ENDBRANCH  18  21
ENDBRANCH   3  13
BRANCH  10  23
ATOM     23  O   UNL     1     130.986 127.430 128.696  1.00  0.00    -0.507 OA
ATOM     24  H   UNL     1     131.562 126.623 128.896  1.00  0.00     0.293 HD
ENDBRANCH  10  23
BRANCH  11  25
ATOM     25  O   UNL     1     129.388 130.338 125.245  1.00  0.00    -0.508 OA
ATOM     26  H   UNL     1     128.603 130.782 125.704  1.00  0.00     0.293 HD
ENDBRANCH  11  25
ENDBRANCH   1   2
BRANCH   1  27
ATOM     27  C   UNL     1     136.619 127.256 129.010  1.00  0.00     0.339 C 
ATOM     28  C   UNL     1     138.157 127.031 128.951  1.00  0.00     0.214 C 
ATOM     29  O   UNL     1     136.082 127.019 130.306  1.00  0.00    -0.332 OA
ATOM     30  C   UNL     1     138.891 127.864 130.022  1.00  0.00     0.180 C 
ATOM     31  C   UNL     1     136.683 127.782 131.346  1.00  0.00     0.179 C 
ATOM     32  C   UNL     1     138.227 127.615 131.390  1.00  0.00     0.177 C 
BRANCH  28  33
ATOM     33  O   UNL     1     138.496 125.668 129.086  1.00  0.00    -0.384 OA
ATOM     34  H   UNL     1     137.765 125.195 129.561  1.00  0.00     0.211 HD
ENDBRANCH  28  33
BRANCH  30  35
ATOM     35  O   UNL     1     138.895 129.242 129.724  1.00  0.00    -0.387 OA
ATOM     36  H   UNL     1     139.488 129.715 130.374  1.00  0.00     0.211 HD
ENDBRANCH  30  35
BRANCH  31  37
ATOM     37  C   UNL     1     136.162 129.234 131.365  1.00  0.00     0.191 C 
BRANCH  37  38
ATOM     38  O   UNL     1     134.759 129.248 131.281  1.00  0.00    -0.394 OA
ATOM     39  H   UNL     1     134.434 128.627 131.990  1.00  0.00     0.210 HD
ENDBRANCH  37  38
ENDBRANCH  31  37
BRANCH  32  40
ATOM     40  O   UNL     1     138.816 128.374 132.417  1.00  0.00    -0.387 OA
ATOM     41  H   UNL     1     138.313 129.225 132.510  1.00  0.00     0.211 HD
ENDBRANCH  32  40
ENDBRANCH   1  27
TORSDOF 12
ENDMDL
MODEL 2
REMARK VINA RESULT:    34.311      1.347      1.926
REMARK INTER + INTRA:          49.553
REMARK INTER:                  48.168
REMARK INTRA:                   1.385
REMARK UNBOUND:                -0.804
REMARK SMILES O=c1c(O[C@@H]2O[C@H](CO)[C@H](O)[C@H](O)[C@H]2O)c(-c2ccc(O)c(O)c2)oc2cc(O)cc(O)c12
REMARK SMILES IDX 4 1 3 2 16 3 25 4 2 5 26 6 1 7 33 8 27 9 31 10 28 11 30 12
REMARK SMILES IDX 17 13 18 14 19 15 20 16 24 17 22 18 21 19 23 21 32 23 29 25
REMARK SMILES IDX 5 27 14 28 6 29 12 30 7 31 10 32 15 33 13 35 8 37 9 38 11 40
REMARK H PARENT 21 20 23 22 32 24 29 26 15 34 13 36 9 39 11 41
REMARK Flexibility Score: inf
ROOT
ATOM      1  O   UNL     1     136.808 128.740 129.442  1.00  0.00    -0.454 OA
ENDROOT
BRANCH   1   2
ATOM      2  C   UNL     1     135.518 128.708 128.865  1.00  0.00     0.214 A 
ATOM      3  C   UNL     1     135.375 129.189 127.553  1.00  0.00     0.180 A 
ATOM      4  O   UNL     1     134.194 129.171 126.949  1.00  0.00    -0.452 OA
ATOM      5  C   UNL     1     134.365 128.224 129.525  1.00  0.00     0.239 A 
ATOM      6  C   UNL     1     133.093 128.702 127.521  1.00  0.00     0.146 A 
ATOM      7  O   UNL     1     134.427 127.908 130.740  1.00  0.00    -0.285 OA
ATOM      8  C   UNL     1     133.132 128.155 128.829  1.00  0.00     0.111 A 
ATOM      9  C   UNL     1     131.887 128.772 126.818  1.00  0.00     0.094 A 
ATOM     10  C   UNL     1     131.930 127.621 129.380  1.00  0.00     0.134 A 
ATOM     11  C   UNL     1     130.702 128.320 127.401  1.00  0.00     0.123 A 
ATOM     12  C   UNL     1     130.729 127.754 128.676  1.00  0.00     0.093 A 
BRANCH   3  13
ATOM     13  C   UNL     1     136.533 129.722 126.821  1.00  0.00     0.025 A 
ATOM     14  C   UNL     1     137.643 128.900 126.571  1.00  0.00     0.016 A 
ATOM     15  C   UNL     1     138.768 129.422 125.924  1.00  0.00     0.051 A 
ATOM     16  C   UNL     1     138.783 130.763 125.507  1.00  0.00     0.157 A 
ATOM     17  C   UNL     1     136.542 131.059 126.391  1.00  0.00     0.062 A 
ATOM     18  C   UNL     1     137.665 131.580 125.731  1.00  0.00     0.158 A 
BRANCH  16  19
ATOM     19  O   UNL     1     139.904 131.293 124.875  1.00  0.00    -0.504 OA
ATOM     20  H   UNL     1     140.850 131.040 125.160  1.00  0.00     0.293 HD
ENDBRANCH  16  19
BRANCH  18  21
ATOM     21  O   UNL     1     137.682 132.909 125.309  1.00  0.00    -0.504 OA
ATOM     22  H   UNL     1     137.842 133.158 124.340  1.00  0.00     0.293 HD
ENDBRANCH  18  21
ENDBRANCH   3  13
BRANCH  10  23
ATOM     23  O   UNL     1     131.874 126.921 130.590  1.00  0.00    -0.507 OA
ATOM     24  H   UNL     1     132.685 126.658 131.134  1.00  0.00     0.293 HD
ENDBRANCH  10  23
BRANCH  11  25
ATOM     25  O   UNL     1     129.490 128.419 126.718  1.00  0.00    -0.508 OA
ATOM     26  H   UNL     1     128.613 128.164 127.154  1.00  0.00     0.293 HD
ENDBRANCH  11  25
ENDBRANCH   1   2
BRANCH   1  27
ATOM     27  C   UNL     1     137.889 127.830 129.207  1.00  0.00     0.339 C 
ATOM     28  C   UNL     1     139.270 128.461 129.544  1.00  0.00     0.214 C 
ATOM     29  O   UNL     1     137.669 126.603 129.893  1.00  0.00    -0.332 OA
ATOM     30  C   UNL     1     139.458 128.631 131.066  1.00  0.00     0.180 C 
ATOM     31  C   UNL     1     137.786 126.686 131.309  1.00  0.00     0.179 C 
ATOM     32  C   UNL     1     139.145 127.291 131.759  1.00  0.00     0.177 C 
BRANCH  28  33
ATOM     33  O   UNL     1     140.338 127.711 129.008  1.00  0.00    -0.384 OA
ATOM     34  H   UNL     1     141.011 127.548 129.717  1.00  0.00     0.211 HD
ENDBRANCH  28  33
BRANCH  30  35
ATOM     35  O   UNL     1     138.651 129.657 131.597  1.00  0.00    -0.387 OA
ATOM     36  H   UNL     1     138.808 130.497 131.079  1.00  0.00     0.211 HD
ENDBRANCH  30  35
BRANCH  31  37
ATOM     37  C   UNL     1     136.528 127.305 131.952  1.00  0.00     0.191 C 
BRANCH  37  38
ATOM     38  O   UNL     1     136.712 128.684 132.150  1.00  0.00    -0.394 OA
ATOM     39  H   UNL     1     136.093 129.138 131.514  1.00  0.00     0.210 HD
ENDBRANCH  37  38
ENDBRANCH  31  37
BRANCH  32  40
ATOM     40  O   UNL     1     139.254 127.374 133.159  1.00  0.00    -0.387 OA
ATOM     41  H   UNL     1     139.312 128.331 133.415  1.00  0.00     0.211 HD
ENDBRANCH  32  40
ENDBRANCH   1  27
TORSDOF 12
ENDMDL
MODEL 3
REMARK VINA RESULT:    35.820      1.694      2.911
REMARK INTER + INTRA:          51.768
REMARK INTER:                  52.253
REMARK INTRA:                  -0.485
REMARK UNBOUND:                -0.804
REMARK SMILES O=c1c(O[C@@H]2O[C@H](CO)[C@H](O)[C@H](O)[C@H]2O)c(-c2ccc(O)c(O)c2)oc2cc(O)cc(O)c12
REMARK SMILES IDX 4 1 3 2 16 3 25 4 2 5 26 6 1 7 33 8 27 9 31 10 28 11 30 12
REMARK SMILES IDX 17 13 18 14 19 15 20 16 24 17 22 18 21 19 23 21 32 23 29 25
REMARK SMILES IDX 5 27 14 28 6 29 12 30 7 31 10 32 15 33 13 35 8 37 9 38 11 40
REMARK H PARENT 21 20 23 22 32 24 29 26 15 34 13 36 9 39 11 41
REMARK Flexibility Score: inf
ROOT
ATOM      1  O   UNL     1     137.097 128.504 129.873  1.00  0.00    -0.454 OA
ENDROOT
BRANCH   1   2
ATOM      2  C   UNL     1     135.780 128.408 129.367  1.00  0.00     0.214 A 
ATOM      3  C   UNL     1     135.573 128.720 128.014  1.00  0.00     0.180 A 
ATOM      4  O   UNL     1     134.364 128.634 127.475  1.00  0.00    -0.452 OA
ATOM      5  C   UNL     1     134.661 128.019 130.138  1.00  0.00     0.239 A 
ATOM      6  C   UNL     1     133.293 128.249 128.155  1.00  0.00     0.146 A 
ATOM      7  O   UNL     1     134.782 127.858 131.379  1.00  0.00    -0.285 OA
ATOM      8  C   UNL     1     133.396 127.871 129.518  1.00  0.00     0.111 A 
ATOM      9  C   UNL     1     132.054 128.238 127.508  1.00  0.00     0.094 A 
ATOM     10  C   UNL     1     132.221 127.419 130.189  1.00  0.00     0.134 A 
ATOM     11  C   UNL     1     130.898 127.872 128.201  1.00  0.00     0.123 A 
ATOM     12  C   UNL     1     130.987 127.470 129.533  1.00  0.00     0.093 A 
BRANCH   3  13
ATOM     13  C   UNL     1     136.694 129.149 127.164  1.00  0.00     0.025 A 
ATOM     14  C   UNL     1     137.730 128.250 126.864  1.00  0.00     0.016 A 
ATOM     15  C   UNL     1     138.825 128.673 126.103  1.00  0.00     0.051 A 
ATOM     16  C   UNL     1     138.882 129.991 125.623  1.00  0.00     0.157 A 
ATOM     17  C   UNL     1     136.745 130.464 126.672  1.00  0.00     0.062 A 
ATOM     18  C   UNL     1     137.836 130.884 125.898  1.00  0.00     0.158 A 
BRANCH  16  19
ATOM     19  O   UNL     1     139.975 130.423 124.876  1.00  0.00    -0.504 OA
ATOM     20  H   UNL     1     139.991 131.339 124.429  1.00  0.00     0.293 HD
ENDBRANCH  16  19
BRANCH  18  21
ATOM     21  O   UNL     1     137.896 132.191 125.413  1.00  0.00    -0.504 OA
ATOM     22  H   UNL     1     137.459 132.962 125.904  1.00  0.00     0.293 HD
ENDBRANCH  18  21
ENDBRANCH   3  13
BRANCH  10  23
ATOM     23  O   UNL     1     132.225 126.878 131.479  1.00  0.00    -0.507 OA
ATOM     24  H   UNL     1     131.452 126.369 131.886  1.00  0.00     0.293 HD
ENDBRANCH  10  23
BRANCH  11  25
ATOM     25  O   UNL     1     129.654 127.892 127.570  1.00  0.00    -0.508 OA
ATOM     26  H   UNL     1     129.397 127.195 126.882  1.00  0.00     0.293 HD
ENDBRANCH  11  25
ENDBRANCH   1   2
BRANCH   1  27
ATOM     27  C   UNL     1     137.499 128.562 131.247  1.00  0.00     0.339 C 
ATOM     28  C   UNL     1     138.080 127.208 131.745  1.00  0.00     0.214 C 
ATOM     29  O   UNL     1     138.391 129.650 131.461  1.00  0.00    -0.332 OA
ATOM     30  C   UNL     1     139.465 126.925 131.127  1.00  0.00     0.180 C 
ATOM     31  C   UNL     1     139.682 129.481 130.885  1.00  0.00     0.179 C 
ATOM     32  C   UNL     1     140.365 128.159 131.334  1.00  0.00     0.177 C 
BRANCH  28  33
ATOM     33  O   UNL     1     138.162 127.155 133.153  1.00  0.00    -0.384 OA
ATOM     34  H   UNL     1     138.624 126.320 133.422  1.00  0.00     0.211 HD
ENDBRANCH  28  33
BRANCH  30  35
ATOM     35  O   UNL     1     139.387 126.600 129.757  1.00  0.00    -0.387 OA
ATOM     36  H   UNL     1     138.796 127.261 129.298  1.00  0.00     0.211 HD
ENDBRANCH  30  35
BRANCH  31  37
ATOM     37  C   UNL     1     139.671 129.751 129.367  1.00  0.00     0.191 C 
BRANCH  37  38
ATOM     38  O   UNL     1     140.617 128.937 128.721  1.00  0.00    -0.394 OA
ATOM     39  H   UNL     1     140.163 128.578 127.909  1.00  0.00     0.210 HD
ENDBRANCH  37  38
ENDBRANCH  31  37
BRANCH  32  40
ATOM     40  O   UNL     1     141.638 127.995 130.758  1.00  0.00    -0.387 OA
ATOM     41  H   UNL     1     141.855 127.027 130.741  1.00  0.00     0.211 HD
ENDBRANCH  32  40
ENDBRANCH   1  27
TORSDOF 12
ENDMDL
