MODEL 1
REMARK VINA RESULT:    -4.532      0.000      0.000
REMARK INTER + INTRA:          -9.917
REMARK INTER:                  -8.242
REMARK INTRA:                  -1.675
REMARK UNBOUND:                -1.675
REMARK SMILES CCCCCCCCCCCCCCCC(=O)[O-]
REMARK SMILES IDX 9 1 10 2 11 3 12 4 13 5 14 6 15 7 16 8 17 9 18 10 8 11 7 12
REMARK SMILES IDX 6 13 5 14 4 15 3 16 2 17 1 18
REMARK H PARENT
REMARK Flexibility Score: inf
ROOT
ATOM      1  C   UNL     1     126.550 143.073 137.816  1.00  0.00     0.000 C 
ENDROOT
BRANCH   1   2
ATOM      2  C   UNL     1     125.777 143.252 136.503  1.00  0.00     0.000 C 
BRANCH   2   3
ATOM      3  C   UNL     1     125.476 141.917 135.799  1.00  0.00     0.000 C 
BRANCH   3   4
ATOM      4  C   UNL     1     125.183 140.758 136.774  1.00  0.00     0.000 C 
BRANCH   4   5
ATOM      5  C   UNL     1     126.136 139.567 136.566  1.00  0.00     0.000 C 
BRANCH   5   6
ATOM      6  C   UNL     1     127.287 139.527 137.585  1.00  0.00     0.006 C 
BRANCH   6   7
ATOM      7  C   UNL     1     128.460 138.624 137.166  1.00  0.00     0.053 C 
BRANCH   7   8
ATOM      8  C   UNL     1     129.225 138.094 138.341  1.00  0.00     0.041 C 
ATOM      9  O   UNL     1     128.739 138.170 139.500  1.00  0.00    -0.550 OA
ATOM     10  O   UNL     1     130.491 137.550 138.162  1.00  0.00    -0.550 OA
ENDBRANCH   7   8
ENDBRANCH   6   7
ENDBRANCH   5   6
ENDBRANCH   4   5
ENDBRANCH   3   4
ENDBRANCH   2   3
ENDBRANCH   1   2
BRANCH   1  11
ATOM     11  C   UNL     1     126.176 144.167 138.828  1.00  0.00     0.000 C 
BRANCH  11  12
ATOM     12  C   UNL     1     126.653 143.848 140.256  1.00  0.00    -0.000 C 
BRANCH  12  13
ATOM     13  C   UNL     1     127.511 142.573 140.389  1.00  0.00    -0.000 C 
BRANCH  13  14
ATOM     14  C   UNL     1     128.735 142.698 141.314  1.00  0.00    -0.000 C 
BRANCH  14  15
ATOM     15  C   UNL     1     129.916 141.822 140.863  1.00  0.00    -0.000 C 
BRANCH  15  16
ATOM     16  C   UNL     1     129.917 141.572 139.346  1.00  0.00    -0.000 C 
BRANCH  16  17
ATOM     17  C   UNL     1     131.296 141.149 138.818  1.00  0.00    -0.003 C 
ATOM     18  C   UNL     1     132.054 140.329 139.857  1.00  0.00     0.004 C 
ENDBRANCH  16  17
ENDBRANCH  15  16
ENDBRANCH  14  15
ENDBRANCH  13  14
ENDBRANCH  12  13
ENDBRANCH  11  12
ENDBRANCH   1  11
TORSDOF 14
ENDMDL
MODEL 2
REMARK VINA RESULT:    -4.476      2.898      6.450
REMARK INTER + INTRA:          -9.815
REMARK INTER:                  -8.316
REMARK INTRA:                  -1.500
REMARK UNBOUND:                -1.675
REMARK SMILES CCCCCCCCCCCCCCCC(=O)[O-]
REMARK SMILES IDX 9 1 10 2 11 3 12 4 13 5 14 6 15 7 16 8 17 9 18 10 8 11 7 12
REMARK SMILES IDX 6 13 5 14 4 15 3 16 2 17 1 18
REMARK H PARENT
REMARK Flexibility Score: inf
ROOT
ATOM      1  C   UNL     1     131.317 141.389 139.957  1.00  0.00     0.000 C 
ENDROOT
BRANCH   1   2
ATOM      2  C   UNL     1     130.586 141.293 141.303  1.00  0.00     0.000 C 
BRANCH   2   3
ATOM      3  C   UNL     1     129.460 142.332 141.448  1.00  0.00     0.000 C 
BRANCH   3   4
ATOM      4  C   UNL     1     128.113 141.868 140.854  1.00  0.00     0.000 C 
BRANCH   4   5
ATOM      5  C   UNL     1     127.634 142.784 139.714  1.00  0.00     0.000 C 
BRANCH   5   6
ATOM      6  C   UNL     1     126.232 143.370 139.956  1.00  0.00     0.006 C 
BRANCH   6   7
ATOM      7  C   UNL     1     126.150 144.894 139.761  1.00  0.00     0.053 C 
BRANCH   7   8
ATOM      8  C   UNL     1     125.922 145.278 138.330  1.00  0.00     0.041 C 
ATOM      9  O   UNL     1     125.894 144.394 137.434  1.00  0.00    -0.550 OA
ATOM     10  O   UNL     1     125.777 146.615 137.981  1.00  0.00    -0.550 OA
ENDBRANCH   7   8
ENDBRANCH   6   7
ENDBRANCH   5   6
ENDBRANCH   4   5
ENDBRANCH   3   4
ENDBRANCH   2   3
ENDBRANCH   1   2
BRANCH   1  11
ATOM     11  C   UNL     1     131.719 139.997 139.449  1.00  0.00     0.000 C 
BRANCH  11  12
ATOM     12  C   UNL     1     130.513 139.154 138.998  1.00  0.00    -0.000 C 
BRANCH  12  13
ATOM     13  C   UNL     1     129.550 139.862 138.022  1.00  0.00    -0.000 C 
BRANCH  13  14
ATOM     14  C   UNL     1     128.072 139.447 138.142  1.00  0.00    -0.000 C 
BRANCH  14  15
ATOM     15  C   UNL     1     127.575 138.652 136.924  1.00  0.00    -0.000 C 
BRANCH  15  16
ATOM     16  C   UNL     1     126.187 139.109 136.447  1.00  0.00    -0.000 C 
BRANCH  16  17
ATOM     17  C   UNL     1     125.797 140.489 136.998  1.00  0.00    -0.003 C 
ATOM     18  C   UNL     1     125.330 141.415 135.878  1.00  0.00     0.004 C 
ENDBRANCH  16  17
ENDBRANCH  15  16
ENDBRANCH  14  15
ENDBRANCH  13  14
ENDBRANCH  12  13
ENDBRANCH  11  12
ENDBRANCH   1  11
TORSDOF 14
ENDMDL
MODEL 3
REMARK VINA RESULT:    -4.440      1.744      4.556
REMARK INTER + INTRA:          -9.749
REMARK INTER:                  -7.891
REMARK INTRA:                  -1.858
REMARK UNBOUND:                -1.675
REMARK SMILES CCCCCCCCCCCCCCCC(=O)[O-]
REMARK SMILES IDX 9 1 10 2 11 3 12 4 13 5 14 6 15 7 16 8 17 9 18 10 8 11 7 12
REMARK SMILES IDX 6 13 5 14 4 15 3 16 2 17 1 18
REMARK H PARENT
REMARK Flexibility Score: inf
ROOT
ATOM      1  C   UNL     1     131.852 140.511 139.509  1.00  0.00     0.000 C 
ENDROOT
BRANCH   1   2
ATOM      2  C   UNL     1     130.801 140.818 138.434  1.00  0.00     0.000 C 
BRANCH   2   3
ATOM      3  C   UNL     1     130.093 139.556 137.910  1.00  0.00     0.000 C 
BRANCH   3   4
ATOM      4  C   UNL     1     128.792 139.220 138.669  1.00  0.00     0.000 C 
BRANCH   4   5
ATOM      5  C   UNL     1     128.963 138.017 139.614  1.00  0.00     0.000 C 
BRANCH   5   6
ATOM      6  C   UNL     1     130.347 137.355 139.507  1.00  0.00     0.006 C 
BRANCH   6   7
ATOM      7  C   UNL     1     130.348 136.034 138.718  1.00  0.00     0.053 C 
BRANCH   7   8
ATOM      8  C   UNL     1     131.698 135.701 138.157  1.00  0.00     0.041 C 
ATOM      9  O   UNL     1     132.347 136.566 137.512  1.00  0.00    -0.550 OA
ATOM     10  O   UNL     1     132.224 134.425 138.314  1.00  0.00    -0.550 OA
ENDBRANCH   7   8
ENDBRANCH   6   7
ENDBRANCH   5   6
ENDBRANCH   4   5
ENDBRANCH   3   4
ENDBRANCH   2   3
ENDBRANCH   1   2
BRANCH   1  11
ATOM     11  C   UNL     1     131.727 141.482 140.692  1.00  0.00     0.000 C 
BRANCH  11  12
ATOM     12  C   UNL     1     130.478 141.217 141.552  1.00  0.00    -0.000 C 
BRANCH  12  13
ATOM     13  C   UNL     1     129.444 142.363 141.573  1.00  0.00    -0.000 C 
BRANCH  13  14
ATOM     14  C   UNL     1     127.982 141.933 141.355  1.00  0.00    -0.000 C 
BRANCH  14  15
ATOM     15  C   UNL     1     127.221 142.869 140.401  1.00  0.00    -0.000 C 
BRANCH  15  16
ATOM     16  C   UNL     1     127.662 142.705 138.938  1.00  0.00    -0.000 C 
BRANCH  16  17
ATOM     17  C   UNL     1     126.515 142.940 137.944  1.00  0.00    -0.003 C 
ATOM     18  C   UNL     1     126.158 141.654 137.204  1.00  0.00     0.004 C 
ENDBRANCH  16  17
ENDBRANCH  15  16
ENDBRANCH  14  15
ENDBRANCH  13  14
ENDBRANCH  12  13
ENDBRANCH  11  12
ENDBRANCH   1  11
TORSDOF 14
ENDMDL
MODEL 4
REMARK VINA RESULT:    -4.432      2.320      3.462
REMARK INTER + INTRA:          -9.734
REMARK INTER:                  -7.935
REMARK INTRA:                  -1.798
REMARK UNBOUND:                -1.675
REMARK SMILES CCCCCCCCCCCCCCCC(=O)[O-]
REMARK SMILES IDX 9 1 10 2 11 3 12 4 13 5 14 6 15 7 16 8 17 9 18 10 8 11 7 12
REMARK SMILES IDX 6 13 5 14 4 15 3 16 2 17 1 18
REMARK H PARENT
REMARK Flexibility Score: inf
ROOT
ATOM      1  C   UNL     1     126.935 143.237 140.023  1.00  0.00     0.000 C 
ENDROOT
BRANCH   1   2
ATOM      2  C   UNL     1     127.181 142.732 138.595  1.00  0.00     0.000 C 
BRANCH   2   3
ATOM      3  C   UNL     1     126.224 143.359 137.565  1.00  0.00     0.000 C 
BRANCH   3   4
ATOM      4  C   UNL     1     125.805 142.388 136.442  1.00  0.00     0.000 C 
BRANCH   4   5
ATOM      5  C   UNL     1     125.977 140.914 136.852  1.00  0.00     0.000 C 
BRANCH   5   6
ATOM      6  C   UNL     1     124.774 140.035 136.469  1.00  0.00     0.006 C 
BRANCH   6   7
ATOM      7  C   UNL     1     124.974 138.539 136.768  1.00  0.00     0.053 C 
BRANCH   7   8
ATOM      8  C   UNL     1     124.987 137.701 135.525  1.00  0.00     0.041 C 
ATOM      9  O   UNL     1     125.324 138.209 134.423  1.00  0.00    -0.550 OA
ATOM     10  O   UNL     1     124.591 136.371 135.575  1.00  0.00    -0.550 OA
ENDBRANCH   7   8
ENDBRANCH   6   7
ENDBRANCH   5   6
ENDBRANCH   4   5
ENDBRANCH   3   4
ENDBRANCH   2   3
ENDBRANCH   1   2
BRANCH   1  11
ATOM     11  C   UNL     1     127.618 142.326 141.053  1.00  0.00     0.000 C 
BRANCH  11  12
ATOM     12  C   UNL     1     129.088 142.706 141.305  1.00  0.00    -0.000 C 
BRANCH  12  13
ATOM     13  C   UNL     1     130.056 141.514 141.452  1.00  0.00    -0.000 C 
BRANCH  13  14
ATOM     14  C   UNL     1     131.179 141.446 140.401  1.00  0.00    -0.000 C 
BRANCH  14  15
ATOM     15  C   UNL     1     130.646 141.431 138.959  1.00  0.00    -0.000 C 
BRANCH  15  16
ATOM     16  C   UNL     1     130.646 140.021 138.345  1.00  0.00    -0.000 C 
BRANCH  16  17
ATOM     17  C   UNL     1     129.240 139.549 137.948  1.00  0.00    -0.003 C 
ATOM     18  C   UNL     1     128.398 139.234 139.181  1.00  0.00     0.004 C 
ENDBRANCH  16  17
ENDBRANCH  15  16
ENDBRANCH  14  15
ENDBRANCH  13  14
ENDBRANCH  12  13
ENDBRANCH  11  12
ENDBRANCH   1  11
TORSDOF 14
ENDMDL
MODEL 5
REMARK VINA RESULT:    -4.399      1.507      4.854
REMARK INTER + INTRA:          -9.675
REMARK INTER:                  -8.249
REMARK INTRA:                  -1.425
REMARK UNBOUND:                -1.675
REMARK SMILES CCCCCCCCCCCCCCCC(=O)[O-]
REMARK SMILES IDX 9 1 10 2 11 3 12 4 13 5 14 6 15 7 16 8 17 9 18 10 8 11 7 12
REMARK SMILES IDX 6 13 5 14 4 15 3 16 2 17 1 18
REMARK H PARENT
REMARK Flexibility Score: inf
ROOT
ATOM      1  C   UNL     1     127.295 143.645 140.272  1.00  0.00     0.000 C 
ENDROOT
BRANCH   1   2
ATOM      2  C   UNL     1     127.823 142.329 140.859  1.00  0.00     0.000 C 
BRANCH   2   3
ATOM      3  C   UNL     1     129.238 142.461 141.450  1.00  0.00     0.000 C 
BRANCH   3   4
ATOM      4  C   UNL     1     130.299 141.628 140.701  1.00  0.00     0.000 C 
BRANCH   4   5
ATOM      5  C   UNL     1     130.000 141.522 139.195  1.00  0.00     0.000 C 
BRANCH   5   6
ATOM      6  C   UNL     1     131.047 140.698 138.426  1.00  0.00     0.006 C 
BRANCH   6   7
ATOM      7  C   UNL     1     131.282 139.292 139.005  1.00  0.00     0.053 C 
BRANCH   7   8
ATOM      8  C   UNL     1     132.726 139.030 139.309  1.00  0.00     0.041 C 
ATOM      9  O   UNL     1     133.275 137.969 138.909  1.00  0.00    -0.550 OA
ATOM     10  O   UNL     1     133.457 139.937 140.065  1.00  0.00    -0.550 OA
ENDBRANCH   7   8
ENDBRANCH   6   7
ENDBRANCH   5   6
ENDBRANCH   4   5
ENDBRANCH   3   4
ENDBRANCH   2   3
ENDBRANCH   1   2
BRANCH   1  11
ATOM     11  C   UNL     1     126.183 143.382 139.246  1.00  0.00     0.000 C 
BRANCH  11  12
ATOM     12  C   UNL     1     126.700 142.709 137.962  1.00  0.00    -0.000 C 
BRANCH  12  13
ATOM     13  C   UNL     1     125.964 143.116 136.669  1.00  0.00    -0.000 C 
BRANCH  13  14
ATOM     14  C   UNL     1     125.429 141.947 135.822  1.00  0.00    -0.000 C 
BRANCH  14  15
ATOM     15  C   UNL     1     125.073 140.713 136.667  1.00  0.00    -0.000 C 
BRANCH  15  16
ATOM     16  C   UNL     1     125.719 139.425 136.131  1.00  0.00    -0.000 C 
BRANCH  16  17
ATOM     17  C   UNL     1     126.581 138.712 137.183  1.00  0.00    -0.003 C 
ATOM     18  C   UNL     1     128.065 138.967 136.940  1.00  0.00     0.004 C 
ENDBRANCH  16  17
ENDBRANCH  15  16
ENDBRANCH  14  15
ENDBRANCH  13  14
ENDBRANCH  12  13
ENDBRANCH  11  12
ENDBRANCH   1  11
TORSDOF 14
ENDMDL
MODEL 6
REMARK VINA RESULT:    -4.360      3.308      6.002
REMARK INTER + INTRA:          -9.604
REMARK INTER:                  -7.441
REMARK INTRA:                  -2.163
REMARK UNBOUND:                -1.675
REMARK SMILES CCCCCCCCCCCCCCCC(=O)[O-]
REMARK SMILES IDX 9 1 10 2 11 3 12 4 13 5 14 6 15 7 16 8 17 9 18 10 8 11 7 12
REMARK SMILES IDX 6 13 5 14 4 15 3 16 2 17 1 18
REMARK H PARENT
REMARK Flexibility Score: inf
ROOT
ATOM      1  C   UNL     1     131.778 140.897 140.971  1.00  0.00     0.000 C 
ENDROOT
BRANCH   1   2
ATOM      2  C   UNL     1     130.494 141.738 140.995  1.00  0.00     0.000 C 
BRANCH   2   3
ATOM      3  C   UNL     1     129.337 141.043 141.735  1.00  0.00     0.000 C 
BRANCH   3   4
ATOM      4  C   UNL     1     127.946 141.597 141.361  1.00  0.00     0.000 C 
BRANCH   4   5
ATOM      5  C   UNL     1     128.033 142.965 140.659  1.00  0.00     0.000 C 
BRANCH   5   6
ATOM      6  C   UNL     1     127.715 142.895 139.156  1.00  0.00     0.006 C 
BRANCH   6   7
ATOM      7  C   UNL     1     126.297 143.373 138.795  1.00  0.00     0.053 C 
BRANCH   7   8
ATOM      8  C   UNL     1     126.015 144.758 139.294  1.00  0.00     0.041 C 
ATOM      9  O   UNL     1     126.297 145.758 138.581  1.00  0.00    -0.550 OA
ATOM     10  O   UNL     1     125.475 144.949 140.559  1.00  0.00    -0.550 OA
ENDBRANCH   7   8
ENDBRANCH   6   7
ENDBRANCH   5   6
ENDBRANCH   4   5
ENDBRANCH   3   4
ENDBRANCH   2   3
ENDBRANCH   1   2
BRANCH   1  11
ATOM     11  C   UNL     1     131.998 140.271 139.586  1.00  0.00     0.000 C 
BRANCH  11  12
ATOM     12  C   UNL     1     131.048 140.839 138.516  1.00  0.00    -0.000 C 
BRANCH  12  13
ATOM     13  C   UNL     1     130.217 139.785 137.754  1.00  0.00    -0.000 C 
BRANCH  13  14
ATOM     14  C   UNL     1     128.823 139.498 138.342  1.00  0.00    -0.000 C 
BRANCH  14  15
ATOM     15  C   UNL     1     128.645 138.030 138.764  1.00  0.00    -0.000 C 
BRANCH  15  16
ATOM     16  C   UNL     1     129.286 137.727 140.128  1.00  0.00    -0.000 C 
BRANCH  16  17
ATOM     17  C   UNL     1     130.556 136.873 140.008  1.00  0.00    -0.003 C 
ATOM     18  C   UNL     1     130.576 136.101 138.692  1.00  0.00     0.004 C 
ENDBRANCH  16  17
ENDBRANCH  15  16
ENDBRANCH  14  15
ENDBRANCH  13  14
ENDBRANCH  12  13
ENDBRANCH  11  12
ENDBRANCH   1  11
TORSDOF 14
ENDMDL
MODEL 7
REMARK VINA RESULT:    -4.331      2.266      4.723
REMARK INTER + INTRA:          -9.551
REMARK INTER:                  -7.376
REMARK INTRA:                  -2.175
REMARK UNBOUND:                -1.675
REMARK SMILES CCCCCCCCCCCCCCCC(=O)[O-]
REMARK SMILES IDX 9 1 10 2 11 3 12 4 13 5 14 6 15 7 16 8 17 9 18 10 8 11 7 12
REMARK SMILES IDX 6 13 5 14 4 15 3 16 2 17 1 18
REMARK H PARENT
REMARK Flexibility Score: inf
ROOT
ATOM      1  C   UNL     1     131.439 141.271 139.211  1.00  0.00     0.000 C 
ENDROOT
BRANCH   1   2
ATOM      2  C   UNL     1     130.464 140.579 138.249  1.00  0.00     0.000 C 
BRANCH   2   3
ATOM      3  C   UNL     1     130.698 139.061 138.149  1.00  0.00     0.000 C 
BRANCH   3   4
ATOM      4  C   UNL     1     129.451 138.221 138.495  1.00  0.00     0.000 C 
BRANCH   4   5
ATOM      5  C   UNL     1     128.143 139.003 138.277  1.00  0.00     0.000 C 
BRANCH   5   6
ATOM      6  C   UNL     1     127.556 138.819 136.867  1.00  0.00     0.006 C 
BRANCH   6   7
ATOM      7  C   UNL     1     126.063 139.179 136.761  1.00  0.00     0.053 C 
BRANCH   7   8
ATOM      8  C   UNL     1     125.426 138.627 135.522  1.00  0.00     0.041 C 
ATOM      9  O   UNL     1     125.726 137.473 135.116  1.00  0.00    -0.550 OA
ATOM     10  O   UNL     1     124.530 139.399 134.794  1.00  0.00    -0.550 OA
ENDBRANCH   7   8
ENDBRANCH   6   7
ENDBRANCH   5   6
ENDBRANCH   4   5
ENDBRANCH   3   4
ENDBRANCH   2   3
ENDBRANCH   1   2
BRANCH   1  11
ATOM     11  C   UNL     1     131.593 140.466 140.510  1.00  0.00     0.000 C 
BRANCH  11  12
ATOM     12  C   UNL     1     130.671 140.967 141.637  1.00  0.00    -0.000 C 
BRANCH  12  13
ATOM     13  C   UNL     1     129.330 140.214 141.766  1.00  0.00    -0.000 C 
BRANCH  13  14
ATOM     14  C   UNL     1     128.074 141.054 141.471  1.00  0.00    -0.000 C 
BRANCH  14  15
ATOM     15  C   UNL     1     128.399 142.527 141.171  1.00  0.00    -0.000 C 
BRANCH  15  16
ATOM     16  C   UNL     1     127.436 143.147 140.146  1.00  0.00    -0.000 C 
BRANCH  16  17
ATOM     17  C   UNL     1     127.679 142.633 138.719  1.00  0.00    -0.003 C 
ATOM     18  C   UNL     1     126.443 142.830 137.846  1.00  0.00     0.004 C 
ENDBRANCH  16  17
ENDBRANCH  15  16
ENDBRANCH  14  15
ENDBRANCH  13  14
ENDBRANCH  12  13
ENDBRANCH  11  12
ENDBRANCH   1  11
TORSDOF 14
ENDMDL
MODEL 8
REMARK VINA RESULT:    -4.311      8.461     12.055
REMARK INTER + INTRA:          -9.514
REMARK INTER:                  -7.899
REMARK INTRA:                  -1.615
REMARK UNBOUND:                -1.675
REMARK SMILES CCCCCCCCCCCCCCCC(=O)[O-]
REMARK SMILES IDX 9 1 10 2 11 3 12 4 13 5 14 6 15 7 16 8 17 9 18 10 8 11 7 12
REMARK SMILES IDX 6 13 5 14 4 15 3 16 2 17 1 18
REMARK H PARENT
REMARK Flexibility Score: inf
ROOT
ATOM      1  C   UNL     1     137.841 136.895 139.938  1.00  0.00     0.000 C 
ENDROOT
BRANCH   1   2
ATOM      2  C   UNL     1     136.367 136.886 139.513  1.00  0.00     0.000 C 
BRANCH   2   3
ATOM      3  C   UNL     1     135.410 137.251 140.662  1.00  0.00     0.000 C 
BRANCH   3   4
ATOM      4  C   UNL     1     134.776 138.650 140.516  1.00  0.00     0.000 C 
BRANCH   4   5
ATOM      5  C   UNL     1     135.826 139.739 140.233  1.00  0.00     0.000 C 
BRANCH   5   6
ATOM      6  C   UNL     1     136.640 140.133 141.477  1.00  0.00     0.006 C 
BRANCH   6   7
ATOM      7  C   UNL     1     136.712 141.650 141.721  1.00  0.00     0.053 C 
BRANCH   7   8
ATOM      8  C   UNL     1     137.816 142.305 140.946  1.00  0.00     0.041 C 
ATOM      9  O   UNL     1     138.988 142.324 141.407  1.00  0.00    -0.550 OA
ATOM     10  O   UNL     1     137.546 142.926 139.734  1.00  0.00    -0.550 OA
ENDBRANCH   7   8
ENDBRANCH   6   7
ENDBRANCH   5   6
ENDBRANCH   4   5
ENDBRANCH   3   4
ENDBRANCH   2   3
ENDBRANCH   1   2
BRANCH   1  11
ATOM     11  C   UNL     1     137.992 136.475 141.408  1.00  0.00     0.000 C 
BRANCH  11  12
ATOM     12  C   UNL     1     139.355 135.825 141.707  1.00  0.00    -0.000 C 
BRANCH  12  13
ATOM     13  C   UNL     1     140.467 136.141 140.686  1.00  0.00    -0.000 C 
BRANCH  13  14
ATOM     14  C   UNL     1     141.291 134.928 140.216  1.00  0.00    -0.000 C 
BRANCH  14  15
ATOM     15  C   UNL     1     140.416 133.717 139.852  1.00  0.00    -0.000 C 
BRANCH  15  16
ATOM     16  C   UNL     1     140.360 133.465 138.337  1.00  0.00    -0.000 C 
BRANCH  16  17
ATOM     17  C   UNL     1     138.952 133.663 137.756  1.00  0.00    -0.003 C 
ATOM     18  C   UNL     1     137.881 133.248 138.761  1.00  0.00     0.004 C 
ENDBRANCH  16  17
ENDBRANCH  15  16
ENDBRANCH  14  15
ENDBRANCH  13  14
ENDBRANCH  12  13
ENDBRANCH  11  12
ENDBRANCH   1  11
TORSDOF 14
ENDMDL
MODEL 9
REMARK VINA RESULT:    -4.283      7.003     10.864
REMARK INTER + INTRA:          -9.464
REMARK INTER:                  -8.028
REMARK INTRA:                  -1.436
REMARK UNBOUND:                -1.675
REMARK SMILES CCCCCCCCCCCCCCCC(=O)[O-]
REMARK SMILES IDX 9 1 10 2 11 3 12 4 13 5 14 6 15 7 16 8 17 9 18 10 8 11 7 12
REMARK SMILES IDX 6 13 5 14 4 15 3 16 2 17 1 18
REMARK H PARENT
REMARK Flexibility Score: inf
ROOT
ATOM      1  C   UNL     1     136.739 138.093 140.076  1.00  0.00     0.000 C 
ENDROOT
BRANCH   1   2
ATOM      2  C   UNL     1     137.480 136.800 139.710  1.00  0.00     0.000 C 
BRANCH   2   3
ATOM      3  C   UNL     1     138.900 136.735 140.301  1.00  0.00     0.000 C 
BRANCH   3   4
ATOM      4  C   UNL     1     139.052 135.694 141.429  1.00  0.00     0.000 C 
BRANCH   4   5
ATOM      5  C   UNL     1     140.301 134.814 141.246  1.00  0.00     0.000 C 
BRANCH   5   6
ATOM      6  C   UNL     1     140.748 134.695 139.779  1.00  0.00     0.006 C 
BRANCH   6   7
ATOM      7  C   UNL     1     140.314 133.384 139.099  1.00  0.00     0.053 C 
BRANCH   7   8
ATOM      8  C   UNL     1     139.105 133.560 138.231  1.00  0.00     0.041 C 
ATOM      9  O   UNL     1     137.952 133.395 138.710  1.00  0.00    -0.550 OA
ATOM     10  O   UNL     1     139.251 133.869 136.885  1.00  0.00    -0.550 OA
ENDBRANCH   7   8
ENDBRANCH   6   7
ENDBRANCH   5   6
ENDBRANCH   4   5
ENDBRANCH   3   4
ENDBRANCH   2   3
ENDBRANCH   1   2
BRANCH   1  11
ATOM     11  C   UNL     1     136.099 138.729 138.834  1.00  0.00     0.000 C 
BRANCH  11  12
ATOM     12  C   UNL     1     134.576 138.512 138.769  1.00  0.00    -0.000 C 
BRANCH  12  13
ATOM     13  C   UNL     1     133.816 138.821 140.075  1.00  0.00    -0.000 C 
BRANCH  13  14
ATOM     14  C   UNL     1     132.854 140.021 140.007  1.00  0.00    -0.000 C 
BRANCH  14  15
ATOM     15  C   UNL     1     133.073 141.026 141.151  1.00  0.00    -0.000 C 
BRANCH  15  16
ATOM     16  C   UNL     1     134.431 140.840 141.847  1.00  0.00    -0.000 C 
BRANCH  16  17
ATOM     17  C   UNL     1     135.348 142.061 141.689  1.00  0.00    -0.003 C 
ATOM     18  C   UNL     1     136.743 141.644 141.231  1.00  0.00     0.004 C 
ENDBRANCH  16  17
ENDBRANCH  15  16
ENDBRANCH  14  15
ENDBRANCH  13  14
ENDBRANCH  12  13
ENDBRANCH  11  12
ENDBRANCH   1  11
TORSDOF 14
ENDMDL
