MODEL 1
REMARK VINA RESULT:    -4.743      0.000      0.000
REMARK INTER + INTRA:         -11.336
REMARK INTER:                  -8.901
REMARK INTRA:                  -2.435
REMARK UNBOUND:                -2.435
REMARK SMILES CCCCCCCCC=CCCCCCCCC(=O)[O-]
REMARK SMILES IDX 10 1 9 2 11 3 12 4 13 5 14 6 15 7 16 8 17 9 18 10 19 11
REMARK SMILES IDX 20 12 8 13 7 14 6 15 5 16 4 17 3 18 2 19 1 20
REMARK H PARENT
REMARK Flexibility Score: inf
ROOT
ATOM      1  C   UNL     1      -8.657 -15.905  -3.792  1.00  0.00    -0.031 C 
ATOM      2  C   UNL     1      -7.949 -15.812  -2.651  1.00  0.00    -0.031 C 
ENDROOT
BRANCH   1   3
ATOM      3  C   UNL     1      -8.214 -16.667  -5.017  1.00  0.00     0.027 C 
BRANCH   3   4
ATOM      4  C   UNL     1      -7.633 -15.738  -6.093  1.00  0.00     0.004 C 
BRANCH   4   5
ATOM      5  C   UNL     1      -6.100 -15.656  -6.021  1.00  0.00     0.000 C 
BRANCH   5   6
ATOM      6  C   UNL     1      -5.578 -14.209  -6.027  1.00  0.00     0.000 C 
BRANCH   6   7
ATOM      7  C   UNL     1      -6.665 -13.158  -5.713  1.00  0.00     0.000 C 
BRANCH   7   8
ATOM      8  C   UNL     1      -6.631 -12.710  -4.241  1.00  0.00     0.006 C 
BRANCH   8   9
ATOM      9  C   UNL     1      -6.752 -11.187  -4.094  1.00  0.00     0.053 C 
BRANCH   9  10
ATOM     10  C   UNL     1      -8.077 -10.684  -4.579  1.00  0.00     0.041 C 
ATOM     11  O   UNL     1      -8.130  -9.740  -5.412  1.00  0.00    -0.550 OA
ATOM     12  O   UNL     1      -9.252 -11.281  -4.140  1.00  0.00    -0.550 OA
ENDBRANCH   9  10
ENDBRANCH   8   9
ENDBRANCH   7   8
ENDBRANCH   6   7
ENDBRANCH   5   6
ENDBRANCH   4   5
ENDBRANCH   3   4
ENDBRANCH   1   3
BRANCH   2  13
ATOM     13  C   UNL     1      -6.561 -16.371  -2.454  1.00  0.00     0.027 C 
BRANCH  13  14
ATOM     14  C   UNL     1      -6.594 -17.829  -1.972  1.00  0.00     0.004 C 
BRANCH  14  15
ATOM     15  C   UNL     1      -5.367 -18.626  -2.446  1.00  0.00     0.000 C 
BRANCH  15  16
ATOM     16  C   UNL     1      -5.364 -18.839  -3.975  1.00  0.00     0.000 C 
BRANCH  16  17
ATOM     17  C   UNL     1      -5.910 -20.211  -4.406  1.00  0.00    -0.000 C 
BRANCH  17  18
ATOM     18  C   UNL     1      -7.367 -20.148  -4.894  1.00  0.00    -0.000 C 
BRANCH  18  19
ATOM     19  C   UNL     1      -7.516 -20.584  -6.360  1.00  0.00    -0.003 C 
ATOM     20  C   UNL     1      -7.404 -19.414  -7.337  1.00  0.00     0.004 C 
ENDBRANCH  18  19
ENDBRANCH  17  18
ENDBRANCH  16  17
ENDBRANCH  15  16
ENDBRANCH  14  15
ENDBRANCH  13  14
ENDBRANCH   2  13
TORSDOF 15
ENDMDL
MODEL 2
REMARK VINA RESULT:    -4.470      1.650      3.744
REMARK INTER + INTRA:         -10.824
REMARK INTER:                  -8.715
REMARK INTRA:                  -2.109
REMARK UNBOUND:                -2.435
REMARK SMILES CCCCCCCCC=CCCCCCCCC(=O)[O-]
REMARK SMILES IDX 10 1 9 2 11 3 12 4 13 5 14 6 15 7 16 8 17 9 18 10 19 11
REMARK SMILES IDX 20 12 8 13 7 14 6 15 5 16 4 17 3 18 2 19 1 20
REMARK H PARENT
REMARK Flexibility Score: inf
ROOT
ATOM      1  C   UNL     1      -5.933 -15.301  -5.894  1.00  0.00    -0.031 C 
ATOM      2  C   UNL     1      -6.171 -16.624  -5.970  1.00  0.00    -0.031 C 
ENDROOT
BRANCH   1   3
ATOM      3  C   UNL     1      -6.989 -14.251  -5.649  1.00  0.00     0.027 C 
BRANCH   3   4
ATOM      4  C   UNL     1      -6.642 -13.355  -4.451  1.00  0.00     0.004 C 
BRANCH   4   5
ATOM      5  C   UNL     1      -6.949 -11.874  -4.728  1.00  0.00     0.000 C 
BRANCH   5   6
ATOM      6  C   UNL     1      -7.039 -11.554  -6.230  1.00  0.00     0.000 C 
BRANCH   6   7
ATOM      7  C   UNL     1      -8.092 -10.478  -6.571  1.00  0.00     0.000 C 
BRANCH   7   8
ATOM      8  C   UNL     1      -8.760  -9.900  -5.311  1.00  0.00     0.006 C 
BRANCH   8   9
ATOM      9  C   UNL     1      -9.043  -8.397  -5.441  1.00  0.00     0.053 C 
BRANCH   9  10
ATOM     10  C   UNL     1      -7.992  -7.573  -4.764  1.00  0.00     0.041 C 
ATOM     11  O   UNL     1      -7.223  -8.100  -3.916  1.00  0.00    -0.550 OA
ATOM     12  O   UNL     1      -7.837  -6.232  -5.093  1.00  0.00    -0.550 OA
ENDBRANCH   9  10
ENDBRANCH   8   9
ENDBRANCH   7   8
ENDBRANCH   6   7
ENDBRANCH   5   6
ENDBRANCH   4   5
ENDBRANCH   3   4
ENDBRANCH   1   3
BRANCH   2  13
ATOM     13  C   UNL     1      -7.542 -17.253  -5.919  1.00  0.00     0.027 C 
BRANCH  13  14
ATOM     14  C   UNL     1      -7.532 -18.586  -5.156  1.00  0.00     0.004 C 
BRANCH  14  15
ATOM     15  C   UNL     1      -6.104 -19.086  -4.877  1.00  0.00     0.000 C 
BRANCH  15  16
ATOM     16  C   UNL     1      -5.935 -19.592  -3.429  1.00  0.00     0.000 C 
BRANCH  16  17
ATOM     17  C   UNL     1      -5.269 -18.569  -2.493  1.00  0.00    -0.000 C 
BRANCH  17  18
ATOM     18  C   UNL     1      -6.287 -17.767  -1.665  1.00  0.00    -0.000 C 
BRANCH  18  19
ATOM     19  C   UNL     1      -6.606 -16.400  -2.290  1.00  0.00    -0.003 C 
ATOM     20  C   UNL     1      -8.108 -16.127  -2.377  1.00  0.00     0.004 C 
ENDBRANCH  18  19
ENDBRANCH  17  18
ENDBRANCH  16  17
ENDBRANCH  15  16
ENDBRANCH  14  15
ENDBRANCH  13  14
ENDBRANCH   2  13
TORSDOF 15
ENDMDL
MODEL 3
REMARK VINA RESULT:    -4.466      1.078      3.089
REMARK INTER + INTRA:         -10.817
REMARK INTER:                  -8.116
REMARK INTRA:                  -2.701
REMARK UNBOUND:                -2.435
REMARK SMILES CCCCCCCCC=CCCCCCCCC(=O)[O-]
REMARK SMILES IDX 10 1 9 2 11 3 12 4 13 5 14 6 15 7 16 8 17 9 18 10 19 11
REMARK SMILES IDX 20 12 8 13 7 14 6 15 5 16 4 17 3 18 2 19 1 20
REMARK H PARENT
REMARK Flexibility Score: inf
ROOT
ATOM      1  C   UNL     1      -7.944 -19.242  -5.110  1.00  0.00    -0.031 C 
ATOM      2  C   UNL     1      -7.298 -19.803  -4.070  1.00  0.00    -0.031 C 
ENDROOT
BRANCH   1   3
ATOM      3  C   UNL     1      -7.269 -18.679  -6.337  1.00  0.00     0.027 C 
BRANCH   3   4
ATOM      4  C   UNL     1      -7.329 -17.145  -6.373  1.00  0.00     0.004 C 
BRANCH   4   5
ATOM      5  C   UNL     1      -6.119 -16.501  -5.677  1.00  0.00     0.000 C 
BRANCH   5   6
ATOM      6  C   UNL     1      -5.933 -15.021  -6.051  1.00  0.00     0.000 C 
BRANCH   6   7
ATOM      7  C   UNL     1      -6.246 -14.047  -4.895  1.00  0.00     0.000 C 
BRANCH   7   8
ATOM      8  C   UNL     1      -6.568 -12.629  -5.402  1.00  0.00     0.006 C 
BRANCH   8   9
ATOM      9  C   UNL     1      -6.752 -11.629  -4.252  1.00  0.00     0.053 C 
BRANCH   9  10
ATOM     10  C   UNL     1      -8.136 -11.057  -4.230  1.00  0.00     0.041 C 
ATOM     11  O   UNL     1      -8.433 -10.148  -3.409  1.00  0.00    -0.550 OA
ATOM     12  O   UNL     1      -9.089 -11.501  -5.138  1.00  0.00    -0.550 OA
ENDBRANCH   9  10
ENDBRANCH   8   9
ENDBRANCH   7   8
ENDBRANCH   6   7
ENDBRANCH   5   6
ENDBRANCH   4   5
ENDBRANCH   3   4
ENDBRANCH   1   3
BRANCH   2  13
ATOM     13  C   UNL     1      -5.797 -19.868  -3.927  1.00  0.00     0.027 C 
BRANCH  13  14
ATOM     14  C   UNL     1      -5.285 -18.922  -2.830  1.00  0.00     0.004 C 
BRANCH  14  15
ATOM     15  C   UNL     1      -6.099 -19.046  -1.530  1.00  0.00     0.000 C 
BRANCH  15  16
ATOM     16  C   UNL     1      -6.609 -17.679  -1.029  1.00  0.00     0.000 C 
BRANCH  16  17
ATOM     17  C   UNL     1      -6.598 -16.583  -2.108  1.00  0.00    -0.000 C 
BRANCH  17  18
ATOM     18  C   UNL     1      -7.907 -15.779  -2.158  1.00  0.00    -0.000 C 
BRANCH  18  19
ATOM     19  C   UNL     1      -8.928 -16.378  -3.136  1.00  0.00    -0.003 C 
ATOM     20  C   UNL     1      -9.568 -15.325  -4.041  1.00  0.00     0.004 C 
ENDBRANCH  18  19
ENDBRANCH  17  18
ENDBRANCH  16  17
ENDBRANCH  15  16
ENDBRANCH  14  15
ENDBRANCH  13  14
ENDBRANCH   2  13
TORSDOF 15
ENDMDL
MODEL 4
REMARK VINA RESULT:    -4.410      1.512      3.401
REMARK INTER + INTRA:         -10.712
REMARK INTER:                  -8.320
REMARK INTRA:                  -2.392
REMARK UNBOUND:                -2.435
REMARK SMILES CCCCCCCCC=CCCCCCCCC(=O)[O-]
REMARK SMILES IDX 10 1 9 2 11 3 12 4 13 5 14 6 15 7 16 8 17 9 18 10 19 11
REMARK SMILES IDX 20 12 8 13 7 14 6 15 5 16 4 17 3 18 2 19 1 20
REMARK H PARENT
REMARK Flexibility Score: inf
ROOT
ATOM      1  C   UNL     1      -5.771 -18.679  -1.876  1.00  0.00    -0.031 C 
ATOM      2  C   UNL     1      -4.884 -18.616  -2.886  1.00  0.00    -0.031 C 
ENDROOT
BRANCH   1   3
ATOM      3  C   UNL     1      -7.224 -19.057  -2.032  1.00  0.00     0.027 C 
BRANCH   3   4
ATOM      4  C   UNL     1      -8.163 -17.936  -1.561  1.00  0.00     0.004 C 
BRANCH   4   5
ATOM      5  C   UNL     1      -8.509 -16.956  -2.694  1.00  0.00     0.000 C 
BRANCH   5   6
ATOM      6  C   UNL     1      -7.721 -15.638  -2.605  1.00  0.00     0.000 C 
BRANCH   6   7
ATOM      7  C   UNL     1      -7.818 -14.772  -3.879  1.00  0.00     0.000 C 
BRANCH   7   8
ATOM      8  C   UNL     1      -6.512 -14.008  -4.162  1.00  0.00     0.006 C 
BRANCH   8   9
ATOM      9  C   UNL     1      -6.524 -13.324  -5.536  1.00  0.00     0.053 C 
BRANCH   9  10
ATOM     10  C   UNL     1      -6.876 -11.872  -5.431  1.00  0.00     0.041 C 
ATOM     11  O   UNL     1      -6.723 -11.260  -4.340  1.00  0.00    -0.550 OA
ATOM     12  O   UNL     1      -7.340 -11.184  -6.545  1.00  0.00    -0.550 OA
ENDBRANCH   9  10
ENDBRANCH   8   9
ENDBRANCH   7   8
ENDBRANCH   6   7
ENDBRANCH   5   6
ENDBRANCH   4   5
ENDBRANCH   3   4
ENDBRANCH   1   3
BRANCH   2  13
ATOM     13  C   UNL     1      -5.225 -18.816  -4.342  1.00  0.00     0.027 C 
BRANCH  13  14
ATOM     14  C   UNL     1      -5.555 -17.489  -5.041  1.00  0.00     0.004 C 
BRANCH  14  15
ATOM     15  C   UNL     1      -6.677 -17.644  -6.082  1.00  0.00     0.000 C 
BRANCH  15  16
ATOM     16  C   UNL     1      -7.621 -18.819  -5.754  1.00  0.00     0.000 C 
BRANCH  16  17
ATOM     17  C   UNL     1      -7.588 -19.947  -6.800  1.00  0.00    -0.000 C 
BRANCH  17  18
ATOM     18  C   UNL     1      -7.517 -21.346  -6.168  1.00  0.00    -0.000 C 
BRANCH  18  19
ATOM     19  C   UNL     1      -6.073 -21.833  -5.975  1.00  0.00    -0.003 C 
ATOM     20  C   UNL     1      -5.979 -23.058  -5.067  1.00  0.00     0.004 C 
ENDBRANCH  18  19
ENDBRANCH  17  18
ENDBRANCH  16  17
ENDBRANCH  15  16
ENDBRANCH  14  15
ENDBRANCH  13  14
ENDBRANCH   2  13
TORSDOF 15
ENDMDL
MODEL 5
REMARK VINA RESULT:    -4.390      3.753      7.743
REMARK INTER + INTRA:         -10.674
REMARK INTER:                  -8.889
REMARK INTRA:                  -1.785
REMARK UNBOUND:                -2.435
REMARK SMILES CCCCCCCCC=CCCCCCCCC(=O)[O-]
REMARK SMILES IDX 10 1 9 2 11 3 12 4 13 5 14 6 15 7 16 8 17 9 18 10 19 11
REMARK SMILES IDX 20 12 8 13 7 14 6 15 5 16 4 17 3 18 2 19 1 20
REMARK H PARENT
REMARK Flexibility Score: inf
ROOT
ATOM      1  C   UNL     1      -6.375 -15.007  -6.338  1.00  0.00    -0.031 C 
ATOM      2  C   UNL     1      -6.016 -14.058  -5.454  1.00  0.00    -0.031 C 
ENDROOT
BRANCH   1   3
ATOM      3  C   UNL     1      -7.559 -15.929  -6.174  1.00  0.00     0.027 C 
BRANCH   3   4
ATOM      4  C   UNL     1      -7.158 -17.407  -6.295  1.00  0.00     0.004 C 
BRANCH   4   5
ATOM      5  C   UNL     1      -5.949 -17.753  -5.410  1.00  0.00     0.000 C 
BRANCH   5   6
ATOM      6  C   UNL     1      -6.355 -18.375  -4.063  1.00  0.00     0.000 C 
BRANCH   6   7
ATOM      7  C   UNL     1      -5.680 -19.734  -3.780  1.00  0.00     0.000 C 
BRANCH   7   8
ATOM      8  C   UNL     1      -6.702 -20.879  -3.669  1.00  0.00     0.006 C 
BRANCH   8   9
ATOM      9  C   UNL     1      -6.582 -21.879  -4.827  1.00  0.00     0.053 C 
BRANCH   9  10
ATOM     10  C   UNL     1      -7.411 -21.469  -6.005  1.00  0.00     0.041 C 
ATOM     11  O   UNL     1      -8.662 -21.624  -5.984  1.00  0.00    -0.550 OA
ATOM     12  O   UNL     1      -6.810 -20.882  -7.111  1.00  0.00    -0.550 OA
ENDBRANCH   9  10
ENDBRANCH   8   9
ENDBRANCH   7   8
ENDBRANCH   6   7
ENDBRANCH   5   6
ENDBRANCH   4   5
ENDBRANCH   3   4
ENDBRANCH   1   3
BRANCH   2  13
ATOM     13  C   UNL     1      -6.680 -13.834  -4.118  1.00  0.00     0.027 C 
BRANCH  13  14
ATOM     14  C   UNL     1      -7.692 -12.679  -4.168  1.00  0.00     0.004 C 
BRANCH  14  15
ATOM     15  C   UNL     1      -7.072 -11.387  -4.725  1.00  0.00     0.000 C 
BRANCH  15  16
ATOM     16  C   UNL     1      -8.066 -10.207  -4.707  1.00  0.00     0.000 C 
BRANCH  16  17
ATOM     17  C   UNL     1      -8.382  -9.646  -6.104  1.00  0.00    -0.000 C 
BRANCH  17  18
ATOM     18  C   UNL     1      -8.230 -10.695  -7.218  1.00  0.00    -0.000 C 
BRANCH  18  19
ATOM     19  C   UNL     1      -9.577 -11.299  -7.645  1.00  0.00    -0.003 C 
ATOM     20  C   UNL     1      -9.726 -12.762  -7.229  1.00  0.00     0.004 C 
ENDBRANCH  18  19
ENDBRANCH  17  18
ENDBRANCH  16  17
ENDBRANCH  15  16
ENDBRANCH  14  15
ENDBRANCH  13  14
ENDBRANCH   2  13
TORSDOF 15
ENDMDL
MODEL 6
REMARK VINA RESULT:    -4.389      1.429      3.244
REMARK INTER + INTRA:         -10.674
REMARK INTER:                  -8.224
REMARK INTRA:                  -2.449
REMARK UNBOUND:                -2.435
REMARK SMILES CCCCCCCCC=CCCCCCCCC(=O)[O-]
REMARK SMILES IDX 10 1 9 2 11 3 12 4 13 5 14 6 15 7 16 8 17 9 18 10 19 11
REMARK SMILES IDX 20 12 8 13 7 14 6 15 5 16 4 17 3 18 2 19 1 20
REMARK H PARENT
REMARK Flexibility Score: inf
ROOT
ATOM      1  C   UNL     1      -7.185 -17.821  -6.505  1.00  0.00    -0.031 C 
ATOM      2  C   UNL     1      -7.126 -19.090  -6.949  1.00  0.00    -0.031 C 
ENDROOT
BRANCH   1   3
ATOM      3  C   UNL     1      -7.909 -17.381  -5.256  1.00  0.00     0.027 C 
BRANCH   3   4
ATOM      4  C   UNL     1      -7.582 -15.927  -4.883  1.00  0.00     0.004 C 
BRANCH   4   5
ATOM      5  C   UNL     1      -6.843 -15.192  -6.013  1.00  0.00     0.000 C 
BRANCH   5   6
ATOM      6  C   UNL     1      -5.999 -14.011  -5.505  1.00  0.00     0.000 C 
BRANCH   6   7
ATOM      7  C   UNL     1      -6.679 -13.204  -4.378  1.00  0.00     0.000 C 
BRANCH   7   8
ATOM      8  C   UNL     1      -6.772 -11.704  -4.713  1.00  0.00     0.006 C 
BRANCH   8   9
ATOM      9  C   UNL     1      -7.242 -11.458  -6.153  1.00  0.00     0.053 C 
BRANCH   9  10
ATOM     10  C   UNL     1      -8.732 -11.555  -6.275  1.00  0.00     0.041 C 
ATOM     11  O   UNL     1      -9.453 -10.549  -6.038  1.00  0.00    -0.550 OA
ATOM     12  O   UNL     1      -9.323 -12.744  -6.684  1.00  0.00    -0.550 OA
ENDBRANCH   9  10
ENDBRANCH   8   9
ENDBRANCH   7   8
ENDBRANCH   6   7
ENDBRANCH   5   6
ENDBRANCH   4   5
ENDBRANCH   3   4
ENDBRANCH   1   3
BRANCH   2  13
ATOM     13  C   UNL     1      -7.856 -20.253  -6.323  1.00  0.00     0.027 C 
BRANCH  13  14
ATOM     14  C   UNL     1      -6.886 -21.329  -5.811  1.00  0.00     0.004 C 
BRANCH  14  15
ATOM     15  C   UNL     1      -7.023 -21.561  -4.296  1.00  0.00     0.000 C 
BRANCH  15  16
ATOM     16  C   UNL     1      -8.135 -20.695  -3.670  1.00  0.00     0.000 C 
BRANCH  16  17
ATOM     17  C   UNL     1      -7.656 -19.836  -2.488  1.00  0.00    -0.000 C 
BRANCH  17  18
ATOM     18  C   UNL     1      -6.125 -19.820  -2.342  1.00  0.00    -0.000 C 
BRANCH  18  19
ATOM     19  C   UNL     1      -5.509 -18.473  -2.749  1.00  0.00    -0.003 C 
ATOM     20  C   UNL     1      -4.632 -18.579  -3.996  1.00  0.00     0.004 C 
ENDBRANCH  18  19
ENDBRANCH  17  18
ENDBRANCH  16  17
ENDBRANCH  15  16
ENDBRANCH  14  15
ENDBRANCH  13  14
ENDBRANCH   2  13
TORSDOF 15
ENDMDL
MODEL 7
REMARK VINA RESULT:    -4.348      1.952      3.639
REMARK INTER + INTRA:         -10.596
REMARK INTER:                  -8.080
REMARK INTRA:                  -2.515
REMARK UNBOUND:                -2.435
REMARK SMILES CCCCCCCCC=CCCCCCCCC(=O)[O-]
REMARK SMILES IDX 10 1 9 2 11 3 12 4 13 5 14 6 15 7 16 8 17 9 18 10 19 11
REMARK SMILES IDX 20 12 8 13 7 14 6 15 5 16 4 17 3 18 2 19 1 20
REMARK H PARENT
REMARK Flexibility Score: inf
ROOT
ATOM      1  C   UNL     1      -6.275 -15.456  -5.928  1.00  0.00    -0.031 C 
ATOM      2  C   UNL     1      -5.909 -16.743  -5.777  1.00  0.00    -0.031 C 
ENDROOT
BRANCH   1   3
ATOM      3  C   UNL     1      -7.702 -14.980  -6.064  1.00  0.00     0.027 C 
BRANCH   3   4
ATOM      4  C   UNL     1      -8.080 -13.975  -4.966  1.00  0.00     0.004 C 
BRANCH   4   5
ATOM      5  C   UNL     1      -6.980 -12.925  -4.739  1.00  0.00     0.000 C 
BRANCH   5   6
ATOM      6  C   UNL     1      -6.825 -11.958  -5.925  1.00  0.00     0.000 C 
BRANCH   6   7
ATOM      7  C   UNL     1      -7.865 -10.817  -5.934  1.00  0.00     0.000 C 
BRANCH   7   8
ATOM      8  C   UNL     1      -8.362 -10.495  -7.354  1.00  0.00     0.006 C 
BRANCH   8   9
ATOM      9  C   UNL     1      -9.890 -10.583  -7.470  1.00  0.00     0.053 C 
BRANCH   9  10
ATOM     10  C   UNL     1     -10.395 -11.951  -7.128  1.00  0.00     0.041 C 
ATOM     11  O   UNL     1     -10.049 -12.945  -7.821  1.00  0.00    -0.550 OA
ATOM     12  O   UNL     1     -11.219 -12.134  -6.025  1.00  0.00    -0.550 OA
ENDBRANCH   9  10
ENDBRANCH   8   9
ENDBRANCH   7   8
ENDBRANCH   6   7
ENDBRANCH   5   6
ENDBRANCH   4   5
ENDBRANCH   3   4
ENDBRANCH   1   3
BRANCH   2  13
ATOM     13  C   UNL     1      -6.857 -17.916  -5.818  1.00  0.00     0.027 C 
BRANCH  13  14
ATOM     14  C   UNL     1      -6.440 -19.024  -4.839  1.00  0.00     0.004 C 
BRANCH  14  15
ATOM     15  C   UNL     1      -5.106 -18.709  -4.140  1.00  0.00     0.000 C 
BRANCH  15  16
ATOM     16  C   UNL     1      -5.181 -18.924  -2.614  1.00  0.00     0.000 C 
BRANCH  16  17
ATOM     17  C   UNL     1      -6.393 -18.242  -1.956  1.00  0.00    -0.000 C 
BRANCH  17  18
ATOM     18  C   UNL     1      -6.344 -16.709  -2.056  1.00  0.00    -0.000 C 
BRANCH  18  19
ATOM     19  C   UNL     1      -7.743 -16.075  -2.071  1.00  0.00    -0.003 C 
ATOM     20  C   UNL     1      -8.776 -16.943  -2.787  1.00  0.00     0.004 C 
ENDBRANCH  18  19
ENDBRANCH  17  18
ENDBRANCH  16  17
ENDBRANCH  15  16
ENDBRANCH  14  15
ENDBRANCH  13  14
ENDBRANCH   2  13
TORSDOF 15
ENDMDL
MODEL 8
REMARK VINA RESULT:    -4.333      3.176      7.075
REMARK INTER + INTRA:         -10.568
REMARK INTER:                  -8.673
REMARK INTRA:                  -1.895
REMARK UNBOUND:                -2.435
REMARK SMILES CCCCCCCCC=CCCCCCCCC(=O)[O-]
REMARK SMILES IDX 10 1 9 2 11 3 12 4 13 5 14 6 15 7 16 8 17 9 18 10 19 11
REMARK SMILES IDX 20 12 8 13 7 14 6 15 5 16 4 17 3 18 2 19 1 20
REMARK H PARENT
REMARK Flexibility Score: inf
ROOT
ATOM      1  C   UNL     1      -5.871 -15.137  -6.180  1.00  0.00    -0.031 C 
ATOM      2  C   UNL     1      -5.938 -13.839  -5.830  1.00  0.00    -0.031 C 
ENDROOT
BRANCH   1   3
ATOM      3  C   UNL     1      -6.417 -16.278  -5.356  1.00  0.00     0.027 C 
BRANCH   3   4
ATOM      4  C   UNL     1      -7.566 -17.005  -6.071  1.00  0.00     0.004 C 
BRANCH   4   5
ATOM      5  C   UNL     1      -7.132 -18.374  -6.620  1.00  0.00     0.000 C 
BRANCH   5   6
ATOM      6  C   UNL     1      -7.736 -19.550  -5.834  1.00  0.00     0.000 C 
BRANCH   6   7
ATOM      7  C   UNL     1      -6.734 -20.693  -5.565  1.00  0.00     0.000 C 
BRANCH   7   8
ATOM      8  C   UNL     1      -6.345 -20.785  -4.078  1.00  0.00     0.006 C 
BRANCH   8   9
ATOM      9  C   UNL     1      -6.984 -19.670  -3.240  1.00  0.00     0.053 C 
BRANCH   9  10
ATOM     10  C   UNL     1      -5.954 -18.747  -2.665  1.00  0.00     0.041 C 
ATOM     11  O   UNL     1      -6.238 -18.016  -1.679  1.00  0.00    -0.550 OA
ATOM     12  O   UNL     1      -4.670 -18.718  -3.195  1.00  0.00    -0.550 OA
ENDBRANCH   9  10
ENDBRANCH   8   9
ENDBRANCH   7   8
ENDBRANCH   6   7
ENDBRANCH   5   6
ENDBRANCH   4   5
ENDBRANCH   3   4
ENDBRANCH   1   3
BRANCH   2  13
ATOM     13  C   UNL     1      -6.482 -13.332  -4.517  1.00  0.00     0.027 C 
BRANCH  13  14
ATOM     14  C   UNL     1      -6.990 -11.886  -4.627  1.00  0.00     0.004 C 
BRANCH  14  15
ATOM     15  C   UNL     1      -7.144 -11.435  -6.090  1.00  0.00     0.000 C 
BRANCH  15  16
ATOM     16  C   UNL     1      -8.443 -10.635  -6.321  1.00  0.00     0.000 C 
BRANCH  16  17
ATOM     17  C   UNL     1      -9.155 -10.984  -7.639  1.00  0.00    -0.000 C 
BRANCH  17  18
ATOM     18  C   UNL     1      -9.711 -12.417  -7.657  1.00  0.00    -0.000 C 
BRANCH  18  19
ATOM     19  C   UNL     1     -10.387 -12.803  -6.333  1.00  0.00    -0.003 C 
ATOM     20  C   UNL     1      -9.916 -14.156  -5.803  1.00  0.00     0.004 C 
ENDBRANCH  18  19
ENDBRANCH  17  18
ENDBRANCH  16  17
ENDBRANCH  15  16
ENDBRANCH  14  15
ENDBRANCH  13  14
ENDBRANCH   2  13
TORSDOF 15
ENDMDL
MODEL 9
REMARK VINA RESULT:    -4.302      3.332      7.984
REMARK INTER + INTRA:         -10.509
REMARK INTER:                  -7.830
REMARK INTRA:                  -2.679
REMARK UNBOUND:                -2.435
REMARK SMILES CCCCCCCCC=CCCCCCCCC(=O)[O-]
REMARK SMILES IDX 10 1 9 2 11 3 12 4 13 5 14 6 15 7 16 8 17 9 18 10 19 11
REMARK SMILES IDX 20 12 8 13 7 14 6 15 5 16 4 17 3 18 2 19 1 20
REMARK H PARENT
REMARK Flexibility Score: inf
ROOT
ATOM      1  C   UNL     1      -8.867 -10.710  -7.454  1.00  0.00    -0.031 C 
ATOM      2  C   UNL     1      -7.662 -10.695  -6.854  1.00  0.00    -0.031 C 
ENDROOT
BRANCH   1   3
ATOM      3  C   UNL     1      -9.794 -11.901  -7.489  1.00  0.00     0.027 C 
BRANCH   3   4
ATOM      4  C   UNL     1     -10.711 -11.951  -6.258  1.00  0.00     0.004 C 
BRANCH   4   5
ATOM      5  C   UNL     1     -10.485 -13.220  -5.419  1.00  0.00     0.000 C 
BRANCH   5   6
ATOM      6  C   UNL     1      -9.748 -14.325  -6.195  1.00  0.00     0.000 C 
BRANCH   6   7
ATOM      7  C   UNL     1      -8.935 -15.278  -5.293  1.00  0.00     0.000 C 
BRANCH   7   8
ATOM      8  C   UNL     1      -7.496 -15.473  -5.802  1.00  0.00     0.006 C 
BRANCH   8   9
ATOM      9  C   UNL     1      -7.232 -16.913  -6.263  1.00  0.00     0.053 C 
BRANCH   9  10
ATOM     10  C   UNL     1      -6.808 -17.791  -5.126  1.00  0.00     0.041 C 
ATOM     11  O   UNL     1      -6.949 -19.041  -5.205  1.00  0.00    -0.550 OA
ATOM     12  O   UNL     1      -6.225 -17.235  -3.994  1.00  0.00    -0.550 OA
ENDBRANCH   9  10
ENDBRANCH   8   9
ENDBRANCH   7   8
ENDBRANCH   6   7
ENDBRANCH   5   6
ENDBRANCH   4   5
ENDBRANCH   3   4
ENDBRANCH   1   3
BRANCH   2  13
ATOM     13  C   UNL     1      -7.010 -11.893  -6.207  1.00  0.00     0.027 C 
BRANCH  13  14
ATOM     14  C   UNL     1      -6.703 -11.647  -4.723  1.00  0.00     0.004 C 
BRANCH  14  15
ATOM     15  C   UNL     1      -7.838 -10.887  -4.013  1.00  0.00     0.000 C 
BRANCH  15  16
ATOM     16  C   UNL     1      -7.318  -9.679  -3.208  1.00  0.00     0.000 C 
BRANCH  16  17
ATOM     17  C   UNL     1      -8.222  -8.438  -3.306  1.00  0.00    -0.000 C 
BRANCH  17  18
ATOM     18  C   UNL     1      -8.062  -7.685  -4.636  1.00  0.00    -0.000 C 
BRANCH  18  19
ATOM     19  C   UNL     1      -9.390  -7.545  -5.396  1.00  0.00    -0.003 C 
ATOM     20  C   UNL     1     -10.495  -8.431  -4.822  1.00  0.00     0.004 C 
ENDBRANCH  18  19
ENDBRANCH  17  18
ENDBRANCH  16  17
ENDBRANCH  15  16
ENDBRANCH  14  15
ENDBRANCH  13  14
ENDBRANCH   2  13
TORSDOF 15
ENDMDL
