MODEL 1
REMARK VINA RESULT:    -2.695      0.000      0.000
REMARK INTER + INTRA:          -5.904
REMARK INTER:                  -4.586
REMARK INTRA:                  -1.317
REMARK UNBOUND:                -1.317
REMARK SMILES CCCCCCCCCCCCCC(=O)[O-]
REMARK SMILES IDX 8 1 9 2 10 3 11 4 12 5 13 6 14 7 15 8 16 9 7 10 6 11 5 12
REMARK SMILES IDX 4 13 3 14 2 15 1 16
REMARK H PARENT
REMARK Flexibility Score: inf
ROOT
ATOM      1  C   UNL     1      22.582 -15.130  14.248  1.00  0.00     0.000 C 
ENDROOT
BRANCH   1   2
ATOM      2  C   UNL     1      23.122 -16.248  13.339  1.00  0.00     0.000 C 
BRANCH   2   3
ATOM      3  C   UNL     1      22.010 -17.142  12.762  1.00  0.00     0.000 C 
BRANCH   3   4
ATOM      4  C   UNL     1      22.275 -17.681  11.343  1.00  0.00     0.000 C 
BRANCH   4   5
ATOM      5  C   UNL     1      20.984 -17.922  10.544  1.00  0.00     0.006 C 
BRANCH   5   6
ATOM      6  C   UNL     1      19.739 -17.416  11.285  1.00  0.00     0.053 C 
BRANCH   6   7
ATOM      7  C   UNL     1      18.677 -16.949  10.337  1.00  0.00     0.041 C 
ATOM      8  O   UNL     1      18.751 -15.805   9.817  1.00  0.00    -0.550 OA
ATOM      9  O   UNL     1      17.620 -17.788  10.006  1.00  0.00    -0.550 OA
ENDBRANCH   6   7
ENDBRANCH   5   6
ENDBRANCH   4   5
ENDBRANCH   3   4
ENDBRANCH   2   3
ENDBRANCH   1   2
BRANCH   1  10
ATOM     10  C   UNL     1      22.874 -15.389  15.736  1.00  0.00     0.000 C 
BRANCH  10  11
ATOM     11  C   UNL     1      21.588 -15.535  16.569  1.00  0.00    -0.000 C 
BRANCH  11  12
ATOM     12  C   UNL     1      20.751 -16.764  16.170  1.00  0.00    -0.000 C 
BRANCH  12  13
ATOM     13  C   UNL     1      19.258 -16.486  15.919  1.00  0.00    -0.000 C 
BRANCH  13  14
ATOM     14  C   UNL     1      18.999 -15.749  14.593  1.00  0.00    -0.000 C 
BRANCH  14  15
ATOM     15  C   UNL     1      17.698 -16.202  13.912  1.00  0.00    -0.003 C 
ATOM     16  C   UNL     1      17.321 -17.643  14.251  1.00  0.00     0.004 C 
ENDBRANCH  14  15
ENDBRANCH  13  14
ENDBRANCH  12  13
ENDBRANCH  11  12
ENDBRANCH  10  11
ENDBRANCH   1  10
TORSDOF 12
ENDMDL
MODEL 2
REMARK VINA RESULT:    -2.628      2.858      4.992
REMARK INTER + INTRA:          -5.789
REMARK INTER:                  -4.453
REMARK INTRA:                  -1.336
REMARK UNBOUND:                -1.317
REMARK SMILES CCCCCCCCCCCCCC(=O)[O-]
REMARK SMILES IDX 8 1 9 2 10 3 11 4 12 5 13 6 14 7 15 8 16 9 7 10 6 11 5 12
REMARK SMILES IDX 4 13 3 14 2 15 1 16
REMARK H PARENT
REMARK Flexibility Score: inf
ROOT
ATOM      1  C   UNL     1      19.373 -17.077  10.391  1.00  0.00     0.000 C 
ENDROOT
BRANCH   1   2
ATOM      2  C   UNL     1      20.197 -18.079  11.218  1.00  0.00     0.000 C 
BRANCH   2   3
ATOM      3  C   UNL     1      21.699 -17.742  11.246  1.00  0.00     0.000 C 
BRANCH   3   4
ATOM      4  C   UNL     1      22.318 -17.633  12.652  1.00  0.00     0.000 C 
BRANCH   4   5
ATOM      5  C   UNL     1      21.683 -16.521  13.503  1.00  0.00     0.006 C 
BRANCH   5   6
ATOM      6  C   UNL     1      21.708 -16.851  15.001  1.00  0.00     0.053 C 
BRANCH   6   7
ATOM      7  C   UNL     1      21.941 -15.630  15.838  1.00  0.00     0.041 C 
ATOM      8  O   UNL     1      21.870 -15.699  17.092  1.00  0.00    -0.550 OA
ATOM      9  O   UNL     1      22.266 -14.422  15.232  1.00  0.00    -0.550 OA
ENDBRANCH   6   7
ENDBRANCH   5   6
ENDBRANCH   4   5
ENDBRANCH   3   4
ENDBRANCH   2   3
ENDBRANCH   1   2
BRANCH   1  10
ATOM     10  C   UNL     1      17.870 -17.401  10.403  1.00  0.00     0.000 C 
BRANCH  10  11
ATOM     11  C   UNL     1      17.428 -18.088  11.708  1.00  0.00    -0.000 C 
BRANCH  11  12
ATOM     12  C   UNL     1      17.061 -17.086  12.818  1.00  0.00    -0.000 C 
BRANCH  12  13
ATOM     13  C   UNL     1      17.918 -17.179  14.094  1.00  0.00    -0.000 C 
BRANCH  13  14
ATOM     14  C   UNL     1      18.218 -15.805  14.717  1.00  0.00    -0.000 C 
BRANCH  14  15
ATOM     15  C   UNL     1      18.211 -15.841  16.253  1.00  0.00    -0.003 C 
ATOM     16  C   UNL     1      16.883 -15.378  16.851  1.00  0.00     0.004 C 
ENDBRANCH  14  15
ENDBRANCH  13  14
ENDBRANCH  12  13
ENDBRANCH  11  12
ENDBRANCH  10  11
ENDBRANCH   1  10
TORSDOF 12
ENDMDL
MODEL 3
REMARK VINA RESULT:    -2.599      1.509      3.837
REMARK INTER + INTRA:          -5.739
REMARK INTER:                  -4.284
REMARK INTRA:                  -1.456
REMARK UNBOUND:                -1.317
REMARK SMILES CCCCCCCCCCCCCC(=O)[O-]
REMARK SMILES IDX 8 1 9 2 10 3 11 4 12 5 13 6 14 7 15 8 16 9 7 10 6 11 5 12
REMARK SMILES IDX 4 13 3 14 2 15 1 16
REMARK H PARENT
REMARK Flexibility Score: inf
ROOT
ATOM      1  C   UNL     1      17.661 -16.071  16.181  1.00  0.00     0.000 C 
ENDROOT
BRANCH   1   2
ATOM      2  C   UNL     1      16.928 -17.393  15.896  1.00  0.00     0.000 C 
BRANCH   2   3
ATOM      3  C   UNL     1      16.782 -17.688  14.392  1.00  0.00     0.000 C 
BRANCH   3   4
ATOM      4  C   UNL     1      17.476 -16.678  13.458  1.00  0.00     0.000 C 
BRANCH   4   5
ATOM      5  C   UNL     1      18.330 -17.355  12.373  1.00  0.00     0.006 C 
BRANCH   5   6
ATOM      6  C   UNL     1      19.017 -16.335  11.456  1.00  0.00     0.053 C 
BRANCH   6   7
ATOM      7  C   UNL     1      18.488 -16.399  10.055  1.00  0.00     0.041 C 
ATOM      8  O   UNL     1      18.675 -15.439   9.263  1.00  0.00    -0.550 OA
ATOM      9  O   UNL     1      17.813 -17.531   9.616  1.00  0.00    -0.550 OA
ENDBRANCH   6   7
ENDBRANCH   5   6
ENDBRANCH   4   5
ENDBRANCH   3   4
ENDBRANCH   2   3
ENDBRANCH   1   2
BRANCH   1  10
ATOM     10  C   UNL     1      18.967 -16.281  16.964  1.00  0.00     0.000 C 
BRANCH  10  11
ATOM     11  C   UNL     1      19.670 -17.599  16.593  1.00  0.00    -0.000 C 
BRANCH  11  12
ATOM     12  C   UNL     1      21.145 -17.637  17.034  1.00  0.00    -0.000 C 
BRANCH  12  13
ATOM     13  C   UNL     1      22.017 -16.484  16.506  1.00  0.00    -0.000 C 
BRANCH  13  14
ATOM     14  C   UNL     1      22.706 -16.815  15.171  1.00  0.00    -0.000 C 
BRANCH  14  15
ATOM     15  C   UNL     1      21.859 -16.408  13.954  1.00  0.00    -0.003 C 
ATOM     16  C   UNL     1      21.076 -15.116  14.182  1.00  0.00     0.004 C 
ENDBRANCH  14  15
ENDBRANCH  13  14
ENDBRANCH  12  13
ENDBRANCH  11  12
ENDBRANCH  10  11
ENDBRANCH   1  10
TORSDOF 12
ENDMDL
MODEL 4
REMARK VINA RESULT:    -2.549      2.166      4.649
REMARK INTER + INTRA:          -5.655
REMARK INTER:                  -4.552
REMARK INTRA:                  -1.104
REMARK UNBOUND:                -1.317
REMARK SMILES CCCCCCCCCCCCCC(=O)[O-]
REMARK SMILES IDX 8 1 9 2 10 3 11 4 12 5 13 6 14 7 15 8 16 9 7 10 6 11 5 12
REMARK SMILES IDX 4 13 3 14 2 15 1 16
REMARK H PARENT
REMARK Flexibility Score: inf
ROOT
ATOM      1  C   UNL     1      22.179 -15.256  14.165  1.00  0.00     0.000 C 
ENDROOT
BRANCH   1   2
ATOM      2  C   UNL     1      22.776 -15.003  15.560  1.00  0.00     0.000 C 
BRANCH   2   3
ATOM      3  C   UNL     1      21.865 -15.492  16.700  1.00  0.00     0.000 C 
BRANCH   3   4
ATOM      4  C   UNL     1      21.443 -16.971  16.612  1.00  0.00     0.000 C 
BRANCH   4   5
ATOM      5  C   UNL     1      19.927 -17.152  16.438  1.00  0.00     0.006 C 
BRANCH   5   6
ATOM      6  C   UNL     1      19.165 -15.827  16.573  1.00  0.00     0.053 C 
BRANCH   6   7
ATOM      7  C   UNL     1      17.879 -15.841  15.804  1.00  0.00     0.041 C 
ATOM      8  O   UNL     1      16.778 -15.790  16.411  1.00  0.00    -0.550 OA
ATOM      9  O   UNL     1      17.898 -15.883  14.415  1.00  0.00    -0.550 OA
ENDBRANCH   6   7
ENDBRANCH   5   6
ENDBRANCH   4   5
ENDBRANCH   3   4
ENDBRANCH   2   3
ENDBRANCH   1   2
BRANCH   1  10
ATOM     10  C   UNL     1      22.999 -16.269  13.349  1.00  0.00     0.000 C 
BRANCH  10  11
ATOM     11  C   UNL     1      22.175 -17.506  12.950  1.00  0.00    -0.000 C 
BRANCH  11  12
ATOM     12  C   UNL     1      22.213 -17.790  11.437  1.00  0.00    -0.000 C 
BRANCH  12  13
ATOM     13  C   UNL     1      20.844 -17.785  10.734  1.00  0.00    -0.000 C 
BRANCH  13  14
ATOM     14  C   UNL     1      19.766 -17.023  11.524  1.00  0.00    -0.000 C 
BRANCH  14  15
ATOM     15  C   UNL     1      18.615 -16.535  10.630  1.00  0.00    -0.003 C 
ATOM     16  C   UNL     1      17.836 -17.682   9.987  1.00  0.00     0.004 C 
ENDBRANCH  14  15
ENDBRANCH  13  14
ENDBRANCH  12  13
ENDBRANCH  11  12
ENDBRANCH  10  11
ENDBRANCH   1  10
TORSDOF 12
ENDMDL
MODEL 5
REMARK VINA RESULT:    -2.547     23.562     25.376
REMARK INTER + INTRA:          -5.651
REMARK INTER:                  -4.697
REMARK INTRA:                  -0.954
REMARK UNBOUND:                -1.317
REMARK SMILES CCCCCCCCCCCCCC(=O)[O-]
REMARK SMILES IDX 8 1 9 2 10 3 11 4 12 5 13 6 14 7 15 8 16 9 7 10 6 11 5 12
REMARK SMILES IDX 4 13 3 14 2 15 1 16
REMARK H PARENT
REMARK Flexibility Score: inf
ROOT
ATOM      1  C   UNL     1       9.021   2.014  -2.363  1.00  0.00     0.000 C 
ENDROOT
BRANCH   1   2
ATOM      2  C   UNL     1       9.988   1.802  -1.185  1.00  0.00     0.000 C 
BRANCH   2   3
ATOM      3  C   UNL     1      11.403   1.396  -1.636  1.00  0.00     0.000 C 
BRANCH   3   4
ATOM      4  C   UNL     1      11.493   0.044  -2.367  1.00  0.00     0.000 C 
BRANCH   4   5
ATOM      5  C   UNL     1      12.921  -0.295  -2.825  1.00  0.00     0.006 C 
BRANCH   5   6
ATOM      6  C   UNL     1      13.859   0.917  -2.745  1.00  0.00     0.053 C 
BRANCH   6   7
ATOM      7  C   UNL     1      15.061   0.637  -1.895  1.00  0.00     0.041 C 
ATOM      8  O   UNL     1      15.126  -0.422  -1.219  1.00  0.00    -0.550 OA
ATOM      9  O   UNL     1      16.122   1.534  -1.873  1.00  0.00    -0.550 OA
ENDBRANCH   6   7
ENDBRANCH   5   6
ENDBRANCH   4   5
ENDBRANCH   3   4
ENDBRANCH   2   3
ENDBRANCH   1   2
BRANCH   1  10
ATOM     10  C   UNL     1       7.551   1.802  -1.962  1.00  0.00     0.000 C 
BRANCH  10  11
ATOM     11  C   UNL     1       7.357   1.775  -0.435  1.00  0.00    -0.000 C 
BRANCH  11  12
ATOM     12  C   UNL     1       6.218   0.839   0.008  1.00  0.00    -0.000 C 
BRANCH  12  13
ATOM     13  C   UNL     1       5.354   0.272  -1.133  1.00  0.00    -0.000 C 
BRANCH  13  14
ATOM     14  C   UNL     1       5.028  -1.221  -0.955  1.00  0.00    -0.000 C 
BRANCH  14  15
ATOM     15  C   UNL     1       5.488  -2.071  -2.150  1.00  0.00    -0.003 C 
ATOM     16  C   UNL     1       6.949  -1.826  -2.525  1.00  0.00     0.004 C 
ENDBRANCH  14  15
ENDBRANCH  13  14
ENDBRANCH  12  13
ENDBRANCH  11  12
ENDBRANCH  10  11
ENDBRANCH   1  10
TORSDOF 12
ENDMDL
MODEL 6
REMARK VINA RESULT:    -2.531     15.589     16.391
REMARK INTER + INTRA:          -5.624
REMARK INTER:                  -4.353
REMARK INTRA:                  -1.272
REMARK UNBOUND:                -1.317
REMARK SMILES CCCCCCCCCCCCCC(=O)[O-]
REMARK SMILES IDX 8 1 9 2 10 3 11 4 12 5 13 6 14 7 15 8 16 9 7 10 6 11 5 12
REMARK SMILES IDX 4 13 3 14 2 15 1 16
REMARK H PARENT
REMARK Flexibility Score: inf
ROOT
ATOM      1  C   UNL     1      19.390 -11.311  -1.349  1.00  0.00     0.000 C 
ENDROOT
BRANCH   1   2
ATOM      2  C   UNL     1      18.532 -11.221  -2.623  1.00  0.00     0.000 C 
BRANCH   2   3
ATOM      3  C   UNL     1      18.055 -12.596  -3.124  1.00  0.00     0.000 C 
BRANCH   3   4
ATOM      4  C   UNL     1      18.705 -13.807  -2.429  1.00  0.00     0.000 C 
BRANCH   4   5
ATOM      5  C   UNL     1      17.675 -14.818  -1.898  1.00  0.00     0.006 C 
BRANCH   5   6
ATOM      6  C   UNL     1      16.771 -15.364  -3.012  1.00  0.00     0.053 C 
BRANCH   6   7
ATOM      7  C   UNL     1      15.320 -15.243  -2.662  1.00  0.00     0.041 C 
ATOM      8  O   UNL     1      14.876 -14.179  -2.158  1.00  0.00    -0.550 OA
ATOM      9  O   UNL     1      14.451 -16.298  -2.918  1.00  0.00    -0.550 OA
ENDBRANCH   6   7
ENDBRANCH   5   6
ENDBRANCH   4   5
ENDBRANCH   3   4
ENDBRANCH   2   3
ENDBRANCH   1   2
BRANCH   1  10
ATOM     10  C   UNL     1      20.544 -10.295  -1.345  1.00  0.00     0.000 C 
BRANCH  10  11
ATOM     11  C   UNL     1      21.923 -10.973  -1.432  1.00  0.00    -0.000 C 
BRANCH  11  12
ATOM     12  C   UNL     1      22.019 -11.991  -2.582  1.00  0.00    -0.000 C 
BRANCH  12  13
ATOM     13  C   UNL     1      22.806 -13.274  -2.258  1.00  0.00    -0.000 C 
BRANCH  13  14
ATOM     14  C   UNL     1      22.383 -14.472  -3.125  1.00  0.00    -0.000 C 
BRANCH  14  15
ATOM     15  C   UNL     1      22.466 -15.806  -2.366  1.00  0.00    -0.003 C 
ATOM     16  C   UNL     1      21.176 -16.620  -2.454  1.00  0.00     0.004 C 
ENDBRANCH  14  15
ENDBRANCH  13  14
ENDBRANCH  12  13
ENDBRANCH  11  12
ENDBRANCH  10  11
ENDBRANCH   1  10
TORSDOF 12
ENDMDL
MODEL 7
REMARK VINA RESULT:    -2.495      1.757      4.097
REMARK INTER + INTRA:          -5.562
REMARK INTER:                  -4.592
REMARK INTRA:                  -0.970
REMARK UNBOUND:                -1.317
REMARK SMILES CCCCCCCCCCCCCC(=O)[O-]
REMARK SMILES IDX 8 1 9 2 10 3 11 4 12 5 13 6 14 7 15 8 16 9 7 10 6 11 5 12
REMARK SMILES IDX 4 13 3 14 2 15 1 16
REMARK H PARENT
REMARK Flexibility Score: inf
ROOT
ATOM      1  C   UNL     1      17.796 -16.134  14.849  1.00  0.00     0.000 C 
ENDROOT
BRANCH   1   2
ATOM      2  C   UNL     1      17.215 -17.467  14.344  1.00  0.00     0.000 C 
BRANCH   2   3
ATOM      3  C   UNL     1      16.576 -17.353  12.948  1.00  0.00     0.000 C 
BRANCH   3   4
ATOM      4  C   UNL     1      17.479 -17.787  11.779  1.00  0.00     0.000 C 
BRANCH   4   5
ATOM      5  C   UNL     1      18.654 -16.824  11.539  1.00  0.00     0.006 C 
BRANCH   5   6
ATOM      6  C   UNL     1      19.573 -17.302  10.407  1.00  0.00     0.053 C 
BRANCH   6   7
ATOM      7  C   UNL     1      20.931 -17.681  10.915  1.00  0.00     0.041 C 
ATOM      8  O   UNL     1      21.129 -17.822  12.150  1.00  0.00    -0.550 OA
ATOM      9  O   UNL     1      21.972 -17.906  10.021  1.00  0.00    -0.550 OA
ENDBRANCH   6   7
ENDBRANCH   5   6
ENDBRANCH   4   5
ENDBRANCH   3   4
ENDBRANCH   2   3
ENDBRANCH   1   2
BRANCH   1  10
ATOM     10  C   UNL     1      17.600 -15.943  16.362  1.00  0.00     0.000 C 
BRANCH  10  11
ATOM     11  C   UNL     1      18.937 -15.835  17.118  1.00  0.00    -0.000 C 
BRANCH  11  12
ATOM     12  C   UNL     1      19.771 -17.127  17.046  1.00  0.00    -0.000 C 
BRANCH  12  13
ATOM     13  C   UNL     1      21.083 -17.017  16.247  1.00  0.00    -0.000 C 
BRANCH  13  14
ATOM     14  C   UNL     1      21.533 -15.562  16.031  1.00  0.00    -0.000 C 
BRANCH  14  15
ATOM     15  C   UNL     1      21.598 -15.181  14.544  1.00  0.00    -0.003 C 
ATOM     16  C   UNL     1      23.026 -15.145  14.002  1.00  0.00     0.004 C 
ENDBRANCH  14  15
ENDBRANCH  13  14
ENDBRANCH  12  13
ENDBRANCH  11  12
ENDBRANCH  10  11
ENDBRANCH   1  10
TORSDOF 12
ENDMDL
MODEL 8
REMARK VINA RESULT:    -2.448      3.028      6.031
REMARK INTER + INTRA:          -5.483
REMARK INTER:                  -3.990
REMARK INTRA:                  -1.492
REMARK UNBOUND:                -1.317
REMARK SMILES CCCCCCCCCCCCCC(=O)[O-]
REMARK SMILES IDX 8 1 9 2 10 3 11 4 12 5 13 6 14 7 15 8 16 9 7 10 6 11 5 12
REMARK SMILES IDX 4 13 3 14 2 15 1 16
REMARK H PARENT
REMARK Flexibility Score: inf
ROOT
ATOM      1  C   UNL     1      18.672 -16.054  12.343  1.00  0.00     0.000 C 
ENDROOT
BRANCH   1   2
ATOM      2  C   UNL     1      17.850 -16.410  13.594  1.00  0.00     0.000 C 
BRANCH   2   3
ATOM      3  C   UNL     1      18.239 -17.770  14.202  1.00  0.00     0.000 C 
BRANCH   3   4
ATOM      4  C   UNL     1      19.149 -17.694  15.443  1.00  0.00     0.000 C 
BRANCH   4   5
ATOM      5  C   UNL     1      18.496 -16.951  16.620  1.00  0.00     0.006 C 
BRANCH   5   6
ATOM      6  C   UNL     1      17.135 -17.549  17.001  1.00  0.00     0.053 C 
BRANCH   6   7
ATOM      7  C   UNL     1      16.060 -16.507  17.046  1.00  0.00     0.041 C 
ATOM      8  O   UNL     1      14.851 -16.847  17.125  1.00  0.00    -0.550 OA
ATOM      9  O   UNL     1      16.396 -15.158  17.030  1.00  0.00    -0.550 OA
ENDBRANCH   6   7
ENDBRANCH   5   6
ENDBRANCH   4   5
ENDBRANCH   3   4
ENDBRANCH   2   3
ENDBRANCH   1   2
BRANCH   1  10
ATOM     10  C   UNL     1      18.376 -16.989  11.159  1.00  0.00     0.000 C 
BRANCH  10  11
ATOM     11  C   UNL     1      19.632 -17.292  10.322  1.00  0.00    -0.000 C 
BRANCH  11  12
ATOM     12  C   UNL     1      20.678 -18.121  11.089  1.00  0.00    -0.000 C 
BRANCH  12  13
ATOM     13  C   UNL     1      22.144 -17.822  10.728  1.00  0.00    -0.000 C 
BRANCH  13  14
ATOM     14  C   UNL     1      22.991 -17.413  11.945  1.00  0.00    -0.000 C 
BRANCH  14  15
ATOM     15  C   UNL     1      22.146 -17.236  13.217  1.00  0.00    -0.003 C 
ATOM     16  C   UNL     1      22.093 -15.786  13.697  1.00  0.00     0.004 C 
ENDBRANCH  14  15
ENDBRANCH  13  14
ENDBRANCH  12  13
ENDBRANCH  11  12
ENDBRANCH  10  11
ENDBRANCH   1  10
TORSDOF 12
ENDMDL
MODEL 9
REMARK VINA RESULT:    -2.433      2.606      5.453
REMARK INTER + INTRA:          -5.457
REMARK INTER:                  -4.211
REMARK INTRA:                  -1.247
REMARK UNBOUND:                -1.317
REMARK SMILES CCCCCCCCCCCCCC(=O)[O-]
REMARK SMILES IDX 8 1 9 2 10 3 11 4 12 5 13 6 14 7 15 8 16 9 7 10 6 11 5 12
REMARK SMILES IDX 4 13 3 14 2 15 1 16
REMARK H PARENT
REMARK Flexibility Score: inf
ROOT
ATOM      1  C   UNL     1      17.500 -16.079  15.499  1.00  0.00     0.000 C 
ENDROOT
BRANCH   1   2
ATOM      2  C   UNL     1      17.993 -16.095  16.956  1.00  0.00     0.000 C 
BRANCH   2   3
ATOM      3  C   UNL     1      19.510 -15.866  17.080  1.00  0.00     0.000 C 
BRANCH   3   4
ATOM      4  C   UNL     1      20.379 -17.123  16.892  1.00  0.00     0.000 C 
BRANCH   4   5
ATOM      5  C   UNL     1      21.872 -16.800  16.719  1.00  0.00     0.006 C 
BRANCH   5   6
ATOM      6  C   UNL     1      22.097 -15.508  15.922  1.00  0.00     0.053 C 
BRANCH   6   7
ATOM      7  C   UNL     1      22.783 -15.770  14.616  1.00  0.00     0.041 C 
ATOM      8  O   UNL     1      23.030 -16.950  14.256  1.00  0.00    -0.550 OA
ATOM      9  O   UNL     1      23.125 -14.711  13.783  1.00  0.00    -0.550 OA
ENDBRANCH   6   7
ENDBRANCH   5   6
ENDBRANCH   4   5
ENDBRANCH   3   4
ENDBRANCH   2   3
ENDBRANCH   1   2
BRANCH   1  10
ATOM     10  C   UNL     1      17.241 -17.491  14.950  1.00  0.00     0.000 C 
BRANCH  10  11
ATOM     11  C   UNL     1      17.777 -17.672  13.518  1.00  0.00    -0.000 C 
BRANCH  11  12
ATOM     12  C   UNL     1      18.646 -16.490  13.050  1.00  0.00    -0.000 C 
BRANCH  12  13
ATOM     13  C   UNL     1      19.979 -16.879  12.386  1.00  0.00    -0.000 C 
BRANCH  13  14
ATOM     14  C   UNL     1      19.806 -17.381  10.942  1.00  0.00    -0.000 C 
BRANCH  14  15
ATOM     15  C   UNL     1      18.764 -16.569  10.157  1.00  0.00    -0.003 C 
ATOM     16  C   UNL     1      17.616 -17.429   9.629  1.00  0.00     0.004 C 
ENDBRANCH  14  15
ENDBRANCH  13  14
ENDBRANCH  12  13
ENDBRANCH  11  12
ENDBRANCH  10  11
ENDBRANCH   1  10
TORSDOF 12
ENDMDL
