MODEL 1
REMARK VINA RESULT:    -5.037      0.000      0.000
REMARK INTER + INTRA:         -10.344
REMARK INTER:                  -8.571
REMARK INTRA:                  -1.773
REMARK UNBOUND:                -1.773
REMARK SMILES CCCCCCCCCCCCCC(=O)[O-]
REMARK SMILES IDX 8 1 9 2 10 3 11 4 12 5 13 6 14 7 15 8 16 9 7 10 6 11 5 12
REMARK SMILES IDX 4 13 3 14 2 15 1 16
REMARK H PARENT
REMARK Flexibility Score: inf
ROOT
ATOM      1  C   UNL     1      48.128  12.311  -4.753  1.00  0.00     0.000 C 
ENDROOT
BRANCH   1   2
ATOM      2  C   UNL     1      49.272  11.282  -4.775  1.00  0.00     0.000 C 
BRANCH   2   3
ATOM      3  C   UNL     1      50.184  11.345  -6.019  1.00  0.00     0.000 C 
BRANCH   3   4
ATOM      4  C   UNL     1      50.314  10.025  -6.800  1.00  0.00     0.000 C 
BRANCH   4   5
ATOM      5  C   UNL     1      49.082   9.120  -6.653  1.00  0.00     0.006 C 
BRANCH   5   6
ATOM      6  C   UNL     1      48.583   8.650  -8.023  1.00  0.00     0.053 C 
BRANCH   6   7
ATOM      7  C   UNL     1      47.161   8.193  -7.934  1.00  0.00     0.041 C 
ATOM      8  O   UNL     1      46.367   8.402  -8.888  1.00  0.00    -0.550 OA
ATOM      9  O   UNL     1      46.699   7.582  -6.776  1.00  0.00    -0.550 OA
ENDBRANCH   6   7
ENDBRANCH   5   6
ENDBRANCH   4   5
ENDBRANCH   3   4
ENDBRANCH   2   3
ENDBRANCH   1   2
BRANCH   1  10
ATOM     10  C   UNL     1      46.870  11.821  -5.485  1.00  0.00     0.000 C 
BRANCH  10  11
ATOM     11  C   UNL     1      46.045  13.002  -6.008  1.00  0.00    -0.000 C 
BRANCH  11  12
ATOM     12  C   UNL     1      46.024  13.026  -7.540  1.00  0.00    -0.000 C 
BRANCH  12  13
ATOM     13  C   UNL     1      47.130  12.138  -8.122  1.00  0.00    -0.000 C 
BRANCH  13  14
ATOM     14  C   UNL     1      46.861  11.822  -9.601  1.00  0.00    -0.000 C 
BRANCH  14  15
ATOM     15  C   UNL     1      48.149  11.531 -10.386  1.00  0.00    -0.003 C 
ATOM     16  C   UNL     1      49.388  12.154  -9.742  1.00  0.00     0.004 C 
ENDBRANCH  14  15
ENDBRANCH  13  14
ENDBRANCH  12  13
ENDBRANCH  11  12
ENDBRANCH  10  11
ENDBRANCH   1  10
TORSDOF 12
ENDMDL
MODEL 2
REMARK VINA RESULT:    -4.995     18.375     20.133
REMARK INTER + INTRA:         -10.272
REMARK INTER:                  -8.134
REMARK INTRA:                  -2.138
REMARK UNBOUND:                -1.773
REMARK SMILES CCCCCCCCCCCCCC(=O)[O-]
REMARK SMILES IDX 8 1 9 2 10 3 11 4 12 5 13 6 14 7 15 8 16 9 7 10 6 11 5 12
REMARK SMILES IDX 4 13 3 14 2 15 1 16
REMARK H PARENT
REMARK Flexibility Score: inf
ROOT
ATOM      1  C   UNL     1      37.012  -0.639   4.257  1.00  0.00     0.000 C 
ENDROOT
BRANCH   1   2
ATOM      2  C   UNL     1      36.416   0.430   3.323  1.00  0.00     0.000 C 
BRANCH   2   3
ATOM      3  C   UNL     1      34.875   0.509   3.317  1.00  0.00     0.000 C 
BRANCH   3   4
ATOM      4  C   UNL     1      34.292   1.910   3.570  1.00  0.00     0.000 C 
BRANCH   4   5
ATOM      5  C   UNL     1      33.876   2.130   5.032  1.00  0.00     0.006 C 
BRANCH   5   6
ATOM      6  C   UNL     1      33.508   3.596   5.280  1.00  0.00     0.053 C 
BRANCH   6   7
ATOM      7  C   UNL     1      33.730   3.955   6.716  1.00  0.00     0.041 C 
ATOM      8  O   UNL     1      34.133   5.107   7.027  1.00  0.00    -0.550 OA
ATOM      9  O   UNL     1      33.541   3.001   7.709  1.00  0.00    -0.550 OA
ENDBRANCH   6   7
ENDBRANCH   5   6
ENDBRANCH   4   5
ENDBRANCH   3   4
ENDBRANCH   2   3
ENDBRANCH   1   2
BRANCH   1  10
ATOM     10  C   UNL     1      36.449  -0.566   5.684  1.00  0.00     0.000 C 
BRANCH  10  11
ATOM     11  C   UNL     1      37.389   0.219   6.605  1.00  0.00    -0.000 C 
BRANCH  11  12
ATOM     12  C   UNL     1      36.696   1.466   7.168  1.00  0.00    -0.000 C 
BRANCH  12  13
ATOM     13  C   UNL     1      37.484   2.736   6.828  1.00  0.00    -0.000 C 
BRANCH  13  14
ATOM     14  C   UNL     1      38.576   2.444   5.787  1.00  0.00    -0.000 C 
BRANCH  14  15
ATOM     15  C   UNL     1      38.513   3.396   4.583  1.00  0.00    -0.003 C 
ATOM     16  C   UNL     1      37.166   4.108   4.461  1.00  0.00     0.004 C 
ENDBRANCH  14  15
ENDBRANCH  13  14
ENDBRANCH  12  13
ENDBRANCH  11  12
ENDBRANCH  10  11
ENDBRANCH   1  10
TORSDOF 12
ENDMDL
MODEL 3
REMARK VINA RESULT:    -4.952     18.821     20.522
REMARK INTER + INTRA:         -10.198
REMARK INTER:                  -8.260
REMARK INTRA:                  -1.938
REMARK UNBOUND:                -1.773
REMARK SMILES CCCCCCCCCCCCCC(=O)[O-]
REMARK SMILES IDX 8 1 9 2 10 3 11 4 12 5 13 6 14 7 15 8 16 9 7 10 6 11 5 12
REMARK SMILES IDX 4 13 3 14 2 15 1 16
REMARK H PARENT
REMARK Flexibility Score: inf
ROOT
ATOM      1  C   UNL     1      37.430   3.289   7.414  1.00  0.00     0.000 C 
ENDROOT
BRANCH   1   2
ATOM      2  C   UNL     1      36.805   4.672   7.673  1.00  0.00     0.000 C 
BRANCH   2   3
ATOM      3  C   UNL     1      35.380   4.646   8.264  1.00  0.00     0.000 C 
BRANCH   3   4
ATOM      4  C   UNL     1      34.762   3.245   8.416  1.00  0.00     0.000 C 
BRANCH   4   5
ATOM      5  C   UNL     1      33.553   3.022   7.494  1.00  0.00     0.006 C 
BRANCH   5   6
ATOM      6  C   UNL     1      34.002   2.541   6.111  1.00  0.00     0.053 C 
BRANCH   6   7
ATOM      7  C   UNL     1      33.752   3.598   5.083  1.00  0.00     0.041 C 
ATOM      8  O   UNL     1      32.605   3.737   4.583  1.00  0.00    -0.550 OA
ATOM      9  O   UNL     1      34.798   4.398   4.639  1.00  0.00    -0.550 OA
ENDBRANCH   6   7
ENDBRANCH   5   6
ENDBRANCH   4   5
ENDBRANCH   3   4
ENDBRANCH   2   3
ENDBRANCH   1   2
BRANCH   1  10
ATOM     10  C   UNL     1      37.776   3.058   5.935  1.00  0.00     0.000 C 
BRANCH  10  11
ATOM     11  C   UNL     1      37.693   1.570   5.578  1.00  0.00    -0.000 C 
BRANCH  11  12
ATOM     12  C   UNL     1      37.274   0.734   6.793  1.00  0.00    -0.000 C 
BRANCH  12  13
ATOM     13  C   UNL     1      36.315  -0.390   6.384  1.00  0.00    -0.000 C 
BRANCH  13  14
ATOM     14  C   UNL     1      36.278  -0.554   4.857  1.00  0.00    -0.000 C 
BRANCH  14  15
ATOM     15  C   UNL     1      34.846  -0.613   4.304  1.00  0.00    -0.003 C 
ATOM     16  C   UNL     1      34.628   0.337   3.126  1.00  0.00     0.004 C 
ENDBRANCH  14  15
ENDBRANCH  13  14
ENDBRANCH  12  13
ENDBRANCH  11  12
ENDBRANCH  10  11
ENDBRANCH   1  10
TORSDOF 12
ENDMDL
MODEL 4
REMARK VINA RESULT:    -4.914     18.987     20.830
REMARK INTER + INTRA:         -10.134
REMARK INTER:                  -8.067
REMARK INTRA:                  -2.067
REMARK UNBOUND:                -1.773
REMARK SMILES CCCCCCCCCCCCCC(=O)[O-]
REMARK SMILES IDX 8 1 9 2 10 3 11 4 12 5 13 6 14 7 15 8 16 9 7 10 6 11 5 12
REMARK SMILES IDX 4 13 3 14 2 15 1 16
REMARK H PARENT
REMARK Flexibility Score: inf
ROOT
ATOM      1  C   UNL     1      34.382   0.005   3.369  1.00  0.00     0.000 C 
ENDROOT
BRANCH   1   2
ATOM      2  C   UNL     1      35.527   1.003   3.123  1.00  0.00     0.000 C 
BRANCH   2   3
ATOM      3  C   UNL     1      35.165   2.485   3.352  1.00  0.00     0.000 C 
BRANCH   3   4
ATOM      4  C   UNL     1      33.847   2.725   4.110  1.00  0.00     0.000 C 
BRANCH   4   5
ATOM      5  C   UNL     1      33.898   3.961   5.021  1.00  0.00     0.006 C 
BRANCH   5   6
ATOM      6  C   UNL     1      33.861   3.554   6.497  1.00  0.00     0.053 C 
BRANCH   6   7
ATOM      7  C   UNL     1      34.506   4.604   7.346  1.00  0.00     0.041 C 
ATOM      8  O   UNL     1      34.943   4.315   8.490  1.00  0.00    -0.550 OA
ATOM      9  O   UNL     1      34.579   5.916   6.893  1.00  0.00    -0.550 OA
ENDBRANCH   6   7
ENDBRANCH   5   6
ENDBRANCH   4   5
ENDBRANCH   3   4
ENDBRANCH   2   3
ENDBRANCH   1   2
BRANCH   1  10
ATOM     10  C   UNL     1      34.687  -0.986   4.502  1.00  0.00     0.000 C 
BRANCH  10  11
ATOM     11  C   UNL     1      34.114  -0.490   5.834  1.00  0.00    -0.000 C 
BRANCH  11  12
ATOM     12  C   UNL     1      35.210   0.123   6.713  1.00  0.00    -0.000 C 
BRANCH  12  13
ATOM     13  C   UNL     1      36.592  -0.416   6.329  1.00  0.00    -0.000 C 
BRANCH  13  14
ATOM     14  C   UNL     1      37.704   0.525   6.816  1.00  0.00    -0.000 C 
BRANCH  14  15
ATOM     15  C   UNL     1      37.208   1.964   7.029  1.00  0.00    -0.003 C 
ATOM     16  C   UNL     1      37.709   2.927   5.952  1.00  0.00     0.004 C 
ENDBRANCH  14  15
ENDBRANCH  13  14
ENDBRANCH  12  13
ENDBRANCH  11  12
ENDBRANCH  10  11
ENDBRANCH   1  10
TORSDOF 12
ENDMDL
MODEL 5
REMARK VINA RESULT:    -4.908     18.437     20.248
REMARK INTER + INTRA:         -10.124
REMARK INTER:                  -7.938
REMARK INTRA:                  -2.186
REMARK UNBOUND:                -1.773
REMARK SMILES CCCCCCCCCCCCCC(=O)[O-]
REMARK SMILES IDX 8 1 9 2 10 3 11 4 12 5 13 6 14 7 15 8 16 9 7 10 6 11 5 12
REMARK SMILES IDX 4 13 3 14 2 15 1 16
REMARK H PARENT
REMARK Flexibility Score: inf
ROOT
ATOM      1  C   UNL     1      36.900   3.616   4.512  1.00  0.00     0.000 C 
ENDROOT
BRANCH   1   2
ATOM      2  C   UNL     1      36.291   2.756   3.390  1.00  0.00     0.000 C 
BRANCH   2   3
ATOM      3  C   UNL     1      34.749   2.705   3.369  1.00  0.00     0.000 C 
BRANCH   3   4
ATOM      4  C   UNL     1      34.086   2.405   4.725  1.00  0.00     0.000 C 
BRANCH   4   5
ATOM      5  C   UNL     1      33.349   3.618   5.312  1.00  0.00     0.006 C 
BRANCH   5   6
ATOM      6  C   UNL     1      33.629   3.756   6.811  1.00  0.00     0.053 C 
BRANCH   6   7
ATOM      7  C   UNL     1      34.441   4.983   7.081  1.00  0.00     0.041 C 
ATOM      8  O   UNL     1      35.012   5.134   8.193  1.00  0.00    -0.550 OA
ATOM      9  O   UNL     1      34.527   5.986   6.123  1.00  0.00    -0.550 OA
ENDBRANCH   6   7
ENDBRANCH   5   6
ENDBRANCH   4   5
ENDBRANCH   3   4
ENDBRANCH   2   3
ENDBRANCH   1   2
BRANCH   1  10
ATOM     10  C   UNL     1      37.925   2.850   5.362  1.00  0.00     0.000 C 
BRANCH  10  11
ATOM     11  C   UNL     1      37.529   2.862   6.842  1.00  0.00    -0.000 C 
BRANCH  11  12
ATOM     12  C   UNL     1      36.685   1.632   7.198  1.00  0.00    -0.000 C 
BRANCH  12  13
ATOM     13  C   UNL     1      37.336   0.346   6.675  1.00  0.00    -0.000 C 
BRANCH  13  14
ATOM     14  C   UNL     1      36.296  -0.559   5.997  1.00  0.00    -0.000 C 
BRANCH  14  15
ATOM     15  C   UNL     1      36.579  -0.765   4.500  1.00  0.00    -0.003 C 
ATOM     16  C   UNL     1      35.313  -1.053   3.693  1.00  0.00     0.004 C 
ENDBRANCH  14  15
ENDBRANCH  13  14
ENDBRANCH  12  13
ENDBRANCH  11  12
ENDBRANCH  10  11
ENDBRANCH   1  10
TORSDOF 12
ENDMDL
MODEL 6
REMARK VINA RESULT:    -4.883      1.988      4.309
REMARK INTER + INTRA:         -10.082
REMARK INTER:                  -7.961
REMARK INTRA:                  -2.120
REMARK UNBOUND:                -1.773
REMARK SMILES CCCCCCCCCCCCCC(=O)[O-]
REMARK SMILES IDX 8 1 9 2 10 3 11 4 12 5 13 6 14 7 15 8 16 9 7 10 6 11 5 12
REMARK SMILES IDX 4 13 3 14 2 15 1 16
REMARK H PARENT
REMARK Flexibility Score: inf
ROOT
ATOM      1  C   UNL     1      49.671  11.527  -5.492  1.00  0.00     0.000 C 
ENDROOT
BRANCH   1   2
ATOM      2  C   UNL     1      48.261  11.226  -4.954  1.00  0.00     0.000 C 
BRANCH   2   3
ATOM      3  C   UNL     1      47.133  12.092  -5.553  1.00  0.00     0.000 C 
BRANCH   3   4
ATOM      4  C   UNL     1      47.325  12.484  -7.029  1.00  0.00     0.000 C 
BRANCH   4   5
ATOM      5  C   UNL     1      45.996  12.716  -7.763  1.00  0.00     0.006 C 
BRANCH   5   6
ATOM      6  C   UNL     1      46.130  12.387  -9.253  1.00  0.00     0.053 C 
BRANCH   6   7
ATOM      7  C   UNL     1      44.976  11.552  -9.710  1.00  0.00     0.041 C 
ATOM      8  O   UNL     1      43.860  11.643  -9.135  1.00  0.00    -0.550 OA
ATOM      9  O   UNL     1      45.146  10.635 -10.740  1.00  0.00    -0.550 OA
ENDBRANCH   6   7
ENDBRANCH   5   6
ENDBRANCH   4   5
ENDBRANCH   3   4
ENDBRANCH   2   3
ENDBRANCH   1   2
BRANCH   1  10
ATOM     10  C   UNL     1      50.352  10.294  -6.104  1.00  0.00     0.000 C 
BRANCH  10  11
ATOM     11  C   UNL     1      49.356   9.141  -6.267  1.00  0.00    -0.000 C 
BRANCH  11  12
ATOM     12  C   UNL     1      49.272   8.687  -7.729  1.00  0.00    -0.000 C 
BRANCH  12  13
ATOM     13  C   UNL     1      48.005   9.226  -8.402  1.00  0.00    -0.000 C 
BRANCH  13  14
ATOM     14  C   UNL     1      46.801   8.314  -8.119  1.00  0.00    -0.000 C 
BRANCH  14  15
ATOM     15  C   UNL     1      45.739   8.993  -7.241  1.00  0.00    -0.003 C 
ATOM     16  C   UNL     1      45.730   8.461  -5.807  1.00  0.00     0.004 C 
ENDBRANCH  14  15
ENDBRANCH  13  14
ENDBRANCH  12  13
ENDBRANCH  11  12
ENDBRANCH  10  11
ENDBRANCH   1  10
TORSDOF 12
ENDMDL
MODEL 7
REMARK VINA RESULT:    -4.881      2.257      4.463
REMARK INTER + INTRA:         -10.079
REMARK INTER:                  -8.269
REMARK INTRA:                  -1.810
REMARK UNBOUND:                -1.773
REMARK SMILES CCCCCCCCCCCCCC(=O)[O-]
REMARK SMILES IDX 8 1 9 2 10 3 11 4 12 5 13 6 14 7 15 8 16 9 7 10 6 11 5 12
REMARK SMILES IDX 4 13 3 14 2 15 1 16
REMARK H PARENT
REMARK Flexibility Score: inf
ROOT
ATOM      1  C   UNL     1      49.251   9.004  -6.440  1.00  0.00     0.000 C 
ENDROOT
BRANCH   1   2
ATOM      2  C   UNL     1      48.798   8.364  -7.764  1.00  0.00     0.000 C 
BRANCH   2   3
ATOM      3  C   UNL     1      47.824   9.217  -8.604  1.00  0.00     0.000 C 
BRANCH   3   4
ATOM      4  C   UNL     1      46.333   8.885  -8.411  1.00  0.00     0.000 C 
BRANCH   4   5
ATOM      5  C   UNL     1      45.486   9.198  -9.654  1.00  0.00     0.006 C 
BRANCH   5   6
ATOM      6  C   UNL     1      45.897  10.538 -10.272  1.00  0.00     0.053 C 
BRANCH   6   7
ATOM      7  C   UNL     1      45.215  11.669  -9.568  1.00  0.00     0.041 C 
ATOM      8  O   UNL     1      45.869  12.690  -9.227  1.00  0.00    -0.550 OA
ATOM      9  O   UNL     1      43.868  11.575  -9.243  1.00  0.00    -0.550 OA
ENDBRANCH   6   7
ENDBRANCH   5   6
ENDBRANCH   4   5
ENDBRANCH   3   4
ENDBRANCH   2   3
ENDBRANCH   1   2
BRANCH   1  10
ATOM     10  C   UNL     1      50.390  10.018  -6.626  1.00  0.00     0.000 C 
BRANCH  10  11
ATOM     11  C   UNL     1      49.904  11.445  -6.352  1.00  0.00    -0.000 C 
BRANCH  11  12
ATOM     12  C   UNL     1      49.501  11.619  -4.883  1.00  0.00    -0.000 C 
BRANCH  12  13
ATOM     13  C   UNL     1      48.142  12.318  -4.762  1.00  0.00    -0.000 C 
BRANCH  13  14
ATOM     14  C   UNL     1      47.332  12.173  -6.059  1.00  0.00    -0.000 C 
BRANCH  14  15
ATOM     15  C   UNL     1      45.959  11.523  -5.828  1.00  0.00    -0.003 C 
ATOM     16  C   UNL     1      46.031  10.300  -4.913  1.00  0.00     0.004 C 
ENDBRANCH  14  15
ENDBRANCH  13  14
ENDBRANCH  12  13
ENDBRANCH  11  12
ENDBRANCH  10  11
ENDBRANCH   1  10
TORSDOF 12
ENDMDL
MODEL 8
REMARK VINA RESULT:    -4.880     18.550     20.197
REMARK INTER + INTRA:         -10.076
REMARK INTER:                  -7.895
REMARK INTRA:                  -2.181
REMARK UNBOUND:                -1.773
REMARK SMILES CCCCCCCCCCCCCC(=O)[O-]
REMARK SMILES IDX 8 1 9 2 10 3 11 4 12 5 13 6 14 7 15 8 16 9 7 10 6 11 5 12
REMARK SMILES IDX 4 13 3 14 2 15 1 16
REMARK H PARENT
REMARK Flexibility Score: inf
ROOT
ATOM      1  C   UNL     1      33.688   4.126   6.671  1.00  0.00     0.000 C 
ENDROOT
BRANCH   1   2
ATOM      2  C   UNL     1      33.648   4.101   5.132  1.00  0.00     0.000 C 
BRANCH   2   3
ATOM      3  C   UNL     1      33.494   2.699   4.505  1.00  0.00     0.000 C 
BRANCH   3   4
ATOM      4  C   UNL     1      34.607   2.299   3.521  1.00  0.00     0.000 C 
BRANCH   4   5
ATOM      5  C   UNL     1      34.836   0.781   3.463  1.00  0.00     0.006 C 
BRANCH   5   6
ATOM      6  C   UNL     1      34.734   0.160   4.859  1.00  0.00     0.053 C 
BRANCH   6   7
ATOM      7  C   UNL     1      36.078  -0.305   5.324  1.00  0.00     0.041 C 
ATOM      8  O   UNL     1      36.248  -0.661   6.520  1.00  0.00    -0.550 OA
ATOM      9  O   UNL     1      37.157  -0.299   4.449  1.00  0.00    -0.550 OA
ENDBRANCH   6   7
ENDBRANCH   5   6
ENDBRANCH   4   5
ENDBRANCH   3   4
ENDBRANCH   2   3
ENDBRANCH   1   2
BRANCH   1  10
ATOM     10  C   UNL     1      33.857   2.729   7.286  1.00  0.00     0.000 C 
BRANCH  10  11
ATOM     11  C   UNL     1      35.169   2.631   8.072  1.00  0.00    -0.000 C 
BRANCH  11  12
ATOM     12  C   UNL     1      35.795   4.015   8.277  1.00  0.00    -0.000 C 
BRANCH  12  13
ATOM     13  C   UNL     1      37.177   4.100   7.620  1.00  0.00    -0.000 C 
BRANCH  13  14
ATOM     14  C   UNL     1      37.513   2.798   6.876  1.00  0.00    -0.000 C 
BRANCH  14  15
ATOM     15  C   UNL     1      37.853   3.034   5.397  1.00  0.00    -0.003 C 
ATOM     16  C   UNL     1      37.366   4.391   4.887  1.00  0.00     0.004 C 
ENDBRANCH  14  15
ENDBRANCH  13  14
ENDBRANCH  12  13
ENDBRANCH  11  12
ENDBRANCH  10  11
ENDBRANCH   1  10
TORSDOF 12
ENDMDL
MODEL 9
REMARK VINA RESULT:    -4.863     19.364     20.497
REMARK INTER + INTRA:         -10.047
REMARK INTER:                  -8.545
REMARK INTRA:                  -1.502
REMARK UNBOUND:                -1.773
REMARK SMILES CCCCCCCCCCCCCC(=O)[O-]
REMARK SMILES IDX 8 1 9 2 10 3 11 4 12 5 13 6 14 7 15 8 16 9 7 10 6 11 5 12
REMARK SMILES IDX 4 13 3 14 2 15 1 16
REMARK H PARENT
REMARK Flexibility Score: inf
ROOT
ATOM      1  C   UNL     1      35.827   0.987   6.957  1.00  0.00     0.000 C 
ENDROOT
BRANCH   1   2
ATOM      2  C   UNL     1      37.365   1.038   6.925  1.00  0.00     0.000 C 
BRANCH   2   3
ATOM      3  C   UNL     1      37.971   2.455   6.852  1.00  0.00     0.000 C 
BRANCH   3   4
ATOM      4  C   UNL     1      36.968   3.579   6.538  1.00  0.00     0.000 C 
BRANCH   4   5
ATOM      5  C   UNL     1      36.794   4.566   7.702  1.00  0.00     0.006 C 
BRANCH   5   6
ATOM      6  C   UNL     1      35.377   4.488   8.277  1.00  0.00     0.053 C 
BRANCH   6   7
ATOM      7  C   UNL     1      34.364   4.787   7.217  1.00  0.00     0.041 C 
ATOM      8  O   UNL     1      33.451   3.960   6.962  1.00  0.00    -0.550 OA
ATOM      9  O   UNL     1      34.459   5.958   6.475  1.00  0.00    -0.550 OA
ENDBRANCH   6   7
ENDBRANCH   5   6
ENDBRANCH   4   5
ENDBRANCH   3   4
ENDBRANCH   2   3
ENDBRANCH   1   2
BRANCH   1  10
ATOM     10  C   UNL     1      35.266  -0.371   6.509  1.00  0.00     0.000 C 
BRANCH  10  11
ATOM     11  C   UNL     1      36.118  -0.973   5.387  1.00  0.00    -0.000 C 
BRANCH  11  12
ATOM     12  C   UNL     1      35.301  -1.134   4.099  1.00  0.00    -0.000 C 
BRANCH  12  13
ATOM     13  C   UNL     1      35.557   0.029   3.134  1.00  0.00    -0.000 C 
BRANCH  13  14
ATOM     14  C   UNL     1      34.342   0.966   3.066  1.00  0.00    -0.000 C 
BRANCH  14  15
ATOM     15  C   UNL     1      34.548   2.259   3.870  1.00  0.00    -0.003 C 
ATOM     16  C   UNL     1      33.509   3.332   3.539  1.00  0.00     0.004 C 
ENDBRANCH  14  15
ENDBRANCH  13  14
ENDBRANCH  12  13
ENDBRANCH  11  12
ENDBRANCH  10  11
ENDBRANCH   1  10
TORSDOF 12
ENDMDL
