MODEL 1
REMARK VINA RESULT:    -3.903      0.000      0.000
REMARK INTER + INTRA:          -5.049
REMARK INTER:                  -4.701
REMARK INTRA:                  -0.348
REMARK UNBOUND:                -0.348
REMARK SMILES Oc1cc(O)c2cc(O)c(-c3ccc(O)c(O)c3)[o+]c2c1
REMARK SMILES IDX 10 1 19 2 20 3 21 4 2 5 3 6 4 7 6 8 7 9 8 10 11 11 12 12
REMARK SMILES IDX 13 13 14 14 18 15 16 16 15 17 17 19 9 21 1 23 5 25
REMARK H PARENT 15 18 17 20 9 22 1 24 5 26
REMARK Flexibility Score: inf
ROOT
ATOM      1  C   UNL     1    -100.588  24.214 -28.989  1.00  0.00     0.402 A 
ATOM      2  O   UNL     1    -101.174  24.841 -27.971  1.00  0.00    -0.202 OA
ATOM      3  C   UNL     1    -102.442  25.241 -27.995  1.00  0.00     0.368 A 
ATOM      4  C   UNL     1    -102.985  25.891 -26.882  1.00  0.00     0.162 A 
ATOM      5  C   UNL     1    -104.318  26.314 -26.893  1.00  0.00     0.128 A 
ATOM      6  C   UNL     1    -105.114  26.086 -28.024  1.00  0.00     0.093 A 
ATOM      7  C   UNL     1    -104.583  25.437 -29.148  1.00  0.00     0.136 A 
ATOM      8  C   UNL     1    -103.241  25.012 -29.137  1.00  0.00     0.125 A 
ATOM      9  C   UNL     1    -102.656  24.367 -30.231  1.00  0.00     0.078 A 
ATOM     10  C   UNL     1    -101.317  23.971 -30.171  1.00  0.00     0.223 A 
ENDROOT
BRANCH   1  11
ATOM     11  C   UNL     1     -99.172  23.809 -28.839  1.00  0.00     0.087 A 
ATOM     12  C   UNL     1     -98.123  24.642 -29.269  1.00  0.00     0.022 A 
ATOM     13  C   UNL     1     -96.795  24.230 -29.137  1.00  0.00     0.051 A 
ATOM     14  C   UNL     1     -96.494  22.976 -28.589  1.00  0.00     0.157 A 
ATOM     15  C   UNL     1     -98.866  22.546 -28.309  1.00  0.00     0.068 A 
ATOM     16  C   UNL     1     -97.536  22.129 -28.175  1.00  0.00     0.158 A 
BRANCH  14  17
ATOM     17  O   UNL     1     -95.167  22.570 -28.458  1.00  0.00    -0.504 OA
ATOM     18  H   UNL     1     -94.736  21.941 -29.124  1.00  0.00     0.293 HD
ENDBRANCH  14  17
BRANCH  16  19
ATOM     19  O   UNL     1     -97.270  20.873 -27.631  1.00  0.00    -0.504 OA
ATOM     20  H   UNL     1     -96.742  20.759 -26.775  1.00  0.00     0.293 HD
ENDBRANCH  16  19
ENDBRANCH   1  11
BRANCH  10  21
ATOM     21  O   UNL     1    -100.714  23.373 -31.278  1.00  0.00    -0.500 OA
ATOM     22  H   UNL     1    -100.231  23.920 -31.980  1.00  0.00     0.294 HD
ENDBRANCH  10  21
BRANCH   5  23
ATOM     23  O   UNL     1    -104.841  26.958 -25.774  1.00  0.00    -0.507 OA
ATOM     24  H   UNL     1    -105.519  26.506 -25.171  1.00  0.00     0.293 HD
ENDBRANCH   5  23
BRANCH   7  25
ATOM     25  O   UNL     1    -105.385  25.217 -30.270  1.00  0.00    -0.507 OA
ATOM     26  H   UNL     1    -105.906  24.357 -30.388  1.00  0.00     0.293 HD
ENDBRANCH   7  25
TORSDOF 6
ENDMDL
MODEL 2
REMARK VINA RESULT:    -3.720      2.677      3.589
REMARK INTER + INTRA:          -4.829
REMARK INTER:                  -4.483
REMARK INTRA:                  -0.346
REMARK UNBOUND:                -0.348
REMARK SMILES Oc1cc(O)c2cc(O)c(-c3ccc(O)c(O)c3)[o+]c2c1
REMARK SMILES IDX 10 1 19 2 20 3 21 4 2 5 3 6 4 7 6 8 7 9 8 10 11 11 12 12
REMARK SMILES IDX 13 13 14 14 18 15 16 16 15 17 17 19 9 21 1 23 5 25
REMARK H PARENT 15 18 17 20 9 22 1 24 5 26
REMARK Flexibility Score: inf
ROOT
ATOM      1  C   UNL     1     -98.362  24.936 -28.270  1.00  0.00     0.402 A 
ATOM      2  O   UNL     1     -98.198  25.955 -27.428  1.00  0.00    -0.202 OA
ATOM      3  C   UNL     1     -99.180  26.440 -26.675  1.00  0.00     0.368 A 
ATOM      4  C   UNL     1     -98.926  27.511 -25.811  1.00  0.00     0.162 A 
ATOM      5  C   UNL     1     -99.949  28.029 -25.011  1.00  0.00     0.128 A 
ATOM      6  C   UNL     1    -101.235  27.475 -25.074  1.00  0.00     0.093 A 
ATOM      7  C   UNL     1    -101.505  26.402 -25.936  1.00  0.00     0.136 A 
ATOM      8  C   UNL     1    -100.475  25.881 -26.742  1.00  0.00     0.125 A 
ATOM      9  C   UNL     1    -100.688  24.818 -27.625  1.00  0.00     0.078 A 
ATOM     10  C   UNL     1     -99.632  24.342 -28.407  1.00  0.00     0.223 A 
ENDROOT
BRANCH   1  11
ATOM     11  C   UNL     1     -97.189  24.479 -29.050  1.00  0.00     0.087 A 
ATOM     12  C   UNL     1     -96.936  24.965 -30.345  1.00  0.00     0.022 A 
ATOM     13  C   UNL     1     -95.835  24.502 -31.070  1.00  0.00     0.051 A 
ATOM     14  C   UNL     1     -94.980  23.538 -30.520  1.00  0.00     0.157 A 
ATOM     15  C   UNL     1     -96.341  23.498 -28.511  1.00  0.00     0.068 A 
ATOM     16  C   UNL     1     -95.236  23.032 -29.235  1.00  0.00     0.158 A 
BRANCH  14  17
ATOM     17  O   UNL     1     -93.882  23.081 -31.247  1.00  0.00    -0.504 OA
ATOM     18  H   UNL     1     -93.921  22.224 -31.787  1.00  0.00     0.293 HD
ENDBRANCH  14  17
BRANCH  16  19
ATOM     19  O   UNL     1     -94.408  22.068 -28.662  1.00  0.00    -0.504 OA
ATOM     20  H   UNL     1     -94.315  21.138 -29.052  1.00  0.00     0.293 HD
ENDBRANCH  16  19
ENDBRANCH   1  11
BRANCH  10  21
ATOM     21  O   UNL     1     -99.851  23.316 -29.327  1.00  0.00    -0.500 OA
ATOM     22  H   UNL     1    -100.520  22.576 -29.150  1.00  0.00     0.294 HD
ENDBRANCH  10  21
BRANCH   5  23
ATOM     23  O   UNL     1     -99.676  29.095 -24.156  1.00  0.00    -0.507 OA
ATOM     24  H   UNL     1    -100.334  29.857 -24.033  1.00  0.00     0.293 HD
ENDBRANCH   5  23
BRANCH   7  25
ATOM     25  O   UNL     1    -102.789  25.859 -25.991  1.00  0.00    -0.507 OA
ATOM     26  H   UNL     1    -103.166  25.474 -26.849  1.00  0.00     0.293 HD
ENDBRANCH   7  25
TORSDOF 6
ENDMDL
MODEL 3
REMARK VINA RESULT:    -3.718      1.025      1.246
REMARK INTER + INTRA:          -4.827
REMARK INTER:                  -4.516
REMARK INTRA:                  -0.311
REMARK UNBOUND:                -0.348
REMARK SMILES Oc1cc(O)c2cc(O)c(-c3ccc(O)c(O)c3)[o+]c2c1
REMARK SMILES IDX 10 1 19 2 20 3 21 4 2 5 3 6 4 7 6 8 7 9 8 10 11 11 12 12
REMARK SMILES IDX 13 13 14 14 18 15 16 16 15 17 17 19 9 21 1 23 5 25
REMARK H PARENT 15 18 17 20 9 22 1 24 5 26
REMARK Flexibility Score: inf
ROOT
ATOM      1  C   UNL     1    -100.551  23.824 -29.847  1.00  0.00     0.402 A 
ATOM      2  O   UNL     1    -101.374  24.383 -28.961  1.00  0.00    -0.202 OA
ATOM      3  C   UNL     1    -102.648  24.658 -29.225  1.00  0.00     0.368 A 
ATOM      4  C   UNL     1    -103.449  25.243 -28.238  1.00  0.00     0.162 A 
ATOM      5  C   UNL     1    -104.791  25.533 -28.500  1.00  0.00     0.128 A 
ATOM      6  C   UNL     1    -105.337  25.239 -29.758  1.00  0.00     0.093 A 
ATOM      7  C   UNL     1    -104.546  24.654 -30.757  1.00  0.00     0.136 A 
ATOM      8  C   UNL     1    -103.194  24.362 -30.492  1.00  0.00     0.125 A 
ATOM      9  C   UNL     1    -102.357  23.786 -31.453  1.00  0.00     0.078 A 
ATOM     10  C   UNL     1    -101.020  23.522 -31.141  1.00  0.00     0.223 A 
ENDROOT
BRANCH   1  11
ATOM     11  C   UNL     1     -99.154  23.559 -29.432  1.00  0.00     0.087 A 
ATOM     12  C   UNL     1     -98.103  24.410 -29.815  1.00  0.00     0.022 A 
ATOM     13  C   UNL     1     -96.789  24.128 -29.431  1.00  0.00     0.051 A 
ATOM     14  C   UNL     1     -96.505  22.985 -28.671  1.00  0.00     0.157 A 
ATOM     15  C   UNL     1     -98.862  22.405 -28.688  1.00  0.00     0.068 A 
ATOM     16  C   UNL     1     -97.547  22.118 -28.301  1.00  0.00     0.158 A 
BRANCH  14  17
ATOM     17  O   UNL     1     -95.194  22.708 -28.288  1.00  0.00    -0.504 OA
ATOM     18  H   UNL     1     -94.432  22.718 -28.956  1.00  0.00     0.293 HD
ENDBRANCH  14  17
BRANCH  16  19
ATOM     19  O   UNL     1     -97.296  20.970 -27.551  1.00  0.00    -0.504 OA
ATOM     20  H   UNL     1     -97.719  20.078 -27.774  1.00  0.00     0.293 HD
ENDBRANCH  16  19
ENDBRANCH   1  11
BRANCH  10  21
ATOM     21  O   UNL     1    -100.167  22.995 -32.110  1.00  0.00    -0.500 OA
ATOM     22  H   UNL     1    -100.511  22.405 -32.858  1.00  0.00     0.294 HD
ENDBRANCH  10  21
BRANCH   5  23
ATOM     23  O   UNL     1    -105.574  26.114 -27.505  1.00  0.00    -0.507 OA
ATOM     24  H   UNL     1    -106.002  27.024 -27.632  1.00  0.00     0.293 HD
ENDBRANCH   5  23
BRANCH   7  25
ATOM     25  O   UNL     1    -105.100  24.366 -32.006  1.00  0.00    -0.507 OA
ATOM     26  H   UNL     1    -104.709  23.651 -32.607  1.00  0.00     0.293 HD
ENDBRANCH   7  25
TORSDOF 6
ENDMDL
MODEL 4
REMARK VINA RESULT:    -3.715      1.306      3.030
REMARK INTER + INTRA:          -4.823
REMARK INTER:                  -4.468
REMARK INTRA:                  -0.354
REMARK UNBOUND:                -0.348
REMARK SMILES Oc1cc(O)c2cc(O)c(-c3ccc(O)c(O)c3)[o+]c2c1
REMARK SMILES IDX 10 1 19 2 20 3 21 4 2 5 3 6 4 7 6 8 7 9 8 10 11 11 12 12
REMARK SMILES IDX 13 13 14 14 18 15 16 16 15 17 17 19 9 21 1 23 5 25
REMARK H PARENT 15 18 17 20 9 22 1 24 5 26
REMARK Flexibility Score: inf
ROOT
ATOM      1  C   UNL     1    -100.683  24.098 -29.138  1.00  0.00     0.402 A 
ATOM      2  O   UNL     1    -101.276  23.696 -30.262  1.00  0.00    -0.202 OA
ATOM      3  C   UNL     1    -102.540  23.980 -30.558  1.00  0.00     0.368 A 
ATOM      4  C   UNL     1    -103.088  23.524 -31.762  1.00  0.00     0.162 A 
ATOM      5  C   UNL     1    -104.415  23.817 -32.088  1.00  0.00     0.128 A 
ATOM      6  C   UNL     1    -105.201  24.572 -31.206  1.00  0.00     0.093 A 
ATOM      7  C   UNL     1    -104.666  25.035 -29.996  1.00  0.00     0.136 A 
ATOM      8  C   UNL     1    -103.330  24.738 -29.667  1.00  0.00     0.125 A 
ATOM      9  C   UNL     1    -102.746  25.167 -28.471  1.00  0.00     0.078 A 
ATOM     10  C   UNL     1    -101.416  24.841 -28.190  1.00  0.00     0.223 A 
ENDROOT
BRANCH   1  11
ATOM     11  C   UNL     1     -99.266  23.727 -28.924  1.00  0.00     0.087 A 
ATOM     12  C   UNL     1     -98.218  24.573 -29.328  1.00  0.00     0.022 A 
ATOM     13  C   UNL     1     -96.887  24.191 -29.136  1.00  0.00     0.051 A 
ATOM     14  C   UNL     1     -96.584  22.954 -28.552  1.00  0.00     0.157 A 
ATOM     15  C   UNL     1     -98.956  22.480 -28.358  1.00  0.00     0.068 A 
ATOM     16  C   UNL     1     -97.624  22.094 -28.164  1.00  0.00     0.158 A 
BRANCH  14  17
ATOM     17  O   UNL     1     -95.255  22.578 -28.360  1.00  0.00    -0.504 OA
ATOM     18  H   UNL     1     -94.860  21.770 -28.826  1.00  0.00     0.293 HD
ENDBRANCH  14  17
BRANCH  16  19
ATOM     19  O   UNL     1     -97.355  20.854 -27.585  1.00  0.00    -0.504 OA
ATOM     20  H   UNL     1     -96.526  20.689 -27.028  1.00  0.00     0.293 HD
ENDBRANCH  16  19
ENDBRANCH   1  11
BRANCH  10  21
ATOM     21  O   UNL     1    -100.843  25.221 -26.977  1.00  0.00    -0.500 OA
ATOM     22  H   UNL     1     -99.842  25.196 -26.830  1.00  0.00     0.294 HD
ENDBRANCH  10  21
BRANCH   5  23
ATOM     23  O   UNL     1    -104.943  23.355 -33.292  1.00  0.00    -0.507 OA
ATOM     24  H   UNL     1    -105.623  23.896 -33.814  1.00  0.00     0.293 HD
ENDBRANCH   5  23
BRANCH   7  25
ATOM     25  O   UNL     1    -105.459  25.785 -29.124  1.00  0.00    -0.507 OA
ATOM     26  H   UNL     1    -106.161  26.429 -29.468  1.00  0.00     0.293 HD
ENDBRANCH   7  25
TORSDOF 6
ENDMDL
MODEL 5
REMARK VINA RESULT:    -3.691     10.496     11.937
REMARK INTER + INTRA:          -4.794
REMARK INTER:                  -4.445
REMARK INTRA:                  -0.349
REMARK UNBOUND:                -0.348
REMARK SMILES Oc1cc(O)c2cc(O)c(-c3ccc(O)c(O)c3)[o+]c2c1
REMARK SMILES IDX 10 1 19 2 20 3 21 4 2 5 3 6 4 7 6 8 7 9 8 10 11 11 12 12
REMARK SMILES IDX 13 13 14 14 18 15 16 16 15 17 17 19 9 21 1 23 5 25
REMARK H PARENT 15 18 17 20 9 22 1 24 5 26
REMARK Flexibility Score: inf
ROOT
ATOM      1  C   UNL     1     -99.556  27.553 -39.303  1.00  0.00     0.402 A 
ATOM      2  O   UNL     1    -100.160  27.777 -40.470  1.00  0.00    -0.202 OA
ATOM      3  C   UNL     1    -101.477  27.901 -40.595  1.00  0.00     0.368 A 
ATOM      4  C   UNL     1    -102.034  28.139 -41.856  1.00  0.00     0.162 A 
ATOM      5  C   UNL     1    -103.417  28.276 -42.001  1.00  0.00     0.128 A 
ATOM      6  C   UNL     1    -104.252  28.172 -40.879  1.00  0.00     0.093 A 
ATOM      7  C   UNL     1    -103.709  27.932 -39.609  1.00  0.00     0.136 A 
ATOM      8  C   UNL     1    -102.315  27.794 -39.463  1.00  0.00     0.125 A 
ATOM      9  C   UNL     1    -101.718  27.546 -38.223  1.00  0.00     0.078 A 
ATOM     10  C   UNL     1    -100.330  27.412 -38.134  1.00  0.00     0.223 A 
ENDROOT
BRANCH   1  11
ATOM     11  C   UNL     1     -98.079  27.442 -39.290  1.00  0.00     0.087 A 
ATOM     12  C   UNL     1     -97.266  28.537 -38.946  1.00  0.00     0.022 A 
ATOM     13  C   UNL     1     -95.874  28.415 -38.962  1.00  0.00     0.051 A 
ATOM     14  C   UNL     1     -95.275  27.205 -39.336  1.00  0.00     0.157 A 
ATOM     15  C   UNL     1     -97.473  26.238 -39.683  1.00  0.00     0.068 A 
ATOM     16  C   UNL     1     -96.079  26.112 -39.700  1.00  0.00     0.158 A 
BRANCH  14  17
ATOM     17  O   UNL     1     -93.886  27.087 -39.349  1.00  0.00    -0.504 OA
ATOM     18  H   UNL     1     -93.405  26.404 -38.775  1.00  0.00     0.293 HD
ENDBRANCH  14  17
BRANCH  16  19
ATOM     19  O   UNL     1     -95.513  24.897 -40.082  1.00  0.00    -0.504 OA
ATOM     20  H   UNL     1     -95.707  24.034 -39.589  1.00  0.00     0.293 HD
ENDBRANCH  16  19
ENDBRANCH   1  11
BRANCH  10  21
ATOM     21  O   UNL     1     -99.734  27.114 -36.908  1.00  0.00    -0.500 OA
ATOM     22  H   UNL     1     -99.347  26.199 -36.714  1.00  0.00     0.294 HD
ENDBRANCH  10  21
BRANCH   5  23
ATOM     23  O   UNL     1    -103.953  28.514 -43.265  1.00  0.00    -0.507 OA
ATOM     24  H   UNL     1    -104.766  29.107 -43.392  1.00  0.00     0.293 HD
ENDBRANCH   5  23
BRANCH   7  25
ATOM     25  O   UNL     1    -104.549  27.829 -38.499  1.00  0.00    -0.507 OA
ATOM     26  H   UNL     1    -104.495  28.487 -37.730  1.00  0.00     0.293 HD
ENDBRANCH   7  25
TORSDOF 6
ENDMDL
MODEL 6
REMARK VINA RESULT:    -3.645      9.597     12.566
REMARK INTER + INTRA:          -4.738
REMARK INTER:                  -4.402
REMARK INTRA:                  -0.337
REMARK UNBOUND:                -0.348
REMARK SMILES Oc1cc(O)c2cc(O)c(-c3ccc(O)c(O)c3)[o+]c2c1
REMARK SMILES IDX 10 1 19 2 20 3 21 4 2 5 3 6 4 7 6 8 7 9 8 10 11 11 12 12
REMARK SMILES IDX 13 13 14 14 18 15 16 16 15 17 17 19 9 21 1 23 5 25
REMARK H PARENT 15 18 17 20 9 22 1 24 5 26
REMARK Flexibility Score: inf
ROOT
ATOM      1  C   UNL     1    -100.252  27.363 -38.806  1.00  0.00     0.402 A 
ATOM      2  O   UNL     1     -99.036  27.899 -38.715  1.00  0.00    -0.202 OA
ATOM      3  C   UNL     1     -97.942  27.306 -39.184  1.00  0.00     0.368 A 
ATOM      4  C   UNL     1     -96.701  27.938 -39.053  1.00  0.00     0.162 A 
ATOM      5  C   UNL     1     -95.544  27.328 -39.545  1.00  0.00     0.128 A 
ATOM      6  C   UNL     1     -95.626  26.077 -40.173  1.00  0.00     0.093 A 
ATOM      7  C   UNL     1     -96.863  25.431 -40.311  1.00  0.00     0.136 A 
ATOM      8  C   UNL     1     -98.028  26.046 -39.814  1.00  0.00     0.125 A 
ATOM      9  C   UNL     1     -99.287  25.445 -39.917  1.00  0.00     0.078 A 
ATOM     10  C   UNL     1    -100.412  26.096 -39.402  1.00  0.00     0.223 A 
ENDROOT
BRANCH   1  11
ATOM     11  C   UNL     1    -101.395  28.125 -38.252  1.00  0.00     0.087 A 
ATOM     12  C   UNL     1    -102.257  28.860 -39.085  1.00  0.00     0.022 A 
ATOM     13  C   UNL     1    -103.315  29.589 -38.538  1.00  0.00     0.051 A 
ATOM     14  C   UNL     1    -103.520  29.606 -37.152  1.00  0.00     0.157 A 
ATOM     15  C   UNL     1    -101.592  28.161 -36.863  1.00  0.00     0.068 A 
ATOM     16  C   UNL     1    -102.652  28.891 -36.311  1.00  0.00     0.158 A 
BRANCH  14  17
ATOM     17  O   UNL     1    -104.579  30.334 -36.610  1.00  0.00    -0.504 OA
ATOM     18  H   UNL     1    -104.912  30.166 -35.668  1.00  0.00     0.293 HD
ENDBRANCH  14  17
BRANCH  16  19
ATOM     19  O   UNL     1    -102.826  28.893 -34.927  1.00  0.00    -0.504 OA
ATOM     20  H   UNL     1    -103.406  28.210 -34.457  1.00  0.00     0.293 HD
ENDBRANCH  16  19
ENDBRANCH   1  11
BRANCH  10  21
ATOM     21  O   UNL     1    -101.662  25.479 -39.456  1.00  0.00    -0.500 OA
ATOM     22  H   UNL     1    -102.459  25.930 -39.889  1.00  0.00     0.294 HD
ENDBRANCH  10  21
BRANCH   5  23
ATOM     23  O   UNL     1     -94.317  27.973 -39.406  1.00  0.00    -0.507 OA
ATOM     24  H   UNL     1     -93.507  27.694 -39.949  1.00  0.00     0.293 HD
ENDBRANCH   5  23
BRANCH   7  25
ATOM     25  O   UNL     1     -96.933  24.185 -40.937  1.00  0.00    -0.507 OA
ATOM     26  H   UNL     1     -96.624  23.340 -40.472  1.00  0.00     0.293 HD
ENDBRANCH   7  25
TORSDOF 6
ENDMDL
MODEL 7
REMARK VINA RESULT:    -3.601     11.396     12.770
REMARK INTER + INTRA:          -4.686
REMARK INTER:                  -4.579
REMARK INTRA:                  -0.107
REMARK UNBOUND:                -0.348
REMARK SMILES Oc1cc(O)c2cc(O)c(-c3ccc(O)c(O)c3)[o+]c2c1
REMARK SMILES IDX 10 1 19 2 20 3 21 4 2 5 3 6 4 7 6 8 7 9 8 10 11 11 12 12
REMARK SMILES IDX 13 13 14 14 18 15 16 16 15 17 17 19 9 21 1 23 5 25
REMARK H PARENT 15 18 17 20 9 22 1 24 5 26
REMARK Flexibility Score: inf
ROOT
ATOM      1  C   UNL     1    -101.577  27.822 -40.920  1.00  0.00     0.402 A 
ATOM      2  O   UNL     1    -102.526  28.372 -40.163  1.00  0.00    -0.202 OA
ATOM      3  C   UNL     1    -103.683  28.808 -40.652  1.00  0.00     0.368 A 
ATOM      4  C   UNL     1    -104.631  29.370 -39.790  1.00  0.00     0.162 A 
ATOM      5  C   UNL     1    -105.853  29.830 -40.289  1.00  0.00     0.128 A 
ATOM      6  C   UNL     1    -106.130  29.729 -41.659  1.00  0.00     0.093 A 
ATOM      7  C   UNL     1    -105.190  29.170 -42.536  1.00  0.00     0.136 A 
ATOM      8  C   UNL     1    -103.959  28.707 -42.032  1.00  0.00     0.125 A 
ATOM      9  C   UNL     1    -102.980  28.148 -42.860  1.00  0.00     0.078 A 
ATOM     10  C   UNL     1    -101.773  27.709 -42.311  1.00  0.00     0.223 A 
ENDROOT
BRANCH   1  11
ATOM     11  C   UNL     1    -100.334  27.365 -40.258  1.00  0.00     0.087 A 
ATOM     12  C   UNL     1     -99.527  28.252 -39.523  1.00  0.00     0.022 A 
ATOM     13  C   UNL     1     -98.346  27.804 -38.926  1.00  0.00     0.051 A 
ATOM     14  C   UNL     1     -97.946  26.468 -39.066  1.00  0.00     0.157 A 
ATOM     15  C   UNL     1     -99.918  26.033 -40.412  1.00  0.00     0.068 A 
ATOM     16  C   UNL     1     -98.736  25.580 -39.815  1.00  0.00     0.158 A 
BRANCH  14  17
ATOM     17  O   UNL     1     -96.768  26.024 -38.467  1.00  0.00    -0.504 OA
ATOM     18  H   UNL     1     -96.775  25.316 -37.742  1.00  0.00     0.293 HD
ENDBRANCH  14  17
BRANCH  16  19
ATOM     19  O   UNL     1     -98.362  24.246 -39.977  1.00  0.00    -0.504 OA
ATOM     20  H   UNL     1     -99.042  23.511 -40.122  1.00  0.00     0.293 HD
ENDBRANCH  16  19
ENDBRANCH   1  11
BRANCH  10  21
ATOM     21  O   UNL     1    -100.773  27.197 -43.138  1.00  0.00    -0.500 OA
ATOM     22  H   UNL     1    -100.600  27.577 -44.061  1.00  0.00     0.294 HD
ENDBRANCH  10  21
BRANCH   5  23
ATOM     23  O   UNL     1    -106.785  30.385 -39.415  1.00  0.00    -0.507 OA
ATOM     24  H   UNL     1    -107.331  29.808 -38.786  1.00  0.00     0.293 HD
ENDBRANCH   5  23
BRANCH   7  25
ATOM     25  O   UNL     1    -105.476  29.076 -43.899  1.00  0.00    -0.507 OA
ATOM     26  H   UNL     1    -104.752  28.889 -44.582  1.00  0.00     0.293 HD
ENDBRANCH   7  25
TORSDOF 6
ENDMDL
MODEL 8
REMARK VINA RESULT:    -3.582      9.655     11.729
REMARK INTER + INTRA:          -4.663
REMARK INTER:                  -4.491
REMARK INTRA:                  -0.172
REMARK UNBOUND:                -0.348
REMARK SMILES Oc1cc(O)c2cc(O)c(-c3ccc(O)c(O)c3)[o+]c2c1
REMARK SMILES IDX 10 1 19 2 20 3 21 4 2 5 3 6 4 7 6 8 7 9 8 10 11 11 12 12
REMARK SMILES IDX 13 13 14 14 18 15 16 16 15 17 17 19 9 21 1 23 5 25
REMARK H PARENT 15 18 17 20 9 22 1 24 5 26
REMARK Flexibility Score: inf
ROOT
ATOM      1  C   UNL     1     -95.636  23.928 -37.839  1.00  0.00     0.402 A 
ATOM      2  O   UNL     1     -95.081  23.704 -36.649  1.00  0.00    -0.202 OA
ATOM      3  C   UNL     1     -95.100  22.517 -36.050  1.00  0.00     0.368 A 
ATOM      4  C   UNL     1     -94.490  22.362 -34.801  1.00  0.00     0.162 A 
ATOM      5  C   UNL     1     -94.500  21.120 -34.160  1.00  0.00     0.128 A 
ATOM      6  C   UNL     1     -95.124  20.024 -34.772  1.00  0.00     0.093 A 
ATOM      7  C   UNL     1     -95.741  20.164 -36.023  1.00  0.00     0.136 A 
ATOM      8  C   UNL     1     -95.732  21.416 -36.667  1.00  0.00     0.125 A 
ATOM      9  C   UNL     1     -96.337  21.616 -37.912  1.00  0.00     0.078 A 
ATOM     10  C   UNL     1     -96.304  22.881 -38.505  1.00  0.00     0.223 A 
ENDROOT
BRANCH   1  11
ATOM     11  C   UNL     1     -95.542  25.292 -38.408  1.00  0.00     0.087 A 
ATOM     12  C   UNL     1     -94.298  25.872 -38.717  1.00  0.00     0.022 A 
ATOM     13  C   UNL     1     -94.232  27.169 -39.232  1.00  0.00     0.051 A 
ATOM     14  C   UNL     1     -95.404  27.910 -39.434  1.00  0.00     0.157 A 
ATOM     15  C   UNL     1     -96.711  26.046 -38.593  1.00  0.00     0.068 A 
ATOM     16  C   UNL     1     -96.649  27.346 -39.110  1.00  0.00     0.158 A 
BRANCH  14  17
ATOM     17  O   UNL     1     -95.334  29.203 -39.950  1.00  0.00    -0.504 OA
ATOM     18  H   UNL     1     -94.459  29.713 -39.991  1.00  0.00     0.293 HD
ENDBRANCH  14  17
BRANCH  16  19
ATOM     19  O   UNL     1     -97.833  28.060 -39.293  1.00  0.00    -0.504 OA
ATOM     20  H   UNL     1     -97.919  29.035 -39.034  1.00  0.00     0.293 HD
ENDBRANCH  16  19
ENDBRANCH   1  11
BRANCH  10  21
ATOM     21  O   UNL     1     -96.951  23.100 -39.722  1.00  0.00    -0.500 OA
ATOM     22  H   UNL     1     -96.561  22.771 -40.597  1.00  0.00     0.294 HD
ENDBRANCH  10  21
BRANCH   5  23
ATOM     23  O   UNL     1     -93.886  20.984 -32.917  1.00  0.00    -0.507 OA
ATOM     24  H   UNL     1     -93.362  20.152 -32.673  1.00  0.00     0.293 HD
ENDBRANCH   5  23
BRANCH   7  25
ATOM     25  O   UNL     1     -96.361  19.066 -36.622  1.00  0.00    -0.507 OA
ATOM     26  H   UNL     1     -96.940  18.428 -36.089  1.00  0.00     0.293 HD
ENDBRANCH   7  25
TORSDOF 6
ENDMDL
MODEL 9
REMARK VINA RESULT:    -3.580     12.416     14.000
REMARK INTER + INTRA:          -4.661
REMARK INTER:                  -4.398
REMARK INTRA:                  -0.262
REMARK UNBOUND:                -0.348
REMARK SMILES Oc1cc(O)c2cc(O)c(-c3ccc(O)c(O)c3)[o+]c2c1
REMARK SMILES IDX 10 1 19 2 20 3 21 4 2 5 3 6 4 7 6 8 7 9 8 10 11 11 12 12
REMARK SMILES IDX 13 13 14 14 18 15 16 16 15 17 17 19 9 21 1 23 5 25
REMARK H PARENT 15 18 17 20 9 22 1 24 5 26
REMARK Flexibility Score: inf
ROOT
ATOM      1  C   UNL     1     -98.821  24.644 -41.903  1.00  0.00     0.402 A 
ATOM      2  O   UNL     1     -99.805  25.015 -42.720  1.00  0.00    -0.202 OA
ATOM      3  C   UNL     1    -100.678  25.972 -42.420  1.00  0.00     0.368 A 
ATOM      4  C   UNL     1    -101.682  26.306 -43.335  1.00  0.00     0.162 A 
ATOM      5  C   UNL     1    -102.605  27.312 -43.034  1.00  0.00     0.128 A 
ATOM      6  C   UNL     1    -102.525  27.989 -41.809  1.00  0.00     0.093 A 
ATOM      7  C   UNL     1    -101.526  27.664 -40.880  1.00  0.00     0.136 A 
ATOM      8  C   UNL     1    -100.597  26.650 -41.185  1.00  0.00     0.125 A 
ATOM      9  C   UNL     1     -99.585  26.279 -40.294  1.00  0.00     0.078 A 
ATOM     10  C   UNL     1     -98.691  25.262 -40.642  1.00  0.00     0.223 A 
ENDROOT
BRANCH   1  11
ATOM     11  C   UNL     1     -97.905  23.571 -42.354  1.00  0.00     0.087 A 
ATOM     12  C   UNL     1     -98.323  22.230 -42.415  1.00  0.00     0.022 A 
ATOM     13  C   UNL     1     -97.435  21.232 -42.823  1.00  0.00     0.051 A 
ATOM     14  C   UNL     1     -96.114  21.555 -43.159  1.00  0.00     0.157 A 
ATOM     15  C   UNL     1     -96.575  23.887 -42.673  1.00  0.00     0.068 A 
ATOM     16  C   UNL     1     -95.682  22.890 -43.081  1.00  0.00     0.158 A 
BRANCH  14  17
ATOM     17  O   UNL     1     -95.231  20.556 -43.567  1.00  0.00    -0.504 OA
ATOM     18  H   UNL     1     -94.255  20.753 -43.754  1.00  0.00     0.293 HD
ENDBRANCH  14  17
BRANCH  16  19
ATOM     19  O   UNL     1     -94.372  23.243 -43.404  1.00  0.00    -0.504 OA
ATOM     20  H   UNL     1     -93.912  24.042 -42.987  1.00  0.00     0.293 HD
ENDBRANCH  16  19
ENDBRANCH   1  11
BRANCH  10  21
ATOM     21  O   UNL     1     -97.711  24.852 -39.738  1.00  0.00    -0.500 OA
ATOM     22  H   UNL     1     -97.864  24.078 -39.103  1.00  0.00     0.294 HD
ENDBRANCH  10  21
BRANCH   5  23
ATOM     23  O   UNL     1    -103.596  27.631 -43.959  1.00  0.00    -0.507 OA
ATOM     24  H   UNL     1    -104.572  27.420 -43.783  1.00  0.00     0.293 HD
ENDBRANCH   5  23
BRANCH   7  25
ATOM     25  O   UNL     1    -101.458  28.344 -39.663  1.00  0.00    -0.507 OA
ATOM     26  H   UNL     1    -100.762  28.112 -38.964  1.00  0.00     0.293 HD
ENDBRANCH   7  25
TORSDOF 6
ENDMDL
