MODEL 1
REMARK VINA RESULT:    -6.149      0.000      0.000
REMARK INTER + INTRA:         -10.238
REMARK INTER:                  -8.845
REMARK INTRA:                  -1.393
REMARK UNBOUND:                -1.393
REMARK SMILES O=c1c(O[C@H]2O[C@H](CO)[C@H](O)[C@H](O)[C@@H]2O)c(-c2ccc(O)cc2)oc2cc(O)cc(O)c12
REMARK SMILES IDX 4 1 3 2 16 3 24 4 2 5 25 6 1 7 32 8 26 9 30 10 27 11 29 12
REMARK SMILES IDX 17 13 18 14 19 15 20 16 23 17 22 18 21 19 31 21 28 23 5 25
REMARK SMILES IDX 14 26 6 27 12 28 7 29 10 30 15 31 13 33 8 35 9 36 11 38
REMARK H PARENT 21 20 31 22 28 24 15 32 13 34 9 37 11 39
REMARK Flexibility Score: inf
ROOT
ATOM      1  O   UNL     1      17.717  -0.115 -12.053  1.00  0.00    -0.454 OA
ENDROOT
BRANCH   1   2
ATOM      2  C   UNL     1      17.994  -0.189 -13.435  1.00  0.00     0.214 A 
ATOM      3  C   UNL     1      17.098  -0.912 -14.249  1.00  0.00     0.180 A 
ATOM      4  O   UNL     1      17.359  -1.083 -15.538  1.00  0.00    -0.452 OA
ATOM      5  C   UNL     1      19.136   0.385 -14.043  1.00  0.00     0.239 A 
ATOM      6  C   UNL     1      18.412  -0.558 -16.149  1.00  0.00     0.146 A 
ATOM      7  O   UNL     1      19.994   0.969 -13.334  1.00  0.00    -0.285 OA
ATOM      8  C   UNL     1      19.332   0.253 -15.439  1.00  0.00     0.111 A 
ATOM      9  C   UNL     1      18.599  -0.826 -17.507  1.00  0.00     0.094 A 
ATOM     10  C   UNL     1      20.414   0.840 -16.160  1.00  0.00     0.134 A 
ATOM     11  C   UNL     1      19.697  -0.305 -18.185  1.00  0.00     0.123 A 
ATOM     12  C   UNL     1      20.601   0.519 -17.510  1.00  0.00     0.093 A 
BRANCH   3  13
ATOM     13  C   UNL     1      15.869  -1.531 -13.704  1.00  0.00     0.021 A 
ATOM     14  C   UNL     1      15.778  -2.919 -13.501  1.00  0.00     0.016 A 
ATOM     15  C   UNL     1      14.614  -3.482 -12.967  1.00  0.00     0.047 A 
ATOM     16  C   UNL     1      13.538  -2.665 -12.608  1.00  0.00     0.115 A 
ATOM     17  C   UNL     1      14.791  -0.714 -13.325  1.00  0.00     0.016 A 
ATOM     18  C   UNL     1      13.631  -1.279 -12.786  1.00  0.00     0.047 A 
BRANCH  16  19
ATOM     19  O   UNL     1      12.389  -3.239 -12.071  1.00  0.00    -0.508 OA
ATOM     20  H   UNL     1      12.327  -3.477 -11.089  1.00  0.00     0.293 HD
ENDBRANCH  16  19
ENDBRANCH   3  13
BRANCH  10  21
ATOM     21  O   UNL     1      21.305   1.765 -15.609  1.00  0.00    -0.507 OA
ATOM     22  H   UNL     1      21.053   2.704 -15.336  1.00  0.00     0.293 HD
ENDBRANCH  10  21
BRANCH  11  23
ATOM     23  O   UNL     1      19.876  -0.602 -19.536  1.00  0.00    -0.508 OA
ATOM     24  H   UNL     1      19.682  -1.527 -19.903  1.00  0.00     0.293 HD
ENDBRANCH  11  23
ENDBRANCH   1   2
BRANCH   1  25
ATOM     25  C   UNL     1      18.465  -0.696 -10.980  1.00  0.00     0.339 C 
ATOM     26  C   UNL     1      17.939  -2.110 -10.674  1.00  0.00     0.214 C 
ATOM     27  O   UNL     1      18.446   0.126  -9.820  1.00  0.00    -0.332 OA
ATOM     28  C   UNL     1      16.542  -2.036 -10.028  1.00  0.00     0.180 C 
ATOM     29  C   UNL     1      17.128   0.306  -9.325  1.00  0.00     0.179 C 
ATOM     30  C   UNL     1      16.535  -1.043  -8.851  1.00  0.00     0.177 C 
BRANCH  26  31
ATOM     31  O   UNL     1      18.846  -2.762  -9.820  1.00  0.00    -0.384 OA
ATOM     32  H   UNL     1      19.654  -2.973 -10.356  1.00  0.00     0.211 HD
ENDBRANCH  26  31
BRANCH  28  33
ATOM     33  O   UNL     1      16.146  -3.313  -9.597  1.00  0.00    -0.387 OA
ATOM     34  H   UNL     1      15.902  -3.229  -8.637  1.00  0.00     0.211 HD
ENDBRANCH  28  33
BRANCH  29  35
ATOM     35  C   UNL     1      17.169   1.346  -8.197  1.00  0.00     0.191 C 
BRANCH  35  36
ATOM     36  O   UNL     1      18.120   0.992  -7.228  1.00  0.00    -0.394 OA
ATOM     37  H   UNL     1      18.254   1.789  -6.650  1.00  0.00     0.210 HD
ENDBRANCH  35  36
ENDBRANCH  29  35
BRANCH  30  38
ATOM     38  O   UNL     1      17.292  -1.569  -7.787  1.00  0.00    -0.387 OA
ATOM     39  H   UNL     1      17.341  -2.552  -7.918  1.00  0.00     0.211 HD
ENDBRANCH  30  38
ENDBRANCH   1  25
TORSDOF 11
ENDMDL
MODEL 2
REMARK VINA RESULT:    -6.014      2.966      5.734
REMARK INTER + INTRA:         -10.044
REMARK INTER:                  -8.752
REMARK INTRA:                  -1.292
REMARK UNBOUND:                -1.393
REMARK SMILES O=c1c(O[C@H]2O[C@H](CO)[C@H](O)[C@H](O)[C@@H]2O)c(-c2ccc(O)cc2)oc2cc(O)cc(O)c12
REMARK SMILES IDX 4 1 3 2 16 3 24 4 2 5 25 6 1 7 32 8 26 9 30 10 27 11 29 12
REMARK SMILES IDX 17 13 18 14 19 15 20 16 23 17 22 18 21 19 31 21 28 23 5 25
REMARK SMILES IDX 14 26 6 27 12 28 7 29 10 30 15 31 13 33 8 35 9 36 11 38
REMARK H PARENT 21 20 31 22 28 24 15 32 13 34 9 37 11 39
REMARK Flexibility Score: inf
ROOT
ATOM      1  O   UNL     1      17.085  -1.392 -11.349  1.00  0.00    -0.454 OA
ENDROOT
BRANCH   1   2
ATOM      2  C   UNL     1      15.796  -0.981 -11.749  1.00  0.00     0.214 A 
ATOM      3  C   UNL     1      15.294  -1.481 -12.967  1.00  0.00     0.180 A 
ATOM      4  O   UNL     1      14.124  -1.058 -13.430  1.00  0.00    -0.452 OA
ATOM      5  C   UNL     1      14.997  -0.068 -11.020  1.00  0.00     0.239 A 
ATOM      6  C   UNL     1      13.342  -0.210 -12.778  1.00  0.00     0.146 A 
ATOM      7  O   UNL     1      15.446   0.456  -9.970  1.00  0.00    -0.285 OA
ATOM      8  C   UNL     1      13.716   0.291 -11.506  1.00  0.00     0.111 A 
ATOM      9  C   UNL     1      12.142   0.185 -13.374  1.00  0.00     0.094 A 
ATOM     10  C   UNL     1      12.808   1.154 -10.824  1.00  0.00     0.134 A 
ATOM     11  C   UNL     1      11.295   1.083 -12.730  1.00  0.00     0.123 A 
ATOM     12  C   UNL     1      11.632   1.566 -11.463  1.00  0.00     0.093 A 
BRANCH   3  13
ATOM     13  C   UNL     1      16.051  -2.453 -13.788  1.00  0.00     0.021 A 
ATOM     14  C   UNL     1      15.739  -3.823 -13.772  1.00  0.00     0.016 A 
ATOM     15  C   UNL     1      16.454  -4.722 -14.570  1.00  0.00     0.047 A 
ATOM     16  C   UNL     1      17.472  -4.261 -15.409  1.00  0.00     0.115 A 
ATOM     17  C   UNL     1      17.063  -1.994 -14.647  1.00  0.00     0.016 A 
ATOM     18  C   UNL     1      17.774  -2.894 -15.448  1.00  0.00     0.047 A 
BRANCH  16  19
ATOM     19  O   UNL     1      18.171  -5.167 -16.203  1.00  0.00    -0.508 OA
ATOM     20  H   UNL     1      19.105  -4.966 -16.537  1.00  0.00     0.293 HD
ENDBRANCH  16  19
ENDBRANCH   3  13
BRANCH  10  21
ATOM     21  O   UNL     1      12.996   1.601  -9.514  1.00  0.00    -0.507 OA
ATOM     22  H   UNL     1      12.772   1.061  -8.690  1.00  0.00     0.293 HD
ENDBRANCH  10  21
BRANCH  11  23
ATOM     23  O   UNL     1      10.112   1.479 -13.352  1.00  0.00    -0.508 OA
ATOM     24  H   UNL     1       9.567   2.260 -13.002  1.00  0.00     0.293 HD
ENDBRANCH  11  23
ENDBRANCH   1   2
BRANCH   1  25
ATOM     25  C   UNL     1      17.450  -2.615 -10.700  1.00  0.00     0.339 C 
ATOM     26  C   UNL     1      17.018  -2.578  -9.223  1.00  0.00     0.214 C 
ATOM     27  O   UNL     1      18.841  -2.883 -10.826  1.00  0.00    -0.332 OA
ATOM     28  C   UNL     1      17.885  -1.578  -8.434  1.00  0.00     0.180 C 
ATOM     29  C   UNL     1      19.629  -1.869 -10.221  1.00  0.00     0.179 C 
ATOM     30  C   UNL     1      19.382  -1.826  -8.694  1.00  0.00     0.177 C 
BRANCH  26  31
ATOM     31  O   UNL     1      17.134  -3.870  -8.679  1.00  0.00    -0.384 OA
ATOM     32  H   UNL     1      17.754  -4.379  -9.263  1.00  0.00     0.211 HD
ENDBRANCH  26  31
BRANCH  28  33
ATOM     33  O   UNL     1      17.601  -1.677  -7.062  1.00  0.00    -0.387 OA
ATOM     34  H   UNL     1      17.006  -0.914  -6.836  1.00  0.00     0.211 HD
ENDBRANCH  28  33
BRANCH  29  35
ATOM     35  C   UNL     1      21.102  -2.130 -10.561  1.00  0.00     0.191 C 
BRANCH  35  36
ATOM     36  O   UNL     1      21.415  -3.490 -10.412  1.00  0.00    -0.394 OA
ATOM     37  H   UNL     1      22.346  -3.537 -10.068  1.00  0.00     0.210 HD
ENDBRANCH  35  36
ENDBRANCH  29  35
BRANCH  30  38
ATOM     38  O   UNL     1      19.769  -3.041  -8.097  1.00  0.00    -0.387 OA
ATOM     39  H   UNL     1      20.227  -2.818  -7.245  1.00  0.00     0.211 HD
ENDBRANCH  30  38
ENDBRANCH   1  25
TORSDOF 11
ENDMDL
MODEL 3
REMARK VINA RESULT:    -5.799      3.685      6.247
REMARK INTER + INTRA:          -9.736
REMARK INTER:                  -8.469
REMARK INTRA:                  -1.267
REMARK UNBOUND:                -1.393
REMARK SMILES O=c1c(O[C@H]2O[C@H](CO)[C@H](O)[C@H](O)[C@@H]2O)c(-c2ccc(O)cc2)oc2cc(O)cc(O)c12
REMARK SMILES IDX 4 1 3 2 16 3 24 4 2 5 25 6 1 7 32 8 26 9 30 10 27 11 29 12
REMARK SMILES IDX 17 13 18 14 19 15 20 16 23 17 22 18 21 19 31 21 28 23 5 25
REMARK SMILES IDX 14 26 6 27 12 28 7 29 10 30 15 31 13 33 8 35 9 36 11 38
REMARK H PARENT 21 20 31 22 28 24 15 32 13 34 9 37 11 39
REMARK Flexibility Score: inf
ROOT
ATOM      1  O   UNL     1      16.462  -4.338 -14.766  1.00  0.00    -0.454 OA
ENDROOT
BRANCH   1   2
ATOM      2  C   UNL     1      16.766  -2.989 -14.485  1.00  0.00     0.214 A 
ATOM      3  C   UNL     1      16.193  -2.411 -13.334  1.00  0.00     0.180 A 
ATOM      4  O   UNL     1      16.378  -1.124 -13.073  1.00  0.00    -0.452 OA
ATOM      5  C   UNL     1      17.577  -2.174 -15.310  1.00  0.00     0.239 A 
ATOM      6  C   UNL     1      17.134  -0.327 -13.814  1.00  0.00     0.146 A 
ATOM      7  O   UNL     1      18.039  -2.636 -16.384  1.00  0.00    -0.285 OA
ATOM      8  C   UNL     1      17.821  -0.827 -14.948  1.00  0.00     0.111 A 
ATOM      9  C   UNL     1      17.236   1.020 -13.456  1.00  0.00     0.094 A 
ATOM     10  C   UNL     1      18.667   0.063 -15.675  1.00  0.00     0.134 A 
ATOM     11  C   UNL     1      18.011   1.895 -14.213  1.00  0.00     0.123 A 
ATOM     12  C   UNL     1      18.717   1.416 -15.319  1.00  0.00     0.093 A 
BRANCH   3  13
ATOM     13  C   UNL     1      15.346  -3.191 -12.404  1.00  0.00     0.021 A 
ATOM     14  C   UNL     1      13.984  -3.416 -12.669  1.00  0.00     0.016 A 
ATOM     15  C   UNL     1      13.206  -4.172 -11.786  1.00  0.00     0.047 A 
ATOM     16  C   UNL     1      13.783  -4.731 -10.642  1.00  0.00     0.115 A 
ATOM     17  C   UNL     1      15.923  -3.769 -11.262  1.00  0.00     0.016 A 
ATOM     18  C   UNL     1      15.145  -4.530 -10.383  1.00  0.00     0.047 A 
BRANCH  16  19
ATOM     19  O   UNL     1      12.998  -5.487  -9.776  1.00  0.00    -0.508 OA
ATOM     20  H   UNL     1      11.995  -5.354  -9.719  1.00  0.00     0.293 HD
ENDBRANCH  16  19
ENDBRANCH   3  13
BRANCH  10  21
ATOM     21  O   UNL     1      19.500  -0.339 -16.722  1.00  0.00    -0.507 OA
ATOM     22  H   UNL     1      19.904   0.290 -17.401  1.00  0.00     0.293 HD
ENDBRANCH  10  21
BRANCH  11  23
ATOM     23  O   UNL     1      18.082   3.240 -13.850  1.00  0.00    -0.508 OA
ATOM     24  H   UNL     1      18.915   3.627 -13.421  1.00  0.00     0.293 HD
ENDBRANCH  11  23
ENDBRANCH   1   2
BRANCH   1  25
ATOM     25  C   UNL     1      17.133  -5.505 -14.278  1.00  0.00     0.339 C 
ATOM     26  C   UNL     1      18.429  -5.741 -15.075  1.00  0.00     0.214 C 
ATOM     27  O   UNL     1      16.289  -6.649 -14.311  1.00  0.00    -0.332 OA
ATOM     28  C   UNL     1      18.102  -6.192 -16.512  1.00  0.00     0.180 C 
ATOM     29  C   UNL     1      15.875  -6.960 -15.632  1.00  0.00     0.179 C 
ATOM     30  C   UNL     1      17.091  -7.354 -16.505  1.00  0.00     0.177 C 
BRANCH  26  31
ATOM     31  O   UNL     1      19.202  -6.713 -14.415  1.00  0.00    -0.384 OA
ATOM     32  H   UNL     1      20.017  -6.258 -14.077  1.00  0.00     0.211 HD
ENDBRANCH  26  31
BRANCH  28  33
ATOM     33  O   UNL     1      19.281  -6.570 -17.174  1.00  0.00    -0.387 OA
ATOM     34  H   UNL     1      19.844  -7.048 -16.509  1.00  0.00     0.211 HD
ENDBRANCH  28  33
BRANCH  29  35
ATOM     35  C   UNL     1      14.828  -8.079 -15.564  1.00  0.00     0.191 C 
BRANCH  35  36
ATOM     36  O   UNL     1      14.710  -8.727 -16.804  1.00  0.00    -0.394 OA
ATOM     37  H   UNL     1      14.321  -9.623 -16.626  1.00  0.00     0.210 HD
ENDBRANCH  35  36
ENDBRANCH  29  35
BRANCH  30  38
ATOM     38  O   UNL     1      17.709  -8.512 -15.997  1.00  0.00    -0.387 OA
ATOM     39  H   UNL     1      17.987  -9.063 -16.776  1.00  0.00     0.211 HD
ENDBRANCH  30  38
ENDBRANCH   1  25
TORSDOF 11
ENDMDL
MODEL 4
REMARK VINA RESULT:    -5.776      1.895      3.421
REMARK INTER + INTRA:          -9.702
REMARK INTER:                  -8.058
REMARK INTRA:                  -1.644
REMARK UNBOUND:                -1.393
REMARK SMILES O=c1c(O[C@H]2O[C@H](CO)[C@H](O)[C@H](O)[C@@H]2O)c(-c2ccc(O)cc2)oc2cc(O)cc(O)c12
REMARK SMILES IDX 4 1 3 2 16 3 24 4 2 5 25 6 1 7 32 8 26 9 30 10 27 11 29 12
REMARK SMILES IDX 17 13 18 14 19 15 20 16 23 17 22 18 21 19 31 21 28 23 5 25
REMARK SMILES IDX 14 26 6 27 12 28 7 29 10 30 15 31 13 33 8 35 9 36 11 38
REMARK H PARENT 21 20 31 22 28 24 15 32 13 34 9 37 11 39
REMARK Flexibility Score: inf
ROOT
ATOM      1  O   UNL     1      19.522   0.539 -14.144  1.00  0.00    -0.454 OA
ENDROOT
BRANCH   1   2
ATOM      2  C   UNL     1      19.503   0.291 -15.533  1.00  0.00     0.214 A 
ATOM      3  C   UNL     1      18.404  -0.414 -16.061  1.00  0.00     0.180 A 
ATOM      4  O   UNL     1      18.380  -0.747 -17.345  1.00  0.00    -0.452 OA
ATOM      5  C   UNL     1      20.541   0.672 -16.416  1.00  0.00     0.239 A 
ATOM      6  C   UNL     1      19.326  -0.406 -18.208  1.00  0.00     0.146 A 
ATOM      7  O   UNL     1      21.572   1.232 -15.965  1.00  0.00    -0.285 OA
ATOM      8  C   UNL     1      20.437   0.372 -17.797  1.00  0.00     0.111 A 
ATOM      9  C   UNL     1      19.209  -0.835 -19.532  1.00  0.00     0.094 A 
ATOM     10  C   UNL     1      21.394   0.760 -18.780  1.00  0.00     0.134 A 
ATOM     11  C   UNL     1      20.185  -0.509 -20.470  1.00  0.00     0.123 A 
ATOM     12  C   UNL     1      21.273   0.281 -20.090  1.00  0.00     0.093 A 
BRANCH   3  13
ATOM     13  C   UNL     1      17.264  -0.837 -15.216  1.00  0.00     0.021 A 
ATOM     14  C   UNL     1      17.272  -2.070 -14.541  1.00  0.00     0.016 A 
ATOM     15  C   UNL     1      16.194  -2.442 -13.732  1.00  0.00     0.047 A 
ATOM     16  C   UNL     1      15.106  -1.579 -13.570  1.00  0.00     0.115 A 
ATOM     17  C   UNL     1      16.176   0.032 -15.035  1.00  0.00     0.016 A 
ATOM     18  C   UNL     1      15.101  -0.340 -14.221  1.00  0.00     0.047 A 
BRANCH  16  19
ATOM     19  O   UNL     1      14.043  -1.961 -12.756  1.00  0.00    -0.508 OA
ATOM     20  H   UNL     1      13.289  -2.538 -13.107  1.00  0.00     0.293 HD
ENDBRANCH  16  19
ENDBRANCH   3  13
BRANCH  10  21
ATOM     21  O   UNL     1      22.453   1.638 -18.531  1.00  0.00    -0.507 OA
ATOM     22  H   UNL     1      23.256   1.746 -19.134  1.00  0.00     0.293 HD
ENDBRANCH  10  21
BRANCH  11  23
ATOM     23  O   UNL     1      20.059  -0.965 -21.781  1.00  0.00    -0.508 OA
ATOM     24  H   UNL     1      20.793  -0.818 -22.465  1.00  0.00     0.293 HD
ENDBRANCH  11  23
ENDBRANCH   1   2
BRANCH   1  25
ATOM     25  C   UNL     1      19.185   1.757 -13.469  1.00  0.00     0.339 C 
ATOM     26  C   UNL     1      20.386   2.252 -12.644  1.00  0.00     0.214 C 
ATOM     27  O   UNL     1      18.026   1.605 -12.659  1.00  0.00    -0.332 OA
ATOM     28  C   UNL     1      20.627   1.325 -11.436  1.00  0.00     0.180 C 
ATOM     29  C   UNL     1      18.219   0.635 -11.641  1.00  0.00     0.179 C 
ATOM     30  C   UNL     1      19.321   1.091 -10.656  1.00  0.00     0.177 C 
BRANCH  26  31
ATOM     31  O   UNL     1      20.136   3.568 -12.215  1.00  0.00    -0.384 OA
ATOM     32  H   UNL     1      21.017   3.995 -12.052  1.00  0.00     0.211 HD
ENDBRANCH  26  31
BRANCH  28  33
ATOM     33  O   UNL     1      21.609   1.879 -10.598  1.00  0.00    -0.387 OA
ATOM     34  H   UNL     1      22.155   2.489 -11.160  1.00  0.00     0.211 HD
ENDBRANCH  28  33
BRANCH  29  35
ATOM     35  C   UNL     1      16.877   0.396 -10.936  1.00  0.00     0.191 C 
BRANCH  35  36
ATOM     36  O   UNL     1      17.076   0.062  -9.587  1.00  0.00    -0.394 OA
ATOM     37  H   UNL     1      16.356  -0.575  -9.338  1.00  0.00     0.210 HD
ENDBRANCH  35  36
ENDBRANCH  29  35
BRANCH  30  38
ATOM     38  O   UNL     1      18.941   2.281 -10.005  1.00  0.00    -0.387 OA
ATOM     39  H   UNL     1      18.072   2.564 -10.394  1.00  0.00     0.211 HD
ENDBRANCH  30  38
ENDBRANCH   1  25
TORSDOF 11
ENDMDL
MODEL 5
REMARK VINA RESULT:    -5.753      2.970      5.445
REMARK INTER + INTRA:          -9.669
REMARK INTER:                  -8.485
REMARK INTRA:                  -1.185
REMARK UNBOUND:                -1.393
REMARK SMILES O=c1c(O[C@H]2O[C@H](CO)[C@H](O)[C@H](O)[C@@H]2O)c(-c2ccc(O)cc2)oc2cc(O)cc(O)c12
REMARK SMILES IDX 4 1 3 2 16 3 24 4 2 5 25 6 1 7 32 8 26 9 30 10 27 11 29 12
REMARK SMILES IDX 17 13 18 14 19 15 20 16 23 17 22 18 21 19 31 21 28 23 5 25
REMARK SMILES IDX 14 26 6 27 12 28 7 29 10 30 15 31 13 33 8 35 9 36 11 38
REMARK H PARENT 21 20 31 22 28 24 15 32 13 34 9 37 11 39
REMARK Flexibility Score: inf
ROOT
ATOM      1  O   UNL     1      17.304  -2.597 -11.950  1.00  0.00    -0.454 OA
ENDROOT
BRANCH   1   2
ATOM      2  C   UNL     1      17.083  -3.452 -13.050  1.00  0.00     0.214 A 
ATOM      3  C   UNL     1      16.965  -2.866 -14.327  1.00  0.00     0.180 A 
ATOM      4  O   UNL     1      16.672  -3.617 -15.380  1.00  0.00    -0.452 OA
ATOM      5  C   UNL     1      16.934  -4.856 -12.942  1.00  0.00     0.239 A 
ATOM      6  C   UNL     1      16.530  -4.933 -15.326  1.00  0.00     0.146 A 
ATOM      7  O   UNL     1      16.955  -5.401 -11.810  1.00  0.00    -0.285 OA
ATOM      8  C   UNL     1      16.708  -5.631 -14.105  1.00  0.00     0.111 A 
ATOM      9  C   UNL     1      16.196  -5.619 -16.496  1.00  0.00     0.094 A 
ATOM     10  C   UNL     1      16.602  -7.054 -14.117  1.00  0.00     0.134 A 
ATOM     11  C   UNL     1      16.027  -7.000 -16.482  1.00  0.00     0.123 A 
ATOM     12  C   UNL     1      16.224  -7.710 -15.295  1.00  0.00     0.093 A 
BRANCH   3  13
ATOM     13  C   UNL     1      17.124  -1.409 -14.538  1.00  0.00     0.021 A 
ATOM     14  C   UNL     1      16.009  -0.559 -14.638  1.00  0.00     0.016 A 
ATOM     15  C   UNL     1      16.182   0.817 -14.818  1.00  0.00     0.047 A 
ATOM     16  C   UNL     1      17.468   1.363 -14.878  1.00  0.00     0.115 A 
ATOM     17  C   UNL     1      18.413  -0.852 -14.581  1.00  0.00     0.016 A 
ATOM     18  C   UNL     1      18.583   0.525 -14.756  1.00  0.00     0.047 A 
BRANCH  16  19
ATOM     19  O   UNL     1      17.623   2.736 -15.051  1.00  0.00    -0.508 OA
ATOM     20  H   UNL     1      17.513   3.381 -14.279  1.00  0.00     0.293 HD
ENDBRANCH  16  19
ENDBRANCH   3  13
BRANCH  10  21
ATOM     21  O   UNL     1      16.890  -7.864 -13.015  1.00  0.00    -0.507 OA
ATOM     22  H   UNL     1      17.813  -7.989 -12.627  1.00  0.00     0.293 HD
ENDBRANCH  10  21
BRANCH  11  23
ATOM     23  O   UNL     1      15.673  -7.662 -17.657  1.00  0.00    -0.508 OA
ATOM     24  H   UNL     1      16.250  -7.606 -18.489  1.00  0.00     0.293 HD
ENDBRANCH  11  23
ENDBRANCH   1   2
BRANCH   1  25
ATOM     25  C   UNL     1      16.359  -2.195 -10.952  1.00  0.00     0.339 C 
ATOM     26  C   UNL     1      16.148  -0.671 -11.009  1.00  0.00     0.214 C 
ATOM     27  O   UNL     1      16.755  -2.616  -9.653  1.00  0.00    -0.332 OA
ATOM     28  C   UNL     1      17.407   0.064 -10.508  1.00  0.00     0.180 C 
ATOM     29  C   UNL     1      17.995  -2.042  -9.269  1.00  0.00     0.179 C 
ATOM     30  C   UNL     1      17.872  -0.504  -9.155  1.00  0.00     0.177 C 
BRANCH  26  31
ATOM     31  O   UNL     1      15.032  -0.333 -10.222  1.00  0.00    -0.384 OA
ATOM     32  H   UNL     1      14.901  -1.070  -9.569  1.00  0.00     0.211 HD
ENDBRANCH  26  31
BRANCH  28  33
ATOM     33  O   UNL     1      17.145   1.440 -10.400  1.00  0.00    -0.387 OA
ATOM     34  H   UNL     1      16.437   1.650 -11.065  1.00  0.00     0.211 HD
ENDBRANCH  28  33
BRANCH  29  35
ATOM     35  C   UNL     1      18.442  -2.685  -7.950  1.00  0.00     0.191 C 
BRANCH  35  36
ATOM     36  O   UNL     1      17.726  -3.867  -7.704  1.00  0.00    -0.394 OA
ATOM     37  H   UNL     1      16.967  -3.884  -8.345  1.00  0.00     0.210 HD
ENDBRANCH  35  36
ENDBRANCH  29  35
BRANCH  30  38
ATOM     38  O   UNL     1      16.945  -0.155  -8.154  1.00  0.00    -0.387 OA
ATOM     39  H   UNL     1      16.982  -0.864  -7.459  1.00  0.00     0.211 HD
ENDBRANCH  30  38
ENDBRANCH   1  25
TORSDOF 11
ENDMDL
MODEL 6
REMARK VINA RESULT:    -5.727      2.349      4.047
REMARK INTER + INTRA:          -9.632
REMARK INTER:                  -8.183
REMARK INTRA:                  -1.449
REMARK UNBOUND:                -1.393
REMARK SMILES O=c1c(O[C@H]2O[C@H](CO)[C@H](O)[C@H](O)[C@@H]2O)c(-c2ccc(O)cc2)oc2cc(O)cc(O)c12
REMARK SMILES IDX 4 1 3 2 16 3 24 4 2 5 25 6 1 7 32 8 26 9 30 10 27 11 29 12
REMARK SMILES IDX 17 13 18 14 19 15 20 16 23 17 22 18 21 19 31 21 28 23 5 25
REMARK SMILES IDX 14 26 6 27 12 28 7 29 10 30 15 31 13 33 8 35 9 36 11 38
REMARK H PARENT 21 20 31 22 28 24 15 32 13 34 9 37 11 39
REMARK Flexibility Score: inf
ROOT
ATOM      1  O   UNL     1      19.719   0.958 -14.101  1.00  0.00    -0.454 OA
ENDROOT
BRANCH   1   2
ATOM      2  C   UNL     1      19.701   0.623 -15.472  1.00  0.00     0.214 A 
ATOM      3  C   UNL     1      18.615  -0.137 -15.950  1.00  0.00     0.180 A 
ATOM      4  O   UNL     1      18.594  -0.551 -17.210  1.00  0.00    -0.452 OA
ATOM      5  C   UNL     1      20.727   0.970 -16.383  1.00  0.00     0.239 A 
ATOM      6  C   UNL     1      19.529  -0.244 -18.097  1.00  0.00     0.146 A 
ATOM      7  O   UNL     1      21.747   1.580 -15.973  1.00  0.00    -0.285 OA
ATOM      8  C   UNL     1      20.624   0.583 -17.741  1.00  0.00     0.111 A 
ATOM      9  C   UNL     1      19.417  -0.757 -19.392  1.00  0.00     0.094 A 
ATOM     10  C   UNL     1      21.569   0.929 -18.752  1.00  0.00     0.134 A 
ATOM     11  C   UNL     1      20.382  -0.469 -20.353  1.00  0.00     0.123 A 
ATOM     12  C   UNL     1      21.454   0.366 -20.029  1.00  0.00     0.093 A 
BRANCH   3  13
ATOM     13  C   UNL     1      17.488  -0.532 -15.074  1.00  0.00     0.021 A 
ATOM     14  C   UNL     1      16.372   0.305 -14.897  1.00  0.00     0.016 A 
ATOM     15  C   UNL     1      15.309  -0.096 -14.081  1.00  0.00     0.047 A 
ATOM     16  C   UNL     1      15.337  -1.343 -13.451  1.00  0.00     0.115 A 
ATOM     17  C   UNL     1      17.501  -1.791 -14.453  1.00  0.00     0.016 A 
ATOM     18  C   UNL     1      16.435  -2.192 -13.642  1.00  0.00     0.047 A 
BRANCH  16  19
ATOM     19  O   UNL     1      14.268  -1.731 -12.648  1.00  0.00    -0.508 OA
ATOM     20  H   UNL     1      13.310  -1.617 -12.952  1.00  0.00     0.293 HD
ENDBRANCH  16  19
ENDBRANCH   3  13
BRANCH  10  21
ATOM     21  O   UNL     1      22.609   1.843 -18.564  1.00  0.00    -0.507 OA
ATOM     22  H   UNL     1      22.656   2.502 -17.800  1.00  0.00     0.293 HD
ENDBRANCH  10  21
BRANCH  11  23
ATOM     23  O   UNL     1      20.261  -1.009 -21.633  1.00  0.00    -0.508 OA
ATOM     24  H   UNL     1      19.972  -1.970 -21.775  1.00  0.00     0.293 HD
ENDBRANCH  11  23
ENDBRANCH   1   2
BRANCH   1  25
ATOM     25  C   UNL     1      20.320   0.223 -13.029  1.00  0.00     0.339 C 
ATOM     26  C   UNL     1      19.554   0.480 -11.719  1.00  0.00     0.214 C 
ATOM     27  O   UNL     1      21.701   0.530 -12.891  1.00  0.00    -0.332 OA
ATOM     28  C   UNL     1      19.792   1.923 -11.231  1.00  0.00     0.180 C 
ATOM     29  C   UNL     1      21.908   1.901 -12.588  1.00  0.00     0.179 C 
ATOM     30  C   UNL     1      21.295   2.253 -11.211  1.00  0.00     0.177 C 
BRANCH  26  31
ATOM     31  O   UNL     1      19.980  -0.447 -10.750  1.00  0.00    -0.384 OA
ATOM     32  H   UNL     1      20.960  -0.332 -10.647  1.00  0.00     0.211 HD
ENDBRANCH  26  31
BRANCH  28  33
ATOM     33  O   UNL     1      19.234   2.093  -9.954  1.00  0.00    -0.387 OA
ATOM     34  H   UNL     1      18.865   3.015  -9.922  1.00  0.00     0.211 HD
ENDBRANCH  28  33
BRANCH  29  35
ATOM     35  C   UNL     1      23.414   2.190 -12.641  1.00  0.00     0.191 C 
BRANCH  35  36
ATOM     36  O   UNL     1      23.944   1.845 -13.894  1.00  0.00    -0.394 OA
ATOM     37  H   UNL     1      24.282   2.683 -14.306  1.00  0.00     0.210 HD
ENDBRANCH  35  36
ENDBRANCH  29  35
BRANCH  30  38
ATOM     38  O   UNL     1      21.925   1.520 -10.188  1.00  0.00    -0.387 OA
ATOM     39  H   UNL     1      22.391   0.755 -10.618  1.00  0.00     0.211 HD
ENDBRANCH  30  38
ENDBRANCH   1  25
TORSDOF 11
ENDMDL
MODEL 7
REMARK VINA RESULT:    -5.578      3.339      7.411
REMARK INTER + INTRA:          -9.418
REMARK INTER:                  -8.421
REMARK INTRA:                  -0.997
REMARK UNBOUND:                -1.393
REMARK SMILES O=c1c(O[C@H]2O[C@H](CO)[C@H](O)[C@H](O)[C@@H]2O)c(-c2ccc(O)cc2)oc2cc(O)cc(O)c12
REMARK SMILES IDX 4 1 3 2 16 3 24 4 2 5 25 6 1 7 32 8 26 9 30 10 27 11 29 12
REMARK SMILES IDX 17 13 18 14 19 15 20 16 23 17 22 18 21 19 31 21 28 23 5 25
REMARK SMILES IDX 14 26 6 27 12 28 7 29 10 30 15 31 13 33 8 35 9 36 11 38
REMARK H PARENT 21 20 31 22 28 24 15 32 13 34 9 37 11 39
REMARK Flexibility Score: inf
ROOT
ATOM      1  O   UNL     1      17.620  -1.074  -9.118  1.00  0.00    -0.454 OA
ENDROOT
BRANCH   1   2
ATOM      2  C   UNL     1      18.913  -1.368  -8.634  1.00  0.00     0.214 A 
ATOM      3  C   UNL     1      20.016  -0.951  -9.405  1.00  0.00     0.180 A 
ATOM      4  O   UNL     1      21.248  -1.278  -9.037  1.00  0.00    -0.452 OA
ATOM      5  C   UNL     1      19.163  -2.091  -7.443  1.00  0.00     0.239 A 
ATOM      6  C   UNL     1      21.528  -1.947  -7.928  1.00  0.00     0.146 A 
ATOM      7  O   UNL     1      18.202  -2.545  -6.773  1.00  0.00    -0.285 OA
ATOM      8  C   UNL     1      20.498  -2.344  -7.040  1.00  0.00     0.111 A 
ATOM      9  C   UNL     1      22.862  -2.258  -7.655  1.00  0.00     0.094 A 
ATOM     10  C   UNL     1      20.862  -3.009  -5.832  1.00  0.00     0.134 A 
ATOM     11  C   UNL     1      23.201  -2.968  -6.506  1.00  0.00     0.123 A 
ATOM     12  C   UNL     1      22.202  -3.345  -5.605  1.00  0.00     0.093 A 
BRANCH   3  13
ATOM     13  C   UNL     1      19.851  -0.176 -10.655  1.00  0.00     0.021 A 
ATOM     14  C   UNL     1      19.707  -0.815 -11.899  1.00  0.00     0.016 A 
ATOM     15  C   UNL     1      19.532  -0.064 -13.066  1.00  0.00     0.047 A 
ATOM     16  C   UNL     1      19.476   1.331 -13.002  1.00  0.00     0.115 A 
ATOM     17  C   UNL     1      19.776   1.225 -10.597  1.00  0.00     0.016 A 
ATOM     18  C   UNL     1      19.596   1.974 -11.764  1.00  0.00     0.047 A 
BRANCH  16  19
ATOM     19  O   UNL     1      19.295   2.065 -14.171  1.00  0.00    -0.508 OA
ATOM     20  H   UNL     1      20.077   2.326 -14.758  1.00  0.00     0.293 HD
ENDBRANCH  16  19
ENDBRANCH   3  13
BRANCH  10  21
ATOM     21  O   UNL     1      19.957  -3.326  -4.816  1.00  0.00    -0.507 OA
ATOM     22  H   UNL     1      19.234  -4.026  -4.896  1.00  0.00     0.293 HD
ENDBRANCH  10  21
BRANCH  11  23
ATOM     23  O   UNL     1      24.537  -3.286  -6.263  1.00  0.00    -0.508 OA
ATOM     24  H   UNL     1      24.813  -4.215  -5.964  1.00  0.00     0.293 HD
ENDBRANCH  11  23
ENDBRANCH   1   2
BRANCH   1  25
ATOM     25  C   UNL     1      16.504  -1.964  -9.228  1.00  0.00     0.339 C 
ATOM     26  C   UNL     1      16.977  -3.344  -9.719  1.00  0.00     0.214 C 
ATOM     27  O   UNL     1      15.490  -1.434 -10.072  1.00  0.00    -0.332 OA
ATOM     28  C   UNL     1      17.416  -3.269 -11.194  1.00  0.00     0.180 C 
ATOM     29  C   UNL     1      15.959  -1.231 -11.396  1.00  0.00     0.179 C 
ATOM     30  C   UNL     1      16.340  -2.580 -12.052  1.00  0.00     0.177 C 
BRANCH  26  31
ATOM     31  O   UNL     1      15.930  -4.271  -9.561  1.00  0.00    -0.384 OA
ATOM     32  H   UNL     1      16.345  -5.168  -9.467  1.00  0.00     0.211 HD
ENDBRANCH  26  31
BRANCH  28  33
ATOM     33  O   UNL     1      17.680  -4.560 -11.681  1.00  0.00    -0.387 OA
ATOM     34  H   UNL     1      17.473  -4.549 -12.652  1.00  0.00     0.211 HD
ENDBRANCH  28  33
BRANCH  29  35
ATOM     35  C   UNL     1      14.876  -0.489 -12.189  1.00  0.00     0.191 C 
BRANCH  35  36
ATOM     36  O   UNL     1      13.601  -0.983 -11.873  1.00  0.00    -0.394 OA
ATOM     37  H   UNL     1      13.364  -0.622 -10.978  1.00  0.00     0.210 HD
ENDBRANCH  35  36
ENDBRANCH  29  35
BRANCH  30  38
ATOM     38  O   UNL     1      15.211  -3.415 -12.153  1.00  0.00    -0.387 OA
ATOM     39  H   UNL     1      15.498  -4.241 -12.624  1.00  0.00     0.211 HD
ENDBRANCH  30  38
ENDBRANCH   1  25
TORSDOF 11
ENDMDL
MODEL 8
REMARK VINA RESULT:    -5.564      1.710      2.563
REMARK INTER + INTRA:          -9.396
REMARK INTER:                  -7.882
REMARK INTRA:                  -1.515
REMARK UNBOUND:                -1.393
REMARK SMILES O=c1c(O[C@H]2O[C@H](CO)[C@H](O)[C@H](O)[C@@H]2O)c(-c2ccc(O)cc2)oc2cc(O)cc(O)c12
REMARK SMILES IDX 4 1 3 2 16 3 24 4 2 5 25 6 1 7 32 8 26 9 30 10 27 11 29 12
REMARK SMILES IDX 17 13 18 14 19 15 20 16 23 17 22 18 21 19 31 21 28 23 5 25
REMARK SMILES IDX 14 26 6 27 12 28 7 29 10 30 15 31 13 33 8 35 9 36 11 38
REMARK H PARENT 21 20 31 22 28 24 15 32 13 34 9 37 11 39
REMARK Flexibility Score: inf
ROOT
ATOM      1  O   UNL     1      17.421   0.516 -11.936  1.00  0.00    -0.454 OA
ENDROOT
BRANCH   1   2
ATOM      2  C   UNL     1      17.784   0.346 -13.289  1.00  0.00     0.214 A 
ATOM      3  C   UNL     1      16.870  -0.308 -14.139  1.00  0.00     0.180 A 
ATOM      4  O   UNL     1      17.199  -0.569 -15.397  1.00  0.00    -0.452 OA
ATOM      5  C   UNL     1      19.025   0.756 -13.831  1.00  0.00     0.239 A 
ATOM      6  C   UNL     1      18.346  -0.198 -15.947  1.00  0.00     0.146 A 
ATOM      7  O   UNL     1      19.894   1.272 -13.084  1.00  0.00    -0.285 OA
ATOM      8  C   UNL     1      19.302   0.536 -15.203  1.00  0.00     0.111 A 
ATOM      9  C   UNL     1      18.596  -0.550 -17.276  1.00  0.00     0.094 A 
ATOM     10  C   UNL     1      20.494   0.961 -15.862  1.00  0.00     0.134 A 
ATOM     11  C   UNL     1      19.792  -0.190 -17.889  1.00  0.00     0.123 A 
ATOM     12  C   UNL     1      20.736   0.557 -17.181  1.00  0.00     0.093 A 
BRANCH   3  13
ATOM     13  C   UNL     1      15.541  -0.757 -13.665  1.00  0.00     0.021 A 
ATOM     14  C   UNL     1      14.377  -0.019 -13.943  1.00  0.00     0.016 A 
ATOM     15  C   UNL     1      13.129  -0.472 -13.502  1.00  0.00     0.047 A 
ATOM     16  C   UNL     1      13.026  -1.675 -12.800  1.00  0.00     0.115 A 
ATOM     17  C   UNL     1      15.427  -1.975 -12.974  1.00  0.00     0.016 A 
ATOM     18  C   UNL     1      14.178  -2.427 -12.539  1.00  0.00     0.047 A 
BRANCH  16  19
ATOM     19  O   UNL     1      11.776  -2.116 -12.373  1.00  0.00    -0.508 OA
ATOM     20  H   UNL     1      11.569  -2.250 -11.391  1.00  0.00     0.293 HD
ENDBRANCH  16  19
ENDBRANCH   3  13
BRANCH  10  21
ATOM     21  O   UNL     1      21.446   1.803 -15.282  1.00  0.00    -0.507 OA
ATOM     22  H   UNL     1      22.265   2.150 -15.759  1.00  0.00     0.293 HD
ENDBRANCH  10  21
BRANCH  11  23
ATOM     23  O   UNL     1      20.030  -0.570 -19.210  1.00  0.00    -0.508 OA
ATOM     24  H   UNL     1      19.748  -1.481 -19.556  1.00  0.00     0.293 HD
ENDBRANCH  11  23
ENDBRANCH   1   2
BRANCH   1  25
ATOM     25  C   UNL     1      17.205   1.747 -11.238  1.00  0.00     0.339 C 
ATOM     26  C   UNL     1      17.916   1.711  -9.873  1.00  0.00     0.214 C 
ATOM     27  O   UNL     1      15.820   2.034 -11.093  1.00  0.00    -0.332 OA
ATOM     28  C   UNL     1      17.207   0.727  -8.923  1.00  0.00     0.180 C 
ATOM     29  C   UNL     1      15.152   1.035 -10.339  1.00  0.00     0.179 C 
ATOM     30  C   UNL     1      15.691   0.996  -8.889  1.00  0.00     0.177 C 
BRANCH  26  31
ATOM     31  O   UNL     1      17.925   3.008  -9.327  1.00  0.00    -0.384 OA
ATOM     32  H   UNL     1      17.661   2.925  -8.373  1.00  0.00     0.211 HD
ENDBRANCH  26  31
BRANCH  28  33
ATOM     33  O   UNL     1      17.754   0.829  -7.633  1.00  0.00    -0.387 OA
ATOM     34  H   UNL     1      17.917   1.795  -7.466  1.00  0.00     0.211 HD
ENDBRANCH  28  33
BRANCH  29  35
ATOM     35  C   UNL     1      13.644   1.314 -10.386  1.00  0.00     0.191 C 
BRANCH  35  36
ATOM     36  O   UNL     1      13.030   0.939  -9.181  1.00  0.00    -0.394 OA
ATOM     37  H   UNL     1      13.484   1.445  -8.456  1.00  0.00     0.210 HD
ENDBRANCH  35  36
ENDBRANCH  29  35
BRANCH  30  38
ATOM     38  O   UNL     1      15.444   2.219  -8.237  1.00  0.00    -0.387 OA
ATOM     39  H   UNL     1      14.780   2.715  -8.784  1.00  0.00     0.211 HD
ENDBRANCH  30  38
ENDBRANCH   1  25
TORSDOF 11
ENDMDL
MODEL 9
REMARK VINA RESULT:    -5.546      3.380      6.903
REMARK INTER + INTRA:          -9.371
REMARK INTER:                  -8.074
REMARK INTRA:                  -1.297
REMARK UNBOUND:                -1.393
REMARK SMILES O=c1c(O[C@H]2O[C@H](CO)[C@H](O)[C@H](O)[C@@H]2O)c(-c2ccc(O)cc2)oc2cc(O)cc(O)c12
REMARK SMILES IDX 4 1 3 2 16 3 24 4 2 5 25 6 1 7 32 8 26 9 30 10 27 11 29 12
REMARK SMILES IDX 17 13 18 14 19 15 20 16 23 17 22 18 21 19 31 21 28 23 5 25
REMARK SMILES IDX 14 26 6 27 12 28 7 29 10 30 15 31 13 33 8 35 9 36 11 38
REMARK H PARENT 21 20 31 22 28 24 15 32 13 34 9 37 11 39
REMARK Flexibility Score: inf
ROOT
ATOM      1  O   UNL     1      15.473  -1.103 -11.020  1.00  0.00    -0.454 OA
ENDROOT
BRANCH   1   2
ATOM      2  C   UNL     1      16.493  -1.415 -10.096  1.00  0.00     0.214 A 
ATOM      3  C   UNL     1      16.796  -2.775  -9.884  1.00  0.00     0.180 A 
ATOM      4  O   UNL     1      17.686  -3.124  -8.964  1.00  0.00    -0.452 OA
ATOM      5  C   UNL     1      17.199  -0.447  -9.342  1.00  0.00     0.239 A 
ATOM      6  C   UNL     1      18.373  -2.252  -8.242  1.00  0.00     0.146 A 
ATOM      7  O   UNL     1      16.899   0.768  -9.449  1.00  0.00    -0.285 OA
ATOM      8  C   UNL     1      18.203  -0.858  -8.432  1.00  0.00     0.111 A 
ATOM      9  C   UNL     1      19.267  -2.735  -7.283  1.00  0.00     0.094 A 
ATOM     10  C   UNL     1      19.012   0.034  -7.668  1.00  0.00     0.134 A 
ATOM     11  C   UNL     1      20.001  -1.854  -6.494  1.00  0.00     0.123 A 
ATOM     12  C   UNL     1      19.868  -0.477  -6.685  1.00  0.00     0.093 A 
BRANCH   3  13
ATOM     13  C   UNL     1      16.122  -3.856 -10.639  1.00  0.00     0.021 A 
ATOM     14  C   UNL     1      14.814  -4.263 -10.323  1.00  0.00     0.016 A 
ATOM     15  C   UNL     1      14.188  -5.272 -11.062  1.00  0.00     0.047 A 
ATOM     16  C   UNL     1      14.851  -5.871 -12.137  1.00  0.00     0.115 A 
ATOM     17  C   UNL     1      16.775  -4.449 -11.732  1.00  0.00     0.016 A 
ATOM     18  C   UNL     1      16.146  -5.455 -12.472  1.00  0.00     0.047 A 
BRANCH  16  19
ATOM     19  O   UNL     1      14.213  -6.870 -12.867  1.00  0.00    -0.508 OA
ATOM     20  H   UNL     1      13.377  -7.325 -12.521  1.00  0.00     0.293 HD
ENDBRANCH  16  19
ENDBRANCH   3  13
BRANCH  10  21
ATOM     21  O   UNL     1      19.039   1.418  -7.861  1.00  0.00    -0.507 OA
ATOM     22  H   UNL     1      18.303   2.047  -7.572  1.00  0.00     0.293 HD
ENDBRANCH  10  21
BRANCH  11  23
ATOM     23  O   UNL     1      20.872  -2.358  -5.528  1.00  0.00    -0.508 OA
ATOM     24  H   UNL     1      20.636  -2.338  -4.542  1.00  0.00     0.293 HD
ENDBRANCH  11  23
ENDBRANCH   1   2
BRANCH   1  25
ATOM     25  C   UNL     1      15.580  -1.023 -12.446  1.00  0.00     0.339 C 
ATOM     26  C   UNL     1      15.810   0.436 -12.876  1.00  0.00     0.214 C 
ATOM     27  O   UNL     1      14.441  -1.581 -13.090  1.00  0.00    -0.332 OA
ATOM     28  C   UNL     1      14.535   1.272 -12.648  1.00  0.00     0.180 C 
ATOM     29  C   UNL     1      13.251  -0.887 -12.748  1.00  0.00     0.179 C 
ATOM     30  C   UNL     1      13.306   0.573 -13.258  1.00  0.00     0.177 C 
BRANCH  26  31
ATOM     31  O   UNL     1      16.181   0.461 -14.233  1.00  0.00    -0.384 OA
ATOM     32  H   UNL     1      16.909   1.130 -14.325  1.00  0.00     0.211 HD
ENDBRANCH  26  31
BRANCH  28  33
ATOM     33  O   UNL     1      14.698   2.552 -13.202  1.00  0.00    -0.387 OA
ATOM     34  H   UNL     1      15.133   3.113 -12.506  1.00  0.00     0.211 HD
ENDBRANCH  28  33
BRANCH  29  35
ATOM     35  C   UNL     1      12.056  -1.656 -13.327  1.00  0.00     0.191 C 
BRANCH  35  36
ATOM     36  O   UNL     1      11.047  -0.771 -13.739  1.00  0.00    -0.394 OA
ATOM     37  H   UNL     1      10.208  -1.299 -13.804  1.00  0.00     0.210 HD
ENDBRANCH  35  36
ENDBRANCH  29  35
BRANCH  30  38
ATOM     38  O   UNL     1      13.395   0.603 -14.662  1.00  0.00    -0.387 OA
ATOM     39  H   UNL     1      12.586   1.070 -14.999  1.00  0.00     0.211 HD
ENDBRANCH  30  38
ENDBRANCH   1  25
TORSDOF 11
ENDMDL
