MODEL 1
REMARK VINA RESULT:    -5.453      0.000      0.000
REMARK INTER + INTRA:          -5.995
REMARK INTER:                  -5.931
REMARK INTRA:                  -0.064
REMARK UNBOUND:                -0.064
REMARK SMILES COc1cc2ccc(=O)oc2cc1O
REMARK SMILES IDX 3 1 13 2 12 3 11 4 5 5 4 6 6 7 7 8 8 9 9 10 10 11 2 12 1 13
REMARK SMILES IDX 14 14
REMARK H PARENT 14 15
REMARK Flexibility Score: inf
ROOT
ATOM      1  C   UNL     1      54.104 112.673  45.849  1.00  0.00     0.161 A 
ATOM      2  C   UNL     1      54.088 112.461  47.241  1.00  0.00     0.161 A 
ATOM      3  C   UNL     1      52.928 112.720  47.981  1.00  0.00     0.098 A 
ATOM      4  C   UNL     1      51.776 113.192  47.348  1.00  0.00     0.142 A 
ATOM      5  C   UNL     1      51.781 113.408  45.954  1.00  0.00     0.022 A 
ATOM      6  C   UNL     1      52.940 113.149  45.210  1.00  0.00     0.062 A 
ATOM      7  C   UNL     1      50.612 113.879  45.349  1.00  0.00     0.019 A 
ATOM      8  C   UNL     1      49.485 114.122  46.133  1.00  0.00     0.094 A 
ATOM      9  C   UNL     1      49.553 113.885  47.510  1.00  0.00     0.336 A 
ATOM     10  O   UNL     1      48.546 114.097  48.234  1.00  0.00    -0.246 OA
ATOM     11  O   UNL     1      50.678 113.435  48.061  1.00  0.00    -0.423 OA
ENDROOT
BRANCH   1  12
ATOM     12  O   UNL     1      55.283 112.402  45.137  1.00  0.00    -0.493 OA
ATOM     13  C   UNL     1      55.485 111.258  44.314  1.00  0.00     0.278 C 
ENDBRANCH   1  12
BRANCH   2  14
ATOM     14  O   UNL     1      55.219 111.992  47.910  1.00  0.00    -0.504 OA
ATOM     15  H   UNL     1      56.019 112.583  48.096  1.00  0.00     0.293 HD
ENDBRANCH   2  14
TORSDOF 2
ENDMDL
MODEL 2
REMARK VINA RESULT:    -5.054      3.445      5.106
REMARK INTER + INTRA:          -5.561
REMARK INTER:                  -5.517
REMARK INTRA:                  -0.044
REMARK UNBOUND:                -0.064
REMARK SMILES COc1cc2ccc(=O)oc2cc1O
REMARK SMILES IDX 3 1 13 2 12 3 11 4 5 5 4 6 6 7 7 8 8 9 9 10 10 11 2 12 1 13
REMARK SMILES IDX 14 14
REMARK H PARENT 14 15
REMARK Flexibility Score: inf
ROOT
ATOM      1  C   UNL     1      49.323 113.821  47.221  1.00  0.00     0.161 A 
ATOM      2  C   UNL     1      49.690 113.345  48.495  1.00  0.00     0.161 A 
ATOM      3  C   UNL     1      48.711 113.079  49.459  1.00  0.00     0.098 A 
ATOM      4  C   UNL     1      47.360 113.282  49.169  1.00  0.00     0.142 A 
ATOM      5  C   UNL     1      46.981 113.757  47.896  1.00  0.00     0.022 A 
ATOM      6  C   UNL     1      47.958 114.025  46.929  1.00  0.00     0.062 A 
ATOM      7  C   UNL     1      45.621 113.950  47.635  1.00  0.00     0.019 A 
ATOM      8  C   UNL     1      44.686 113.669  48.631  1.00  0.00     0.094 A 
ATOM      9  C   UNL     1      45.135 113.200  49.870  1.00  0.00     0.336 A 
ATOM     10  O   UNL     1      44.307 112.941  50.781  1.00  0.00    -0.246 OA
ATOM     11  O   UNL     1      46.435 113.025  50.092  1.00  0.00    -0.423 OA
ENDROOT
BRANCH   1  12
ATOM     12  O   UNL     1      50.331 114.077  46.279  1.00  0.00    -0.493 OA
ATOM     13  C   UNL     1      50.127 114.124  44.870  1.00  0.00     0.278 C 
ENDBRANCH   1  12
BRANCH   2  14
ATOM     14  O   UNL     1      51.030 113.131  48.824  1.00  0.00    -0.504 OA
ATOM     15  H   UNL     1      51.307 112.561  49.613  1.00  0.00     0.293 HD
ENDBRANCH   2  14
TORSDOF 2
ENDMDL
MODEL 3
REMARK VINA RESULT:    -4.954      1.796      2.878
REMARK INTER + INTRA:          -5.452
REMARK INTER:                  -5.401
REMARK INTRA:                  -0.052
REMARK UNBOUND:                -0.064
REMARK SMILES COc1cc2ccc(=O)oc2cc1O
REMARK SMILES IDX 3 1 13 2 12 3 11 4 5 5 4 6 6 7 7 8 8 9 9 10 10 11 2 12 1 13
REMARK SMILES IDX 14 14
REMARK H PARENT 14 15
REMARK Flexibility Score: inf
ROOT
ATOM      1  C   UNL     1      54.638 112.949  47.483  1.00  0.00     0.161 A 
ATOM      2  C   UNL     1      54.888 112.873  46.099  1.00  0.00     0.161 A 
ATOM      3  C   UNL     1      53.857 113.101  45.181  1.00  0.00     0.098 A 
ATOM      4  C   UNL     1      52.569 113.406  45.627  1.00  0.00     0.142 A 
ATOM      5  C   UNL     1      52.307 113.485  47.011  1.00  0.00     0.022 A 
ATOM      6  C   UNL     1      53.337 113.257  47.932  1.00  0.00     0.062 A 
ATOM      7  C   UNL     1      51.008 113.793  47.427  1.00  0.00     0.019 A 
ATOM      8  C   UNL     1      50.016 114.010  46.470  1.00  0.00     0.094 A 
ATOM      9  C   UNL     1      50.348 113.915  45.115  1.00  0.00     0.336 A 
ATOM     10  O   UNL     1      49.468 114.109  44.237  1.00  0.00    -0.246 OA
ATOM     11  O   UNL     1      51.593 113.621  44.746  1.00  0.00    -0.423 OA
ENDROOT
BRANCH   1  12
ATOM     12  O   UNL     1      55.697 112.715  48.375  1.00  0.00    -0.493 OA
ATOM     13  C   UNL     1      56.032 113.562  49.470  1.00  0.00     0.278 C 
ENDBRANCH   1  12
BRANCH   2  14
ATOM     14  O   UNL     1      56.162 112.570  45.614  1.00  0.00    -0.504 OA
ATOM     15  H   UNL     1      56.432 112.755  44.656  1.00  0.00     0.293 HD
ENDBRANCH   2  14
TORSDOF 2
ENDMDL
MODEL 4
REMARK VINA RESULT:    -4.838      9.789     10.618
REMARK INTER + INTRA:          -5.327
REMARK INTER:                  -5.280
REMARK INTRA:                  -0.047
REMARK UNBOUND:                -0.064
REMARK SMILES COc1cc2ccc(=O)oc2cc1O
REMARK SMILES IDX 3 1 13 2 12 3 11 4 5 5 4 6 6 7 7 8 8 9 9 10 10 11 2 12 1 13
REMARK SMILES IDX 14 14
REMARK H PARENT 14 15
REMARK Flexibility Score: inf
ROOT
ATOM      1  C   UNL     1      48.668 105.669  52.222  1.00  0.00     0.161 A 
ATOM      2  C   UNL     1      47.414 105.051  52.391  1.00  0.00     0.161 A 
ATOM      3  C   UNL     1      46.386 105.713  53.072  1.00  0.00     0.098 A 
ATOM      4  C   UNL     1      46.593 106.993  53.591  1.00  0.00     0.142 A 
ATOM      5  C   UNL     1      47.845 107.621  53.428  1.00  0.00     0.022 A 
ATOM      6  C   UNL     1      48.877 106.961  52.747  1.00  0.00     0.062 A 
ATOM      7  C   UNL     1      48.022 108.903  53.958  1.00  0.00     0.019 A 
ATOM      8  C   UNL     1      46.965 109.519  54.628  1.00  0.00     0.094 A 
ATOM      9  C   UNL     1      45.752 108.836  54.752  1.00  0.00     0.336 A 
ATOM     10  O   UNL     1      44.786 109.374  55.353  1.00  0.00    -0.246 OA
ATOM     11  O   UNL     1      45.610 107.616  54.238  1.00  0.00    -0.423 OA
ENDROOT
BRANCH   1  12
ATOM     12  O   UNL     1      49.676 104.975  51.533  1.00  0.00    -0.493 OA
ATOM     13  C   UNL     1      50.605 104.084  52.143  1.00  0.00     0.278 C 
ENDBRANCH   1  12
BRANCH   2  14
ATOM     14  O   UNL     1      47.168 103.772  51.888  1.00  0.00    -0.504 OA
ATOM     15  H   UNL     1      47.713 102.967  52.171  1.00  0.00     0.293 HD
ENDBRANCH   2  14
TORSDOF 2
ENDMDL
MODEL 5
REMARK VINA RESULT:    -4.704      9.426     10.864
REMARK INTER + INTRA:          -5.181
REMARK INTER:                  -5.116
REMARK INTRA:                  -0.065
REMARK UNBOUND:                -0.064
REMARK SMILES COc1cc2ccc(=O)oc2cc1O
REMARK SMILES IDX 3 1 13 2 12 3 11 4 5 5 4 6 6 7 7 8 8 9 9 10 10 11 2 12 1 13
REMARK SMILES IDX 14 14
REMARK H PARENT 14 15
REMARK Flexibility Score: inf
ROOT
ATOM      1  C   UNL     1      46.937 108.730  53.941  1.00  0.00     0.161 A 
ATOM      2  C   UNL     1      48.321 108.984  54.001  1.00  0.00     0.161 A 
ATOM      3  C   UNL     1      49.235 108.027  53.544  1.00  0.00     0.098 A 
ATOM      4  C   UNL     1      48.785 106.812  53.024  1.00  0.00     0.142 A 
ATOM      5  C   UNL     1      47.401 106.547  52.958  1.00  0.00     0.022 A 
ATOM      6  C   UNL     1      46.483 107.503  53.415  1.00  0.00     0.062 A 
ATOM      7  C   UNL     1      46.981 105.322  52.432  1.00  0.00     0.019 A 
ATOM      8  C   UNL     1      47.933 104.404  51.991  1.00  0.00     0.094 A 
ATOM      9  C   UNL     1      49.289 104.734  52.086  1.00  0.00     0.336 A 
ATOM     10  O   UNL     1      50.164 103.920  51.693  1.00  0.00    -0.246 OA
ATOM     11  O   UNL     1      49.662 105.908  52.591  1.00  0.00    -0.423 OA
ENDROOT
BRANCH   1  12
ATOM     12  O   UNL     1      46.049 109.712  54.408  1.00  0.00    -0.493 OA
ATOM     13  C   UNL     1      45.340 110.622  53.573  1.00  0.00     0.278 C 
ENDBRANCH   1  12
BRANCH   2  14
ATOM     14  O   UNL     1      48.810 110.186  54.515  1.00  0.00    -0.504 OA
ATOM     15  H   UNL     1      49.352 110.226  55.369  1.00  0.00     0.293 HD
ENDBRANCH   2  14
TORSDOF 2
ENDMDL
MODEL 6
REMARK VINA RESULT:    -4.386      8.822      9.860
REMARK INTER + INTRA:          -4.835
REMARK INTER:                  -4.771
REMARK INTRA:                  -0.064
REMARK UNBOUND:                -0.064
REMARK SMILES COc1cc2ccc(=O)oc2cc1O
REMARK SMILES IDX 3 1 13 2 12 3 11 4 5 5 4 6 6 7 7 8 8 9 9 10 10 11 2 12 1 13
REMARK SMILES IDX 14 14
REMARK H PARENT 14 15
REMARK Flexibility Score: inf
ROOT
ATOM      1  C   UNL     1      46.189 110.621  54.287  1.00  0.00     0.161 A 
ATOM      2  C   UNL     1      45.265 109.791  53.622  1.00  0.00     0.161 A 
ATOM      3  C   UNL     1      44.627 110.234  52.458  1.00  0.00     0.098 A 
ATOM      4  C   UNL     1      44.898 111.504  51.944  1.00  0.00     0.142 A 
ATOM      5  C   UNL     1      45.821 112.344  52.601  1.00  0.00     0.022 A 
ATOM      6  C   UNL     1      46.463 111.903  53.766  1.00  0.00     0.062 A 
ATOM      7  C   UNL     1      46.073 113.609  52.061  1.00  0.00     0.019 A 
ATOM      8  C   UNL     1      45.409 114.002  50.899  1.00  0.00     0.094 A 
ATOM      9  C   UNL     1      44.507 113.117  50.301  1.00  0.00     0.336 A 
ATOM     10  O   UNL     1      43.899 113.452  49.252  1.00  0.00    -0.246 OA
ATOM     11  O   UNL     1      44.286 111.917  50.836  1.00  0.00    -0.423 OA
ENDROOT
BRANCH   1  12
ATOM     12  O   UNL     1      46.811 110.144  55.451  1.00  0.00    -0.493 OA
ATOM     13  C   UNL     1      48.174 109.740  55.531  1.00  0.00     0.278 C 
ENDBRANCH   1  12
BRANCH   2  14
ATOM     14  O   UNL     1      44.967 108.516  54.106  1.00  0.00    -0.504 OA
ATOM     15  H   UNL     1      45.658 107.939  54.567  1.00  0.00     0.293 HD
ENDBRANCH   2  14
TORSDOF 2
ENDMDL
MODEL 7
REMARK VINA RESULT:    -4.315      2.249      3.281
REMARK INTER + INTRA:          -4.757
REMARK INTER:                  -4.707
REMARK INTRA:                  -0.050
REMARK UNBOUND:                -0.064
REMARK SMILES COc1cc2ccc(=O)oc2cc1O
REMARK SMILES IDX 3 1 13 2 12 3 11 4 5 5 4 6 6 7 7 8 8 9 9 10 10 11 2 12 1 13
REMARK SMILES IDX 14 14
REMARK H PARENT 14 15
REMARK Flexibility Score: inf
ROOT
ATOM      1  C   UNL     1      54.853 113.677  49.203  1.00  0.00     0.161 A 
ATOM      2  C   UNL     1      53.678 113.249  49.851  1.00  0.00     0.161 A 
ATOM      3  C   UNL     1      52.484 113.117  49.132  1.00  0.00     0.098 A 
ATOM      4  C   UNL     1      52.444 113.410  47.767  1.00  0.00     0.142 A 
ATOM      5  C   UNL     1      53.615 113.840  47.109  1.00  0.00     0.022 A 
ATOM      6  C   UNL     1      54.813 113.972  47.825  1.00  0.00     0.062 A 
ATOM      7  C   UNL     1      53.545 114.125  45.742  1.00  0.00     0.019 A 
ATOM      8  C   UNL     1      52.330 113.978  45.074  1.00  0.00     0.094 A 
ATOM      9  C   UNL     1      51.209 113.547  45.791  1.00  0.00     0.336 A 
ATOM     10  O   UNL     1      50.104 113.408  45.206  1.00  0.00    -0.246 OA
ATOM     11  O   UNL     1      51.304 113.283  47.092  1.00  0.00    -0.423 OA
ENDROOT
BRANCH   1  12
ATOM     12  O   UNL     1      56.033 113.797  49.954  1.00  0.00    -0.493 OA
ATOM     13  C   UNL     1      57.310 113.329  49.532  1.00  0.00     0.278 C 
ENDBRANCH   1  12
BRANCH   2  14
ATOM     14  O   UNL     1      53.677 112.947  51.213  1.00  0.00    -0.504 OA
ATOM     15  H   UNL     1      54.528 112.745  51.722  1.00  0.00     0.293 HD
ENDBRANCH   2  14
TORSDOF 2
ENDMDL
MODEL 8
REMARK VINA RESULT:    -4.314      9.412     10.810
REMARK INTER + INTRA:          -4.757
REMARK INTER:                  -4.692
REMARK INTRA:                  -0.065
REMARK UNBOUND:                -0.064
REMARK SMILES COc1cc2ccc(=O)oc2cc1O
REMARK SMILES IDX 3 1 13 2 12 3 11 4 5 5 4 6 6 7 7 8 8 9 9 10 10 11 2 12 1 13
REMARK SMILES IDX 14 14
REMARK H PARENT 14 15
REMARK Flexibility Score: inf
ROOT
ATOM      1  C   UNL     1      48.022 109.632  54.228  1.00  0.00     0.161 A 
ATOM      2  C   UNL     1      46.661 109.274  54.273  1.00  0.00     0.161 A 
ATOM      3  C   UNL     1      46.244 108.024  53.801  1.00  0.00     0.098 A 
ATOM      4  C   UNL     1      47.172 107.119  53.280  1.00  0.00     0.142 A 
ATOM      5  C   UNL     1      48.538 107.467  53.231  1.00  0.00     0.022 A 
ATOM      6  C   UNL     1      48.959 108.718  53.704  1.00  0.00     0.062 A 
ATOM      7  C   UNL     1      49.443 106.540  52.706  1.00  0.00     0.019 A 
ATOM      8  C   UNL     1      48.974 105.309  52.249  1.00  0.00     0.094 A 
ATOM      9  C   UNL     1      47.606 105.032  52.328  1.00  0.00     0.336 A 
ATOM     10  O   UNL     1      47.163 103.927  51.922  1.00  0.00    -0.246 OA
ATOM     11  O   UNL     1      46.766 105.933  52.833  1.00  0.00    -0.423 OA
ENDROOT
BRANCH   1  12
ATOM     12  O   UNL     1      48.406 110.893  54.711  1.00  0.00    -0.493 OA
ATOM     13  C   UNL     1      48.977 111.128  55.995  1.00  0.00     0.278 C 
ENDBRANCH   1  12
BRANCH   2  14
ATOM     14  O   UNL     1      45.703 110.151  54.784  1.00  0.00    -0.504 OA
ATOM     15  H   UNL     1      45.444 110.155  55.762  1.00  0.00     0.293 HD
ENDBRANCH   2  14
TORSDOF 2
ENDMDL
MODEL 9
REMARK VINA RESULT:    -4.227      3.117      4.039
REMARK INTER + INTRA:          -4.662
REMARK INTER:                  -4.688
REMARK INTRA:                   0.026
REMARK UNBOUND:                -0.064
REMARK SMILES COc1cc2ccc(=O)oc2cc1O
REMARK SMILES IDX 3 1 13 2 12 3 11 4 5 5 4 6 6 7 7 8 8 9 9 10 10 11 2 12 1 13
REMARK SMILES IDX 14 14
REMARK H PARENT 14 15
REMARK Flexibility Score: inf
ROOT
ATOM      1  C   UNL     1      54.143 112.497  46.564  1.00  0.00     0.161 A 
ATOM      2  C   UNL     1      55.350 113.162  46.856  1.00  0.00     0.161 A 
ATOM      3  C   UNL     1      55.610 113.618  48.154  1.00  0.00     0.098 A 
ATOM      4  C   UNL     1      54.675 113.418  49.173  1.00  0.00     0.142 A 
ATOM      5  C   UNL     1      53.464 112.752  48.892  1.00  0.00     0.022 A 
ATOM      6  C   UNL     1      53.201 112.295  47.594  1.00  0.00     0.062 A 
ATOM      7  C   UNL     1      52.549 112.566  49.932  1.00  0.00     0.019 A 
ATOM      8  C   UNL     1      52.857 113.040  51.208  1.00  0.00     0.094 A 
ATOM      9  C   UNL     1      54.077 113.691  51.413  1.00  0.00     0.336 A 
ATOM     10  O   UNL     1      54.374 114.125  52.556  1.00  0.00    -0.246 OA
ATOM     11  O   UNL     1      54.931 113.854  50.404  1.00  0.00    -0.423 OA
ENDROOT
BRANCH   1  12
ATOM     12  O   UNL     1      53.917 112.053  45.252  1.00  0.00    -0.493 OA
ATOM     13  C   UNL     1      54.512 110.894  44.676  1.00  0.00     0.278 C 
ENDBRANCH   1  12
BRANCH   2  14
ATOM     14  O   UNL     1      56.308 113.382  45.865  1.00  0.00    -0.504 OA
ATOM     15  H   UNL     1      57.297 113.244  46.031  1.00  0.00     0.293 HD
ENDBRANCH   2  14
TORSDOF 2
ENDMDL
