MODEL 1
REMARK VINA RESULT:    14.166      0.000      0.000
REMARK INTER + INTRA:          33.785
REMARK INTER:                  35.697
REMARK INTRA:                  -1.912
REMARK UNBOUND:                -1.912
REMARK SMILES CCCCCCCCCCCCCCCCCCCCCCCCCCCC(=O)[O-]
REMARK SMILES IDX 15 1 16 2 17 3 18 4 19 5 20 6 21 7 22 8 23 9 24 10 25 11
REMARK SMILES IDX 26 12 27 13 28 14 29 15 30 16 14 17 13 18 12 19 11 20 10 21
REMARK SMILES IDX 9 22 8 23 7 24 6 25 5 26 4 27 3 28 2 29 1 30
REMARK H PARENT
REMARK Flexibility Score: inf
ROOT
ATOM      1  C   UNL     1      33.103  12.279  40.043  1.00  0.00     0.000 C 
ENDROOT
BRANCH   1   2
ATOM      2  C   UNL     1      32.945  11.163  41.089  1.00  0.00     0.000 C 
BRANCH   2   3
ATOM      3  C   UNL     1      32.682   9.787  40.456  1.00  0.00     0.000 C 
BRANCH   3   4
ATOM      4  C   UNL     1      33.785   9.375  39.465  1.00  0.00     0.000 C 
BRANCH   4   5
ATOM      5  C   UNL     1      35.113   9.036  40.163  1.00  0.00     0.000 C 
BRANCH   5   6
ATOM      6  C   UNL     1      34.907   8.309  41.502  1.00  0.00     0.000 C 
BRANCH   6   7
ATOM      7  C   UNL     1      35.716   7.003  41.604  1.00  0.00     0.000 C 
BRANCH   7   8
ATOM      8  C   UNL     1      34.904   5.707  41.402  1.00  0.00     0.000 C 
BRANCH   8   9
ATOM      9  C   UNL     1      33.384   5.903  41.258  1.00  0.00     0.000 C 
BRANCH   9  10
ATOM     10  C   UNL     1      32.609   4.578  41.245  1.00  0.00     0.000 C 
BRANCH  10  11
ATOM     11  C   UNL     1      31.098   4.827  41.118  1.00  0.00     0.000 C 
BRANCH  11  12
ATOM     12  C   UNL     1      30.547   5.718  42.242  1.00  0.00     0.006 C 
BRANCH  12  13
ATOM     13  C   UNL     1      29.064   6.061  42.051  1.00  0.00     0.053 C 
BRANCH  13  14
ATOM     14  C   UNL     1      28.219   4.837  42.219  1.00  0.00     0.041 C 
ATOM     15  O   UNL     1      28.629   3.876  42.921  1.00  0.00    -0.550 OA
ATOM     16  O   UNL     1      26.958   4.776  41.639  1.00  0.00    -0.550 OA
ENDBRANCH  13  14
ENDBRANCH  12  13
ENDBRANCH  11  12
ENDBRANCH  10  11
ENDBRANCH   9  10
ENDBRANCH   8   9
ENDBRANCH   7   8
ENDBRANCH   6   7
ENDBRANCH   5   6
ENDBRANCH   4   5
ENDBRANCH   3   4
ENDBRANCH   2   3
ENDBRANCH   1   2
BRANCH   1  17
ATOM     17  C   UNL     1      34.422  13.038  40.254  1.00  0.00     0.000 C 
BRANCH  17  18
ATOM     18  C   UNL     1      35.198  12.555  41.491  1.00  0.00     0.000 C 
BRANCH  18  19
ATOM     19  C   UNL     1      35.138  13.561  42.653  1.00  0.00     0.000 C 
BRANCH  19  20
ATOM     20  C   UNL     1      36.522  13.853  43.256  1.00  0.00     0.000 C 
BRANCH  20  21
ATOM     21  C   UNL     1      36.543  15.134  44.106  1.00  0.00     0.000 C 
BRANCH  21  22
ATOM     22  C   UNL     1      35.130  15.721  44.250  1.00  0.00    -0.000 C 
BRANCH  22  23
ATOM     23  C   UNL     1      34.921  16.987  43.403  1.00  0.00    -0.000 C 
BRANCH  23  24
ATOM     24  C   UNL     1      33.823  16.815  42.339  1.00  0.00    -0.000 C 
BRANCH  24  25
ATOM     25  C   UNL     1      33.643  18.071  41.469  1.00  0.00    -0.000 C 
BRANCH  25  26
ATOM     26  C   UNL     1      33.874  17.791  39.974  1.00  0.00    -0.000 C 
BRANCH  26  27
ATOM     27  C   UNL     1      32.895  18.560  39.072  1.00  0.00    -0.000 C 
BRANCH  27  28
ATOM     28  C   UNL     1      32.023  17.631  38.213  1.00  0.00    -0.000 C 
BRANCH  28  29
ATOM     29  C   UNL     1      31.053  18.439  37.343  1.00  0.00    -0.003 C 
ATOM     30  C   UNL     1      31.146  19.931  37.653  1.00  0.00     0.004 C 
ENDBRANCH  28  29
ENDBRANCH  27  28
ENDBRANCH  26  27
ENDBRANCH  25  26
ENDBRANCH  24  25
ENDBRANCH  23  24
ENDBRANCH  22  23
ENDBRANCH  21  22
ENDBRANCH  20  21
ENDBRANCH  19  20
ENDBRANCH  18  19
ENDBRANCH  17  18
ENDBRANCH   1  17
TORSDOF 26
ENDMDL
MODEL 2
REMARK VINA RESULT:    14.706      3.992     10.805
REMARK INTER + INTRA:          35.146
REMARK INTER:                  37.331
REMARK INTRA:                  -2.184
REMARK UNBOUND:                -1.912
REMARK SMILES CCCCCCCCCCCCCCCCCCCCCCCCCCCC(=O)[O-]
REMARK SMILES IDX 15 1 16 2 17 3 18 4 19 5 20 6 21 7 22 8 23 9 24 10 25 11
REMARK SMILES IDX 26 12 27 13 28 14 29 15 30 16 14 17 13 18 12 19 11 20 10 21
REMARK SMILES IDX 9 22 8 23 7 24 6 25 5 26 4 27 3 28 2 29 1 30
REMARK H PARENT
REMARK Flexibility Score: inf
ROOT
ATOM      1  C   UNL     1      33.115  12.309  40.073  1.00  0.00     0.000 C 
ENDROOT
BRANCH   1   2
ATOM      2  C   UNL     1      34.461  13.034  40.231  1.00  0.00     0.000 C 
BRANCH   2   3
ATOM      3  C   UNL     1      35.203  12.639  41.518  1.00  0.00     0.000 C 
BRANCH   3   4
ATOM      4  C   UNL     1      34.968  13.639  42.663  1.00  0.00     0.000 C 
BRANCH   4   5
ATOM      5  C   UNL     1      36.255  13.966  43.438  1.00  0.00     0.000 C 
BRANCH   5   6
ATOM      6  C   UNL     1      36.170  15.309  44.184  1.00  0.00     0.000 C 
BRANCH   6   7
ATOM      7  C   UNL     1      34.805  16.001  44.016  1.00  0.00     0.000 C 
BRANCH   7   8
ATOM      8  C   UNL     1      34.833  17.332  43.236  1.00  0.00     0.000 C 
BRANCH   8   9
ATOM      9  C   UNL     1      33.574  17.628  42.402  1.00  0.00     0.000 C 
BRANCH   9  10
ATOM     10  C   UNL     1      33.627  17.008  40.998  1.00  0.00     0.000 C 
BRANCH  10  11
ATOM     11  C   UNL     1      34.538  17.827  40.071  1.00  0.00     0.000 C 
BRANCH  11  12
ATOM     12  C   UNL     1      33.768  18.501  38.925  1.00  0.00     0.006 C 
BRANCH  12  13
ATOM     13  C   UNL     1      32.252  18.512  39.158  1.00  0.00     0.053 C 
BRANCH  13  14
ATOM     14  C   UNL     1      31.525  18.660  37.858  1.00  0.00     0.041 C 
ATOM     15  O   UNL     1      31.208  17.641  37.190  1.00  0.00    -0.550 OA
ATOM     16  O   UNL     1      31.154  19.921  37.407  1.00  0.00    -0.550 OA
ENDBRANCH  13  14
ENDBRANCH  12  13
ENDBRANCH  11  12
ENDBRANCH  10  11
ENDBRANCH   9  10
ENDBRANCH   8   9
ENDBRANCH   7   8
ENDBRANCH   6   7
ENDBRANCH   5   6
ENDBRANCH   4   5
ENDBRANCH   3   4
ENDBRANCH   2   3
ENDBRANCH   1   2
BRANCH   1  17
ATOM     17  C   UNL     1      32.861  11.370  41.263  1.00  0.00     0.000 C 
BRANCH  17  18
ATOM     18  C   UNL     1      32.590   9.919  40.830  1.00  0.00     0.000 C 
BRANCH  18  19
ATOM     19  C   UNL     1      33.389   9.520  39.578  1.00  0.00     0.000 C 
BRANCH  19  20
ATOM     20  C   UNL     1      34.846   9.147  39.897  1.00  0.00     0.000 C 
BRANCH  20  21
ATOM     21  C   UNL     1      35.057   8.783  41.375  1.00  0.00     0.000 C 
BRANCH  21  22
ATOM     22  C   UNL     1      36.120   7.683  41.524  1.00  0.00    -0.000 C 
BRANCH  22  23
ATOM     23  C   UNL     1      35.521   6.329  41.938  1.00  0.00    -0.000 C 
BRANCH  23  24
ATOM     24  C   UNL     1      34.422   5.846  40.975  1.00  0.00    -0.000 C 
BRANCH  24  25
ATOM     25  C   UNL     1      33.407   4.915  41.659  1.00  0.00    -0.000 C 
BRANCH  25  26
ATOM     26  C   UNL     1      32.157   4.668  40.796  1.00  0.00    -0.000 C 
BRANCH  26  27
ATOM     27  C   UNL     1      30.853   4.757  41.606  1.00  0.00    -0.000 C 
BRANCH  27  28
ATOM     28  C   UNL     1      30.327   6.195  41.730  1.00  0.00    -0.000 C 
BRANCH  28  29
ATOM     29  C   UNL     1      28.843   6.204  42.112  1.00  0.00    -0.003 C 
ATOM     30  C   UNL     1      28.364   4.807  42.499  1.00  0.00     0.004 C 
ENDBRANCH  28  29
ENDBRANCH  27  28
ENDBRANCH  26  27
ENDBRANCH  25  26
ENDBRANCH  24  25
ENDBRANCH  23  24
ENDBRANCH  22  23
ENDBRANCH  21  22
ENDBRANCH  20  21
ENDBRANCH  19  20
ENDBRANCH  18  19
ENDBRANCH  17  18
ENDBRANCH   1  17
TORSDOF 26
ENDMDL
MODEL 3
REMARK VINA RESULT:    14.713      2.180      2.991
REMARK INTER + INTRA:          35.165
REMARK INTER:                  37.285
REMARK INTRA:                  -2.120
REMARK UNBOUND:                -1.912
REMARK SMILES CCCCCCCCCCCCCCCCCCCCCCCCCCCC(=O)[O-]
REMARK SMILES IDX 15 1 16 2 17 3 18 4 19 5 20 6 21 7 22 8 23 9 24 10 25 11
REMARK SMILES IDX 26 12 27 13 28 14 29 15 30 16 14 17 13 18 12 19 11 20 10 21
REMARK SMILES IDX 9 22 8 23 7 24 6 25 5 26 4 27 3 28 2 29 1 30
REMARK H PARENT
REMARK Flexibility Score: inf
ROOT
ATOM      1  C   UNL     1      33.124  11.094  41.147  1.00  0.00     0.000 C 
ENDROOT
BRANCH   1   2
ATOM      2  C   UNL     1      32.649   9.923  40.273  1.00  0.00     0.000 C 
BRANCH   2   3
ATOM      3  C   UNL     1      33.812   9.151  39.627  1.00  0.00     0.000 C 
BRANCH   3   4
ATOM      4  C   UNL     1      34.439   8.123  40.586  1.00  0.00     0.000 C 
BRANCH   4   5
ATOM      5  C   UNL     1      34.133   6.672  40.181  1.00  0.00     0.000 C 
BRANCH   5   6
ATOM      6  C   UNL     1      33.752   5.792  41.383  1.00  0.00     0.000 C 
BRANCH   6   7
ATOM      7  C   UNL     1      32.398   5.082  41.200  1.00  0.00     0.000 C 
BRANCH   7   8
ATOM      8  C   UNL     1      31.319   5.444  42.241  1.00  0.00     0.000 C 
BRANCH   8   9
ATOM      9  C   UNL     1      29.867   5.196  41.793  1.00  0.00     0.000 C 
BRANCH   9  10
ATOM     10  C   UNL     1      28.971   6.432  41.954  1.00  0.00     0.000 C 
BRANCH  10  11
ATOM     11  C   UNL     1      29.469   7.589  41.075  1.00  0.00     0.000 C 
BRANCH  11  12
ATOM     12  C   UNL     1      29.216   7.350  39.579  1.00  0.00     0.006 C 
BRANCH  12  13
ATOM     13  C   UNL     1      29.517   8.587  38.723  1.00  0.00     0.053 C 
BRANCH  13  14
ATOM     14  C   UNL     1      28.618   8.624  37.527  1.00  0.00     0.041 C 
ATOM     15  O   UNL     1      27.973   9.670  37.252  1.00  0.00    -0.550 OA
ATOM     16  O   UNL     1      28.530   7.522  36.686  1.00  0.00    -0.550 OA
ENDBRANCH  13  14
ENDBRANCH  12  13
ENDBRANCH  11  12
ENDBRANCH  10  11
ENDBRANCH   9  10
ENDBRANCH   8   9
ENDBRANCH   7   8
ENDBRANCH   6   7
ENDBRANCH   5   6
ENDBRANCH   4   5
ENDBRANCH   3   4
ENDBRANCH   2   3
ENDBRANCH   1   2
BRANCH   1  17
ATOM     17  C   UNL     1      33.417  12.332  40.285  1.00  0.00     0.000 C 
BRANCH  17  18
ATOM     18  C   UNL     1      34.757  12.999  40.636  1.00  0.00     0.000 C 
BRANCH  18  19
ATOM     19  C   UNL     1      35.004  13.062  42.153  1.00  0.00     0.000 C 
BRANCH  19  20
ATOM     20  C   UNL     1      36.385  13.638  42.506  1.00  0.00     0.000 C 
BRANCH  20  21
ATOM     21  C   UNL     1      36.314  14.746  43.568  1.00  0.00     0.000 C 
BRANCH  21  22
ATOM     22  C   UNL     1      34.878  15.272  43.718  1.00  0.00    -0.000 C 
BRANCH  22  23
ATOM     23  C   UNL     1      34.797  16.807  43.675  1.00  0.00    -0.000 C 
BRANCH  23  24
ATOM     24  C   UNL     1      33.653  17.315  42.779  1.00  0.00    -0.000 C 
BRANCH  24  25
ATOM     25  C   UNL     1      34.165  17.963  41.482  1.00  0.00    -0.000 C 
BRANCH  25  26
ATOM     26  C   UNL     1      33.524  17.352  40.224  1.00  0.00    -0.000 C 
BRANCH  26  27
ATOM     27  C   UNL     1      33.354  18.377  39.090  1.00  0.00    -0.000 C 
BRANCH  27  28
ATOM     28  C   UNL     1      32.294  17.955  38.062  1.00  0.00    -0.000 C 
BRANCH  28  29
ATOM     29  C   UNL     1      31.644  19.181  37.410  1.00  0.00    -0.003 C 
ATOM     30  C   UNL     1      31.063  20.122  38.462  1.00  0.00     0.004 C 
ENDBRANCH  28  29
ENDBRANCH  27  28
ENDBRANCH  26  27
ENDBRANCH  25  26
ENDBRANCH  24  25
ENDBRANCH  23  24
ENDBRANCH  22  23
ENDBRANCH  21  22
ENDBRANCH  20  21
ENDBRANCH  19  20
ENDBRANCH  18  19
ENDBRANCH  17  18
ENDBRANCH   1  17
TORSDOF 26
ENDMDL
MODEL 4
REMARK VINA RESULT:    14.721      0.931      2.180
REMARK INTER + INTRA:          35.185
REMARK INTER:                  37.254
REMARK INTRA:                  -2.069
REMARK UNBOUND:                -1.912
REMARK SMILES CCCCCCCCCCCCCCCCCCCCCCCCCCCC(=O)[O-]
REMARK SMILES IDX 15 1 16 2 17 3 18 4 19 5 20 6 21 7 22 8 23 9 24 10 25 11
REMARK SMILES IDX 26 12 27 13 28 14 29 15 30 16 14 17 13 18 12 19 11 20 10 21
REMARK SMILES IDX 9 22 8 23 7 24 6 25 5 26 4 27 3 28 2 29 1 30
REMARK H PARENT
REMARK Flexibility Score: inf
ROOT
ATOM      1  C   UNL     1      34.929  13.433  40.945  1.00  0.00     0.000 C 
ENDROOT
BRANCH   1   2
ATOM      2  C   UNL     1      33.784  12.555  40.416  1.00  0.00     0.000 C 
BRANCH   2   3
ATOM      3  C   UNL     1      33.340  11.484  41.425  1.00  0.00     0.000 C 
BRANCH   3   4
ATOM      4  C   UNL     1      32.752  10.238  40.739  1.00  0.00     0.000 C 
BRANCH   4   5
ATOM      5  C   UNL     1      33.614   9.745  39.565  1.00  0.00     0.000 C 
BRANCH   5   6
ATOM      6  C   UNL     1      34.881   9.009  40.032  1.00  0.00     0.000 C 
BRANCH   6   7
ATOM      7  C   UNL     1      34.713   8.342  41.409  1.00  0.00     0.000 C 
BRANCH   7   8
ATOM      8  C   UNL     1      35.655   7.152  41.685  1.00  0.00     0.000 C 
BRANCH   8   9
ATOM      9  C   UNL     1      35.033   5.761  41.467  1.00  0.00     0.000 C 
BRANCH   9  10
ATOM     10  C   UNL     1      33.609   5.824  40.897  1.00  0.00     0.000 C 
BRANCH  10  11
ATOM     11  C   UNL     1      32.854   4.512  41.160  1.00  0.00     0.000 C 
BRANCH  11  12
ATOM     12  C   UNL     1      31.330   4.703  41.206  1.00  0.00     0.006 C 
BRANCH  12  13
ATOM     13  C   UNL     1      30.899   5.778  42.213  1.00  0.00     0.053 C 
BRANCH  13  14
ATOM     14  C   UNL     1      29.411   5.937  42.201  1.00  0.00     0.041 C 
ATOM     15  O   UNL     1      28.887   6.954  41.674  1.00  0.00    -0.550 OA
ATOM     16  O   UNL     1      28.599   4.941  42.728  1.00  0.00    -0.550 OA
ENDBRANCH  13  14
ENDBRANCH  12  13
ENDBRANCH  11  12
ENDBRANCH  10  11
ENDBRANCH   9  10
ENDBRANCH   8   9
ENDBRANCH   7   8
ENDBRANCH   6   7
ENDBRANCH   5   6
ENDBRANCH   4   5
ENDBRANCH   3   4
ENDBRANCH   2   3
ENDBRANCH   1   2
BRANCH   1  17
ATOM     17  C   UNL     1      35.170  13.171  42.439  1.00  0.00     0.000 C 
BRANCH  17  18
ATOM     18  C   UNL     1      36.335  13.996  43.010  1.00  0.00     0.000 C 
BRANCH  18  19
ATOM     19  C   UNL     1      35.855  15.251  43.758  1.00  0.00     0.000 C 
BRANCH  19  20
ATOM     20  C   UNL     1      34.332  15.445  43.677  1.00  0.00     0.000 C 
BRANCH  20  21
ATOM     21  C   UNL     1      33.911  16.916  43.819  1.00  0.00     0.000 C 
BRANCH  21  22
ATOM     22  C   UNL     1      34.505  17.770  42.688  1.00  0.00    -0.000 C 
BRANCH  22  23
ATOM     23  C   UNL     1      33.648  17.748  41.412  1.00  0.00    -0.000 C 
BRANCH  23  24
ATOM     24  C   UNL     1      34.470  17.430  40.150  1.00  0.00    -0.000 C 
BRANCH  24  25
ATOM     25  C   UNL     1      33.808  17.958  38.867  1.00  0.00    -0.000 C 
BRANCH  25  26
ATOM     26  C   UNL     1      32.310  18.255  39.055  1.00  0.00    -0.000 C 
BRANCH  26  27
ATOM     27  C   UNL     1      31.534  18.242  37.727  1.00  0.00    -0.000 C 
BRANCH  27  28
ATOM     28  C   UNL     1      31.233  19.653  37.201  1.00  0.00    -0.000 C 
BRANCH  28  29
ATOM     29  C   UNL     1      31.084  20.649  38.357  1.00  0.00    -0.003 C 
ATOM     30  C   UNL     1      31.624  22.025  37.974  1.00  0.00     0.004 C 
ENDBRANCH  28  29
ENDBRANCH  27  28
ENDBRANCH  26  27
ENDBRANCH  25  26
ENDBRANCH  24  25
ENDBRANCH  23  24
ENDBRANCH  22  23
ENDBRANCH  21  22
ENDBRANCH  20  21
ENDBRANCH  19  20
ENDBRANCH  18  19
ENDBRANCH  17  18
ENDBRANCH   1  17
TORSDOF 26
ENDMDL
MODEL 5
REMARK VINA RESULT:    15.175      3.089      4.343
REMARK INTER + INTRA:          36.328
REMARK INTER:                  37.745
REMARK INTRA:                  -1.417
REMARK UNBOUND:                -1.912
REMARK SMILES CCCCCCCCCCCCCCCCCCCCCCCCCCCC(=O)[O-]
REMARK SMILES IDX 15 1 16 2 17 3 18 4 19 5 20 6 21 7 22 8 23 9 24 10 25 11
REMARK SMILES IDX 26 12 27 13 28 14 29 15 30 16 14 17 13 18 12 19 11 20 10 21
REMARK SMILES IDX 9 22 8 23 7 24 6 25 5 26 4 27 3 28 2 29 1 30
REMARK H PARENT
REMARK Flexibility Score: inf
ROOT
ATOM      1  C   UNL     1      33.443  10.062  40.360  1.00  0.00     0.000 C 
ENDROOT
BRANCH   1   2
ATOM      2  C   UNL     1      32.151   9.296  40.033  1.00  0.00     0.000 C 
BRANCH   2   3
ATOM      3  C   UNL     1      31.266   9.067  41.269  1.00  0.00     0.000 C 
BRANCH   3   4
ATOM      4  C   UNL     1      30.116   8.082  40.994  1.00  0.00     0.000 C 
BRANCH   4   5
ATOM      5  C   UNL     1      30.436   6.652  41.461  1.00  0.00     0.000 C 
BRANCH   5   6
ATOM      6  C   UNL     1      29.249   5.985  42.176  1.00  0.00     0.000 C 
BRANCH   6   7
ATOM      7  C   UNL     1      28.209   5.408  41.197  1.00  0.00     0.000 C 
BRANCH   7   8
ATOM      8  C   UNL     1      28.625   5.419  39.712  1.00  0.00     0.000 C 
BRANCH   8   9
ATOM      9  C   UNL     1      27.634   4.741  38.749  1.00  0.00     0.000 C 
BRANCH   9  10
ATOM     10  C   UNL     1      28.171   4.632  37.315  1.00  0.00     0.000 C 
BRANCH  10  11
ATOM     11  C   UNL     1      27.458   5.627  36.386  1.00  0.00     0.000 C 
BRANCH  11  12
ATOM     12  C   UNL     1      28.225   6.949  36.231  1.00  0.00     0.006 C 
BRANCH  12  13
ATOM     13  C   UNL     1      27.452   8.150  36.789  1.00  0.00     0.053 C 
BRANCH  13  14
ATOM     14  C   UNL     1      28.397   9.156  37.368  1.00  0.00     0.041 C 
ATOM     15  O   UNL     1      29.357   8.780  38.092  1.00  0.00    -0.550 OA
ATOM     16  O   UNL     1      28.248  10.505  37.070  1.00  0.00    -0.550 OA
ENDBRANCH  13  14
ENDBRANCH  12  13
ENDBRANCH  11  12
ENDBRANCH  10  11
ENDBRANCH   9  10
ENDBRANCH   8   9
ENDBRANCH   7   8
ENDBRANCH   6   7
ENDBRANCH   5   6
ENDBRANCH   4   5
ENDBRANCH   3   4
ENDBRANCH   2   3
ENDBRANCH   1   2
BRANCH   1  17
ATOM     17  C   UNL     1      33.121  11.429  40.981  1.00  0.00     0.000 C 
BRANCH  17  18
ATOM     18  C   UNL     1      33.820  12.593  40.258  1.00  0.00     0.000 C 
BRANCH  18  19
ATOM     19  C   UNL     1      35.084  13.068  40.994  1.00  0.00     0.000 C 
BRANCH  19  20
ATOM     20  C   UNL     1      34.831  13.361  42.482  1.00  0.00     0.000 C 
BRANCH  20  21
ATOM     21  C   UNL     1      36.061  13.946  43.191  1.00  0.00     0.000 C 
BRANCH  21  22
ATOM     22  C   UNL     1      35.695  15.222  43.965  1.00  0.00    -0.000 C 
BRANCH  22  23
ATOM     23  C   UNL     1      34.386  15.862  43.473  1.00  0.00    -0.000 C 
BRANCH  23  24
ATOM     24  C   UNL     1      34.626  17.057  42.534  1.00  0.00    -0.000 C 
BRANCH  24  25
ATOM     25  C   UNL     1      33.756  16.994  41.267  1.00  0.00    -0.000 C 
BRANCH  25  26
ATOM     26  C   UNL     1      34.069  18.131  40.279  1.00  0.00    -0.000 C 
BRANCH  26  27
ATOM     27  C   UNL     1      33.211  18.060  39.005  1.00  0.00    -0.000 C 
BRANCH  27  28
ATOM     28  C   UNL     1      32.083  19.103  38.989  1.00  0.00    -0.000 C 
BRANCH  28  29
ATOM     29  C   UNL     1      31.343  19.089  37.647  1.00  0.00    -0.003 C 
ATOM     30  C   UNL     1      31.082  17.660  37.176  1.00  0.00     0.004 C 
ENDBRANCH  28  29
ENDBRANCH  27  28
ENDBRANCH  26  27
ENDBRANCH  25  26
ENDBRANCH  24  25
ENDBRANCH  23  24
ENDBRANCH  22  23
ENDBRANCH  21  22
ENDBRANCH  20  21
ENDBRANCH  19  20
ENDBRANCH  18  19
ENDBRANCH  17  18
ENDBRANCH   1  17
TORSDOF 26
ENDMDL
MODEL 6
REMARK VINA RESULT:    15.228      2.545      3.743
REMARK INTER + INTRA:          36.461
REMARK INTER:                  38.410
REMARK INTRA:                  -1.949
REMARK UNBOUND:                -1.912
REMARK SMILES CCCCCCCCCCCCCCCCCCCCCCCCCCCC(=O)[O-]
REMARK SMILES IDX 15 1 16 2 17 3 18 4 19 5 20 6 21 7 22 8 23 9 24 10 25 11
REMARK SMILES IDX 26 12 27 13 28 14 29 15 30 16 14 17 13 18 12 19 11 20 10 21
REMARK SMILES IDX 9 22 8 23 7 24 6 25 5 26 4 27 3 28 2 29 1 30
REMARK H PARENT
REMARK Flexibility Score: inf
ROOT
ATOM      1  C   UNL     1      33.293  10.688  40.764  1.00  0.00     0.000 C 
ENDROOT
BRANCH   1   2
ATOM      2  C   UNL     1      32.786   9.466  39.982  1.00  0.00     0.000 C 
BRANCH   2   3
ATOM      3  C   UNL     1      32.000   9.852  38.718  1.00  0.00     0.000 C 
BRANCH   3   4
ATOM      4  C   UNL     1      30.555   9.325  38.740  1.00  0.00     0.000 C 
BRANCH   4   5
ATOM      5  C   UNL     1      29.934   9.239  37.336  1.00  0.00     0.000 C 
BRANCH   5   6
ATOM      6  C   UNL     1      28.578   8.513  37.334  1.00  0.00     0.000 C 
BRANCH   6   7
ATOM      7  C   UNL     1      28.546   7.309  36.376  1.00  0.00     0.000 C 
BRANCH   7   8
ATOM      8  C   UNL     1      27.280   6.432  36.461  1.00  0.00     0.000 C 
BRANCH   8   9
ATOM      9  C   UNL     1      27.503   5.012  37.013  1.00  0.00     0.000 C 
BRANCH   9  10
ATOM     10  C   UNL     1      28.712   4.919  37.954  1.00  0.00     0.000 C 
BRANCH  10  11
ATOM     11  C   UNL     1      28.337   5.365  39.376  1.00  0.00     0.000 C 
BRANCH  11  12
ATOM     12  C   UNL     1      29.296   6.426  39.938  1.00  0.00     0.006 C 
BRANCH  12  13
ATOM     13  C   UNL     1      29.045   6.722  41.422  1.00  0.00     0.053 C 
BRANCH  13  14
ATOM     14  C   UNL     1      29.444   5.550  42.264  1.00  0.00     0.041 C 
ATOM     15  O   UNL     1      30.654   5.210  42.344  1.00  0.00    -0.550 OA
ATOM     16  O   UNL     1      28.487   4.862  42.998  1.00  0.00    -0.550 OA
ENDBRANCH  13  14
ENDBRANCH  12  13
ENDBRANCH  11  12
ENDBRANCH  10  11
ENDBRANCH   9  10
ENDBRANCH   8   9
ENDBRANCH   7   8
ENDBRANCH   6   7
ENDBRANCH   5   6
ENDBRANCH   4   5
ENDBRANCH   3   4
ENDBRANCH   2   3
ENDBRANCH   1   2
BRANCH   1  17
ATOM     17  C   UNL     1      33.011  11.984  39.989  1.00  0.00     0.000 C 
BRANCH  17  18
ATOM     18  C   UNL     1      34.076  13.067  40.230  1.00  0.00     0.000 C 
BRANCH  18  19
ATOM     19  C   UNL     1      35.087  12.666  41.317  1.00  0.00     0.000 C 
BRANCH  19  20
ATOM     20  C   UNL     1      34.940  13.499  42.601  1.00  0.00     0.000 C 
BRANCH  20  21
ATOM     21  C   UNL     1      36.289  13.801  43.272  1.00  0.00     0.000 C 
BRANCH  21  22
ATOM     22  C   UNL     1      36.318  15.235  43.825  1.00  0.00    -0.000 C 
BRANCH  22  23
ATOM     23  C   UNL     1      34.915  15.851  43.960  1.00  0.00    -0.000 C 
BRANCH  23  24
ATOM     24  C   UNL     1      34.757  17.148  43.148  1.00  0.00    -0.000 C 
BRANCH  24  25
ATOM     25  C   UNL     1      33.291  17.441  42.786  1.00  0.00    -0.000 C 
BRANCH  25  26
ATOM     26  C   UNL     1      33.157  18.287  41.508  1.00  0.00    -0.000 C 
BRANCH  26  27
ATOM     27  C   UNL     1      33.463  17.483  40.233  1.00  0.00    -0.000 C 
BRANCH  27  28
ATOM     28  C   UNL     1      33.410  18.344  38.961  1.00  0.00    -0.000 C 
BRANCH  28  29
ATOM     29  C   UNL     1      32.193  17.978  38.103  1.00  0.00    -0.003 C 
ATOM     30  C   UNL     1      31.394  19.221  37.719  1.00  0.00     0.004 C 
ENDBRANCH  28  29
ENDBRANCH  27  28
ENDBRANCH  26  27
ENDBRANCH  25  26
ENDBRANCH  24  25
ENDBRANCH  23  24
ENDBRANCH  22  23
ENDBRANCH  21  22
ENDBRANCH  20  21
ENDBRANCH  19  20
ENDBRANCH  18  19
ENDBRANCH  17  18
ENDBRANCH   1  17
TORSDOF 26
ENDMDL
MODEL 7
REMARK VINA RESULT:    15.293      4.483     10.507
REMARK INTER + INTRA:          36.626
REMARK INTER:                  38.035
REMARK INTRA:                  -1.409
REMARK UNBOUND:                -1.912
REMARK SMILES CCCCCCCCCCCCCCCCCCCCCCCCCCCC(=O)[O-]
REMARK SMILES IDX 15 1 16 2 17 3 18 4 19 5 20 6 21 7 22 8 23 9 24 10 25 11
REMARK SMILES IDX 26 12 27 13 28 14 29 15 30 16 14 17 13 18 12 19 11 20 10 21
REMARK SMILES IDX 9 22 8 23 7 24 6 25 5 26 4 27 3 28 2 29 1 30
REMARK H PARENT
REMARK Flexibility Score: inf
ROOT
ATOM      1  C   UNL     1      32.966   9.815  40.190  1.00  0.00     0.000 C 
ENDROOT
BRANCH   1   2
ATOM      2  C   UNL     1      33.234  11.007  41.123  1.00  0.00     0.000 C 
BRANCH   2   3
ATOM      3  C   UNL     1      33.399  12.333  40.362  1.00  0.00     0.000 C 
BRANCH   3   4
ATOM      4  C   UNL     1      34.659  13.104  40.792  1.00  0.00     0.000 C 
BRANCH   4   5
ATOM      5  C   UNL     1      34.807  13.194  42.320  1.00  0.00     0.000 C 
BRANCH   5   6
ATOM      6  C   UNL     1      36.015  14.044  42.747  1.00  0.00     0.000 C 
BRANCH   6   7
ATOM      7  C   UNL     1      35.720  14.932  43.970  1.00  0.00     0.000 C 
BRANCH   7   8
ATOM      8  C   UNL     1      34.473  15.831  43.846  1.00  0.00     0.000 C 
BRANCH   8   9
ATOM      9  C   UNL     1      34.620  17.024  42.885  1.00  0.00     0.000 C 
BRANCH   9  10
ATOM     10  C   UNL     1      33.785  16.869  41.606  1.00  0.00     0.000 C 
BRANCH  10  11
ATOM     11  C   UNL     1      34.251  17.854  40.523  1.00  0.00     0.000 C 
BRANCH  11  12
ATOM     12  C   UNL     1      33.406  17.771  39.242  1.00  0.00     0.006 C 
BRANCH  12  13
ATOM     13  C   UNL     1      32.289  18.822  39.202  1.00  0.00     0.053 C 
BRANCH  13  14
ATOM     14  C   UNL     1      31.575  18.774  37.888  1.00  0.00     0.041 C 
ATOM     15  O   UNL     1      31.173  19.838  37.346  1.00  0.00    -0.550 OA
ATOM     16  O   UNL     1      31.394  17.561  37.237  1.00  0.00    -0.550 OA
ENDBRANCH  13  14
ENDBRANCH  12  13
ENDBRANCH  11  12
ENDBRANCH  10  11
ENDBRANCH   9  10
ENDBRANCH   8   9
ENDBRANCH   7   8
ENDBRANCH   6   7
ENDBRANCH   5   6
ENDBRANCH   4   5
ENDBRANCH   3   4
ENDBRANCH   2   3
ENDBRANCH   1   2
BRANCH   1  17
ATOM     17  C   UNL     1      34.244   8.989  39.983  1.00  0.00     0.000 C 
BRANCH  17  18
ATOM     18  C   UNL     1      33.964   7.484  39.834  1.00  0.00     0.000 C 
BRANCH  18  19
ATOM     19  C   UNL     1      33.861   6.768  41.192  1.00  0.00     0.000 C 
BRANCH  19  20
ATOM     20  C   UNL     1      33.635   5.254  41.048  1.00  0.00     0.000 C 
BRANCH  20  21
ATOM     21  C   UNL     1      32.147   4.870  41.071  1.00  0.00     0.000 C 
BRANCH  21  22
ATOM     22  C   UNL     1      31.366   5.752  42.057  1.00  0.00    -0.000 C 
BRANCH  22  23
ATOM     23  C   UNL     1      29.875   5.386  42.132  1.00  0.00    -0.000 C 
BRANCH  23  24
ATOM     24  C   UNL     1      28.956   6.558  41.746  1.00  0.00    -0.000 C 
BRANCH  24  25
ATOM     25  C   UNL     1      29.616   7.517  40.740  1.00  0.00    -0.000 C 
BRANCH  25  26
ATOM     26  C   UNL     1      29.176   7.247  39.291  1.00  0.00    -0.000 C 
BRANCH  26  27
ATOM     27  C   UNL     1      29.306   8.489  38.393  1.00  0.00    -0.000 C 
BRANCH  27  28
ATOM     28  C   UNL     1      28.103   8.674  37.456  1.00  0.00    -0.000 C 
BRANCH  28  29
ATOM     29  C   UNL     1      28.121   7.634  36.330  1.00  0.00    -0.003 C 
ATOM     30  C   UNL     1      28.048   6.215  36.887  1.00  0.00     0.004 C 
ENDBRANCH  28  29
ENDBRANCH  27  28
ENDBRANCH  26  27
ENDBRANCH  25  26
ENDBRANCH  24  25
ENDBRANCH  23  24
ENDBRANCH  22  23
ENDBRANCH  21  22
ENDBRANCH  20  21
ENDBRANCH  19  20
ENDBRANCH  18  19
ENDBRANCH  17  18
ENDBRANCH   1  17
TORSDOF 26
ENDMDL
MODEL 8
REMARK VINA RESULT:    15.340      4.875     10.659
REMARK INTER + INTRA:          36.743
REMARK INTER:                  38.650
REMARK INTRA:                  -1.907
REMARK UNBOUND:                -1.912
REMARK SMILES CCCCCCCCCCCCCCCCCCCCCCCCCCCC(=O)[O-]
REMARK SMILES IDX 15 1 16 2 17 3 18 4 19 5 20 6 21 7 22 8 23 9 24 10 25 11
REMARK SMILES IDX 26 12 27 13 28 14 29 15 30 16 14 17 13 18 12 19 11 20 10 21
REMARK SMILES IDX 9 22 8 23 7 24 6 25 5 26 4 27 3 28 2 29 1 30
REMARK H PARENT
REMARK Flexibility Score: inf
ROOT
ATOM      1  C   UNL     1      34.372  13.860  40.454  1.00  0.00     0.000 C 
ENDROOT
BRANCH   1   2
ATOM      2  C   UNL     1      35.618  13.247  41.112  1.00  0.00     0.000 C 
BRANCH   2   3
ATOM      3  C   UNL     1      35.624  13.407  42.641  1.00  0.00     0.000 C 
BRANCH   3   4
ATOM      4  C   UNL     1      36.943  14.000  43.165  1.00  0.00     0.000 C 
BRANCH   4   5
ATOM      5  C   UNL     1      36.731  15.277  43.995  1.00  0.00     0.000 C 
BRANCH   5   6
ATOM      6  C   UNL     1      35.247  15.547  44.294  1.00  0.00     0.000 C 
BRANCH   6   7
ATOM      7  C   UNL     1      34.805  16.967  43.893  1.00  0.00     0.000 C 
BRANCH   7   8
ATOM      8  C   UNL     1      33.615  17.035  42.914  1.00  0.00     0.000 C 
BRANCH   8   9
ATOM      9  C   UNL     1      33.801  17.994  41.724  1.00  0.00     0.000 C 
BRANCH   9  10
ATOM     10  C   UNL     1      34.112  17.264  40.410  1.00  0.00     0.000 C 
BRANCH  10  11
ATOM     11  C   UNL     1      33.723  18.125  39.198  1.00  0.00     0.000 C 
BRANCH  11  12
ATOM     12  C   UNL     1      32.424  17.654  38.527  1.00  0.00     0.006 C 
BRANCH  12  13
ATOM     13  C   UNL     1      32.036  18.517  37.320  1.00  0.00     0.053 C 
BRANCH  13  14
ATOM     14  C   UNL     1      30.866  19.389  37.657  1.00  0.00     0.041 C 
ATOM     15  O   UNL     1      29.719  19.105  37.222  1.00  0.00    -0.550 OA
ATOM     16  O   UNL     1      31.033  20.488  38.489  1.00  0.00    -0.550 OA
ENDBRANCH  13  14
ENDBRANCH  12  13
ENDBRANCH  11  12
ENDBRANCH  10  11
ENDBRANCH   9  10
ENDBRANCH   8   9
ENDBRANCH   7   8
ENDBRANCH   6   7
ENDBRANCH   5   6
ENDBRANCH   4   5
ENDBRANCH   3   4
ENDBRANCH   2   3
ENDBRANCH   1   2
BRANCH   1  17
ATOM     17  C   UNL     1      33.374  12.763  40.053  1.00  0.00     0.000 C 
BRANCH  17  18
ATOM     18  C   UNL     1      32.636  12.157  41.258  1.00  0.00     0.000 C 
BRANCH  18  19
ATOM     19  C   UNL     1      33.082  10.715  41.556  1.00  0.00     0.000 C 
BRANCH  19  20
ATOM     20  C   UNL     1      34.210  10.238  40.626  1.00  0.00     0.000 C 
BRANCH  20  21
ATOM     21  C   UNL     1      33.784   9.066  39.727  1.00  0.00     0.000 C 
BRANCH  21  22
ATOM     22  C   UNL     1      32.286   8.764  39.891  1.00  0.00    -0.000 C 
BRANCH  22  23
ATOM     23  C   UNL     1      31.415   9.491  38.853  1.00  0.00    -0.000 C 
BRANCH  23  24
ATOM     24  C   UNL     1      29.973   8.955  38.810  1.00  0.00    -0.000 C 
BRANCH  24  25
ATOM     25  C   UNL     1      29.257   9.295  37.492  1.00  0.00    -0.000 C 
BRANCH  25  26
ATOM     26  C   UNL     1      27.817   8.756  37.445  1.00  0.00    -0.000 C 
BRANCH  26  27
ATOM     27  C   UNL     1      27.570   7.836  36.239  1.00  0.00    -0.000 C 
BRANCH  27  28
ATOM     28  C   UNL     1      28.204   6.447  36.411  1.00  0.00    -0.000 C 
BRANCH  28  29
ATOM     29  C   UNL     1      27.136   5.392  36.723  1.00  0.00    -0.003 C 
ATOM     30  C   UNL     1      27.772   4.078  37.170  1.00  0.00     0.004 C 
ENDBRANCH  28  29
ENDBRANCH  27  28
ENDBRANCH  26  27
ENDBRANCH  25  26
ENDBRANCH  24  25
ENDBRANCH  23  24
ENDBRANCH  22  23
ENDBRANCH  21  22
ENDBRANCH  20  21
ENDBRANCH  19  20
ENDBRANCH  18  19
ENDBRANCH  17  18
ENDBRANCH   1  17
TORSDOF 26
ENDMDL
MODEL 9
REMARK VINA RESULT:    15.412      4.664     10.975
REMARK INTER + INTRA:          36.924
REMARK INTER:                  38.353
REMARK INTRA:                  -1.428
REMARK UNBOUND:                -1.912
REMARK SMILES CCCCCCCCCCCCCCCCCCCCCCCCCCCC(=O)[O-]
REMARK SMILES IDX 15 1 16 2 17 3 18 4 19 5 20 6 21 7 22 8 23 9 24 10 25 11
REMARK SMILES IDX 26 12 27 13 28 14 29 15 30 16 14 17 13 18 12 19 11 20 10 21
REMARK SMILES IDX 9 22 8 23 7 24 6 25 5 26 4 27 3 28 2 29 1 30
REMARK H PARENT
REMARK Flexibility Score: inf
ROOT
ATOM      1  C   UNL     1      33.033  12.334  40.362  1.00  0.00     0.000 C 
ENDROOT
BRANCH   1   2
ATOM      2  C   UNL     1      34.350  13.115  40.236  1.00  0.00     0.000 C 
BRANCH   2   3
ATOM      3  C   UNL     1      35.360  12.762  41.340  1.00  0.00     0.000 C 
BRANCH   3   4
ATOM      4  C   UNL     1      35.045  13.467  42.672  1.00  0.00     0.000 C 
BRANCH   4   5
ATOM      5  C   UNL     1      36.102  14.517  43.052  1.00  0.00     0.000 C 
BRANCH   5   6
ATOM      6  C   UNL     1      35.802  15.195  44.399  1.00  0.00     0.000 C 
BRANCH   6   7
ATOM      7  C   UNL     1      34.975  16.485  44.248  1.00  0.00     0.000 C 
BRANCH   7   8
ATOM      8  C   UNL     1      33.842  16.424  43.203  1.00  0.00     0.000 C 
BRANCH   8   9
ATOM      9  C   UNL     1      33.904  17.501  42.106  1.00  0.00     0.000 C 
BRANCH   9  10
ATOM     10  C   UNL     1      34.184  16.922  40.712  1.00  0.00     0.000 C 
BRANCH  10  11
ATOM     11  C   UNL     1      34.485  18.040  39.703  1.00  0.00     0.000 C 
BRANCH  11  12
ATOM     12  C   UNL     1      33.438  18.126  38.582  1.00  0.00     0.006 C 
BRANCH  12  13
ATOM     13  C   UNL     1      32.124  18.767  39.049  1.00  0.00     0.053 C 
BRANCH  13  14
ATOM     14  C   UNL     1      31.246  19.070  37.876  1.00  0.00     0.041 C 
ATOM     15  O   UNL     1      31.294  20.202  37.324  1.00  0.00    -0.550 OA
ATOM     16  O   UNL     1      30.409  18.089  37.360  1.00  0.00    -0.550 OA
ENDBRANCH  13  14
ENDBRANCH  12  13
ENDBRANCH  11  12
ENDBRANCH  10  11
ENDBRANCH   9  10
ENDBRANCH   8   9
ENDBRANCH   7   8
ENDBRANCH   6   7
ENDBRANCH   5   6
ENDBRANCH   4   5
ENDBRANCH   3   4
ENDBRANCH   2   3
ENDBRANCH   1   2
BRANCH   1  17
ATOM     17  C   UNL     1      33.264  10.988  41.064  1.00  0.00     0.000 C 
BRANCH  17  18
ATOM     18  C   UNL     1      33.732   9.885  40.101  1.00  0.00     0.000 C 
BRANCH  18  19
ATOM     19  C   UNL     1      32.722   8.731  39.993  1.00  0.00     0.000 C 
BRANCH  19  20
ATOM     20  C   UNL     1      31.414   9.014  40.751  1.00  0.00     0.000 C 
BRANCH  20  21
ATOM     21  C   UNL     1      30.301   8.009  40.414  1.00  0.00     0.000 C 
BRANCH  21  22
ATOM     22  C   UNL     1      29.512   7.620  41.674  1.00  0.00    -0.000 C 
BRANCH  22  23
ATOM     23  C   UNL     1      29.463   6.100  41.901  1.00  0.00    -0.000 C 
BRANCH  23  24
ATOM     24  C   UNL     1      28.416   5.402  41.016  1.00  0.00    -0.000 C 
BRANCH  24  25
ATOM     25  C   UNL     1      28.847   5.326  39.541  1.00  0.00    -0.000 C 
BRANCH  25  26
ATOM     26  C   UNL     1      27.742   4.762  38.632  1.00  0.00    -0.000 C 
BRANCH  26  27
ATOM     27  C   UNL     1      28.058   4.941  37.137  1.00  0.00    -0.000 C 
BRANCH  27  28
ATOM     28  C   UNL     1      27.355   6.161  36.523  1.00  0.00    -0.000 C 
BRANCH  28  29
ATOM     29  C   UNL     1      28.374   7.231  36.114  1.00  0.00    -0.003 C 
ATOM     30  C   UNL     1      28.469   8.333  37.166  1.00  0.00     0.004 C 
ENDBRANCH  28  29
ENDBRANCH  27  28
ENDBRANCH  26  27
ENDBRANCH  25  26
ENDBRANCH  24  25
ENDBRANCH  23  24
ENDBRANCH  22  23
ENDBRANCH  21  22
ENDBRANCH  20  21
ENDBRANCH  19  20
ENDBRANCH  18  19
ENDBRANCH  17  18
ENDBRANCH   1  17
TORSDOF 26
ENDMDL
