MODEL 1
REMARK VINA RESULT:    -3.785      0.000      0.000
REMARK INTER + INTRA:          -3.896
REMARK INTER:                  -3.896
REMARK INTRA:                   0.000
REMARK UNBOUND:                 0.000
REMARK SMILES O=c1ccc2ccc(O)cc2o1
REMARK SMILES IDX 6 1 7 2 8 3 10 4 11 5 5 6 4 7 3 8 2 9 1 10 12 11 9 12
REMARK H PARENT 9 13
REMARK Flexibility Score: inf
ROOT
ATOM      1  C   UNL     1     -12.012  -1.999 -13.649  1.00  0.00     0.016 A 
ATOM      2  C   UNL     1     -12.680  -2.000 -14.878  1.00  0.00     0.047 A 
ATOM      3  C   UNL     1     -13.849  -2.751 -15.047  1.00  0.00     0.119 A 
ATOM      4  C   UNL     1     -14.356  -3.507 -13.978  1.00  0.00     0.094 A 
ATOM      5  C   UNL     1     -13.693  -3.512 -12.746  1.00  0.00     0.142 A 
ATOM      6  C   UNL     1     -12.514  -2.753 -12.580  1.00  0.00     0.018 A 
ATOM      7  C   UNL     1     -11.876  -2.778 -11.336  1.00  0.00     0.019 A 
ATOM      8  C   UNL     1     -12.416  -3.544 -10.304  1.00  0.00     0.094 A 
ATOM      9  C   UNL     1     -13.587  -4.270 -10.541  1.00  0.00     0.336 A 
ATOM     10  O   UNL     1     -14.091  -4.968  -9.623  1.00  0.00    -0.246 OA
ATOM     11  O   UNL     1     -14.176  -4.230 -11.734  1.00  0.00    -0.423 OA
ENDROOT
BRANCH   3  12
ATOM     12  O   UNL     1     -14.500  -2.739 -16.279  1.00  0.00    -0.508 OA
ATOM     13  H   UNL     1     -14.018  -2.470 -17.128  1.00  0.00     0.293 HD
ENDBRANCH   3  12
TORSDOF 1
ENDMDL
MODEL 2
REMARK VINA RESULT:    -3.060     22.623     23.583
REMARK INTER + INTRA:          -3.150
REMARK INTER:                  -3.150
REMARK INTRA:                   0.000
REMARK UNBOUND:                 0.000
REMARK SMILES O=c1ccc2ccc(O)cc2o1
REMARK SMILES IDX 6 1 7 2 8 3 10 4 11 5 5 6 4 7 3 8 2 9 1 10 12 11 9 12
REMARK H PARENT 9 13
REMARK Flexibility Score: inf
ROOT
ATOM      1  C   UNL     1     -30.988   2.080 -24.923  1.00  0.00     0.016 A 
ATOM      2  C   UNL     1     -31.278   3.364 -25.395  1.00  0.00     0.047 A 
ATOM      3  C   UNL     1     -31.844   3.540 -26.664  1.00  0.00     0.119 A 
ATOM      4  C   UNL     1     -32.124   2.423 -27.466  1.00  0.00     0.094 A 
ATOM      5  C   UNL     1     -31.836   1.136 -27.001  1.00  0.00     0.142 A 
ATOM      6  C   UNL     1     -31.265   0.962 -25.721  1.00  0.00     0.018 A 
ATOM      7  C   UNL     1     -30.990  -0.337 -25.285  1.00  0.00     0.019 A 
ATOM      8  C   UNL     1     -31.285  -1.417 -26.117  1.00  0.00     0.094 A 
ATOM      9  C   UNL     1     -31.851  -1.169 -27.372  1.00  0.00     0.336 A 
ATOM     10  O   UNL     1     -32.125  -2.129 -28.139  1.00  0.00    -0.246 OA
ATOM     11  O   UNL     1     -32.103   0.077 -27.764  1.00  0.00    -0.423 OA
ENDROOT
BRANCH   3  12
ATOM     12  O   UNL     1     -32.125   4.827 -27.117  1.00  0.00    -0.508 OA
ATOM     13  H   UNL     1     -32.055   5.630 -26.503  1.00  0.00     0.293 HD
ENDBRANCH   3  12
TORSDOF 1
ENDMDL
MODEL 3
REMARK VINA RESULT:    -2.934     22.690     23.653
REMARK INTER + INTRA:          -3.020
REMARK INTER:                  -3.020
REMARK INTRA:                   0.000
REMARK UNBOUND:                 0.000
REMARK SMILES O=c1ccc2ccc(O)cc2o1
REMARK SMILES IDX 6 1 7 2 8 3 10 4 11 5 5 6 4 7 3 8 2 9 1 10 12 11 9 12
REMARK H PARENT 9 13
REMARK Flexibility Score: inf
ROOT
ATOM      1  C   UNL     1     -31.011  -0.523 -25.375  1.00  0.00     0.016 A 
ATOM      2  C   UNL     1     -31.294  -1.588 -26.236  1.00  0.00     0.047 A 
ATOM      3  C   UNL     1     -31.850  -1.349 -27.499  1.00  0.00     0.119 A 
ATOM      4  C   UNL     1     -32.122  -0.034 -27.905  1.00  0.00     0.094 A 
ATOM      5  C   UNL     1     -31.843   1.037 -27.050  1.00  0.00     0.142 A 
ATOM      6  C   UNL     1     -31.283   0.791 -25.777  1.00  0.00     0.018 A 
ATOM      7  C   UNL     1     -31.014   1.883 -24.946  1.00  0.00     0.019 A 
ATOM      8  C   UNL     1     -31.303   3.172 -25.392  1.00  0.00     0.094 A 
ATOM      9  C   UNL     1     -31.856   3.340 -26.666  1.00  0.00     0.336 A 
ATOM     10  O   UNL     1     -32.124   4.495 -27.088  1.00  0.00    -0.246 OA
ATOM     11  O   UNL     1     -32.103   2.284 -27.438  1.00  0.00    -0.423 OA
ENDROOT
BRANCH   3  12
ATOM     12  O   UNL     1     -32.125  -2.424 -28.342  1.00  0.00    -0.508 OA
ATOM     13  H   UNL     1     -33.035  -2.869 -28.351  1.00  0.00     0.293 HD
ENDBRANCH   3  12
TORSDOF 1
ENDMDL
MODEL 4
REMARK VINA RESULT:    -2.881      0.790      4.238
REMARK INTER + INTRA:          -2.965
REMARK INTER:                  -2.965
REMARK INTRA:                   0.000
REMARK UNBOUND:                 0.000
REMARK SMILES O=c1ccc2ccc(O)cc2o1
REMARK SMILES IDX 6 1 7 2 8 3 10 4 11 5 5 6 4 7 3 8 2 9 1 10 12 11 9 12
REMARK H PARENT 9 13
REMARK Flexibility Score: inf
ROOT
ATOM      1  C   UNL     1     -11.875  -2.756 -11.654  1.00  0.00     0.016 A 
ATOM      2  C   UNL     1     -12.315  -3.663 -10.685  1.00  0.00     0.047 A 
ATOM      3  C   UNL     1     -13.382  -4.527 -10.957  1.00  0.00     0.119 A 
ATOM      4  C   UNL     1     -14.014  -4.486 -12.210  1.00  0.00     0.094 A 
ATOM      5  C   UNL     1     -13.581  -3.581 -13.184  1.00  0.00     0.142 A 
ATOM      6  C   UNL     1     -12.504  -2.710 -12.905  1.00  0.00     0.018 A 
ATOM      7  C   UNL     1     -12.094  -1.818 -13.901  1.00  0.00     0.019 A 
ATOM      8  C   UNL     1     -12.752  -1.812 -15.130  1.00  0.00     0.094 A 
ATOM      9  C   UNL     1     -13.810  -2.703 -15.336  1.00  0.00     0.336 A 
ATOM     10  O   UNL     1     -14.418  -2.714 -16.438  1.00  0.00    -0.246 OA
ATOM     11  O   UNL     1     -14.182  -3.543 -14.372  1.00  0.00    -0.423 OA
ENDROOT
BRANCH   3  12
ATOM     12  O   UNL     1     -13.806  -5.424  -9.979  1.00  0.00    -0.508 OA
ATOM     13  H   UNL     1     -13.607  -6.415 -10.049  1.00  0.00     0.293 HD
ENDBRANCH   3  12
TORSDOF 1
ENDMDL
MODEL 5
REMARK VINA RESULT:    -1.895      1.514      4.758
REMARK INTER + INTRA:          -1.950
REMARK INTER:                  -1.950
REMARK INTRA:                   0.000
REMARK UNBOUND:                 0.000
REMARK SMILES O=c1ccc2ccc(O)cc2o1
REMARK SMILES IDX 6 1 7 2 8 3 10 4 11 5 5 6 4 7 3 8 2 9 1 10 12 11 9 12
REMARK H PARENT 9 13
REMARK Flexibility Score: inf
ROOT
ATOM      1  C   UNL     1     -14.497  -4.189 -11.412  1.00  0.00     0.016 A 
ATOM      2  C   UNL     1     -13.799  -4.206 -10.200  1.00  0.00     0.047 A 
ATOM      3  C   UNL     1     -12.555  -3.572 -10.091  1.00  0.00     0.119 A 
ATOM      4  C   UNL     1     -12.005  -2.914 -11.203  1.00  0.00     0.094 A 
ATOM      5  C   UNL     1     -12.697  -2.894 -12.418  1.00  0.00     0.142 A 
ATOM      6  C   UNL     1     -13.951  -3.535 -12.524  1.00  0.00     0.018 A 
ATOM      7  C   UNL     1     -14.617  -3.495 -13.752  1.00  0.00     0.019 A 
ATOM      8  C   UNL     1     -14.031  -2.831 -14.829  1.00  0.00     0.094 A 
ATOM      9  C   UNL     1     -12.787  -2.218 -14.651  1.00  0.00     0.336 A 
ATOM     10  O   UNL     1     -12.241  -1.612 -15.610  1.00  0.00    -0.246 OA
ATOM     11  O   UNL     1     -12.173  -2.269 -13.471  1.00  0.00    -0.423 OA
ENDROOT
BRANCH   3  12
ATOM     12  O   UNL     1     -11.875  -3.600  -8.875  1.00  0.00    -0.508 OA
ATOM     13  H   UNL     1     -11.066  -4.195  -8.736  1.00  0.00     0.293 HD
ENDBRANCH   3  12
TORSDOF 1
ENDMDL
MODEL 6
REMARK VINA RESULT:    -1.738      1.395      2.199
REMARK INTER + INTRA:          -1.789
REMARK INTER:                  -1.789
REMARK INTRA:                   0.000
REMARK UNBOUND:                 0.000
REMARK SMILES O=c1ccc2ccc(O)cc2o1
REMARK SMILES IDX 6 1 7 2 8 3 10 4 11 5 5 6 4 7 3 8 2 9 1 10 12 11 9 12
REMARK H PARENT 9 13
REMARK Flexibility Score: inf
ROOT
ATOM      1  C   UNL     1     -14.735  -3.354 -13.523  1.00  0.00     0.016 A 
ATOM      2  C   UNL     1     -14.125  -2.729 -14.616  1.00  0.00     0.047 A 
ATOM      3  C   UNL     1     -12.815  -2.246 -14.514  1.00  0.00     0.119 A 
ATOM      4  C   UNL     1     -12.107  -2.391 -13.310  1.00  0.00     0.094 A 
ATOM      5  C   UNL     1     -12.710  -3.014 -12.213  1.00  0.00     0.142 A 
ATOM      6  C   UNL     1     -14.033  -3.500 -12.320  1.00  0.00     0.018 A 
ATOM      7  C   UNL     1     -14.607  -4.119 -11.206  1.00  0.00     0.019 A 
ATOM      8  C   UNL     1     -13.866  -4.239 -10.030  1.00  0.00     0.094 A 
ATOM      9  C   UNL     1     -12.561  -3.736  -9.998  1.00  0.00     0.336 A 
ATOM     10  O   UNL     1     -11.875  -3.834  -8.947  1.00  0.00    -0.246 OA
ATOM     11  O   UNL     1     -12.037  -3.151 -11.072  1.00  0.00    -0.423 OA
ENDROOT
BRANCH   3  12
ATOM     12  O   UNL     1     -12.225  -1.626 -15.613  1.00  0.00    -0.508 OA
ATOM     13  H   UNL     1     -11.228  -1.444 -15.645  1.00  0.00     0.293 HD
ENDBRANCH   3  12
TORSDOF 1
ENDMDL
