MODEL 1
REMARK VINA RESULT:    -5.153      0.000      0.000
REMARK INTER + INTRA:          -6.525
REMARK INTER:                  -6.207
REMARK INTRA:                  -0.318
REMARK UNBOUND:                -0.318
REMARK SMILES O=c1c(O)c(-c2ccc(O)c(O)c2)oc2cc(O)cc(O)c12
REMARK SMILES IDX 5 1 3 2 2 3 1 4 22 5 20 6 19 7 17 8 16 9 15 10 14 11 6 12
REMARK SMILES IDX 7 13 8 14 9 15 13 16 11 17 10 18 12 20 4 22 21 24 18 26
REMARK H PARENT 10 19 12 21 4 23 21 25 18 27
REMARK Flexibility Score: inf
ROOT
ATOM      1  C   UNL     1    -102.823  10.411  21.230  1.00  0.00     0.180 A 
ATOM      2  C   UNL     1    -101.711   9.776  20.650  1.00  0.00     0.208 A 
ATOM      3  C   UNL     1    -101.721   9.515  19.271  1.00  0.00     0.238 A 
ATOM      4  O   UNL     1    -100.755   8.880  18.770  1.00  0.00    -0.285 OA
ATOM      5  C   UNL     1    -102.815   9.941  18.478  1.00  0.00     0.111 A 
ATOM      6  C   UNL     1    -102.910   9.768  17.064  1.00  0.00     0.134 A 
ATOM      7  C   UNL     1    -104.089  10.135  16.402  1.00  0.00     0.093 A 
ATOM      8  C   UNL     1    -105.148  10.724  17.090  1.00  0.00     0.123 A 
ATOM      9  C   UNL     1    -105.045  10.948  18.463  1.00  0.00     0.094 A 
ATOM     10  C   UNL     1    -103.897  10.558  19.158  1.00  0.00     0.146 A 
ATOM     11  O   UNL     1    -103.849  10.770  20.468  1.00  0.00    -0.452 OA
ENDROOT
BRANCH   1  12
ATOM     12  C   UNL     1    -102.893  10.707  22.680  1.00  0.00     0.025 A 
ATOM     13  C   UNL     1    -102.340  11.902  23.167  1.00  0.00     0.016 A 
ATOM     14  C   UNL     1    -102.413  12.212  24.527  1.00  0.00     0.051 A 
ATOM     15  C   UNL     1    -103.055  11.341  25.417  1.00  0.00     0.157 A 
ATOM     16  C   UNL     1    -103.556   9.846  23.573  1.00  0.00     0.062 A 
ATOM     17  C   UNL     1    -103.632  10.158  24.937  1.00  0.00     0.158 A 
BRANCH  15  18
ATOM     18  O   UNL     1    -103.129  11.646  26.775  1.00  0.00    -0.504 OA
ATOM     19  H   UNL     1    -102.675  12.468  27.159  1.00  0.00     0.293 HD
ENDBRANCH  15  18
BRANCH  17  20
ATOM     20  O   UNL     1    -104.282   9.299  25.823  1.00  0.00    -0.504 OA
ATOM     21  H   UNL     1    -103.775   8.791  26.536  1.00  0.00     0.293 HD
ENDBRANCH  17  20
ENDBRANCH   1  12
BRANCH   2  22
ATOM     22  O   UNL     1    -100.608   9.433  21.435  1.00  0.00    -0.502 OA
ATOM     23  H   UNL     1     -99.711   9.894  21.345  1.00  0.00     0.293 HD
ENDBRANCH   2  22
BRANCH   6  24
ATOM     24  O   UNL     1    -101.877   9.271  16.264  1.00  0.00    -0.507 OA
ATOM     25  H   UNL     1    -100.971   9.701  16.156  1.00  0.00     0.293 HD
ENDBRANCH   6  24
BRANCH   8  26
ATOM     26  O   UNL     1    -106.298  11.092  16.395  1.00  0.00    -0.508 OA
ATOM     27  H   UNL     1    -106.944  11.780  16.765  1.00  0.00     0.293 HD
ENDBRANCH   8  26
TORSDOF 6
ENDMDL
MODEL 2
REMARK VINA RESULT:    -5.143     12.696     14.517
REMARK INTER + INTRA:          -6.513
REMARK INTER:                  -6.367
REMARK INTRA:                  -0.147
REMARK UNBOUND:                -0.318
REMARK SMILES O=c1c(O)c(-c2ccc(O)c(O)c2)oc2cc(O)cc(O)c12
REMARK SMILES IDX 5 1 3 2 2 3 1 4 22 5 20 6 19 7 17 8 16 9 15 10 14 11 6 12
REMARK SMILES IDX 7 13 8 14 9 15 13 16 11 17 10 18 12 20 4 22 21 24 18 26
REMARK H PARENT 10 19 12 21 4 23 21 25 18 27
REMARK Flexibility Score: inf
ROOT
ATOM      1  C   UNL     1    -116.765  12.460  22.849  1.00  0.00     0.180 A 
ATOM      2  C   UNL     1    -117.564  13.483  23.387  1.00  0.00     0.208 A 
ATOM      3  C   UNL     1    -118.352  14.257  22.519  1.00  0.00     0.238 A 
ATOM      4  O   UNL     1    -119.008  15.220  22.997  1.00  0.00    -0.285 OA
ATOM      5  C   UNL     1    -118.376  13.962  21.134  1.00  0.00     0.111 A 
ATOM      6  C   UNL     1    -119.172  14.651  20.170  1.00  0.00     0.134 A 
ATOM      7  C   UNL     1    -119.032  14.341  18.811  1.00  0.00     0.093 A 
ATOM      8  C   UNL     1    -118.175  13.327  18.388  1.00  0.00     0.123 A 
ATOM      9  C   UNL     1    -117.434  12.609  19.326  1.00  0.00     0.094 A 
ATOM     10  C   UNL     1    -117.522  12.920  20.686  1.00  0.00     0.146 A 
ATOM     11  O   UNL     1    -116.782  12.227  21.542  1.00  0.00    -0.452 OA
ENDROOT
BRANCH   1  12
ATOM     12  C   UNL     1    -115.896  11.612  23.697  1.00  0.00     0.025 A 
ATOM     13  C   UNL     1    -116.078  10.220  23.697  1.00  0.00     0.016 A 
ATOM     14  C   UNL     1    -115.257   9.398  24.472  1.00  0.00     0.051 A 
ATOM     15  C   UNL     1    -114.231   9.954  25.247  1.00  0.00     0.157 A 
ATOM     16  C   UNL     1    -114.851  12.164  24.460  1.00  0.00     0.062 A 
ATOM     17  C   UNL     1    -114.025  11.340  25.237  1.00  0.00     0.158 A 
BRANCH  15  18
ATOM     18  O   UNL     1    -113.410   9.138  26.024  1.00  0.00    -0.504 OA
ATOM     19  H   UNL     1    -112.972   8.308  25.640  1.00  0.00     0.293 HD
ENDBRANCH  15  18
BRANCH  17  20
ATOM     20  O   UNL     1    -112.994  11.890  25.998  1.00  0.00    -0.504 OA
ATOM     21  H   UNL     1    -113.137  12.165  26.962  1.00  0.00     0.293 HD
ENDBRANCH  17  20
ENDBRANCH   1  12
BRANCH   2  22
ATOM     22  O   UNL     1    -117.586  13.709  24.765  1.00  0.00    -0.502 OA
ATOM     23  H   UNL     1    -118.319  13.350  25.364  1.00  0.00     0.293 HD
ENDBRANCH   2  22
BRANCH   6  24
ATOM     24  O   UNL     1    -120.125  15.622  20.491  1.00  0.00    -0.507 OA
ATOM     25  H   UNL     1    -120.723  15.599  21.304  1.00  0.00     0.293 HD
ENDBRANCH   6  24
BRANCH   8  26
ATOM     26  O   UNL     1    -118.075  13.034  17.030  1.00  0.00    -0.508 OA
ATOM     27  H   UNL     1    -117.193  13.103  16.535  1.00  0.00     0.293 HD
ENDBRANCH   8  26
TORSDOF 6
ENDMDL
MODEL 3
REMARK VINA RESULT:    -4.988     16.127     19.670
REMARK INTER + INTRA:          -6.327
REMARK INTER:                  -6.055
REMARK INTRA:                  -0.271
REMARK UNBOUND:                -0.318
REMARK SMILES O=c1c(O)c(-c2ccc(O)c(O)c2)oc2cc(O)cc(O)c12
REMARK SMILES IDX 5 1 3 2 2 3 1 4 22 5 20 6 19 7 17 8 16 9 15 10 14 11 6 12
REMARK SMILES IDX 7 13 8 14 9 15 13 16 11 17 10 18 12 20 4 22 21 24 18 26
REMARK H PARENT 10 19 12 21 4 23 21 25 18 27
REMARK Flexibility Score: inf
ROOT
ATOM      1  C   UNL     1    -102.819  24.241  33.511  1.00  0.00     0.180 A 
ATOM      2  C   UNL     1    -102.173  25.424  33.907  1.00  0.00     0.208 A 
ATOM      3  C   UNL     1    -102.937  26.590  34.080  1.00  0.00     0.238 A 
ATOM      4  O   UNL     1    -102.343  27.664  34.363  1.00  0.00    -0.285 OA
ATOM      5  C   UNL     1    -104.343  26.545  33.912  1.00  0.00     0.111 A 
ATOM      6  C   UNL     1    -105.220  27.655  34.105  1.00  0.00     0.134 A 
ATOM      7  C   UNL     1    -106.582  27.519  33.804  1.00  0.00     0.093 A 
ATOM      8  C   UNL     1    -107.107  26.300  33.379  1.00  0.00     0.123 A 
ATOM      9  C   UNL     1    -106.268  25.194  33.239  1.00  0.00     0.094 A 
ATOM     10  C   UNL     1    -104.899  25.308  33.494  1.00  0.00     0.146 A 
ATOM     11  O   UNL     1    -104.134  24.236  33.327  1.00  0.00    -0.452 OA
ENDROOT
BRANCH   1  12
ATOM     12  C   UNL     1    -102.080  22.976  33.293  1.00  0.00     0.025 A 
ATOM     13  C   UNL     1    -101.319  22.814  32.124  1.00  0.00     0.016 A 
ATOM     14  C   UNL     1    -100.597  21.638  31.907  1.00  0.00     0.051 A 
ATOM     15  C   UNL     1    -100.612  20.614  32.862  1.00  0.00     0.157 A 
ATOM     16  C   UNL     1    -102.075  21.953  34.259  1.00  0.00     0.062 A 
ATOM     17  C   UNL     1    -101.349  20.774  34.043  1.00  0.00     0.158 A 
BRANCH  15  18
ATOM     18  O   UNL     1     -99.895  19.438  32.649  1.00  0.00    -0.504 OA
ATOM     19  H   UNL     1    -100.340  18.528  32.698  1.00  0.00     0.293 HD
ENDBRANCH  15  18
BRANCH  17  20
ATOM     20  O   UNL     1    -101.351  19.758  34.998  1.00  0.00    -0.504 OA
ATOM     21  H   UNL     1    -100.619  19.059  35.030  1.00  0.00     0.293 HD
ENDBRANCH  17  20
ENDBRANCH   1  12
BRANCH   2  22
ATOM     22  O   UNL     1    -100.797  25.430  34.144  1.00  0.00    -0.502 OA
ATOM     23  H   UNL     1    -100.219  26.246  33.978  1.00  0.00     0.293 HD
ENDBRANCH   2  22
BRANCH   6  24
ATOM     24  O   UNL     1    -104.817  28.894  34.610  1.00  0.00    -0.507 OA
ATOM     25  H   UNL     1    -105.362  29.742  34.565  1.00  0.00     0.293 HD
ENDBRANCH   6  24
BRANCH   8  26
ATOM     26  O   UNL     1    -108.469  26.197  33.106  1.00  0.00    -0.508 OA
ATOM     27  H   UNL     1    -108.990  26.968  32.704  1.00  0.00     0.293 HD
ENDBRANCH   8  26
TORSDOF 6
ENDMDL
MODEL 4
REMARK VINA RESULT:    -4.981     16.568     18.044
REMARK INTER + INTRA:          -6.318
REMARK INTER:                  -5.995
REMARK INTRA:                  -0.323
REMARK UNBOUND:                -0.318
REMARK SMILES O=c1c(O)c(-c2ccc(O)c(O)c2)oc2cc(O)cc(O)c12
REMARK SMILES IDX 5 1 3 2 2 3 1 4 22 5 20 6 19 7 17 8 16 9 15 10 14 11 6 12
REMARK SMILES IDX 7 13 8 14 9 15 13 16 11 17 10 18 12 20 4 22 21 24 18 26
REMARK H PARENT 10 19 12 21 4 23 21 25 18 27
REMARK Flexibility Score: inf
ROOT
ATOM      1  C   UNL     1    -107.374  27.448  20.375  1.00  0.00     0.180 A 
ATOM      2  C   UNL     1    -106.746  28.047  21.480  1.00  0.00     0.208 A 
ATOM      3  C   UNL     1    -105.351  27.954  21.602  1.00  0.00     0.238 A 
ATOM      4  O   UNL     1    -104.802  28.427  22.632  1.00  0.00    -0.285 OA
ATOM      5  C   UNL     1    -104.594  27.314  20.590  1.00  0.00     0.111 A 
ATOM      6  C   UNL     1    -103.171  27.200  20.589  1.00  0.00     0.134 A 
ATOM      7  C   UNL     1    -102.539  26.450  19.588  1.00  0.00     0.093 A 
ATOM      8  C   UNL     1    -103.271  25.866  18.556  1.00  0.00     0.123 A 
ATOM      9  C   UNL     1    -104.657  26.016  18.517  1.00  0.00     0.094 A 
ATOM     10  C   UNL     1    -105.320  26.725  19.522  1.00  0.00     0.146 A 
ATOM     11  O   UNL     1    -106.643  26.826  19.458  1.00  0.00    -0.452 OA
ENDROOT
BRANCH   1  12
ATOM     12  C   UNL     1    -108.842  27.491  20.184  1.00  0.00     0.025 A 
ATOM     13  C   UNL     1    -109.397  28.441  19.312  1.00  0.00     0.016 A 
ATOM     14  C   UNL     1    -110.777  28.486  19.100  1.00  0.00     0.051 A 
ATOM     15  C   UNL     1    -111.621  27.572  19.744  1.00  0.00     0.157 A 
ATOM     16  C   UNL     1    -109.691  26.561  20.812  1.00  0.00     0.062 A 
ATOM     17  C   UNL     1    -111.076  26.605  20.598  1.00  0.00     0.158 A 
BRANCH  15  18
ATOM     18  O   UNL     1    -112.999  27.615  19.538  1.00  0.00    -0.504 OA
ATOM     19  H   UNL     1    -113.541  28.445  19.749  1.00  0.00     0.293 HD
ENDBRANCH  15  18
BRANCH  17  20
ATOM     20  O   UNL     1    -111.916  25.687  21.228  1.00  0.00    -0.504 OA
ATOM     21  H   UNL     1    -111.563  24.814  21.600  1.00  0.00     0.293 HD
ENDBRANCH  17  20
ENDBRANCH   1  12
BRANCH   2  22
ATOM     22  O   UNL     1    -107.502  28.741  22.428  1.00  0.00    -0.502 OA
ATOM     23  H   UNL     1    -107.603  28.421  23.384  1.00  0.00     0.293 HD
ENDBRANCH   2  22
BRANCH   6  24
ATOM     24  O   UNL     1    -102.334  27.818  21.523  1.00  0.00    -0.507 OA
ATOM     25  H   UNL     1    -101.471  27.430  21.872  1.00  0.00     0.293 HD
ENDBRANCH   6  24
BRANCH   8  26
ATOM     26  O   UNL     1    -102.608  25.142  17.568  1.00  0.00    -0.508 OA
ATOM     27  H   UNL     1    -101.694  24.735  17.731  1.00  0.00     0.293 HD
ENDBRANCH   8  26
TORSDOF 6
ENDMDL
MODEL 5
REMARK VINA RESULT:    -4.958     11.989     13.751
REMARK INTER + INTRA:          -6.291
REMARK INTER:                  -6.321
REMARK INTRA:                   0.030
REMARK UNBOUND:                -0.318
REMARK SMILES O=c1c(O)c(-c2ccc(O)c(O)c2)oc2cc(O)cc(O)c12
REMARK SMILES IDX 5 1 3 2 2 3 1 4 22 5 20 6 19 7 17 8 16 9 15 10 14 11 6 12
REMARK SMILES IDX 7 13 8 14 9 15 13 16 11 17 10 18 12 20 4 22 21 24 18 26
REMARK H PARENT 10 19 12 21 4 23 21 25 18 27
REMARK Flexibility Score: inf
ROOT
ATOM      1  C   UNL     1    -116.031  11.460  22.282  1.00  0.00     0.180 A 
ATOM      2  C   UNL     1    -115.983  10.948  20.974  1.00  0.00     0.208 A 
ATOM      3  C   UNL     1    -116.753  11.564  19.975  1.00  0.00     0.238 A 
ATOM      4  O   UNL     1    -116.763  11.056  18.822  1.00  0.00    -0.285 OA
ATOM      5  C   UNL     1    -117.515  12.718  20.280  1.00  0.00     0.111 A 
ATOM      6  C   UNL     1    -118.297  13.449  19.336  1.00  0.00     0.134 A 
ATOM      7  C   UNL     1    -119.096  14.513  19.777  1.00  0.00     0.093 A 
ATOM      8  C   UNL     1    -119.093  14.910  21.112  1.00  0.00     0.123 A 
ATOM      9  C   UNL     1    -118.291  14.237  22.034  1.00  0.00     0.094 A 
ATOM     10  C   UNL     1    -117.513  13.148  21.633  1.00  0.00     0.146 A 
ATOM     11  O   UNL     1    -116.781  12.523  22.548  1.00  0.00    -0.452 OA
ENDROOT
BRANCH   1  12
ATOM     12  C   UNL     1    -115.260  10.856  23.393  1.00  0.00     0.025 A 
ATOM     13  C   UNL     1    -115.330   9.470  23.608  1.00  0.00     0.016 A 
ATOM     14  C   UNL     1    -114.595   8.875  24.636  1.00  0.00     0.051 A 
ATOM     15  C   UNL     1    -113.767   9.654  25.454  1.00  0.00     0.157 A 
ATOM     16  C   UNL     1    -114.411  11.631  24.204  1.00  0.00     0.062 A 
ATOM     17  C   UNL     1    -113.671  11.034  25.234  1.00  0.00     0.158 A 
BRANCH  15  18
ATOM     18  O   UNL     1    -113.034   9.065  26.483  1.00  0.00    -0.504 OA
ATOM     19  H   UNL     1    -112.029   8.944  26.416  1.00  0.00     0.293 HD
ENDBRANCH  15  18
BRANCH  17  20
ATOM     20  O   UNL     1    -112.836  11.806  26.041  1.00  0.00    -0.504 OA
ATOM     21  H   UNL     1    -111.832  11.814  25.910  1.00  0.00     0.293 HD
ENDBRANCH  17  20
ENDBRANCH   1  12
BRANCH   2  22
ATOM     22  O   UNL     1    -115.165   9.856  20.675  1.00  0.00    -0.502 OA
ATOM     23  H   UNL     1    -115.510   9.032  20.199  1.00  0.00     0.293 HD
ENDBRANCH   2  22
BRANCH   6  24
ATOM     24  O   UNL     1    -118.306  13.194  17.962  1.00  0.00    -0.507 OA
ATOM     25  H   UNL     1    -117.634  12.618  17.476  1.00  0.00     0.293 HD
ENDBRANCH   6  24
BRANCH   8  26
ATOM     26  O   UNL     1    -119.886  15.983  21.512  1.00  0.00    -0.508 OA
ATOM     27  H   UNL     1    -120.425  15.954  22.370  1.00  0.00     0.293 HD
ENDBRANCH   8  26
TORSDOF 6
ENDMDL
MODEL 6
REMARK VINA RESULT:    -4.886     16.413     19.054
REMARK INTER + INTRA:          -6.203
REMARK INTER:                  -5.881
REMARK INTRA:                  -0.322
REMARK UNBOUND:                -0.318
REMARK SMILES O=c1c(O)c(-c2ccc(O)c(O)c2)oc2cc(O)cc(O)c12
REMARK SMILES IDX 5 1 3 2 2 3 1 4 22 5 20 6 19 7 17 8 16 9 15 10 14 11 6 12
REMARK SMILES IDX 7 13 8 14 9 15 13 16 11 17 10 18 12 20 4 22 21 24 18 26
REMARK H PARENT 10 19 12 21 4 23 21 25 18 27
REMARK Flexibility Score: inf
ROOT
ATOM      1  C   UNL     1    -103.368  24.028  33.575  1.00  0.00     0.180 A 
ATOM      2  C   UNL     1    -102.458  24.067  32.506  1.00  0.00     0.208 A 
ATOM      3  C   UNL     1    -101.554  23.006  32.343  1.00  0.00     0.238 A 
ATOM      4  O   UNL     1    -100.692  23.082  31.428  1.00  0.00    -0.285 OA
ATOM      5  C   UNL     1    -101.608  21.891  33.216  1.00  0.00     0.111 A 
ATOM      6  C   UNL     1    -100.770  20.740  33.117  1.00  0.00     0.134 A 
ATOM      7  C   UNL     1    -100.842  19.747  34.103  1.00  0.00     0.093 A 
ATOM      8  C   UNL     1    -101.762  19.833  35.146  1.00  0.00     0.123 A 
ATOM      9  C   UNL     1    -102.624  20.927  35.222  1.00  0.00     0.094 A 
ATOM     10  C   UNL     1    -102.550  21.952  34.276  1.00  0.00     0.146 A 
ATOM     11  O   UNL     1    -103.374  22.986  34.398  1.00  0.00    -0.452 OA
ENDROOT
BRANCH   1  12
ATOM     12  C   UNL     1    -104.342  25.116  33.821  1.00  0.00     0.025 A 
ATOM     13  C   UNL     1    -103.965  26.214  34.611  1.00  0.00     0.016 A 
ATOM     14  C   UNL     1    -104.860  27.262  34.840  1.00  0.00     0.051 A 
ATOM     15  C   UNL     1    -106.138  27.237  34.267  1.00  0.00     0.157 A 
ATOM     16  C   UNL     1    -105.620  25.105  33.232  1.00  0.00     0.062 A 
ATOM     17  C   UNL     1    -106.517  26.158  33.458  1.00  0.00     0.158 A 
BRANCH  15  18
ATOM     18  O   UNL     1    -107.035  28.280  34.494  1.00  0.00    -0.504 OA
ATOM     19  H   UNL     1    -107.843  28.423  33.899  1.00  0.00     0.293 HD
ENDBRANCH  15  18
BRANCH  17  20
ATOM     20  O   UNL     1    -107.785  26.141  32.879  1.00  0.00    -0.504 OA
ATOM     21  H   UNL     1    -107.939  25.766  31.951  1.00  0.00     0.293 HD
ENDBRANCH  17  20
ENDBRANCH   1  12
BRANCH   2  22
ATOM     22  O   UNL     1    -102.471  25.138  31.609  1.00  0.00    -0.502 OA
ATOM     23  H   UNL     1    -102.432  25.009  30.605  1.00  0.00     0.293 HD
ENDBRANCH   2  22
BRANCH   6  24
ATOM     24  O   UNL     1     -99.875  20.509  32.068  1.00  0.00    -0.507 OA
ATOM     25  H   UNL     1     -99.150  19.808  32.070  1.00  0.00     0.293 HD
ENDBRANCH   6  24
BRANCH   8  26
ATOM     26  O   UNL     1    -101.818  18.818  36.098  1.00  0.00    -0.508 OA
ATOM     27  H   UNL     1    -101.788  19.019  37.091  1.00  0.00     0.293 HD
ENDBRANCH   8  26
TORSDOF 6
ENDMDL
MODEL 7
REMARK VINA RESULT:    -4.543     17.464     20.536
REMARK INTER + INTRA:          -5.791
REMARK INTER:                  -5.567
REMARK INTRA:                  -0.223
REMARK UNBOUND:                -0.318
REMARK SMILES O=c1c(O)c(-c2ccc(O)c(O)c2)oc2cc(O)cc(O)c12
REMARK SMILES IDX 5 1 3 2 2 3 1 4 22 5 20 6 19 7 17 8 16 9 15 10 14 11 6 12
REMARK SMILES IDX 7 13 8 14 9 15 13 16 11 17 10 18 12 20 4 22 21 24 18 26
REMARK H PARENT 10 19 12 21 4 23 21 25 18 27
REMARK Flexibility Score: inf
ROOT
ATOM      1  C   UNL     1    -105.674  25.295  34.259  1.00  0.00     0.180 A 
ATOM      2  C   UNL     1    -104.991  26.361  34.870  1.00  0.00     0.208 A 
ATOM      3  C   UNL     1    -103.648  26.593  34.529  1.00  0.00     0.238 A 
ATOM      4  O   UNL     1    -103.020  27.501  35.133  1.00  0.00    -0.285 OA
ATOM      5  C   UNL     1    -103.022  25.793  33.541  1.00  0.00     0.111 A 
ATOM      6  C   UNL     1    -101.681  25.967  33.085  1.00  0.00     0.134 A 
ATOM      7  C   UNL     1    -101.134  25.048  32.180  1.00  0.00     0.093 A 
ATOM      8  C   UNL     1    -101.898  24.001  31.667  1.00  0.00     0.123 A 
ATOM      9  C   UNL     1    -103.227  23.854  32.064  1.00  0.00     0.094 A 
ATOM     10  C   UNL     1    -103.790  24.732  32.994  1.00  0.00     0.146 A 
ATOM     11  O   UNL     1    -105.052  24.542  33.361  1.00  0.00    -0.452 OA
ENDROOT
BRANCH   1  12
ATOM     12  C   UNL     1    -107.085  24.979  34.578  1.00  0.00     0.025 A 
ATOM     13  C   UNL     1    -107.380  23.844  35.349  1.00  0.00     0.016 A 
ATOM     14  C   UNL     1    -108.702  23.537  35.679  1.00  0.00     0.051 A 
ATOM     15  C   UNL     1    -109.747  24.370  35.258  1.00  0.00     0.157 A 
ATOM     16  C   UNL     1    -108.135  25.824  34.175  1.00  0.00     0.062 A 
ATOM     17  C   UNL     1    -109.462  25.518  34.508  1.00  0.00     0.158 A 
BRANCH  15  18
ATOM     18  O   UNL     1    -111.068  24.066  35.584  1.00  0.00    -0.504 OA
ATOM     19  H   UNL     1    -111.689  24.762  35.982  1.00  0.00     0.293 HD
ENDBRANCH  15  18
BRANCH  17  20
ATOM     20  O   UNL     1    -110.502  26.353  34.102  1.00  0.00    -0.504 OA
ATOM     21  H   UNL     1    -111.159  26.070  33.385  1.00  0.00     0.293 HD
ENDBRANCH  17  20
ENDBRANCH   1  12
BRANCH   2  22
ATOM     22  O   UNL     1    -105.648  27.186  35.785  1.00  0.00    -0.502 OA
ATOM     23  H   UNL     1    -106.496  26.905  36.261  1.00  0.00     0.293 HD
ENDBRANCH   2  22
BRANCH   6  24
ATOM     24  O   UNL     1    -100.856  27.030  33.465  1.00  0.00    -0.507 OA
ATOM     25  H   UNL     1    -101.035  28.003  33.262  1.00  0.00     0.293 HD
ENDBRANCH   6  24
BRANCH   8  26
ATOM     26  O   UNL     1    -101.327  23.116  30.756  1.00  0.00    -0.508 OA
ATOM     27  H   UNL     1    -101.405  23.260  29.756  1.00  0.00     0.293 HD
ENDBRANCH   8  26
TORSDOF 6
ENDMDL
MODEL 8
REMARK VINA RESULT:    -4.489     15.105     16.581
REMARK INTER + INTRA:          -5.725
REMARK INTER:                  -5.567
REMARK INTRA:                  -0.159
REMARK UNBOUND:                -0.318
REMARK SMILES O=c1c(O)c(-c2ccc(O)c(O)c2)oc2cc(O)cc(O)c12
REMARK SMILES IDX 5 1 3 2 2 3 1 4 22 5 20 6 19 7 17 8 16 9 15 10 14 11 6 12
REMARK SMILES IDX 7 13 8 14 9 15 13 16 11 17 10 18 12 20 4 22 21 24 18 26
REMARK H PARENT 10 19 12 21 4 23 21 25 18 27
REMARK Flexibility Score: inf
ROOT
ATOM      1  C   UNL     1    -103.682  25.708  18.904  1.00  0.00     0.180 A 
ATOM      2  C   UNL     1    -103.216  26.462  19.995  1.00  0.00     0.208 A 
ATOM      3  C   UNL     1    -104.121  27.275  20.696  1.00  0.00     0.238 A 
ATOM      4  O   UNL     1    -103.683  28.004  21.625  1.00  0.00    -0.285 OA
ATOM      5  C   UNL     1    -105.491  27.282  20.335  1.00  0.00     0.111 A 
ATOM      6  C   UNL     1    -106.504  28.033  21.003  1.00  0.00     0.134 A 
ATOM      7  C   UNL     1    -107.807  28.045  20.489  1.00  0.00     0.093 A 
ATOM      8  C   UNL     1    -108.147  27.285  19.372  1.00  0.00     0.123 A 
ATOM      9  C   UNL     1    -107.178  26.504  18.743  1.00  0.00     0.094 A 
ATOM     10  C   UNL     1    -105.860  26.501  19.209  1.00  0.00     0.146 A 
ATOM     11  O   UNL     1    -104.965  25.760  18.567  1.00  0.00    -0.452 OA
ENDROOT
BRANCH   1  12
ATOM     12  C   UNL     1    -102.785  24.840  18.107  1.00  0.00     0.025 A 
ATOM     13  C   UNL     1    -101.740  25.418  17.370  1.00  0.00     0.016 A 
ATOM     14  C   UNL     1    -100.870  24.617  16.627  1.00  0.00     0.051 A 
ATOM     15  C   UNL     1    -101.021  23.224  16.625  1.00  0.00     0.157 A 
ATOM     16  C   UNL     1    -102.921  23.439  18.119  1.00  0.00     0.062 A 
ATOM     17  C   UNL     1    -102.046  22.634  17.376  1.00  0.00     0.158 A 
BRANCH  15  18
ATOM     18  O   UNL     1    -100.156  22.421  15.884  1.00  0.00    -0.504 OA
ATOM     19  H   UNL     1     -99.437  22.822  15.291  1.00  0.00     0.293 HD
ENDBRANCH  15  18
BRANCH  17  20
ATOM     20  O   UNL     1    -102.186  21.247  17.382  1.00  0.00    -0.504 OA
ATOM     21  H   UNL     1    -102.021  20.694  16.550  1.00  0.00     0.293 HD
ENDBRANCH  17  20
ENDBRANCH   1  12
BRANCH   2  22
ATOM     22  O   UNL     1    -101.877  26.383  20.385  1.00  0.00    -0.502 OA
ATOM     23  H   UNL     1    -101.442  27.076  20.982  1.00  0.00     0.293 HD
ENDBRANCH   2  22
BRANCH   6  24
ATOM     24  O   UNL     1    -106.294  28.759  22.180  1.00  0.00    -0.507 OA
ATOM     25  H   UNL     1    -106.224  28.356  23.103  1.00  0.00     0.293 HD
ENDBRANCH   6  24
BRANCH   8  26
ATOM     26  O   UNL     1    -109.458  27.307  18.899  1.00  0.00    -0.508 OA
ATOM     27  H   UNL     1    -109.716  27.839  18.076  1.00  0.00     0.293 HD
ENDBRANCH   8  26
TORSDOF 6
ENDMDL
