MODEL 1
REMARK VINA RESULT:    -6.774      0.000      0.000
REMARK INTER + INTRA:          -8.356
REMARK INTER:                  -8.160
REMARK INTRA:                  -0.196
REMARK UNBOUND:                -0.196
REMARK SMILES O=c1c(O)c(-c2ccc(O)c(O)c2)oc2cc(O)cc(O)c12
REMARK SMILES IDX 5 1 3 2 2 3 1 4 22 5 20 6 19 7 17 8 16 9 15 10 14 11 6 12
REMARK SMILES IDX 7 13 8 14 9 15 13 16 11 17 10 18 12 20 4 22 21 24 18 26
REMARK H PARENT 10 19 12 21 4 23 21 25 18 27
REMARK Flexibility Score: inf
ROOT
ATOM      1  C   UNL     1      30.548 -92.243  37.271  1.00  0.00     0.180 A 
ATOM      2  C   UNL     1      29.314 -92.826  36.931  1.00  0.00     0.208 A 
ATOM      3  C   UNL     1      29.137 -94.206  37.123  1.00  0.00     0.238 A 
ATOM      4  O   UNL     1      28.050 -94.731  36.766  1.00  0.00    -0.285 OA
ATOM      5  C   UNL     1      30.188 -94.982  37.667  1.00  0.00     0.111 A 
ATOM      6  C   UNL     1      30.104 -96.380  37.941  1.00  0.00     0.134 A 
ATOM      7  C   UNL     1      31.248 -97.073  38.356  1.00  0.00     0.093 A 
ATOM      8  C   UNL     1      32.454 -96.407  38.571  1.00  0.00     0.123 A 
ATOM      9  C   UNL     1      32.533 -95.030  38.363  1.00  0.00     0.094 A 
ATOM     10  C   UNL     1      31.417 -94.318  37.913  1.00  0.00     0.146 A 
ATOM     11  O   UNL     1      31.536 -93.010  37.718  1.00  0.00    -0.452 OA
ENDROOT
BRANCH   1  12
ATOM     12  C   UNL     1      30.802 -90.793  37.120  1.00  0.00     0.025 A 
ATOM     13  C   UNL     1      31.683 -90.302  36.141  1.00  0.00     0.016 A 
ATOM     14  C   UNL     1      31.889 -88.928  36.000  1.00  0.00     0.051 A 
ATOM     15  C   UNL     1      31.208 -88.022  36.825  1.00  0.00     0.157 A 
ATOM     16  C   UNL     1      30.106 -89.881  37.931  1.00  0.00     0.062 A 
ATOM     17  C   UNL     1      30.311 -88.503  37.793  1.00  0.00     0.158 A 
BRANCH  15  18
ATOM     18  O   UNL     1      31.418 -86.652  36.685  1.00  0.00    -0.504 OA
ATOM     19  H   UNL     1      31.620 -86.061  37.483  1.00  0.00     0.293 HD
ENDBRANCH  15  18
BRANCH  17  20
ATOM     20  O   UNL     1      29.613 -87.628  38.625  1.00  0.00    -0.504 OA
ATOM     21  H   UNL     1      30.079 -86.903  39.157  1.00  0.00     0.293 HD
ENDBRANCH  17  20
ENDBRANCH   1  12
BRANCH   2  22
ATOM     22  O   UNL     1      28.298 -92.045  36.375  1.00  0.00    -0.502 OA
ATOM     23  H   UNL     1      27.315 -92.262  36.499  1.00  0.00     0.293 HD
ENDBRANCH   2  22
BRANCH   6  24
ATOM     24  O   UNL     1      28.925 -97.125  37.848  1.00  0.00    -0.507 OA
ATOM     25  H   UNL     1      28.883 -98.132  37.797  1.00  0.00     0.293 HD
ENDBRANCH   6  24
BRANCH   8  26
ATOM     26  O   UNL     1      33.570 -97.125  39.000  1.00  0.00    -0.508 OA
ATOM     27  H   UNL     1      34.456 -97.067  38.512  1.00  0.00     0.293 HD
ENDBRANCH   8  26
TORSDOF 6
ENDMDL
MODEL 2
REMARK VINA RESULT:    -5.522      9.350     10.846
REMARK INTER + INTRA:          -6.848
REMARK INTER:                  -6.840
REMARK INTRA:                  -0.007
REMARK UNBOUND:                -0.196
REMARK SMILES O=c1c(O)c(-c2ccc(O)c(O)c2)oc2cc(O)cc(O)c12
REMARK SMILES IDX 5 1 3 2 2 3 1 4 22 5 20 6 19 7 17 8 16 9 15 10 14 11 6 12
REMARK SMILES IDX 7 13 8 14 9 15 13 16 11 17 10 18 12 20 4 22 21 24 18 26
REMARK H PARENT 10 19 12 21 4 23 21 25 18 27
REMARK Flexibility Score: inf
ROOT
ATOM      1  C   UNL     1      35.935 -95.480  29.806  1.00  0.00     0.180 A 
ATOM      2  C   UNL     1      37.026 -95.759  28.964  1.00  0.00     0.208 A 
ATOM      3  C   UNL     1      38.321 -95.769  29.508  1.00  0.00     0.238 A 
ATOM      4  O   UNL     1      39.298 -95.966  28.739  1.00  0.00    -0.285 OA
ATOM      5  C   UNL     1      38.507 -95.518  30.889  1.00  0.00     0.111 A 
ATOM      6  C   UNL     1      39.769 -95.544  31.553  1.00  0.00     0.134 A 
ATOM      7  C   UNL     1      39.852 -95.151  32.895  1.00  0.00     0.093 A 
ATOM      8  C   UNL     1      38.710 -94.798  33.613  1.00  0.00     0.123 A 
ATOM      9  C   UNL     1      37.462 -94.827  32.990  1.00  0.00     0.094 A 
ATOM     10  C   UNL     1      37.353 -95.179  31.641  1.00  0.00     0.146 A 
ATOM     11  O   UNL     1      36.149 -95.183  31.083  1.00  0.00    -0.452 OA
ENDROOT
BRANCH   1  12
ATOM     12  C   UNL     1      34.540 -95.474  29.311  1.00  0.00     0.025 A 
ATOM     13  C   UNL     1      34.165 -94.719  28.185  1.00  0.00     0.016 A 
ATOM     14  C   UNL     1      32.848 -94.748  27.721  1.00  0.00     0.051 A 
ATOM     15  C   UNL     1      31.889 -95.541  28.365  1.00  0.00     0.157 A 
ATOM     16  C   UNL     1      33.580 -96.283  29.940  1.00  0.00     0.062 A 
ATOM     17  C   UNL     1      32.258 -96.313  29.478  1.00  0.00     0.158 A 
BRANCH  15  18
ATOM     18  O   UNL     1      30.575 -95.565  27.901  1.00  0.00    -0.504 OA
ATOM     19  H   UNL     1      29.830 -95.992  28.440  1.00  0.00     0.293 HD
ENDBRANCH  15  18
BRANCH  17  20
ATOM     20  O   UNL     1      31.329 -97.119  30.137  1.00  0.00    -0.504 OA
ATOM     21  H   UNL     1      30.683 -96.745  30.822  1.00  0.00     0.293 HD
ENDBRANCH  17  20
ENDBRANCH   1  12
BRANCH   2  22
ATOM     22  O   UNL     1      36.821 -95.983  27.600  1.00  0.00    -0.502 OA
ATOM     23  H   UNL     1      37.289 -96.726  27.094  1.00  0.00     0.293 HD
ENDBRANCH   2  22
BRANCH   6  24
ATOM     24  O   UNL     1      40.958 -95.969  30.955  1.00  0.00    -0.507 OA
ATOM     25  H   UNL     1      41.787 -95.402  30.854  1.00  0.00     0.293 HD
ENDBRANCH   6  24
BRANCH   8  26
ATOM     26  O   UNL     1      38.826 -94.427  34.952  1.00  0.00    -0.508 OA
ATOM     27  H   UNL     1      38.114 -93.872  35.411  1.00  0.00     0.293 HD
ENDBRANCH   8  26
TORSDOF 6
ENDMDL
MODEL 3
REMARK VINA RESULT:    -5.430      9.316     11.043
REMARK INTER + INTRA:          -6.737
REMARK INTER:                  -6.557
REMARK INTRA:                  -0.180
REMARK UNBOUND:                -0.196
REMARK SMILES O=c1c(O)c(-c2ccc(O)c(O)c2)oc2cc(O)cc(O)c12
REMARK SMILES IDX 5 1 3 2 2 3 1 4 22 5 20 6 19 7 17 8 16 9 15 10 14 11 6 12
REMARK SMILES IDX 7 13 8 14 9 15 13 16 11 17 10 18 12 20 4 22 21 24 18 26
REMARK H PARENT 10 19 12 21 4 23 21 25 18 27
REMARK Flexibility Score: inf
ROOT
ATOM      1  C   UNL     1      37.258 -95.618  30.866  1.00  0.00     0.180 A 
ATOM      2  C   UNL     1      37.864 -96.303  29.799  1.00  0.00     0.208 A 
ATOM      3  C   UNL     1      37.151 -96.463  28.600  1.00  0.00     0.238 A 
ATOM      4  O   UNL     1      37.677 -97.125  27.667  1.00  0.00    -0.285 OA
ATOM      5  C   UNL     1      35.849 -95.920  28.477  1.00  0.00     0.111 A 
ATOM      6  C   UNL     1      35.052 -95.988  27.295  1.00  0.00     0.134 A 
ATOM      7  C   UNL     1      33.728 -95.533  27.327  1.00  0.00     0.093 A 
ATOM      8  C   UNL     1      33.195 -94.953  28.478  1.00  0.00     0.123 A 
ATOM      9  C   UNL     1      33.984 -94.828  29.622  1.00  0.00     0.094 A 
ATOM     10  C   UNL     1      35.297 -95.307  29.630  1.00  0.00     0.146 A 
ATOM     11  O   UNL     1      36.011 -95.178  30.742  1.00  0.00    -0.452 OA
ENDROOT
BRANCH   1  12
ATOM     12  C   UNL     1      37.955 -95.389  32.153  1.00  0.00     0.025 A 
ATOM     13  C   UNL     1      39.119 -94.604  32.225  1.00  0.00     0.016 A 
ATOM     14  C   UNL     1      39.746 -94.381  33.453  1.00  0.00     0.051 A 
ATOM     15  C   UNL     1      39.213 -94.926  34.629  1.00  0.00     0.157 A 
ATOM     16  C   UNL     1      37.412 -95.914  33.336  1.00  0.00     0.062 A 
ATOM     17  C   UNL     1      38.038 -95.694  34.569  1.00  0.00     0.158 A 
BRANCH  15  18
ATOM     18  O   UNL     1      39.842 -94.704  35.852  1.00  0.00    -0.504 OA
ATOM     19  H   UNL     1      39.764 -95.364  36.617  1.00  0.00     0.293 HD
ENDBRANCH  15  18
BRANCH  17  20
ATOM     20  O   UNL     1      37.477 -96.244  35.721  1.00  0.00    -0.504 OA
ATOM     21  H   UNL     1      37.655 -97.201  36.003  1.00  0.00     0.293 HD
ENDBRANCH  17  20
ENDBRANCH   1  12
BRANCH   2  22
ATOM     22  O   UNL     1      39.142 -96.849  29.950  1.00  0.00    -0.502 OA
ATOM     23  H   UNL     1      39.893 -96.663  29.296  1.00  0.00     0.293 HD
ENDBRANCH   2  22
BRANCH   6  24
ATOM     24  O   UNL     1      35.517 -96.463  26.066  1.00  0.00    -0.507 OA
ATOM     25  H   UNL     1      34.964 -96.990  25.406  1.00  0.00     0.293 HD
ENDBRANCH   6  24
BRANCH   8  26
ATOM     26  O   UNL     1      31.878 -94.497  28.471  1.00  0.00    -0.508 OA
ATOM     27  H   UNL     1      31.646 -93.554  28.181  1.00  0.00     0.293 HD
ENDBRANCH   8  26
TORSDOF 6
ENDMDL
MODEL 4
REMARK VINA RESULT:    -5.173      9.025     11.258
REMARK INTER + INTRA:          -6.427
REMARK INTER:                  -6.237
REMARK INTRA:                  -0.190
REMARK UNBOUND:                -0.196
REMARK SMILES O=c1c(O)c(-c2ccc(O)c(O)c2)oc2cc(O)cc(O)c12
REMARK SMILES IDX 5 1 3 2 2 3 1 4 22 5 20 6 19 7 17 8 16 9 15 10 14 11 6 12
REMARK SMILES IDX 7 13 8 14 9 15 13 16 11 17 10 18 12 20 4 22 21 24 18 26
REMARK H PARENT 10 19 12 21 4 23 21 25 18 27
REMARK Flexibility Score: inf
ROOT
ATOM      1  C   UNL     1      39.933 -95.790  35.684  1.00  0.00     0.180 A 
ATOM      2  C   UNL     1      41.081 -95.724  34.875  1.00  0.00     0.208 A 
ATOM      3  C   UNL     1      40.928 -95.600  33.484  1.00  0.00     0.238 A 
ATOM      4  O   UNL     1      41.959 -95.597  32.762  1.00  0.00    -0.285 OA
ATOM      5  C   UNL     1      39.632 -95.526  32.922  1.00  0.00     0.111 A 
ATOM      6  C   UNL     1      39.361 -95.359  31.531  1.00  0.00     0.134 A 
ATOM      7  C   UNL     1      38.040 -95.430  31.070  1.00  0.00     0.093 A 
ATOM      8  C   UNL     1      36.977 -95.596  31.957  1.00  0.00     0.123 A 
ATOM      9  C   UNL     1      37.226 -95.701  33.326  1.00  0.00     0.094 A 
ATOM     10  C   UNL     1      38.536 -95.670  33.811  1.00  0.00     0.146 A 
ATOM     11  O   UNL     1      38.730 -95.784  35.120  1.00  0.00    -0.452 OA
ENDROOT
BRANCH   1  12
ATOM     12  C   UNL     1      40.012 -95.897  37.158  1.00  0.00     0.025 A 
ATOM     13  C   UNL     1      40.515 -97.052  37.782  1.00  0.00     0.016 A 
ATOM     14  C   UNL     1      40.605 -97.122  39.174  1.00  0.00     0.051 A 
ATOM     15  C   UNL     1      40.207 -96.035  39.964  1.00  0.00     0.157 A 
ATOM     16  C   UNL     1      39.635 -94.803  37.952  1.00  0.00     0.062 A 
ATOM     17  C   UNL     1      39.721 -94.869  39.348  1.00  0.00     0.158 A 
BRANCH  15  18
ATOM     18  O   UNL     1      40.294 -96.109  41.352  1.00  0.00    -0.504 OA
ATOM     19  H   UNL     1      40.436 -95.281  41.920  1.00  0.00     0.293 HD
ENDBRANCH  15  18
BRANCH  17  20
ATOM     20  O   UNL     1      39.324 -93.767  40.105  1.00  0.00    -0.504 OA
ATOM     21  H   UNL     1      38.834 -92.981  39.694  1.00  0.00     0.293 HD
ENDBRANCH  17  20
ENDBRANCH   1  12
BRANCH   2  22
ATOM     22  O   UNL     1      42.351 -95.821  35.450  1.00  0.00    -0.502 OA
ATOM     23  H   UNL     1      42.919 -95.007  35.655  1.00  0.00     0.293 HD
ENDBRANCH   2  22
BRANCH   6  24
ATOM     24  O   UNL     1      40.342 -95.095  30.570  1.00  0.00    -0.507 OA
ATOM     25  H   UNL     1      41.091 -95.726  30.325  1.00  0.00     0.293 HD
ENDBRANCH   6  24
BRANCH   8  26
ATOM     26  O   UNL     1      35.674 -95.647  31.466  1.00  0.00    -0.508 OA
ATOM     27  H   UNL     1      35.199 -96.530  31.316  1.00  0.00     0.293 HD
ENDBRANCH   8  26
TORSDOF 6
ENDMDL
MODEL 5
REMARK VINA RESULT:    -5.157     15.856     17.838
REMARK INTER + INTRA:          -6.408
REMARK INTER:                  -6.250
REMARK INTRA:                  -0.158
REMARK UNBOUND:                -0.196
REMARK SMILES O=c1c(O)c(-c2ccc(O)c(O)c2)oc2cc(O)cc(O)c12
REMARK SMILES IDX 5 1 3 2 2 3 1 4 22 5 20 6 19 7 17 8 16 9 15 10 14 11 6 12
REMARK SMILES IDX 7 13 8 14 9 15 13 16 11 17 10 18 12 20 4 22 21 24 18 26
REMARK H PARENT 10 19 12 21 4 23 21 25 18 27
REMARK Flexibility Score: inf
ROOT
ATOM      1  C   UNL     1      38.495 -77.655  36.099  1.00  0.00     0.180 A 
ATOM      2  C   UNL     1      37.163 -77.470  35.687  1.00  0.00     0.208 A 
ATOM      3  C   UNL     1      36.888 -77.327  34.317  1.00  0.00     0.238 A 
ATOM      4  O   UNL     1      35.701 -77.107  33.960  1.00  0.00    -0.285 OA
ATOM      5  C   UNL     1      37.943 -77.390  33.376  1.00  0.00     0.111 A 
ATOM      6  C   UNL     1      37.773 -77.298  31.962  1.00  0.00     0.134 A 
ATOM      7  C   UNL     1      38.900 -77.240  31.133  1.00  0.00     0.093 A 
ATOM      8  C   UNL     1      40.187 -77.337  31.661  1.00  0.00     0.123 A 
ATOM      9  C   UNL     1      40.363 -77.486  33.037  1.00  0.00     0.094 A 
ATOM     10  C   UNL     1      39.258 -77.510  33.893  1.00  0.00     0.146 A 
ATOM     11  O   UNL     1      39.470 -77.642  35.197  1.00  0.00    -0.452 OA
ENDROOT
BRANCH   1  12
ATOM     12  C   UNL     1      38.861 -77.836  37.521  1.00  0.00     0.025 A 
ATOM     13  C   UNL     1      39.624 -76.875  38.209  1.00  0.00     0.016 A 
ATOM     14  C   UNL     1      39.937 -77.054  39.558  1.00  0.00     0.051 A 
ATOM     15  C   UNL     1      39.483 -78.188  40.245  1.00  0.00     0.157 A 
ATOM     16  C   UNL     1      38.390 -78.959  38.220  1.00  0.00     0.062 A 
ATOM     17  C   UNL     1      38.704 -79.143  39.572  1.00  0.00     0.158 A 
BRANCH  15  18
ATOM     18  O   UNL     1      39.800 -78.366  41.590  1.00  0.00    -0.504 OA
ATOM     19  H   UNL     1      39.661 -77.627  42.270  1.00  0.00     0.293 HD
ENDBRANCH  15  18
BRANCH  17  20
ATOM     20  O   UNL     1      38.229 -80.279  40.228  1.00  0.00    -0.504 OA
ATOM     21  H   UNL     1      37.277 -80.607  40.115  1.00  0.00     0.293 HD
ENDBRANCH  17  20
ENDBRANCH   1  12
BRANCH   2  22
ATOM     22  O   UNL     1      36.139 -77.390  36.635  1.00  0.00    -0.502 OA
ATOM     23  H   UNL     1      35.622 -76.535  36.806  1.00  0.00     0.293 HD
ENDBRANCH   2  22
BRANCH   6  24
ATOM     24  O   UNL     1      36.530 -77.289  31.324  1.00  0.00    -0.507 OA
ATOM     25  H   UNL     1      35.813 -76.594  31.470  1.00  0.00     0.293 HD
ENDBRANCH   6  24
BRANCH   8  26
ATOM     26  O   UNL     1      41.287 -77.291  30.805  1.00  0.00    -0.508 OA
ATOM     27  H   UNL     1      41.730 -76.414  30.560  1.00  0.00     0.293 HD
ENDBRANCH   8  26
TORSDOF 6
ENDMDL
MODEL 6
REMARK VINA RESULT:    -5.150      8.041     10.723
REMARK INTER + INTRA:          -6.400
REMARK INTER:                  -6.204
REMARK INTRA:                  -0.196
REMARK UNBOUND:                -0.196
REMARK SMILES O=c1c(O)c(-c2ccc(O)c(O)c2)oc2cc(O)cc(O)c12
REMARK SMILES IDX 5 1 3 2 2 3 1 4 22 5 20 6 19 7 17 8 16 9 15 10 14 11 6 12
REMARK SMILES IDX 7 13 8 14 9 15 13 16 11 17 10 18 12 20 4 22 21 24 18 26
REMARK H PARENT 10 19 12 21 4 23 21 25 18 27
REMARK Flexibility Score: inf
ROOT
ATOM      1  C   UNL     1      39.509 -95.550  35.164  1.00  0.00     0.180 A 
ATOM      2  C   UNL     1      40.531 -95.165  36.049  1.00  0.00     0.208 A 
ATOM      3  C   UNL     1      40.316 -95.286  37.432  1.00  0.00     0.238 A 
ATOM      4  O   UNL     1      41.214 -94.889  38.219  1.00  0.00    -0.285 OA
ATOM      5  C   UNL     1      39.090 -95.805  37.912  1.00  0.00     0.111 A 
ATOM      6  C   UNL     1      38.781 -96.009  39.290  1.00  0.00     0.134 A 
ATOM      7  C   UNL     1      37.489 -96.405  39.657  1.00  0.00     0.093 A 
ATOM      8  C   UNL     1      36.517 -96.669  38.693  1.00  0.00     0.123 A 
ATOM      9  C   UNL     1      36.825 -96.530  37.340  1.00  0.00     0.094 A 
ATOM     10  C   UNL     1      38.095 -96.101  36.945  1.00  0.00     0.146 A 
ATOM     11  O   UNL     1      38.345 -95.971  35.647  1.00  0.00    -0.452 OA
ENDROOT
BRANCH   1  12
ATOM     12  C   UNL     1      39.669 -95.474  33.694  1.00  0.00     0.025 A 
ATOM     13  C   UNL     1      38.959 -94.533  32.928  1.00  0.00     0.016 A 
ATOM     14  C   UNL     1      39.144 -94.463  31.546  1.00  0.00     0.051 A 
ATOM     15  C   UNL     1      40.051 -95.321  30.909  1.00  0.00     0.157 A 
ATOM     16  C   UNL     1      40.592 -96.317  33.055  1.00  0.00     0.062 A 
ATOM     17  C   UNL     1      40.779 -96.251  31.669  1.00  0.00     0.158 A 
BRANCH  15  18
ATOM     18  O   UNL     1      40.231 -95.251  29.529  1.00  0.00    -0.504 OA
ATOM     19  H   UNL     1      39.629 -94.685  28.943  1.00  0.00     0.293 HD
ENDBRANCH  15  18
BRANCH  17  20
ATOM     20  O   UNL     1      41.695 -97.114  31.068  1.00  0.00    -0.504 OA
ATOM     21  H   UNL     1      41.990 -97.000  30.105  1.00  0.00     0.293 HD
ENDBRANCH  17  20
ENDBRANCH   1  12
BRANCH   2  22
ATOM     22  O   UNL     1      41.726 -94.634  35.554  1.00  0.00    -0.502 OA
ATOM     23  H   UNL     1      42.631 -95.032  35.776  1.00  0.00     0.293 HD
ENDBRANCH   2  22
BRANCH   6  24
ATOM     24  O   UNL     1      39.706 -95.864  40.327  1.00  0.00    -0.507 OA
ATOM     25  H   UNL     1      40.477 -95.212  40.324  1.00  0.00     0.293 HD
ENDBRANCH   6  24
BRANCH   8  26
ATOM     26  O   UNL     1      35.245 -97.076  39.093  1.00  0.00    -0.508 OA
ATOM     27  H   UNL     1      34.559 -96.413  39.433  1.00  0.00     0.293 HD
ENDBRANCH   8  26
TORSDOF 6
ENDMDL
MODEL 7
REMARK VINA RESULT:    -5.109     14.885     16.060
REMARK INTER + INTRA:          -6.350
REMARK INTER:                  -6.289
REMARK INTRA:                  -0.061
REMARK UNBOUND:                -0.196
REMARK SMILES O=c1c(O)c(-c2ccc(O)c(O)c2)oc2cc(O)cc(O)c12
REMARK SMILES IDX 5 1 3 2 2 3 1 4 22 5 20 6 19 7 17 8 16 9 15 10 14 11 6 12
REMARK SMILES IDX 7 13 8 14 9 15 13 16 11 17 10 18 12 20 4 22 21 24 18 26
REMARK H PARENT 10 19 12 21 4 23 21 25 18 27
REMARK Flexibility Score: inf
ROOT
ATOM      1  C   UNL     1      35.793 -78.076  37.658  1.00  0.00     0.180 A 
ATOM      2  C   UNL     1      36.839 -77.695  36.799  1.00  0.00     0.208 A 
ATOM      3  C   UNL     1      38.164 -77.955  37.183  1.00  0.00     0.238 A 
ATOM      4  O   UNL     1      39.098 -77.562  36.436  1.00  0.00    -0.285 OA
ATOM      5  C   UNL     1      38.427 -78.607  38.412  1.00  0.00     0.111 A 
ATOM      6  C   UNL     1      39.728 -78.955  38.881  1.00  0.00     0.134 A 
ATOM      7  C   UNL     1      39.880 -79.480  40.171  1.00  0.00     0.093 A 
ATOM      8  C   UNL     1      38.772 -79.730  40.980  1.00  0.00     0.123 A 
ATOM      9  C   UNL     1      37.490 -79.448  40.509  1.00  0.00     0.094 A 
ATOM     10  C   UNL     1      37.311 -78.890  39.240  1.00  0.00     0.146 A 
ATOM     11  O   UNL     1      36.075 -78.626  38.833  1.00  0.00    -0.452 OA
ENDROOT
BRANCH   1  12
ATOM     12  C   UNL     1      34.370 -77.857  37.312  1.00  0.00     0.025 A 
ATOM     13  C   UNL     1      33.526 -77.090  38.134  1.00  0.00     0.016 A 
ATOM     14  C   UNL     1      32.194 -76.876  37.775  1.00  0.00     0.051 A 
ATOM     15  C   UNL     1      31.687 -77.413  36.584  1.00  0.00     0.157 A 
ATOM     16  C   UNL     1      33.864 -78.375  36.109  1.00  0.00     0.062 A 
ATOM     17  C   UNL     1      32.528 -78.164  35.747  1.00  0.00     0.158 A 
BRANCH  15  18
ATOM     18  O   UNL     1      30.356 -77.200  36.230  1.00  0.00    -0.504 OA
ATOM     19  H   UNL     1      29.625 -77.849  36.500  1.00  0.00     0.293 HD
ENDBRANCH  15  18
BRANCH  17  20
ATOM     20  O   UNL     1      32.057 -78.706  34.551  1.00  0.00    -0.504 OA
ATOM     21  H   UNL     1      32.642 -79.274  33.950  1.00  0.00     0.293 HD
ENDBRANCH  17  20
ENDBRANCH   1  12
BRANCH   2  22
ATOM     22  O   UNL     1      36.558 -77.032  35.600  1.00  0.00    -0.502 OA
ATOM     23  H   UNL     1      37.265 -76.527  35.080  1.00  0.00     0.293 HD
ENDBRANCH   2  22
BRANCH   6  24
ATOM     24  O   UNL     1      40.893 -78.833  38.118  1.00  0.00    -0.507 OA
ATOM     25  H   UNL     1      41.823 -78.736  38.499  1.00  0.00     0.293 HD
ENDBRANCH   6  24
BRANCH   8  26
ATOM     26  O   UNL     1      38.959 -80.268  42.253  1.00  0.00    -0.508 OA
ATOM     27  H   UNL     1      38.910 -79.690  43.084  1.00  0.00     0.293 HD
ENDBRANCH   8  26
TORSDOF 6
ENDMDL
MODEL 8
REMARK VINA RESULT:    -5.073     15.323     16.812
REMARK INTER + INTRA:          -6.307
REMARK INTER:                  -6.008
REMARK INTRA:                  -0.299
REMARK UNBOUND:                -0.196
REMARK SMILES O=c1c(O)c(-c2ccc(O)c(O)c2)oc2cc(O)cc(O)c12
REMARK SMILES IDX 5 1 3 2 2 3 1 4 22 5 20 6 19 7 17 8 16 9 15 10 14 11 6 12
REMARK SMILES IDX 7 13 8 14 9 15 13 16 11 17 10 18 12 20 4 22 21 24 18 26
REMARK H PARENT 10 19 12 21 4 23 21 25 18 27
REMARK Flexibility Score: inf
ROOT
ATOM      1  C   UNL     1      36.541 -77.847  37.255  1.00  0.00     0.180 A 
ATOM      2  C   UNL     1      35.139 -77.887  37.348  1.00  0.00     0.208 A 
ATOM      3  C   UNL     1      34.375 -77.763  36.176  1.00  0.00     0.238 A 
ATOM      4  O   UNL     1      33.120 -77.744  36.272  1.00  0.00    -0.285 OA
ATOM      5  C   UNL     1      35.022 -77.617  34.925  1.00  0.00     0.111 A 
ATOM      6  C   UNL     1      34.348 -77.523  33.671  1.00  0.00     0.134 A 
ATOM      7  C   UNL     1      35.083 -77.250  32.511  1.00  0.00     0.093 A 
ATOM      8  C   UNL     1      36.472 -77.133  32.550  1.00  0.00     0.123 A 
ATOM      9  C   UNL     1      37.147 -77.282  33.761  1.00  0.00     0.094 A 
ATOM     10  C   UNL     1      36.437 -77.518  34.942  1.00  0.00     0.146 A 
ATOM     11  O   UNL     1      37.116 -77.643  36.076  1.00  0.00    -0.452 OA
ENDROOT
BRANCH   1  12
ATOM     12  C   UNL     1      37.413 -77.995  38.442  1.00  0.00     0.025 A 
ATOM     13  C   UNL     1      37.947 -76.875  39.102  1.00  0.00     0.016 A 
ATOM     14  C   UNL     1      38.748 -77.037  40.235  1.00  0.00     0.051 A 
ATOM     15  C   UNL     1      39.016 -78.319  40.734  1.00  0.00     0.157 A 
ATOM     16  C   UNL     1      37.667 -79.276  38.958  1.00  0.00     0.062 A 
ATOM     17  C   UNL     1      38.471 -79.443  40.093  1.00  0.00     0.158 A 
BRANCH  15  18
ATOM     18  O   UNL     1      39.818 -78.478  41.863  1.00  0.00    -0.504 OA
ATOM     19  H   UNL     1      40.813 -78.287  41.838  1.00  0.00     0.293 HD
ENDBRANCH  15  18
BRANCH  17  20
ATOM     20  O   UNL     1      38.712 -80.732  40.568  1.00  0.00    -0.504 OA
ATOM     21  H   UNL     1      38.636 -80.966  41.551  1.00  0.00     0.293 HD
ENDBRANCH  17  20
ENDBRANCH   1  12
BRANCH   2  22
ATOM     22  O   UNL     1      34.520 -78.010  38.595  1.00  0.00    -0.502 OA
ATOM     23  H   UNL     1      33.518 -77.920  38.717  1.00  0.00     0.293 HD
ENDBRANCH   2  22
BRANCH   6  24
ATOM     24  O   UNL     1      32.973 -77.716  33.507  1.00  0.00    -0.507 OA
ATOM     25  H   UNL     1      32.433 -78.429  33.974  1.00  0.00     0.293 HD
ENDBRANCH   6  24
BRANCH   8  26
ATOM     26  O   UNL     1      37.173 -76.875  31.373  1.00  0.00    -0.508 OA
ATOM     27  H   UNL     1      38.062 -77.321  31.178  1.00  0.00     0.293 HD
ENDBRANCH   8  26
TORSDOF 6
ENDMDL
