MODEL 1
REMARK VINA RESULT:    -4.337      0.000      0.000
REMARK INTER + INTRA:          -7.918
REMARK INTER:                  -6.872
REMARK INTRA:                  -1.046
REMARK UNBOUND:                -1.046
REMARK SMILES CCCCCCCCCCCC(=O)[O-]
REMARK SMILES IDX 7 1 8 2 9 3 10 4 11 5 12 6 13 7 14 8 6 9 5 10 4 11 3 12 2 13
REMARK SMILES IDX 1 14
REMARK H PARENT
REMARK Flexibility Score: inf
ROOT
ATOM      1  C   UNL     1      19.156  31.779  44.226  1.00  0.00     0.000 C 
ENDROOT
BRANCH   1   2
ATOM      2  C   UNL     1      18.626  30.377  43.875  1.00  0.00     0.000 C 
BRANCH   2   3
ATOM      3  C   UNL     1      18.370  29.508  45.118  1.00  0.00     0.000 C 
BRANCH   3   4
ATOM      4  C   UNL     1      18.471  30.307  46.427  1.00  0.00     0.006 C 
BRANCH   4   5
ATOM      5  C   UNL     1      19.605  29.814  47.336  1.00  0.00     0.053 C 
BRANCH   5   6
ATOM      6  C   UNL     1      19.146  29.763  48.759  1.00  0.00     0.041 C 
ATOM      7  O   UNL     1      18.633  30.779  49.297  1.00  0.00    -0.550 OA
ATOM      8  O   UNL     1      19.331  28.607  49.508  1.00  0.00    -0.550 OA
ENDBRANCH   5   6
ENDBRANCH   4   5
ENDBRANCH   3   4
ENDBRANCH   2   3
ENDBRANCH   1   2
BRANCH   1   9
ATOM      9  C   UNL     1      20.666  31.993  43.987  1.00  0.00     0.000 C 
BRANCH   9  10
ATOM     10  C   UNL     1      21.200  33.391  44.354  1.00  0.00    -0.000 C 
BRANCH  10  11
ATOM     11  C   UNL     1      20.123  34.484  44.265  1.00  0.00    -0.000 C 
BRANCH  11  12
ATOM     12  C   UNL     1      19.776  35.095  45.635  1.00  0.00    -0.000 C 
BRANCH  12  13
ATOM     13  C   UNL     1      20.219  34.264  46.852  1.00  0.00    -0.003 C 
ATOM     14  C   UNL     1      19.046  33.767  47.697  1.00  0.00     0.004 C 
ENDBRANCH  12  13
ENDBRANCH  11  12
ENDBRANCH  10  11
ENDBRANCH   9  10
ENDBRANCH   1   9
TORSDOF 10
ENDMDL
MODEL 2
REMARK VINA RESULT:    -4.317      1.081      1.587
REMARK INTER + INTRA:          -7.887
REMARK INTER:                  -6.395
REMARK INTRA:                  -1.492
REMARK UNBOUND:                -1.046
REMARK SMILES CCCCCCCCCCCC(=O)[O-]
REMARK SMILES IDX 7 1 8 2 9 3 10 4 11 5 12 6 13 7 14 8 6 9 5 10 4 11 3 12 2 13
REMARK SMILES IDX 1 14
REMARK H PARENT
REMARK Flexibility Score: inf
ROOT
ATOM      1  C   UNL     1      19.717  31.518  44.095  1.00  0.00     0.000 C 
ENDROOT
BRANCH   1   2
ATOM      2  C   UNL     1      18.706  30.378  43.875  1.00  0.00     0.000 C 
BRANCH   2   3
ATOM      3  C   UNL     1      18.447  29.556  45.149  1.00  0.00     0.000 C 
BRANCH   3   4
ATOM      4  C   UNL     1      19.236  30.081  46.359  1.00  0.00     0.006 C 
BRANCH   4   5
ATOM      5  C   UNL     1      18.360  30.254  47.608  1.00  0.00     0.053 C 
BRANCH   5   6
ATOM      6  C   UNL     1      19.173  30.051  48.847  1.00  0.00     0.041 C 
ATOM      7  O   UNL     1      19.671  31.040  49.447  1.00  0.00    -0.550 OA
ATOM      8  O   UNL     1      19.423  28.767  49.312  1.00  0.00    -0.550 OA
ENDBRANCH   5   6
ENDBRANCH   4   5
ENDBRANCH   3   4
ENDBRANCH   2   3
ENDBRANCH   1   2
BRANCH   1   9
ATOM      9  C   UNL     1      19.152  32.944  43.927  1.00  0.00     0.000 C 
BRANCH   9  10
ATOM     10  C   UNL     1      18.120  33.374  44.987  1.00  0.00    -0.000 C 
BRANCH  10  11
ATOM     11  C   UNL     1      18.664  34.439  45.952  1.00  0.00    -0.000 C 
BRANCH  11  12
ATOM     12  C   UNL     1      19.295  33.834  47.220  1.00  0.00    -0.000 C 
BRANCH  12  13
ATOM     13  C   UNL     1      20.811  34.056  47.364  1.00  0.00    -0.003 C 
ATOM     14  C   UNL     1      21.630  32.795  47.093  1.00  0.00     0.004 C 
ENDBRANCH  12  13
ENDBRANCH  11  12
ENDBRANCH  10  11
ENDBRANCH   9  10
ENDBRANCH   1   9
TORSDOF 10
ENDMDL
MODEL 3
REMARK VINA RESULT:    -4.262      2.230      4.280
REMARK INTER + INTRA:          -7.799
REMARK INTER:                  -6.337
REMARK INTRA:                  -1.462
REMARK UNBOUND:                -1.046
REMARK SMILES CCCCCCCCCCCC(=O)[O-]
REMARK SMILES IDX 7 1 8 2 9 3 10 4 11 5 12 6 13 7 14 8 6 9 5 10 4 11 3 12 2 13
REMARK SMILES IDX 1 14
REMARK H PARENT
REMARK Flexibility Score: inf
ROOT
ATOM      1  C   UNL     1      21.614  33.836  44.252  1.00  0.00     0.000 C 
ENDROOT
BRANCH   1   2
ATOM      2  C   UNL     1      21.848  32.464  44.908  1.00  0.00     0.000 C 
BRANCH   2   3
ATOM      3  C   UNL     1      22.401  32.573  46.340  1.00  0.00     0.000 C 
BRANCH   3   4
ATOM      4  C   UNL     1      21.287  32.653  47.396  1.00  0.00     0.006 C 
BRANCH   4   5
ATOM      5  C   UNL     1      21.108  34.069  47.962  1.00  0.00     0.053 C 
BRANCH   5   6
ATOM      6  C   UNL     1      19.655  34.415  48.047  1.00  0.00     0.041 C 
ATOM      7  O   UNL     1      18.846  33.624  48.601  1.00  0.00    -0.550 OA
ATOM      8  O   UNL     1      19.185  35.588  47.473  1.00  0.00    -0.550 OA
ENDBRANCH   5   6
ENDBRANCH   4   5
ENDBRANCH   3   4
ENDBRANCH   2   3
ENDBRANCH   1   2
BRANCH   1   9
ATOM      9  C   UNL     1      20.160  34.351  44.300  1.00  0.00     0.000 C 
BRANCH   9  10
ATOM     10  C   UNL     1      19.081  33.318  43.925  1.00  0.00    -0.000 C 
BRANCH  10  11
ATOM     11  C   UNL     1      18.128  33.000  45.090  1.00  0.00    -0.000 C 
BRANCH  11  12
ATOM     12  C   UNL     1      18.261  31.552  45.594  1.00  0.00    -0.000 C 
BRANCH  12  13
ATOM     13  C   UNL     1      18.790  30.545  44.557  1.00  0.00    -0.003 C 
ATOM     14  C   UNL     1      18.234  29.135  44.754  1.00  0.00     0.004 C 
ENDBRANCH  12  13
ENDBRANCH  11  12
ENDBRANCH  10  11
ENDBRANCH   9  10
ENDBRANCH   1   9
TORSDOF 10
ENDMDL
MODEL 4
REMARK VINA RESULT:    -4.152     11.179     13.160
REMARK INTER + INTRA:          -7.626
REMARK INTER:                  -6.266
REMARK INTRA:                  -1.360
REMARK UNBOUND:                -1.046
REMARK SMILES CCCCCCCCCCCC(=O)[O-]
REMARK SMILES IDX 7 1 8 2 9 3 10 4 11 5 12 6 13 7 14 8 6 9 5 10 4 11 3 12 2 13
REMARK SMILES IDX 1 14
REMARK H PARENT
REMARK Flexibility Score: inf
ROOT
ATOM      1  C   UNL     1      30.020  39.578  44.493  1.00  0.00     0.000 C 
ENDROOT
BRANCH   1   2
ATOM      2  C   UNL     1      29.059  40.630  43.911  1.00  0.00     0.000 C 
BRANCH   2   3
ATOM      3  C   UNL     1      27.889  40.957  44.856  1.00  0.00     0.000 C 
BRANCH   3   4
ATOM      4  C   UNL     1      27.943  42.398  45.385  1.00  0.00     0.006 C 
BRANCH   4   5
ATOM      5  C   UNL     1      27.450  42.517  46.833  1.00  0.00     0.053 C 
BRANCH   5   6
ATOM      6  C   UNL     1      26.278  43.444  46.910  1.00  0.00     0.041 C 
ATOM      7  O   UNL     1      25.894  43.890  48.023  1.00  0.00    -0.550 OA
ATOM      8  O   UNL     1      25.580  43.779  45.757  1.00  0.00    -0.550 OA
ENDBRANCH   5   6
ENDBRANCH   4   5
ENDBRANCH   3   4
ENDBRANCH   2   3
ENDBRANCH   1   2
BRANCH   1   9
ATOM      9  C   UNL     1      30.535  39.870  45.918  1.00  0.00     0.000 C 
BRANCH   9  10
ATOM     10  C   UNL     1      29.991  38.942  47.020  1.00  0.00    -0.000 C 
BRANCH  10  11
ATOM     11  C   UNL     1      29.176  37.764  46.460  1.00  0.00    -0.000 C 
BRANCH  11  12
ATOM     12  C   UNL     1      27.760  37.678  47.058  1.00  0.00    -0.000 C 
BRANCH  12  13
ATOM     13  C   UNL     1      27.317  38.910  47.867  1.00  0.00    -0.003 C 
ATOM     14  C   UNL     1      25.876  39.329  47.578  1.00  0.00     0.004 C 
ENDBRANCH  12  13
ENDBRANCH  11  12
ENDBRANCH  10  11
ENDBRANCH   9  10
ENDBRANCH   1   9
TORSDOF 10
ENDMDL
MODEL 5
REMARK VINA RESULT:    -4.140      1.954      3.011
REMARK INTER + INTRA:          -7.607
REMARK INTER:                  -5.970
REMARK INTRA:                  -1.637
REMARK UNBOUND:                -1.046
REMARK SMILES CCCCCCCCCCCC(=O)[O-]
REMARK SMILES IDX 7 1 8 2 9 3 10 4 11 5 12 6 13 7 14 8 6 9 5 10 4 11 3 12 2 13
REMARK SMILES IDX 1 14
REMARK H PARENT
REMARK Flexibility Score: inf
ROOT
ATOM      1  C   UNL     1      20.530  34.293  44.260  1.00  0.00     0.000 C 
ENDROOT
BRANCH   1   2
ATOM      2  C   UNL     1      19.198  33.624  43.875  1.00  0.00     0.000 C 
BRANCH   2   3
ATOM      3  C   UNL     1      18.186  33.600  45.034  1.00  0.00     0.000 C 
BRANCH   3   4
ATOM      4  C   UNL     1      17.943  32.183  45.575  1.00  0.00     0.006 C 
BRANCH   4   5
ATOM      5  C   UNL     1      18.629  31.100  44.730  1.00  0.00     0.053 C 
BRANCH   5   6
ATOM      6  C   UNL     1      18.691  29.811  45.486  1.00  0.00     0.041 C 
ATOM      7  O   UNL     1      18.533  28.715  44.884  1.00  0.00    -0.550 OA
ATOM      8  O   UNL     1      18.873  29.819  46.862  1.00  0.00    -0.550 OA
ENDBRANCH   5   6
ENDBRANCH   4   5
ENDBRANCH   3   4
ENDBRANCH   2   3
ENDBRANCH   1   2
BRANCH   1   9
ATOM      9  C   UNL     1      21.748  33.348  44.327  1.00  0.00     0.000 C 
BRANCH   9  10
ATOM     10  C   UNL     1      21.873  32.522  45.621  1.00  0.00    -0.000 C 
BRANCH  10  11
ATOM     11  C   UNL     1      21.644  33.361  46.889  1.00  0.00    -0.000 C 
BRANCH  11  12
ATOM     12  C   UNL     1      20.689  32.685  47.890  1.00  0.00    -0.000 C 
BRANCH  12  13
ATOM     13  C   UNL     1      19.588  33.597  48.459  1.00  0.00    -0.003 C 
ATOM     14  C   UNL     1      19.739  35.056  48.031  1.00  0.00     0.004 C 
ENDBRANCH  12  13
ENDBRANCH  11  12
ENDBRANCH  10  11
ENDBRANCH   9  10
ENDBRANCH   1   9
TORSDOF 10
ENDMDL
MODEL 6
REMARK VINA RESULT:    -4.119      1.296      1.644
REMARK INTER + INTRA:          -7.573
REMARK INTER:                  -6.473
REMARK INTRA:                  -1.100
REMARK UNBOUND:                -1.046
REMARK SMILES CCCCCCCCCCCC(=O)[O-]
REMARK SMILES IDX 7 1 8 2 9 3 10 4 11 5 12 6 13 7 14 8 6 9 5 10 4 11 3 12 2 13
REMARK SMILES IDX 1 14
REMARK H PARENT
REMARK Flexibility Score: inf
ROOT
ATOM      1  C   UNL     1      18.870  30.695  44.070  1.00  0.00     0.000 C 
ENDROOT
BRANCH   1   2
ATOM      2  C   UNL     1      18.605  29.855  45.333  1.00  0.00     0.000 C 
BRANCH   2   3
ATOM      3  C   UNL     1      19.131  30.524  46.615  1.00  0.00     0.000 C 
BRANCH   3   4
ATOM      4  C   UNL     1      18.229  30.257  47.830  1.00  0.00     0.006 C 
BRANCH   4   5
ATOM      5  C   UNL     1      17.992  31.513  48.680  1.00  0.00     0.053 C 
BRANCH   5   6
ATOM      6  C   UNL     1      18.575  31.336  50.046  1.00  0.00     0.041 C 
ATOM      7  O   UNL     1      18.448  32.241  50.912  1.00  0.00    -0.550 OA
ATOM      8  O   UNL     1      19.302  30.191  50.349  1.00  0.00    -0.550 OA
ENDBRANCH   5   6
ENDBRANCH   4   5
ENDBRANCH   3   4
ENDBRANCH   2   3
ENDBRANCH   1   2
BRANCH   1   9
ATOM      9  C   UNL     1      19.988  31.751  44.201  1.00  0.00     0.000 C 
BRANCH   9  10
ATOM     10  C   UNL     1      19.556  33.205  43.938  1.00  0.00    -0.000 C 
BRANCH  10  11
ATOM     11  C   UNL     1      20.321  34.221  44.801  1.00  0.00    -0.000 C 
BRANCH  11  12
ATOM     12  C   UNL     1      19.432  34.896  45.861  1.00  0.00    -0.000 C 
BRANCH  12  13
ATOM     13  C   UNL     1      19.728  34.491  47.316  1.00  0.00    -0.003 C 
ATOM     14  C   UNL     1      21.015  33.679  47.460  1.00  0.00     0.004 C 
ENDBRANCH  12  13
ENDBRANCH  11  12
ENDBRANCH  10  11
ENDBRANCH   9  10
ENDBRANCH   1   9
TORSDOF 10
ENDMDL
MODEL 7
REMARK VINA RESULT:    -4.004      1.181      3.089
REMARK INTER + INTRA:          -7.391
REMARK INTER:                  -6.283
REMARK INTRA:                  -1.108
REMARK UNBOUND:                -1.046
REMARK SMILES CCCCCCCCCCCC(=O)[O-]
REMARK SMILES IDX 7 1 8 2 9 3 10 4 11 5 12 6 13 7 14 8 6 9 5 10 4 11 3 12 2 13
REMARK SMILES IDX 1 14
REMARK H PARENT
REMARK Flexibility Score: inf
ROOT
ATOM      1  C   UNL     1      19.009  33.972  47.395  1.00  0.00     0.000 C 
ENDROOT
BRANCH   1   2
ATOM      2  C   UNL     1      18.175  32.685  47.528  1.00  0.00     0.000 C 
BRANCH   2   3
ATOM      3  C   UNL     1      18.825  31.645  48.456  1.00  0.00     0.000 C 
BRANCH   3   4
ATOM      4  C   UNL     1      18.601  30.203  47.974  1.00  0.00     0.006 C 
BRANCH   4   5
ATOM      5  C   UNL     1      19.914  29.434  47.773  1.00  0.00     0.053 C 
BRANCH   5   6
ATOM      6  C   UNL     1      20.384  28.859  49.071  1.00  0.00     0.041 C 
ATOM      7  O   UNL     1      21.613  28.843  49.349  1.00  0.00    -0.550 OA
ATOM      8  O   UNL     1      19.472  28.294  49.953  1.00  0.00    -0.550 OA
ENDBRANCH   5   6
ENDBRANCH   4   5
ENDBRANCH   3   4
ENDBRANCH   2   3
ENDBRANCH   1   2
BRANCH   1   9
ATOM      9  C   UNL     1      18.894  34.697  46.037  1.00  0.00     0.000 C 
BRANCH   9  10
ATOM     10  C   UNL     1      20.201  34.797  45.230  1.00  0.00    -0.000 C 
BRANCH  10  11
ATOM     11  C   UNL     1      20.124  34.072  43.876  1.00  0.00    -0.000 C 
BRANCH  11  12
ATOM     12  C   UNL     1      19.115  32.909  43.876  1.00  0.00    -0.000 C 
BRANCH  12  13
ATOM     13  C   UNL     1      19.724  31.518  44.131  1.00  0.00    -0.003 C 
ATOM     14  C   UNL     1      18.672  30.413  44.222  1.00  0.00     0.004 C 
ENDBRANCH  12  13
ENDBRANCH  11  12
ENDBRANCH  10  11
ENDBRANCH   9  10
ENDBRANCH   1   9
TORSDOF 10
ENDMDL
MODEL 8
REMARK VINA RESULT:    -3.969      2.082      4.257
REMARK INTER + INTRA:          -7.336
REMARK INTER:                  -5.979
REMARK INTRA:                  -1.357
REMARK UNBOUND:                -1.046
REMARK SMILES CCCCCCCCCCCC(=O)[O-]
REMARK SMILES IDX 7 1 8 2 9 3 10 4 11 5 12 6 13 7 14 8 6 9 5 10 4 11 3 12 2 13
REMARK SMILES IDX 1 14
REMARK H PARENT
REMARK Flexibility Score: inf
ROOT
ATOM      1  C   UNL     1      21.425  33.495  44.403  1.00  0.00     0.000 C 
ENDROOT
BRANCH   1   2
ATOM      2  C   UNL     1      20.410  34.647  44.295  1.00  0.00     0.000 C 
BRANCH   2   3
ATOM      3  C   UNL     1      19.742  34.982  45.639  1.00  0.00     0.000 C 
BRANCH   3   4
ATOM      4  C   UNL     1      20.452  34.321  46.831  1.00  0.00     0.006 C 
BRANCH   4   5
ATOM      5  C   UNL     1      19.663  34.457  48.140  1.00  0.00     0.053 C 
BRANCH   5   6
ATOM      6  C   UNL     1      20.595  34.673  49.290  1.00  0.00     0.041 C 
ATOM      7  O   UNL     1      20.476  35.692  50.020  1.00  0.00    -0.550 OA
ATOM      8  O   UNL     1      21.627  33.774  49.527  1.00  0.00    -0.550 OA
ENDBRANCH   5   6
ENDBRANCH   4   5
ENDBRANCH   3   4
ENDBRANCH   2   3
ENDBRANCH   1   2
BRANCH   1   9
ATOM      9  C   UNL     1      20.934  32.130  43.876  1.00  0.00     0.000 C 
BRANCH   9  10
ATOM     10  C   UNL     1      19.408  31.922  43.906  1.00  0.00    -0.000 C 
BRANCH  10  11
ATOM     11  C   UNL     1      18.982  30.763  44.823  1.00  0.00    -0.000 C 
BRANCH  11  12
ATOM     12  C   UNL     1      18.107  31.224  46.003  1.00  0.00    -0.000 C 
BRANCH  12  13
ATOM     13  C   UNL     1      18.731  31.023  47.395  1.00  0.00    -0.003 C 
ATOM     14  C   UNL     1      20.223  30.698  47.341  1.00  0.00     0.004 C 
ENDBRANCH  12  13
ENDBRANCH  11  12
ENDBRANCH  10  11
ENDBRANCH   9  10
ENDBRANCH   1   9
TORSDOF 10
ENDMDL
MODEL 9
REMARK VINA RESULT:    -3.940      1.484      1.942
REMARK INTER + INTRA:          -7.290
REMARK INTER:                  -5.960
REMARK INTRA:                  -1.331
REMARK UNBOUND:                -1.046
REMARK SMILES CCCCCCCCCCCC(=O)[O-]
REMARK SMILES IDX 7 1 8 2 9 3 10 4 11 5 12 6 13 7 14 8 6 9 5 10 4 11 3 12 2 13
REMARK SMILES IDX 1 14
REMARK H PARENT
REMARK Flexibility Score: inf
ROOT
ATOM      1  C   UNL     1      18.624  31.518  44.594  1.00  0.00     0.000 C 
ENDROOT
BRANCH   1   2
ATOM      2  C   UNL     1      18.974  30.444  45.640  1.00  0.00     0.000 C 
BRANCH   2   3
ATOM      3  C   UNL     1      17.939  30.356  46.774  1.00  0.00     0.000 C 
BRANCH   3   4
ATOM      4  C   UNL     1      18.133  31.450  47.835  1.00  0.00     0.006 C 
BRANCH   4   5
ATOM      5  C   UNL     1      19.541  31.441  48.445  1.00  0.00     0.053 C 
BRANCH   5   6
ATOM      6  C   UNL     1      19.485  31.831  49.889  1.00  0.00     0.041 C 
ATOM      7  O   UNL     1      18.639  31.302  50.657  1.00  0.00    -0.550 OA
ATOM      8  O   UNL     1      20.335  32.816  50.376  1.00  0.00    -0.550 OA
ENDBRANCH   5   6
ENDBRANCH   4   5
ENDBRANCH   3   4
ENDBRANCH   2   3
ENDBRANCH   1   2
BRANCH   1   9
ATOM      9  C   UNL     1      19.831  32.158  43.875  1.00  0.00     0.000 C 
BRANCH   9  10
ATOM     10  C   UNL     1      21.108  32.294  44.725  1.00  0.00    -0.000 C 
BRANCH  10  11
ATOM     11  C   UNL     1      21.045  33.471  45.713  1.00  0.00    -0.000 C 
BRANCH  11  12
ATOM     12  C   UNL     1      20.165  34.629  45.209  1.00  0.00    -0.000 C 
BRANCH  12  13
ATOM     13  C   UNL     1      19.050  35.069  46.174  1.00  0.00    -0.003 C 
ATOM     14  C   UNL     1      19.478  35.026  47.641  1.00  0.00     0.004 C 
ENDBRANCH  12  13
ENDBRANCH  11  12
ENDBRANCH  10  11
ENDBRANCH   9  10
ENDBRANCH   1   9
TORSDOF 10
ENDMDL
