MODEL 1
REMARK VINA RESULT:    -8.861      0.000      0.000
REMARK INTER + INTRA:         -16.250
REMARK INTER:                 -13.782
REMARK INTRA:                  -2.468
REMARK UNBOUND:                -2.468
REMARK SMILES C[C@H]1O[C@H](OC[C@H]2O[C@H](Oc3c(-c4ccc(O)c(O)c4)oc4cc(O)cc(O)c4c3=O)[C@H](O)[C@@H](O)[C@@H]2O)[C@H](O)[C@@H](O)[C@H]1O
REMARK SMILES IDX 7 1 36 2 34 3 32 4 9 5 8 6 6 7 5 8 4 9 1 10 2 11 42 12 3 13
REMARK SMILES IDX 40 14 38 15 43 16 41 18 39 20 37 22 35 24 10 26 11 27 12 28
REMARK SMILES IDX 30 29 21 30 29 31 31 32 22 33 27 34 23 35 26 36 24 37 13 38
REMARK SMILES IDX 20 39 14 40 18 41 15 42 16 43 19 44 17 46 28 48 25 50 33 52
REMARK H PARENT 43 17 41 19 39 21 37 23 35 25 19 45 17 47 28 49 25 51 33 53
REMARK Flexibility Score: inf
ROOT
ATOM      1  C   UNL     1     -17.904  16.788 -16.950  1.00  0.00     0.180 C 
ATOM      2  C   UNL     1     -19.033  16.040 -16.207  1.00  0.00     0.177 C 
ATOM      3  C   UNL     1     -19.209  16.698 -14.737  1.00  0.00     0.180 C 
ATOM      4  C   UNL     1     -17.900  16.564 -14.020  1.00  0.00     0.214 C 
ATOM      5  C   UNL     1     -17.013  17.587 -14.565  1.00  0.00     0.339 C 
ATOM      6  O   UNL     1     -17.070  17.736 -16.025  1.00  0.00    -0.332 OA
ENDROOT
BRANCH   1   7
ATOM      7  C   UNL     1     -18.543  17.059 -18.502  1.00  0.00     0.198 C 
BRANCH   7   8
ATOM      8  O   UNL     1     -17.430  17.516 -19.331  1.00  0.00    -0.347 OA
BRANCH   8   9
ATOM      9  C   UNL     1     -16.480  16.550 -19.913  1.00  0.00     0.281 C 
ATOM     10  C   UNL     1     -14.888  14.939 -22.616  1.00  0.00     0.041 C 
ATOM     11  C   UNL     1     -14.765  16.346 -21.884  1.00  0.00     0.150 C 
ATOM     12  C   UNL     1     -13.693  16.407 -20.755  1.00  0.00     0.174 C 
ATOM     13  O   UNL     1     -16.094  16.863 -21.339  1.00  0.00    -0.344 OA
ATOM     14  C   UNL     1     -14.147  15.589 -19.504  1.00  0.00     0.179 C 
ATOM     15  C   UNL     1     -15.369  16.163 -18.844  1.00  0.00     0.202 C 
BRANCH  12  16
ATOM     16  O   UNL     1     -12.387  16.034 -21.288  1.00  0.00    -0.388 OA
ATOM     17  H   UNL     1     -12.304  15.106 -20.882  1.00  0.00     0.211 HD
ENDBRANCH  12  16
BRANCH  14  18
ATOM     18  O   UNL     1     -14.378  14.230 -19.732  1.00  0.00    -0.387 OA
ATOM     19  H   UNL     1     -13.631  13.779 -19.347  1.00  0.00     0.211 HD
ENDBRANCH  14  18
BRANCH  15  20
ATOM     20  O   UNL     1     -14.962  17.219 -18.035  1.00  0.00    -0.385 OA
ATOM     21  H   UNL     1     -15.734  17.471 -17.516  1.00  0.00     0.211 HD
ENDBRANCH  15  20
ENDBRANCH   8   9
ENDBRANCH   7   8
ENDBRANCH   1   7
BRANCH   2  22
ATOM     22  O   UNL     1     -18.685  14.645 -16.153  1.00  0.00    -0.387 OA
ATOM     23  H   UNL     1     -18.542  14.464 -17.158  1.00  0.00     0.211 HD
ENDBRANCH   2  22
BRANCH   3  24
ATOM     24  O   UNL     1     -19.670  18.050 -14.863  1.00  0.00    -0.387 OA
ATOM     25  H   UNL     1     -20.509  18.070 -15.404  1.00  0.00     0.211 HD
ENDBRANCH   3  24
BRANCH   5  26
ATOM     26  O   UNL     1     -15.645  17.431 -13.841  1.00  0.00    -0.454 OA
BRANCH  26  27
ATOM     27  C   UNL     1     -14.300  17.542 -14.429  1.00  0.00     0.214 A 
ATOM     28  C   UNL     1     -13.300  18.656 -14.288  1.00  0.00     0.180 A 
ATOM     29  C   UNL     1     -13.694  16.336 -14.923  1.00  0.00     0.239 A 
ATOM     30  O   UNL     1     -12.108  18.340 -13.680  1.00  0.00    -0.452 OA
ATOM     31  C   UNL     1     -12.383  16.082 -14.477  1.00  0.00     0.111 A 
ATOM     32  O   UNL     1     -14.317  15.622 -15.813  1.00  0.00    -0.285 OA
ATOM     33  C   UNL     1     -11.650  17.115 -13.688  1.00  0.00     0.146 A 
ATOM     34  C   UNL     1     -11.555  15.031 -14.933  1.00  0.00     0.134 A 
ATOM     35  C   UNL     1     -10.423  16.838 -13.101  1.00  0.00     0.094 A 
ATOM     36  C   UNL     1     -10.266  14.818 -14.351  1.00  0.00     0.093 A 
ATOM     37  C   UNL     1      -9.773  15.716 -13.401  1.00  0.00     0.123 A 
BRANCH  28  38
ATOM     38  C   UNL     1     -12.745  19.560 -15.337  1.00  0.00     0.025 A 
ATOM     39  C   UNL     1     -12.602  19.071 -16.648  1.00  0.00     0.062 A 
ATOM     40  C   UNL     1     -12.764  20.982 -15.136  1.00  0.00     0.016 A 
ATOM     41  C   UNL     1     -12.981  19.822 -17.727  1.00  0.00     0.158 A 
ATOM     42  C   UNL     1     -12.931  21.802 -16.273  1.00  0.00     0.051 A 
ATOM     43  C   UNL     1     -13.182  21.246 -17.518  1.00  0.00     0.157 A 
BRANCH  41  44
ATOM     44  O   UNL     1     -13.062  19.240 -18.983  1.00  0.00    -0.504 OA
ATOM     45  H   UNL     1     -13.991  18.927 -19.399  1.00  0.00     0.293 HD
ENDBRANCH  41  44
BRANCH  43  46
ATOM     46  O   UNL     1     -13.629  22.031 -18.648  1.00  0.00    -0.504 OA
ATOM     47  H   UNL     1     -13.972  21.631 -19.482  1.00  0.00     0.293 HD
ENDBRANCH  43  46
ENDBRANCH  28  38
BRANCH  34  48
ATOM     48  O   UNL     1     -12.066  14.267 -16.048  1.00  0.00    -0.507 OA
ATOM     49  H   UNL     1     -12.719  14.708 -16.697  1.00  0.00     0.293 HD
ENDBRANCH  34  48
BRANCH  37  50
ATOM     50  O   UNL     1      -8.625  15.543 -12.641  1.00  0.00    -0.508 OA
ATOM     51  H   UNL     1      -8.546  14.952 -11.775  1.00  0.00     0.293 HD
ENDBRANCH  37  50
ENDBRANCH  26  27
ENDBRANCH   5  26
BRANCH   4  52
ATOM     52  O   UNL     1     -17.429  15.288 -14.149  1.00  0.00    -0.384 OA
ATOM     53  H   UNL     1     -18.015  14.718 -13.489  1.00  0.00     0.211 HD
ENDBRANCH   4  52
TORSDOF 16
ENDMDL
MODEL 2
REMARK VINA RESULT:    -8.569      2.860      6.178
REMARK INTER + INTRA:         -15.797
REMARK INTER:                 -14.032
REMARK INTRA:                  -1.765
REMARK UNBOUND:                -2.468
REMARK SMILES C[C@H]1O[C@H](OC[C@H]2O[C@H](Oc3c(-c4ccc(O)c(O)c4)oc4cc(O)cc(O)c4c3=O)[C@H](O)[C@@H](O)[C@@H]2O)[C@H](O)[C@@H](O)[C@H]1O
REMARK SMILES IDX 7 1 36 2 34 3 32 4 9 5 8 6 6 7 5 8 4 9 1 10 2 11 42 12 3 13
REMARK SMILES IDX 40 14 38 15 43 16 41 18 39 20 37 22 35 24 10 26 11 27 12 28
REMARK SMILES IDX 30 29 21 30 29 31 31 32 22 33 27 34 23 35 26 36 24 37 13 38
REMARK SMILES IDX 20 39 14 40 18 41 15 42 16 43 19 44 17 46 28 48 25 50 33 52
REMARK H PARENT 43 17 41 19 39 21 37 23 35 25 19 45 17 47 28 49 25 51 33 53
REMARK Flexibility Score: inf
ROOT
ATOM      1  C   UNL     1     -17.242  19.102 -19.098  1.00  0.00     0.180 C 
ATOM      2  C   UNL     1     -17.699  18.804 -20.543  1.00  0.00     0.177 C 
ATOM      3  C   UNL     1     -19.119  18.027 -20.486  1.00  0.00     0.180 C 
ATOM      4  C   UNL     1     -18.913  16.762 -19.708  1.00  0.00     0.214 C 
ATOM      5  C   UNL     1     -18.863  17.138 -18.299  1.00  0.00     0.339 C 
ATOM      6  O   UNL     1     -18.078  18.346 -18.011  1.00  0.00    -0.332 OA
ENDROOT
BRANCH   1   7
ATOM      7  C   UNL     1     -16.730  20.722 -19.152  1.00  0.00     0.198 C 
BRANCH   7   8
ATOM      8  O   UNL     1     -16.613  21.163 -17.765  1.00  0.00    -0.347 OA
BRANCH   8   9
ATOM      9  C   UNL     1     -15.354  20.972 -17.020  1.00  0.00     0.281 C 
ATOM     10  C   UNL     1     -12.960  19.003 -15.338  1.00  0.00     0.041 C 
ATOM     11  C   UNL     1     -13.343  19.300 -16.853  1.00  0.00     0.150 C 
ATOM     12  C   UNL     1     -12.531  20.449 -17.523  1.00  0.00     0.174 C 
ATOM     13  O   UNL     1     -14.834  19.554 -17.062  1.00  0.00    -0.344 OA
ATOM     14  C   UNL     1     -12.952  21.841 -16.952  1.00  0.00     0.179 C 
ATOM     15  C   UNL     1     -14.376  22.197 -17.275  1.00  0.00     0.202 C 
BRANCH  12  16
ATOM     16  O   UNL     1     -11.103  20.162 -17.443  1.00  0.00    -0.388 OA
ATOM     17  H   UNL     1     -10.995  20.149 -16.433  1.00  0.00     0.211 HD
ENDBRANCH  12  16
BRANCH  14  18
ATOM     18  O   UNL     1     -12.768  22.001 -15.576  1.00  0.00    -0.387 OA
ATOM     19  H   UNL     1     -12.888  21.131 -15.203  1.00  0.00     0.211 HD
ENDBRANCH  14  18
BRANCH  15  20
ATOM     20  O   UNL     1     -14.408  22.694 -18.573  1.00  0.00    -0.385 OA
ATOM     21  H   UNL     1     -14.794  21.998 -19.117  1.00  0.00     0.211 HD
ENDBRANCH  15  20
ENDBRANCH   8   9
ENDBRANCH   7   8
ENDBRANCH   1   7
BRANCH   2  22
ATOM     22  O   UNL     1     -16.670  18.036 -21.190  1.00  0.00    -0.387 OA
ATOM     23  H   UNL     1     -16.100  18.803 -21.578  1.00  0.00     0.211 HD
ENDBRANCH   2  22
BRANCH   3  24
ATOM     24  O   UNL     1     -20.125  18.891 -19.941  1.00  0.00    -0.387 OA
ATOM     25  H   UNL     1     -20.781  18.352 -19.413  1.00  0.00     0.211 HD
ENDBRANCH   3  24
BRANCH   5  26
ATOM     26  O   UNL     1     -18.621  15.830 -17.491  1.00  0.00    -0.454 OA
BRANCH  26  27
ATOM     27  C   UNL     1     -17.492  15.523 -16.598  1.00  0.00     0.214 A 
ATOM     28  C   UNL     1     -17.523  15.013 -15.184  1.00  0.00     0.180 A 
ATOM     29  C   UNL     1     -16.200  15.350 -17.203  1.00  0.00     0.239 A 
ATOM     30  O   UNL     1     -16.963  13.777 -14.963  1.00  0.00    -0.452 OA
ATOM     31  C   UNL     1     -15.503  14.182 -16.837  1.00  0.00     0.111 A 
ATOM     32  O   UNL     1     -15.705  16.298 -17.943  1.00  0.00    -0.285 OA
ATOM     33  C   UNL     1     -16.036  13.304 -15.754  1.00  0.00     0.146 A 
ATOM     34  C   UNL     1     -14.174  13.876 -17.207  1.00  0.00     0.134 A 
ATOM     35  C   UNL     1     -15.462  12.071 -15.478  1.00  0.00     0.094 A 
ATOM     36  C   UNL     1     -13.591  12.621 -16.845  1.00  0.00     0.093 A 
ATOM     37  C   UNL     1     -14.297  11.733 -16.029  1.00  0.00     0.123 A 
BRANCH  28  38
ATOM     38  C   UNL     1     -17.034  15.669 -13.936  1.00  0.00     0.025 A 
ATOM     39  C   UNL     1     -17.487  16.965 -13.629  1.00  0.00     0.062 A 
ATOM     40  C   UNL     1     -16.481  14.869 -12.879  1.00  0.00     0.016 A 
ATOM     41  C   UNL     1     -17.887  17.291 -12.362  1.00  0.00     0.158 A 
ATOM     42  C   UNL     1     -16.686  15.306 -11.553  1.00  0.00     0.051 A 
ATOM     43  C   UNL     1     -17.490  16.403 -11.282  1.00  0.00     0.157 A 
BRANCH  41  44
ATOM     44  O   UNL     1     -18.552  18.484 -12.129  1.00  0.00    -0.504 OA
ATOM     45  H   UNL     1     -19.554  18.642 -12.458  1.00  0.00     0.293 HD
ENDBRANCH  41  44
BRANCH  43  46
ATOM     46  O   UNL     1     -17.952  16.722  -9.949  1.00  0.00    -0.504 OA
ATOM     47  H   UNL     1     -18.577  16.151  -9.443  1.00  0.00     0.293 HD
ENDBRANCH  43  46
ENDBRANCH  28  38
BRANCH  34  48
ATOM     48  O   UNL     1     -13.452  14.927 -17.887  1.00  0.00    -0.507 OA
ATOM     49  H   UNL     1     -13.862  15.358 -18.716  1.00  0.00     0.293 HD
ENDBRANCH  34  48
BRANCH  37  50
ATOM     50  O   UNL     1     -13.927  10.428 -15.741  1.00  0.00    -0.508 OA
ATOM     51  H   UNL     1     -14.479   9.566 -15.981  1.00  0.00     0.293 HD
ENDBRANCH  37  50
ENDBRANCH  26  27
ENDBRANCH   5  26
BRANCH   4  52
ATOM     52  O   UNL     1     -17.794  16.119 -20.156  1.00  0.00    -0.384 OA
ATOM     53  H   UNL     1     -17.673  16.451 -21.146  1.00  0.00     0.211 HD
ENDBRANCH   4  52
TORSDOF 16
ENDMDL
MODEL 3
REMARK VINA RESULT:    -8.520      6.099     12.802
REMARK INTER + INTRA:         -15.720
REMARK INTER:                 -13.180
REMARK INTRA:                  -2.539
REMARK UNBOUND:                -2.468
REMARK SMILES C[C@H]1O[C@H](OC[C@H]2O[C@H](Oc3c(-c4ccc(O)c(O)c4)oc4cc(O)cc(O)c4c3=O)[C@H](O)[C@@H](O)[C@@H]2O)[C@H](O)[C@@H](O)[C@H]1O
REMARK SMILES IDX 7 1 36 2 34 3 32 4 9 5 8 6 6 7 5 8 4 9 1 10 2 11 42 12 3 13
REMARK SMILES IDX 40 14 38 15 43 16 41 18 39 20 37 22 35 24 10 26 11 27 12 28
REMARK SMILES IDX 30 29 21 30 29 31 31 32 22 33 27 34 23 35 26 36 24 37 13 38
REMARK SMILES IDX 20 39 14 40 18 41 15 42 16 43 19 44 17 46 28 48 25 50 33 52
REMARK H PARENT 43 17 41 19 39 21 37 23 35 25 19 45 17 47 28 49 25 51 33 53
REMARK Flexibility Score: inf
ROOT
ATOM      1  C   UNL     1      -2.777  12.564 -11.764  1.00  0.00     0.180 C 
ATOM      2  C   UNL     1      -1.675  12.822 -12.815  1.00  0.00     0.177 C 
ATOM      3  C   UNL     1      -1.349  14.408 -12.843  1.00  0.00     0.180 C 
ATOM      4  C   UNL     1      -2.617  15.126 -13.193  1.00  0.00     0.214 C 
ATOM      5  C   UNL     1      -3.441  15.138 -11.989  1.00  0.00     0.339 C 
ATOM      6  O   UNL     1      -3.464  13.871 -11.246  1.00  0.00    -0.332 OA
ENDROOT
BRANCH   1   7
ATOM      7  C   UNL     1      -2.216  11.209 -10.904  1.00  0.00     0.198 C 
BRANCH   7   8
ATOM      8  O   UNL     1      -3.327  10.766 -10.064  1.00  0.00    -0.347 OA
BRANCH   8   9
ATOM      9  C   UNL     1      -4.397   9.917 -10.619  1.00  0.00     0.281 C 
ATOM     10  C   UNL     1      -6.294   6.949 -10.783  1.00  0.00     0.041 C 
ATOM     11  C   UNL     1      -6.240   8.226  -9.837  1.00  0.00     0.150 C 
ATOM     12  C   UNL     1      -7.231   9.367 -10.216  1.00  0.00     0.174 C 
ATOM     13  O   UNL     1      -4.838   8.811  -9.689  1.00  0.00    -0.344 OA
ATOM     14  C   UNL     1      -6.780  10.090 -11.526  1.00  0.00     0.179 C 
ATOM     15  C   UNL     1      -5.472  10.814 -11.372  1.00  0.00     0.202 C 
BRANCH  12  16
ATOM     16  O   UNL     1      -8.596   8.854 -10.242  1.00  0.00    -0.388 OA
ATOM     17  H   UNL     1      -8.979   9.368  -9.454  1.00  0.00     0.211 HD
ENDBRANCH  12  16
BRANCH  14  18
ATOM     18  O   UNL     1      -6.692   9.275 -12.657  1.00  0.00    -0.387 OA
ATOM     19  H   UNL     1      -7.323   8.574 -12.513  1.00  0.00     0.211 HD
ENDBRANCH  14  18
BRANCH  15  20
ATOM     20  O   UNL     1      -5.728  12.035 -10.757  1.00  0.00    -0.385 OA
ATOM     21  H   UNL     1      -6.516  12.389 -11.185  1.00  0.00     0.211 HD
ENDBRANCH  15  20
ENDBRANCH   8   9
ENDBRANCH   7   8
ENDBRANCH   1   7
BRANCH   2  22
ATOM     22  O   UNL     1      -2.141  12.328 -14.083  1.00  0.00    -0.387 OA
ATOM     23  H   UNL     1      -2.292  11.338 -13.838  1.00  0.00     0.211 HD
ENDBRANCH   2  22
BRANCH   3  24
ATOM     24  O   UNL     1      -0.778  14.809 -11.590  1.00  0.00    -0.387 OA
ATOM     25  H   UNL     1       0.167  14.491 -11.534  1.00  0.00     0.211 HD
ENDBRANCH   3  24
BRANCH   5  26
ATOM     26  O   UNL     1      -4.770  15.859 -12.360  1.00  0.00    -0.454 OA
BRANCH  26  27
ATOM     27  C   UNL     1      -6.127  15.534 -11.893  1.00  0.00     0.214 A 
ATOM     28  C   UNL     1      -6.956  16.230 -10.849  1.00  0.00     0.180 A 
ATOM     29  C   UNL     1      -6.925  14.678 -12.728  1.00  0.00     0.239 A 
ATOM     30  O   UNL     1      -8.130  16.803 -11.276  1.00  0.00    -0.452 OA
ATOM     31  C   UNL     1      -8.222  15.143 -13.021  1.00  0.00     0.111 A 
ATOM     32  O   UNL     1      -6.471  13.507 -13.067  1.00  0.00    -0.285 OA
ATOM     33  C   UNL     1      -8.748  16.362 -12.341  1.00  0.00     0.146 A 
ATOM     34  C   UNL     1      -9.215  14.410 -13.710  1.00  0.00     0.134 A 
ATOM     35  C   UNL     1      -9.954  16.936 -12.721  1.00  0.00     0.094 A 
ATOM     36  C   UNL     1     -10.473  15.012 -14.024  1.00  0.00     0.093 A 
ATOM     37  C   UNL     1     -10.770  16.295 -13.555  1.00  0.00     0.123 A 
BRANCH  28  38
ATOM     38  C   UNL     1      -7.461  15.707  -9.546  1.00  0.00     0.025 A 
ATOM     39  C   UNL     1      -7.834  14.353  -9.457  1.00  0.00     0.062 A 
ATOM     40  C   UNL     1      -7.174  16.419  -8.332  1.00  0.00     0.016 A 
ATOM     41  C   UNL     1      -7.454  13.586  -8.391  1.00  0.00     0.158 A 
ATOM     42  C   UNL     1      -6.998  15.660  -7.155  1.00  0.00     0.051 A 
ATOM     43  C   UNL     1      -6.989  14.274  -7.198  1.00  0.00     0.157 A 
BRANCH  41  44
ATOM     44  O   UNL     1      -7.618  12.210  -8.433  1.00  0.00    -0.504 OA
ATOM     45  H   UNL     1      -6.833  11.542  -8.162  1.00  0.00     0.293 HD
ENDBRANCH  41  44
BRANCH  43  46
ATOM     46  O   UNL     1      -6.543  13.461  -6.087  1.00  0.00    -0.504 OA
ATOM     47  H   UNL     1      -5.626  13.494  -5.728  1.00  0.00     0.293 HD
ENDBRANCH  43  46
ENDBRANCH  28  38
BRANCH  34  48
ATOM     48  O   UNL     1      -8.896  13.029 -13.991  1.00  0.00    -0.507 OA
ATOM     49  H   UNL     1      -9.361  12.558 -14.768  1.00  0.00     0.293 HD
ENDBRANCH  34  48
BRANCH  37  50
ATOM     50  O   UNL     1     -11.870  17.056 -13.919  1.00  0.00    -0.508 OA
ATOM     51  H   UNL     1     -12.394  17.717 -13.291  1.00  0.00     0.293 HD
ENDBRANCH  37  50
ENDBRANCH  26  27
ENDBRANCH   5  26
BRANCH   4  52
ATOM     52  O   UNL     1      -3.207  14.527 -14.271  1.00  0.00    -0.384 OA
ATOM     53  H   UNL     1      -4.154  14.229 -13.927  1.00  0.00     0.211 HD
ENDBRANCH   4  52
TORSDOF 16
ENDMDL
MODEL 4
REMARK VINA RESULT:    -8.456      8.697     14.482
REMARK INTER + INTRA:         -15.621
REMARK INTER:                 -12.926
REMARK INTRA:                  -2.695
REMARK UNBOUND:                -2.468
REMARK SMILES C[C@H]1O[C@H](OC[C@H]2O[C@H](Oc3c(-c4ccc(O)c(O)c4)oc4cc(O)cc(O)c4c3=O)[C@H](O)[C@@H](O)[C@@H]2O)[C@H](O)[C@@H](O)[C@H]1O
REMARK SMILES IDX 7 1 36 2 34 3 32 4 9 5 8 6 6 7 5 8 4 9 1 10 2 11 42 12 3 13
REMARK SMILES IDX 40 14 38 15 43 16 41 18 39 20 37 22 35 24 10 26 11 27 12 28
REMARK SMILES IDX 30 29 21 30 29 31 31 32 22 33 27 34 23 35 26 36 24 37 13 38
REMARK SMILES IDX 20 39 14 40 18 41 15 42 16 43 19 44 17 46 28 48 25 50 33 52
REMARK H PARENT 43 17 41 19 39 21 37 23 35 25 19 45 17 47 28 49 25 51 33 53
REMARK Flexibility Score: inf
ROOT
ATOM      1  C   UNL     1      -1.898  13.449 -10.312  1.00  0.00     0.180 C 
ATOM      2  C   UNL     1      -0.410  13.116 -10.558  1.00  0.00     0.177 C 
ATOM      3  C   UNL     1       0.072  13.873 -11.906  1.00  0.00     0.180 C 
ATOM      4  C   UNL     1      -0.789  13.388 -13.033  1.00  0.00     0.214 C 
ATOM      5  C   UNL     1      -2.075  14.066 -12.902  1.00  0.00     0.339 C 
ATOM      6  O   UNL     1      -2.591  14.148 -11.529  1.00  0.00    -0.332 OA
ENDROOT
BRANCH   1   7
ATOM      7  C   UNL     1      -1.970  13.818  -8.654  1.00  0.00     0.198 C 
BRANCH   7   8
ATOM      8  O   UNL     1      -3.207  13.226  -8.154  1.00  0.00    -0.347 OA
BRANCH   8   9
ATOM      9  C   UNL     1      -4.502  13.902  -8.359  1.00  0.00     0.281 C 
ATOM     10  C   UNL     1      -7.385  14.679 -10.236  1.00  0.00     0.041 C 
ATOM     11  C   UNL     1      -6.878  13.447  -9.367  1.00  0.00     0.150 C 
ATOM     12  C   UNL     1      -7.342  13.457  -7.879  1.00  0.00     0.174 C 
ATOM     13  O   UNL     1      -5.364  13.253  -9.416  1.00  0.00    -0.344 OA
ATOM     14  C   UNL     1      -6.604  14.569  -7.068  1.00  0.00     0.179 C 
ATOM     15  C   UNL     1      -5.124  14.328  -6.961  1.00  0.00     0.202 C 
BRANCH  12  16
ATOM     16  O   UNL     1      -8.798  13.517  -7.813  1.00  0.00    -0.388 OA
ATOM     17  H   UNL     1      -9.016  12.575  -8.125  1.00  0.00     0.211 HD
ENDBRANCH  12  16
BRANCH  14  18
ATOM     18  O   UNL     1      -6.796  15.873  -7.533  1.00  0.00    -0.387 OA
ATOM     19  H   UNL     1      -6.108  16.391  -7.123  1.00  0.00     0.211 HD
ENDBRANCH  14  18
BRANCH  15  20
ATOM     20  O   UNL     1      -4.914  13.409  -5.938  1.00  0.00    -0.385 OA
ATOM     21  H   UNL     1      -4.161  13.737  -5.434  1.00  0.00     0.211 HD
ENDBRANCH  15  20
ENDBRANCH   8   9
ENDBRANCH   7   8
ENDBRANCH   1   7
BRANCH   2  22
ATOM     22  O   UNL     1      -0.279  11.687 -10.646  1.00  0.00    -0.387 OA
ATOM     23  H   UNL     1       0.749  11.605 -10.617  1.00  0.00     0.211 HD
ENDBRANCH   2  22
BRANCH   3  24
ATOM     24  O   UNL     1       0.029  15.293 -11.708  1.00  0.00    -0.387 OA
ATOM     25  H   UNL     1      -0.849  15.550 -11.308  1.00  0.00     0.211 HD
ENDBRANCH   3  24
BRANCH   5  26
ATOM     26  O   UNL     1      -2.979  13.541 -14.055  1.00  0.00    -0.454 OA
BRANCH  26  27
ATOM     27  C   UNL     1      -3.938  12.426 -14.006  1.00  0.00     0.214 A 
ATOM     28  C   UNL     1      -4.802  11.976 -12.861  1.00  0.00     0.180 A 
ATOM     29  C   UNL     1      -4.387  11.886 -15.261  1.00  0.00     0.239 A 
ATOM     30  O   UNL     1      -6.162  12.053 -13.049  1.00  0.00    -0.452 OA
ATOM     31  C   UNL     1      -5.781  11.759 -15.410  1.00  0.00     0.111 A 
ATOM     32  O   UNL     1      -3.514  11.452 -16.122  1.00  0.00    -0.285 OA
ATOM     33  C   UNL     1      -6.682  12.013 -14.248  1.00  0.00     0.146 A 
ATOM     34  C   UNL     1      -6.432  11.138 -16.500  1.00  0.00     0.134 A 
ATOM     35  C   UNL     1      -8.061  12.051 -14.399  1.00  0.00     0.094 A 
ATOM     36  C   UNL     1      -7.859  11.136 -16.588  1.00  0.00     0.093 A 
ATOM     37  C   UNL     1      -8.623  11.655 -15.540  1.00  0.00     0.123 A 
BRANCH  28  38
ATOM     38  C   UNL     1      -4.785  10.680 -12.121  1.00  0.00     0.025 A 
ATOM     39  C   UNL     1      -3.545  10.118 -11.767  1.00  0.00     0.062 A 
ATOM     40  C   UNL     1      -5.960  10.245 -11.420  1.00  0.00     0.016 A 
ATOM     41  C   UNL     1      -3.337   9.599 -10.518  1.00  0.00     0.158 A 
ATOM     42  C   UNL     1      -5.776   9.504 -10.233  1.00  0.00     0.051 A 
ATOM     43  C   UNL     1      -4.507   9.307  -9.707  1.00  0.00     0.157 A 
BRANCH  41  44
ATOM     44  O   UNL     1      -2.054   9.274 -10.108  1.00  0.00    -0.504 OA
ATOM     45  H   UNL     1      -1.419   8.646 -10.690  1.00  0.00     0.293 HD
ENDBRANCH  41  44
BRANCH  43  46
ATOM     46  O   UNL     1      -4.285   8.803  -8.370  1.00  0.00    -0.504 OA
ATOM     47  H   UNL     1      -4.826   8.082  -7.968  1.00  0.00     0.293 HD
ENDBRANCH  43  46
ENDBRANCH  28  38
BRANCH  34  48
ATOM     48  O   UNL     1      -5.571  10.460 -17.443  1.00  0.00    -0.507 OA
ATOM     49  H   UNL     1      -5.883   9.584 -17.862  1.00  0.00     0.293 HD
ENDBRANCH  34  48
BRANCH  37  50
ATOM     50  O   UNL     1      -9.993  11.867 -15.564  1.00  0.00    -0.508 OA
ATOM     51  H   UNL     1     -10.702  11.371 -14.966  1.00  0.00     0.293 HD
ENDBRANCH  37  50
ENDBRANCH  26  27
ENDBRANCH   5  26
BRANCH   4  52
ATOM     52  O   UNL     1      -0.868  12.024 -13.001  1.00  0.00    -0.384 OA
ATOM     53  H   UNL     1      -1.787  11.799 -13.457  1.00  0.00     0.211 HD
ENDBRANCH   4  52
TORSDOF 16
ENDMDL
MODEL 5
REMARK VINA RESULT:    -8.429      8.049     13.108
REMARK INTER + INTRA:         -15.578
REMARK INTER:                 -12.869
REMARK INTRA:                  -2.709
REMARK UNBOUND:                -2.468
REMARK SMILES C[C@H]1O[C@H](OC[C@H]2O[C@H](Oc3c(-c4ccc(O)c(O)c4)oc4cc(O)cc(O)c4c3=O)[C@H](O)[C@@H](O)[C@@H]2O)[C@H](O)[C@@H](O)[C@H]1O
REMARK SMILES IDX 7 1 36 2 34 3 32 4 9 5 8 6 6 7 5 8 4 9 1 10 2 11 42 12 3 13
REMARK SMILES IDX 40 14 38 15 43 16 41 18 39 20 37 22 35 24 10 26 11 27 12 28
REMARK SMILES IDX 30 29 21 30 29 31 31 32 22 33 27 34 23 35 26 36 24 37 13 38
REMARK SMILES IDX 20 39 14 40 18 41 15 42 16 43 19 44 17 46 28 48 25 50 33 52
REMARK H PARENT 43 17 41 19 39 21 37 23 35 25 19 45 17 47 28 49 25 51 33 53
REMARK Flexibility Score: inf
ROOT
ATOM      1  C   UNL     1      -2.757  10.269 -11.276  1.00  0.00     0.180 C 
ATOM      2  C   UNL     1      -2.078   9.849  -9.954  1.00  0.00     0.177 C 
ATOM      3  C   UNL     1      -3.213   9.275  -8.951  1.00  0.00     0.180 C 
ATOM      4  C   UNL     1      -4.216  10.366  -8.727  1.00  0.00     0.214 C 
ATOM      5  C   UNL     1      -5.051  10.422  -9.922  1.00  0.00     0.339 C 
ATOM      6  O   UNL     1      -4.319  10.309 -11.191  1.00  0.00    -0.332 OA
ENDROOT
BRANCH   1   7
ATOM      7  C   UNL     1      -1.744   9.628 -12.481  1.00  0.00     0.198 C 
BRANCH   7   8
ATOM      8  O   UNL     1      -1.763  10.583 -13.586  1.00  0.00    -0.347 OA
BRANCH   8   9
ATOM      9  C   UNL     1      -2.908  10.636 -14.514  1.00  0.00     0.281 C 
ATOM     10  C   UNL     1      -6.168  11.615 -15.439  1.00  0.00     0.041 C 
ATOM     11  C   UNL     1      -4.738  12.307 -15.367  1.00  0.00     0.150 C 
ATOM     12  C   UNL     1      -3.926  12.279 -16.696  1.00  0.00     0.174 C 
ATOM     13  O   UNL     1      -3.863  11.773 -14.235  1.00  0.00    -0.344 OA
ATOM     14  C   UNL     1      -3.415  10.836 -17.011  1.00  0.00     0.179 C 
ATOM     15  C   UNL     1      -2.425  10.334 -15.997  1.00  0.00     0.202 C 
BRANCH  12  16
ATOM     16  O   UNL     1      -4.700  12.899 -17.766  1.00  0.00    -0.388 OA
ATOM     17  H   UNL     1      -5.402  12.177 -17.900  1.00  0.00     0.211 HD
ENDBRANCH  12  16
BRANCH  14  18
ATOM     18  O   UNL     1      -4.412   9.869 -17.157  1.00  0.00    -0.387 OA
ATOM     19  H   UNL     1      -4.223   9.210 -16.494  1.00  0.00     0.211 HD
ENDBRANCH  14  18
BRANCH  15  20
ATOM     20  O   UNL     1      -1.181  10.870 -16.313  1.00  0.00    -0.385 OA
ATOM     21  H   UNL     1      -0.561  10.503 -15.672  1.00  0.00     0.211 HD
ENDBRANCH  15  20
ENDBRANCH   8   9
ENDBRANCH   7   8
ENDBRANCH   1   7
BRANCH   2  22
ATOM     22  O   UNL     1      -1.391  10.994  -9.418  1.00  0.00    -0.387 OA
ATOM     23  H   UNL     1      -0.467  10.572  -9.238  1.00  0.00     0.211 HD
ENDBRANCH   2  22
BRANCH   3  24
ATOM     24  O   UNL     1      -3.773   8.069  -9.490  1.00  0.00    -0.387 OA
ATOM     25  H   UNL     1      -3.609   7.312  -8.859  1.00  0.00     0.211 HD
ENDBRANCH   3  24
BRANCH   5  26
ATOM     26  O   UNL     1      -6.074  11.574  -9.703  1.00  0.00    -0.454 OA
BRANCH  26  27
ATOM     27  C   UNL     1      -5.935  12.986 -10.095  1.00  0.00     0.214 A 
ATOM     28  C   UNL     1      -5.421  13.557 -11.387  1.00  0.00     0.180 A 
ATOM     29  C   UNL     1      -6.668  13.958  -9.331  1.00  0.00     0.239 A 
ATOM     30  O   UNL     1      -6.312  14.296 -12.130  1.00  0.00    -0.452 OA
ATOM     31  C   UNL     1      -7.438  14.870 -10.078  1.00  0.00     0.111 A 
ATOM     32  O   UNL     1      -6.502  14.020  -8.042  1.00  0.00    -0.285 OA
ATOM     33  C   UNL     1      -7.328  14.897 -11.566  1.00  0.00     0.146 A 
ATOM     34  C   UNL     1      -8.130  15.982  -9.545  1.00  0.00     0.134 A 
ATOM     35  C   UNL     1      -8.184  15.669 -12.339  1.00  0.00     0.094 A 
ATOM     36  C   UNL     1      -8.949  16.797 -10.387  1.00  0.00     0.093 A 
ATOM     37  C   UNL     1      -8.985  16.564 -11.764  1.00  0.00     0.123 A 
BRANCH  28  38
ATOM     38  C   UNL     1      -4.220  14.409 -11.628  1.00  0.00     0.025 A 
ATOM     39  C   UNL     1      -3.100  14.254 -10.791  1.00  0.00     0.062 A 
ATOM     40  C   UNL     1      -4.038  15.040 -12.906  1.00  0.00     0.016 A 
ATOM     41  C   UNL     1      -1.835  14.201 -11.309  1.00  0.00     0.158 A 
ATOM     42  C   UNL     1      -2.716  15.205 -13.371  1.00  0.00     0.051 A 
ATOM     43  C   UNL     1      -1.644  14.672 -12.671  1.00  0.00     0.157 A 
BRANCH  41  44
ATOM     44  O   UNL     1      -0.774  13.809 -10.508  1.00  0.00    -0.504 OA
ATOM     45  H   UNL     1       0.235  13.859 -10.847  1.00  0.00     0.293 HD
ENDBRANCH  41  44
BRANCH  43  46
ATOM     46  O   UNL     1      -0.315  14.572 -13.234  1.00  0.00    -0.504 OA
ATOM     47  H   UNL     1       0.371  13.953 -12.891  1.00  0.00     0.293 HD
ENDBRANCH  43  46
ENDBRANCH  28  38
BRANCH  34  48
ATOM     48  O   UNL     1      -7.887  16.263  -8.149  1.00  0.00    -0.507 OA
ATOM     49  H   UNL     1      -7.536  15.519  -7.544  1.00  0.00     0.293 HD
ENDBRANCH  34  48
BRANCH  37  50
ATOM     50  O   UNL     1      -9.853  17.162 -12.665  1.00  0.00    -0.508 OA
ATOM     51  H   UNL     1      -9.585  17.576 -13.593  1.00  0.00     0.293 HD
ENDBRANCH  37  50
ENDBRANCH  26  27
ENDBRANCH   5  26
BRANCH   4  52
ATOM     52  O   UNL     1      -3.571  11.535  -8.437  1.00  0.00    -0.384 OA
ATOM     53  H   UNL     1      -3.796  11.722  -7.428  1.00  0.00     0.211 HD
ENDBRANCH   4  52
TORSDOF 16
ENDMDL
MODEL 6
REMARK VINA RESULT:    -8.424      9.395     14.094
REMARK INTER + INTRA:         -15.571
REMARK INTER:                 -12.888
REMARK INTRA:                  -2.683
REMARK UNBOUND:                -2.468
REMARK SMILES C[C@H]1O[C@H](OC[C@H]2O[C@H](Oc3c(-c4ccc(O)c(O)c4)oc4cc(O)cc(O)c4c3=O)[C@H](O)[C@@H](O)[C@@H]2O)[C@H](O)[C@@H](O)[C@H]1O
REMARK SMILES IDX 7 1 36 2 34 3 32 4 9 5 8 6 6 7 5 8 4 9 1 10 2 11 42 12 3 13
REMARK SMILES IDX 40 14 38 15 43 16 41 18 39 20 37 22 35 24 10 26 11 27 12 28
REMARK SMILES IDX 30 29 21 30 29 31 31 32 22 33 27 34 23 35 26 36 24 37 13 38
REMARK SMILES IDX 20 39 14 40 18 41 15 42 16 43 19 44 17 46 28 48 25 50 33 52
REMARK H PARENT 43 17 41 19 39 21 37 23 35 25 19 45 17 47 28 49 25 51 33 53
REMARK Flexibility Score: inf
ROOT
ATOM      1  C   UNL     1      -1.481  10.857 -11.204  1.00  0.00     0.180 C 
ATOM      2  C   UNL     1      -0.581  10.713  -9.957  1.00  0.00     0.177 C 
ATOM      3  C   UNL     1      -0.949   9.323  -9.212  1.00  0.00     0.180 C 
ATOM      4  C   UNL     1      -2.398   9.380  -8.835  1.00  0.00     0.214 C 
ATOM      5  C   UNL     1      -3.161   9.132 -10.054  1.00  0.00     0.339 C 
ATOM      6  O   UNL     1      -2.656   9.825 -11.247  1.00  0.00    -0.332 OA
ENDROOT
BRANCH   1   7
ATOM      7  C   UNL     1      -0.411  11.348 -12.430  1.00  0.00     0.198 C 
BRANCH   7   8
ATOM      8  O   UNL     1      -0.237  12.790 -12.272  1.00  0.00    -0.347 OA
BRANCH   8   9
ATOM      9  C   UNL     1      -1.206  13.733 -12.863  1.00  0.00     0.281 C 
ATOM     10  C   UNL     1      -3.655  14.663 -15.224  1.00  0.00     0.041 C 
ATOM     11  C   UNL     1      -3.607  13.764 -13.913  1.00  0.00     0.150 C 
ATOM     12  C   UNL     1      -4.006  14.498 -12.598  1.00  0.00     0.174 C 
ATOM     13  O   UNL     1      -2.266  13.064 -13.707  1.00  0.00    -0.344 OA
ATOM     14  C   UNL     1      -2.900  15.514 -12.164  1.00  0.00     0.179 C 
ATOM     15  C   UNL     1      -1.604  14.845 -11.800  1.00  0.00     0.202 C 
BRANCH  12  16
ATOM     16  O   UNL     1      -5.341  15.071 -12.732  1.00  0.00    -0.388 OA
ATOM     17  H   UNL     1      -5.229  15.539 -13.627  1.00  0.00     0.211 HD
ENDBRANCH  12  16
BRANCH  14  18
ATOM     18  O   UNL     1      -2.620  16.522 -13.090  1.00  0.00    -0.387 OA
ATOM     19  H   UNL     1      -3.024  16.235 -13.905  1.00  0.00     0.211 HD
ENDBRANCH  14  18
BRANCH  15  20
ATOM     20  O   UNL     1      -1.717  14.374 -10.496  1.00  0.00    -0.385 OA
ATOM     21  H   UNL     1      -2.573  13.933 -10.444  1.00  0.00     0.211 HD
ENDBRANCH  15  20
ENDBRANCH   8   9
ENDBRANCH   7   8
ENDBRANCH   1   7
BRANCH   2  22
ATOM     22  O   UNL     1      -0.786  11.864  -9.119  1.00  0.00    -0.387 OA
ATOM     23  H   UNL     1      -1.795  11.761  -8.929  1.00  0.00     0.211 HD
ENDBRANCH   2  22
BRANCH   3  24
ATOM     24  O   UNL     1      -0.609   8.214 -10.056  1.00  0.00    -0.387 OA
ATOM     25  H   UNL     1      -0.584   8.513 -11.009  1.00  0.00     0.211 HD
ENDBRANCH   3  24
BRANCH   5  26
ATOM     26  O   UNL     1      -4.666   9.220  -9.669  1.00  0.00    -0.454 OA
BRANCH  26  27
ATOM     27  C   UNL     1      -5.616  10.296  -9.997  1.00  0.00     0.214 A 
ATOM     28  C   UNL     1      -5.333  11.741 -10.298  1.00  0.00     0.180 A 
ATOM     29  C   UNL     1      -6.933   9.907 -10.422  1.00  0.00     0.239 A 
ATOM     30  O   UNL     1      -5.669  12.186 -11.555  1.00  0.00    -0.452 OA
ATOM     31  C   UNL     1      -7.395  10.505 -11.610  1.00  0.00     0.111 A 
ATOM     32  O   UNL     1      -7.653   9.138  -9.659  1.00  0.00    -0.285 OA
ATOM     33  C   UNL     1      -6.606  11.597 -12.251  1.00  0.00     0.146 A 
ATOM     34  C   UNL     1      -8.699  10.369 -12.138  1.00  0.00     0.134 A 
ATOM     35  C   UNL     1      -6.949  12.098 -13.500  1.00  0.00     0.094 A 
ATOM     36  C   UNL     1      -9.037  10.957 -13.397  1.00  0.00     0.093 A 
ATOM     37  C   UNL     1      -8.109  11.763 -14.062  1.00  0.00     0.123 A 
BRANCH  28  38
ATOM     38  C   UNL     1      -5.756  12.959  -9.546  1.00  0.00     0.025 A 
ATOM     39  C   UNL     1      -7.104  13.087  -9.166  1.00  0.00     0.062 A 
ATOM     40  C   UNL     1      -4.773  13.749  -8.859  1.00  0.00     0.016 A 
ATOM     41  C   UNL     1      -7.446  13.506  -7.909  1.00  0.00     0.158 A 
ATOM     42  C   UNL     1      -5.166  14.386  -7.662  1.00  0.00     0.051 A 
ATOM     43  C   UNL     1      -6.419  14.158  -7.114  1.00  0.00     0.157 A 
BRANCH  41  44
ATOM     44  O   UNL     1      -8.758  13.396  -7.475  1.00  0.00    -0.504 OA
ATOM     45  H   UNL     1      -9.157  12.474  -7.119  1.00  0.00     0.293 HD
ENDBRANCH  41  44
BRANCH  43  46
ATOM     46  O   UNL     1      -6.768  14.559  -5.769  1.00  0.00    -0.504 OA
ATOM     47  H   UNL     1      -7.564  15.101  -5.556  1.00  0.00     0.293 HD
ENDBRANCH  43  46
ENDBRANCH  28  38
BRANCH  34  48
ATOM     48  O   UNL     1      -9.650   9.679 -11.296  1.00  0.00    -0.507 OA
ATOM     49  H   UNL     1      -9.575   8.667 -11.185  1.00  0.00     0.293 HD
ENDBRANCH  34  48
BRANCH  37  50
ATOM     50  O   UNL     1      -8.241  12.255 -15.352  1.00  0.00    -0.508 OA
ATOM     51  H   UNL     1      -7.647  13.006 -15.786  1.00  0.00     0.293 HD
ENDBRANCH  37  50
ENDBRANCH  26  27
ENDBRANCH   5  26
BRANCH   4  52
ATOM     52  O   UNL     1      -2.674  10.576  -8.234  1.00  0.00    -0.384 OA
ATOM     53  H   UNL     1      -3.665  10.484  -7.898  1.00  0.00     0.211 HD
ENDBRANCH   4  52
TORSDOF 16
ENDMDL
MODEL 7
REMARK VINA RESULT:    -8.404      2.309      5.319
REMARK INTER + INTRA:         -15.540
REMARK INTER:                 -12.403
REMARK INTRA:                  -3.136
REMARK UNBOUND:                -2.468
REMARK SMILES C[C@H]1O[C@H](OC[C@H]2O[C@H](Oc3c(-c4ccc(O)c(O)c4)oc4cc(O)cc(O)c4c3=O)[C@H](O)[C@@H](O)[C@@H]2O)[C@H](O)[C@@H](O)[C@H]1O
REMARK SMILES IDX 7 1 36 2 34 3 32 4 9 5 8 6 6 7 5 8 4 9 1 10 2 11 42 12 3 13
REMARK SMILES IDX 40 14 38 15 43 16 41 18 39 20 37 22 35 24 10 26 11 27 12 28
REMARK SMILES IDX 30 29 21 30 29 31 31 32 22 33 27 34 23 35 26 36 24 37 13 38
REMARK SMILES IDX 20 39 14 40 18 41 15 42 16 43 19 44 17 46 28 48 25 50 33 52
REMARK H PARENT 43 17 41 19 39 21 37 23 35 25 19 45 17 47 28 49 25 51 33 53
REMARK Flexibility Score: inf
ROOT
ATOM      1  C   UNL     1     -18.945  16.743 -18.244  1.00  0.00     0.180 C 
ATOM      2  C   UNL     1     -19.845  17.892 -18.751  1.00  0.00     0.177 C 
ATOM      3  C   UNL     1     -19.624  18.056 -20.347  1.00  0.00     0.180 C 
ATOM      4  C   UNL     1     -18.174  18.357 -20.576  1.00  0.00     0.214 C 
ATOM      5  C   UNL     1     -17.453  17.097 -20.428  1.00  0.00     0.339 C 
ATOM      6  O   UNL     1     -17.890  16.267 -19.297  1.00  0.00    -0.332 OA
ENDROOT
BRANCH   1   7
ATOM      7  C   UNL     1     -19.966  15.836 -17.232  1.00  0.00     0.198 C 
BRANCH   7   8
ATOM      8  O   UNL     1     -20.024  16.550 -15.959  1.00  0.00    -0.347 OA
BRANCH   8   9
ATOM      9  C   UNL     1     -19.038  16.275 -14.897  1.00  0.00     0.281 C 
ATOM     10  C   UNL     1     -16.810  14.185 -13.134  1.00  0.00     0.041 C 
ATOM     11  C   UNL     1     -16.795  14.975 -14.515  1.00  0.00     0.150 C 
ATOM     12  C   UNL     1     -16.160  16.397 -14.452  1.00  0.00     0.174 C 
ATOM     13  O   UNL     1     -18.169  15.071 -15.173  1.00  0.00    -0.344 OA
ATOM     14  C   UNL     1     -17.087  17.392 -13.682  1.00  0.00     0.179 C 
ATOM     15  C   UNL     1     -18.393  17.634 -14.384  1.00  0.00     0.202 C 
BRANCH  12  16
ATOM     16  O   UNL     1     -14.797  16.311 -13.939  1.00  0.00    -0.388 OA
ATOM     17  H   UNL     1     -14.380  15.749 -14.675  1.00  0.00     0.211 HD
ENDBRANCH  12  16
BRANCH  14  18
ATOM     18  O   UNL     1     -17.366  17.043 -12.358  1.00  0.00    -0.387 OA
ATOM     19  H   UNL     1     -18.318  17.018 -12.299  1.00  0.00     0.211 HD
ENDBRANCH  14  18
BRANCH  15  20
ATOM     20  O   UNL     1     -18.174  18.575 -15.384  1.00  0.00    -0.385 OA
ATOM     21  H   UNL     1     -17.218  18.682 -15.446  1.00  0.00     0.211 HD
ENDBRANCH  15  20
ENDBRANCH   8   9
ENDBRANCH   7   8
ENDBRANCH   1   7
BRANCH   2  22
ATOM     22  O   UNL     1     -19.508  19.083 -18.018  1.00  0.00    -0.387 OA
ATOM     23  H   UNL     1     -20.217  19.032 -17.270  1.00  0.00     0.211 HD
ENDBRANCH   2  22
BRANCH   3  24
ATOM     24  O   UNL     1     -20.090  16.881 -21.025  1.00  0.00    -0.387 OA
ATOM     25  H   UNL     1     -20.808  17.131 -21.674  1.00  0.00     0.211 HD
ENDBRANCH   3  24
BRANCH   5  26
ATOM     26  O   UNL     1     -15.944  17.414 -20.637  1.00  0.00    -0.454 OA
BRANCH  26  27
ATOM     27  C   UNL     1     -14.876  17.404 -19.625  1.00  0.00     0.214 A 
ATOM     28  C   UNL     1     -14.952  17.783 -18.172  1.00  0.00     0.180 A 
ATOM     29  C   UNL     1     -13.696  16.636 -19.918  1.00  0.00     0.239 A 
ATOM     30  O   UNL     1     -14.693  16.786 -17.261  1.00  0.00    -0.452 OA
ATOM     31  C   UNL     1     -13.280  15.743 -18.912  1.00  0.00     0.111 A 
ATOM     32  O   UNL     1     -13.029  16.876 -21.009  1.00  0.00    -0.285 OA
ATOM     33  C   UNL     1     -13.949  15.758 -17.578  1.00  0.00     0.146 A 
ATOM     34  C   UNL     1     -12.084  14.990 -18.933  1.00  0.00     0.134 A 
ATOM     35  C   UNL     1     -13.672  14.791 -16.621  1.00  0.00     0.094 A 
ATOM     36  C   UNL     1     -11.800  14.052 -17.892  1.00  0.00     0.093 A 
ATOM     37  C   UNL     1     -12.653  13.951 -16.791  1.00  0.00     0.123 A 
BRANCH  28  38
ATOM     38  C   UNL     1     -14.255  18.887 -17.449  1.00  0.00     0.025 A 
ATOM     39  C   UNL     1     -14.451  19.020 -16.063  1.00  0.00     0.062 A 
ATOM     40  C   UNL     1     -13.105  19.511 -18.042  1.00  0.00     0.016 A 
ATOM     41  C   UNL     1     -13.398  19.253 -15.221  1.00  0.00     0.158 A 
ATOM     42  C   UNL     1     -12.091  19.971 -17.174  1.00  0.00     0.051 A 
ATOM     43  C   UNL     1     -12.155  19.722 -15.811  1.00  0.00     0.157 A 
BRANCH  41  44
ATOM     44  O   UNL     1     -13.568  19.141 -13.850  1.00  0.00    -0.504 OA
ATOM     45  H   UNL     1     -14.324  19.684 -13.331  1.00  0.00     0.293 HD
ENDBRANCH  41  44
BRANCH  43  46
ATOM     46  O   UNL     1     -11.029  19.923 -14.926  1.00  0.00    -0.504 OA
ATOM     47  H   UNL     1     -11.126  20.123 -13.966  1.00  0.00     0.293 HD
ENDBRANCH  43  46
ENDBRANCH  28  38
BRANCH  34  48
ATOM     48  O   UNL     1     -11.169  15.294 -20.009  1.00  0.00    -0.507 OA
ATOM     49  H   UNL     1     -10.874  16.260 -20.156  1.00  0.00     0.293 HD
ENDBRANCH  34  48
BRANCH  37  50
ATOM     50  O   UNL     1     -12.591  12.979 -15.803  1.00  0.00    -0.508 OA
ATOM     51  H   UNL     1     -13.009  13.054 -14.841  1.00  0.00     0.293 HD
ENDBRANCH  37  50
ENDBRANCH  26  27
ENDBRANCH   5  26
BRANCH   4  52
ATOM     52  O   UNL     1     -17.764  19.341 -19.721  1.00  0.00    -0.384 OA
ATOM     53  H   UNL     1     -18.315  19.178 -18.841  1.00  0.00     0.211 HD
ENDBRANCH   4  52
TORSDOF 16
ENDMDL
MODEL 8
REMARK VINA RESULT:    -8.301      6.096     10.776
REMARK INTER + INTRA:         -15.380
REMARK INTER:                 -14.169
REMARK INTRA:                  -1.211
REMARK UNBOUND:                -2.468
REMARK SMILES C[C@H]1O[C@H](OC[C@H]2O[C@H](Oc3c(-c4ccc(O)c(O)c4)oc4cc(O)cc(O)c4c3=O)[C@H](O)[C@@H](O)[C@@H]2O)[C@H](O)[C@@H](O)[C@H]1O
REMARK SMILES IDX 7 1 36 2 34 3 32 4 9 5 8 6 6 7 5 8 4 9 1 10 2 11 42 12 3 13
REMARK SMILES IDX 40 14 38 15 43 16 41 18 39 20 37 22 35 24 10 26 11 27 12 28
REMARK SMILES IDX 30 29 21 30 29 31 31 32 22 33 27 34 23 35 26 36 24 37 13 38
REMARK SMILES IDX 20 39 14 40 18 41 15 42 16 43 19 44 17 46 28 48 25 50 33 52
REMARK H PARENT 43 17 41 19 39 21 37 23 35 25 19 45 17 47 28 49 25 51 33 53
REMARK Flexibility Score: inf
ROOT
ATOM      1  C   UNL     1      -8.826  15.761 -12.470  1.00  0.00     0.180 C 
ATOM      2  C   UNL     1      -8.067  16.622 -11.437  1.00  0.00     0.177 C 
ATOM      3  C   UNL     1      -6.535  16.102 -11.359  1.00  0.00     0.180 C 
ATOM      4  C   UNL     1      -6.564  14.660 -10.953  1.00  0.00     0.214 C 
ATOM      5  C   UNL     1      -6.947  13.896 -12.136  1.00  0.00     0.339 C 
ATOM      6  O   UNL     1      -8.037  14.488 -12.924  1.00  0.00    -0.332 OA
ENDROOT
BRANCH   1   7
ATOM      7  C   UNL     1      -9.694  16.896 -13.393  1.00  0.00     0.198 C 
BRANCH   7   8
ATOM      8  O   UNL     1     -11.057  16.897 -12.868  1.00  0.00    -0.347 OA
BRANCH   8   9
ATOM      9  C   UNL     1     -12.213  16.800 -13.779  1.00  0.00     0.281 C 
ATOM     10  C   UNL     1     -15.348  15.518 -14.761  1.00  0.00     0.041 C 
ATOM     11  C   UNL     1     -14.824  16.588 -13.707  1.00  0.00     0.150 C 
ATOM     12  C   UNL     1     -14.805  18.060 -14.220  1.00  0.00     0.174 C 
ATOM     13  O   UNL     1     -13.456  16.244 -13.124  1.00  0.00    -0.344 OA
ATOM     14  C   UNL     1     -13.672  18.272 -15.275  1.00  0.00     0.179 C 
ATOM     15  C   UNL     1     -12.296  18.095 -14.696  1.00  0.00     0.202 C 
BRANCH  12  16
ATOM     16  O   UNL     1     -16.137  18.448 -14.668  1.00  0.00    -0.388 OA
ATOM     17  H   UNL     1     -15.880  19.031 -15.460  1.00  0.00     0.211 HD
ENDBRANCH  12  16
BRANCH  14  18
ATOM     18  O   UNL     1     -13.765  17.474 -16.419  1.00  0.00    -0.387 OA
ATOM     19  H   UNL     1     -13.243  17.920 -17.080  1.00  0.00     0.211 HD
ENDBRANCH  14  18
BRANCH  15  20
ATOM     20  O   UNL     1     -11.948  19.276 -14.050  1.00  0.00    -0.385 OA
ATOM     21  H   UNL     1     -11.248  19.674 -14.579  1.00  0.00     0.211 HD
ENDBRANCH  15  20
ENDBRANCH   8   9
ENDBRANCH   7   8
ENDBRANCH   1   7
BRANCH   2  22
ATOM     22  O   UNL     1      -8.753  16.519 -10.177  1.00  0.00    -0.387 OA
ATOM     23  H   UNL     1      -9.653  16.952 -10.434  1.00  0.00     0.211 HD
ENDBRANCH   2  22
BRANCH   3  24
ATOM     24  O   UNL     1      -5.876  16.343 -12.610  1.00  0.00    -0.387 OA
ATOM     25  H   UNL     1      -6.254  15.740 -13.310  1.00  0.00     0.211 HD
ENDBRANCH   3  24
BRANCH   5  26
ATOM     26  O   UNL     1      -7.006  12.401 -11.708  1.00  0.00    -0.454 OA
BRANCH  26  27
ATOM     27  C   UNL     1      -5.987  11.363 -11.932  1.00  0.00     0.214 A 
ATOM     28  C   UNL     1      -4.639  11.492 -12.585  1.00  0.00     0.180 A 
ATOM     29  C   UNL     1      -6.098  10.153 -11.162  1.00  0.00     0.239 A 
ATOM     30  O   UNL     1      -3.545  11.230 -11.794  1.00  0.00    -0.452 OA
ATOM     31  C   UNL     1      -4.927   9.741 -10.498  1.00  0.00     0.111 A 
ATOM     32  O   UNL     1      -7.199   9.463 -11.207  1.00  0.00    -0.285 OA
ATOM     33  C   UNL     1      -3.637  10.448 -10.751  1.00  0.00     0.146 A 
ATOM     34  C   UNL     1      -4.773   8.524  -9.797  1.00  0.00     0.134 A 
ATOM     35  C   UNL     1      -2.504  10.171  -9.999  1.00  0.00     0.094 A 
ATOM     36  C   UNL     1      -3.562   8.242  -9.089  1.00  0.00     0.093 A 
ATOM     37  C   UNL     1      -2.482   9.124  -9.177  1.00  0.00     0.123 A 
BRANCH  28  38
ATOM     38  C   UNL     1      -4.132  10.848 -13.832  1.00  0.00     0.025 A 
ATOM     39  C   UNL     1      -4.867  11.001 -15.021  1.00  0.00     0.062 A 
ATOM     40  C   UNL     1      -2.751  10.465 -13.925  1.00  0.00     0.016 A 
ATOM     41  C   UNL     1      -4.243  11.296 -16.203  1.00  0.00     0.158 A 
ATOM     42  C   UNL     1      -2.134  10.544 -15.192  1.00  0.00     0.051 A 
ATOM     43  C   UNL     1      -2.808  11.084 -16.277  1.00  0.00     0.157 A 
BRANCH  41  44
ATOM     44  O   UNL     1      -4.992  11.680 -17.305  1.00  0.00    -0.504 OA
ATOM     45  H   UNL     1      -5.202  12.704 -17.513  1.00  0.00     0.293 HD
ENDBRANCH  41  44
BRANCH  43  46
ATOM     46  O   UNL     1      -2.142  11.439 -17.511  1.00  0.00    -0.504 OA
ATOM     47  H   UNL     1      -2.137  12.355 -17.877  1.00  0.00     0.293 HD
ENDBRANCH  43  46
ENDBRANCH  28  38
BRANCH  34  48
ATOM     48  O   UNL     1      -5.867   7.587  -9.915  1.00  0.00    -0.507 OA
ATOM     49  H   UNL     1      -6.034   6.918  -9.162  1.00  0.00     0.293 HD
ENDBRANCH  34  48
BRANCH  37  50
ATOM     50  O   UNL     1      -1.322   9.062  -8.419  1.00  0.00    -0.508 OA
ATOM     51  H   UNL     1      -0.648   9.853  -8.263  1.00  0.00     0.293 HD
ENDBRANCH  37  50
ENDBRANCH  26  27
ENDBRANCH   5  26
BRANCH   4  52
ATOM     52  O   UNL     1      -7.400  14.496  -9.884  1.00  0.00    -0.384 OA
ATOM     53  H   UNL     1      -6.801  14.690  -9.043  1.00  0.00     0.211 HD
ENDBRANCH   4  52
TORSDOF 16
ENDMDL
MODEL 9
REMARK VINA RESULT:    -8.273      1.911      5.439
REMARK INTER + INTRA:         -15.336
REMARK INTER:                 -13.027
REMARK INTRA:                  -2.310
REMARK UNBOUND:                -2.468
REMARK SMILES C[C@H]1O[C@H](OC[C@H]2O[C@H](Oc3c(-c4ccc(O)c(O)c4)oc4cc(O)cc(O)c4c3=O)[C@H](O)[C@@H](O)[C@@H]2O)[C@H](O)[C@@H](O)[C@H]1O
REMARK SMILES IDX 7 1 36 2 34 3 32 4 9 5 8 6 6 7 5 8 4 9 1 10 2 11 42 12 3 13
REMARK SMILES IDX 40 14 38 15 43 16 41 18 39 20 37 22 35 24 10 26 11 27 12 28
REMARK SMILES IDX 30 29 21 30 29 31 31 32 22 33 27 34 23 35 26 36 24 37 13 38
REMARK SMILES IDX 20 39 14 40 18 41 15 42 16 43 19 44 17 46 28 48 25 50 33 52
REMARK H PARENT 43 17 41 19 39 21 37 23 35 25 19 45 17 47 28 49 25 51 33 53
REMARK Flexibility Score: inf
ROOT
ATOM      1  C   UNL     1     -17.424  16.417 -15.227  1.00  0.00     0.180 C 
ATOM      2  C   UNL     1     -17.891  15.857 -13.865  1.00  0.00     0.177 C 
ATOM      3  C   UNL     1     -17.228  16.749 -12.686  1.00  0.00     0.180 C 
ATOM      4  C   UNL     1     -15.740  16.660 -12.831  1.00  0.00     0.214 C 
ATOM      5  C   UNL     1     -15.371  17.535 -13.940  1.00  0.00     0.339 C 
ATOM      6  O   UNL     1     -16.257  17.453 -15.109  1.00  0.00    -0.332 OA
ENDROOT
BRANCH   1   7
ATOM      7  C   UNL     1     -18.845  16.472 -16.158  1.00  0.00     0.198 C 
BRANCH   7   8
ATOM      8  O   UNL     1     -18.571  15.710 -17.373  1.00  0.00    -0.347 OA
BRANCH   8   9
ATOM      9  C   UNL     1     -18.547  16.375 -18.689  1.00  0.00     0.281 C 
ATOM     10  C   UNL     1     -20.081  17.923 -21.462  1.00  0.00     0.041 C 
ATOM     11  C   UNL     1     -19.705  18.344 -19.975  1.00  0.00     0.150 C 
ATOM     12  C   UNL     1     -18.326  19.053 -19.820  1.00  0.00     0.174 C 
ATOM     13  O   UNL     1     -19.787  17.188 -18.980  1.00  0.00    -0.344 OA
ATOM     14  C   UNL     1     -17.150  18.045 -20.028  1.00  0.00     0.179 C 
ATOM     15  C   UNL     1     -17.104  16.977 -18.972  1.00  0.00     0.202 C 
BRANCH  12  16
ATOM     16  O   UNL     1     -18.276  20.234 -20.674  1.00  0.00    -0.388 OA
ATOM     17  H   UNL     1     -18.503  20.945 -19.985  1.00  0.00     0.211 HD
ENDBRANCH  12  16
BRANCH  14  18
ATOM     18  O   UNL     1     -17.116  17.418 -21.277  1.00  0.00    -0.387 OA
ATOM     19  H   UNL     1     -17.977  17.569 -21.658  1.00  0.00     0.211 HD
ENDBRANCH  14  18
BRANCH  15  20
ATOM     20  O   UNL     1     -16.479  17.513 -17.850  1.00  0.00    -0.385 OA
ATOM     21  H   UNL     1     -16.759  16.971 -17.104  1.00  0.00     0.211 HD
ENDBRANCH  15  20
ENDBRANCH   8   9
ENDBRANCH   7   8
ENDBRANCH   1   7
BRANCH   2  22
ATOM     22  O   UNL     1     -17.510  14.472 -13.795  1.00  0.00    -0.387 OA
ATOM     23  H   UNL     1     -16.815  14.445 -14.557  1.00  0.00     0.211 HD
ENDBRANCH   2  22
BRANCH   3  24
ATOM     24  O   UNL     1     -17.742  18.087 -12.742  1.00  0.00    -0.387 OA
ATOM     25  H   UNL     1     -18.616  18.091 -13.224  1.00  0.00     0.211 HD
ENDBRANCH   3  24
BRANCH   5  26
ATOM     26  O   UNL     1     -13.829  17.421 -14.110  1.00  0.00    -0.454 OA
BRANCH  26  27
ATOM     27  C   UNL     1     -13.091  16.842 -15.245  1.00  0.00     0.214 A 
ATOM     28  C   UNL     1     -12.772  15.399 -15.522  1.00  0.00     0.180 A 
ATOM     29  C   UNL     1     -12.930  17.662 -16.415  1.00  0.00     0.239 A 
ATOM     30  O   UNL     1     -13.314  14.857 -16.663  1.00  0.00    -0.452 OA
ATOM     31  C   UNL     1     -13.287  17.061 -17.638  1.00  0.00     0.111 A 
ATOM     32  O   UNL     1     -12.377  18.834 -16.306  1.00  0.00    -0.285 OA
ATOM     33  C   UNL     1     -13.634  15.611 -17.683  1.00  0.00     0.146 A 
ATOM     34  C   UNL     1     -13.089  17.633 -18.915  1.00  0.00     0.134 A 
ATOM     35  C   UNL     1     -14.139  15.026 -18.836  1.00  0.00     0.094 A 
ATOM     36  C   UNL     1     -13.563  16.967 -20.089  1.00  0.00     0.093 A 
ATOM     37  C   UNL     1     -14.131  15.695 -19.988  1.00  0.00     0.123 A 
BRANCH  28  38
ATOM     38  C   UNL     1     -11.441  14.729 -15.606  1.00  0.00     0.025 A 
ATOM     39  C   UNL     1     -10.424  15.126 -14.719  1.00  0.00     0.062 A 
ATOM     40  C   UNL     1     -11.327  13.450 -16.250  1.00  0.00     0.016 A 
ATOM     41  C   UNL     1      -9.648  14.202 -14.077  1.00  0.00     0.158 A 
ATOM     42  C   UNL     1     -10.365  12.548 -15.746  1.00  0.00     0.051 A 
ATOM     43  C   UNL     1      -9.643  12.846 -14.600  1.00  0.00     0.157 A 
BRANCH  41  44
ATOM     44  O   UNL     1      -8.823  14.594 -13.034  1.00  0.00    -0.504 OA
ATOM     45  H   UNL     1      -7.948  14.044 -12.772  1.00  0.00     0.293 HD
ENDBRANCH  41  44
BRANCH  43  46
ATOM     46  O   UNL     1      -8.858  11.858 -13.892  1.00  0.00    -0.504 OA
ATOM     47  H   UNL     1      -7.892  11.728 -14.043  1.00  0.00     0.293 HD
ENDBRANCH  43  46
ENDBRANCH  28  38
BRANCH  34  48
ATOM     48  O   UNL     1     -12.326  18.860 -18.944  1.00  0.00    -0.507 OA
ATOM     49  H   UNL     1     -12.221  19.361 -19.827  1.00  0.00     0.293 HD
ENDBRANCH  34  48
BRANCH  37  50
ATOM     50  O   UNL     1     -14.776  15.012 -21.008  1.00  0.00    -0.508 OA
ATOM     51  H   UNL     1     -14.358  14.759 -21.939  1.00  0.00     0.293 HD
ENDBRANCH  37  50
ENDBRANCH  26  27
ENDBRANCH   5  26
BRANCH   4  52
ATOM     52  O   UNL     1     -15.367  15.356 -12.999  1.00  0.00    -0.384 OA
ATOM     53  H   UNL     1     -15.322  15.221 -14.040  1.00  0.00     0.211 HD
ENDBRANCH   4  52
TORSDOF 16
ENDMDL
