MODEL 1
REMARK VINA RESULT:    -2.828      0.000      0.000
REMARK INTER + INTRA:         -13.604
REMARK INTER:                  -7.456
REMARK INTRA:                  -6.148
REMARK UNBOUND:                -6.148
REMARK SMILES CCCCCCCCCCCCCCCCCCCCCCCCCCCCCC(=O)[O-]
REMARK SMILES IDX 16 1 17 2 18 3 19 4 20 5 21 6 22 7 23 8 24 9 25 10 26 11
REMARK SMILES IDX 27 12 28 13 29 14 30 15 31 16 32 17 15 18 14 19 13 20 12 21
REMARK SMILES IDX 11 22 10 23 9 24 8 25 7 26 6 27 5 28 4 29 3 30 2 31 1 32
REMARK H PARENT
REMARK Flexibility Score: inf
ROOT
ATOM      1  C   UNL     1      56.454  25.341  53.698  1.00  0.00     0.000 C 
ENDROOT
BRANCH   1   2
ATOM      2  C   UNL     1      54.923  25.149  53.688  1.00  0.00     0.000 C 
BRANCH   2   3
ATOM      3  C   UNL     1      54.393  24.026  52.770  1.00  0.00     0.000 C 
BRANCH   3   4
ATOM      4  C   UNL     1      53.455  24.484  51.639  1.00  0.00     0.000 C 
BRANCH   4   5
ATOM      5  C   UNL     1      53.990  24.123  50.243  1.00  0.00     0.000 C 
BRANCH   5   6
ATOM      6  C   UNL     1      54.790  25.266  49.598  1.00  0.00     0.000 C 
BRANCH   6   7
ATOM      7  C   UNL     1      54.309  26.656  50.050  1.00  0.00     0.000 C 
BRANCH   7   8
ATOM      8  C   UNL     1      55.468  27.600  50.422  1.00  0.00     0.000 C 
BRANCH   8   9
ATOM      9  C   UNL     1      55.345  28.286  51.796  1.00  0.00     0.000 C 
BRANCH   9  10
ATOM     10  C   UNL     1      56.620  29.044  52.206  1.00  0.00     0.000 C 
BRANCH  10  11
ATOM     11  C   UNL     1      56.984  28.857  53.691  1.00  0.00     0.000 C 
BRANCH  11  12
ATOM     12  C   UNL     1      57.034  30.148  54.532  1.00  0.00     0.000 C 
BRANCH  12  13
ATOM     13  C   UNL     1      58.394  30.870  54.557  1.00  0.00     0.006 C 
BRANCH  13  14
ATOM     14  C   UNL     1      58.530  31.982  53.499  1.00  0.00     0.053 C 
BRANCH  14  15
ATOM     15  C   UNL     1      59.831  32.718  53.605  1.00  0.00     0.041 C 
ATOM     16  O   UNL     1      60.889  32.097  53.891  1.00  0.00    -0.550 OA
ATOM     17  O   UNL     1      59.884  34.083  53.348  1.00  0.00    -0.550 OA
ENDBRANCH  14  15
ENDBRANCH  13  14
ENDBRANCH  12  13
ENDBRANCH  11  12
ENDBRANCH  10  11
ENDBRANCH   9  10
ENDBRANCH   8   9
ENDBRANCH   7   8
ENDBRANCH   6   7
ENDBRANCH   5   6
ENDBRANCH   4   5
ENDBRANCH   3   4
ENDBRANCH   2   3
ENDBRANCH   1   2
BRANCH   1  18
ATOM     18  C   UNL     1      57.200  24.725  52.491  1.00  0.00     0.000 C 
BRANCH  18  19
ATOM     19  C   UNL     1      58.232  25.668  51.841  1.00  0.00     0.000 C 
BRANCH  19  20
ATOM     20  C   UNL     1      58.486  25.440  50.339  1.00  0.00     0.000 C 
BRANCH  20  21
ATOM     21  C   UNL     1      59.554  26.350  49.703  1.00  0.00     0.000 C 
BRANCH  21  22
ATOM     22  C   UNL     1      59.216  27.847  49.804  1.00  0.00     0.000 C 
BRANCH  22  23
ATOM     23  C   UNL     1      60.388  28.687  50.342  1.00  0.00     0.000 C 
BRANCH  23  24
ATOM     24  C   UNL     1      60.227  29.189  51.789  1.00  0.00    -0.000 C 
BRANCH  24  25
ATOM     25  C   UNL     1      61.357  28.705  52.714  1.00  0.00    -0.000 C 
BRANCH  25  26
ATOM     26  C   UNL     1      61.359  27.178  52.905  1.00  0.00    -0.000 C 
BRANCH  26  27
ATOM     27  C   UNL     1      62.686  26.475  52.560  1.00  0.00    -0.000 C 
BRANCH  27  28
ATOM     28  C   UNL     1      62.801  26.041  51.084  1.00  0.00    -0.000 C 
BRANCH  28  29
ATOM     29  C   UNL     1      62.865  24.514  50.927  1.00  0.00    -0.000 C 
BRANCH  29  30
ATOM     30  C   UNL     1      62.180  23.810  52.105  1.00  0.00    -0.000 C 
BRANCH  30  31
ATOM     31  C   UNL     1      60.972  22.994  51.630  1.00  0.00    -0.003 C 
ATOM     32  C   UNL     1      61.047  22.720  50.131  1.00  0.00     0.004 C 
ENDBRANCH  30  31
ENDBRANCH  29  30
ENDBRANCH  28  29
ENDBRANCH  27  28
ENDBRANCH  26  27
ENDBRANCH  25  26
ENDBRANCH  24  25
ENDBRANCH  23  24
ENDBRANCH  22  23
ENDBRANCH  21  22
ENDBRANCH  20  21
ENDBRANCH  19  20
ENDBRANCH  18  19
ENDBRANCH   1  18
TORSDOF 28
ENDMDL
MODEL 2
REMARK VINA RESULT:    -2.817      2.074      4.005
REMARK INTER + INTRA:         -13.577
REMARK INTER:                  -7.250
REMARK INTRA:                  -6.328
REMARK UNBOUND:                -6.148
REMARK SMILES CCCCCCCCCCCCCCCCCCCCCCCCCCCCCC(=O)[O-]
REMARK SMILES IDX 16 1 17 2 18 3 19 4 20 5 21 6 22 7 23 8 24 9 25 10 26 11
REMARK SMILES IDX 27 12 28 13 29 14 30 15 31 16 32 17 15 18 14 19 13 20 12 21
REMARK SMILES IDX 11 22 10 23 9 24 8 25 7 26 6 27 5 28 4 29 3 30 2 31 1 32
REMARK H PARENT
REMARK Flexibility Score: inf
ROOT
ATOM      1  C   UNL     1      58.975  29.018  51.390  1.00  0.00     0.000 C 
ENDROOT
BRANCH   1   2
ATOM      2  C   UNL     1      57.726  28.682  52.230  1.00  0.00     0.000 C 
BRANCH   2   3
ATOM      3  C   UNL     1      56.403  28.550  51.445  1.00  0.00     0.000 C 
BRANCH   3   4
ATOM      4  C   UNL     1      55.124  28.840  52.250  1.00  0.00     0.000 C 
BRANCH   4   5
ATOM      5  C   UNL     1      53.880  28.162  51.650  1.00  0.00     0.000 C 
BRANCH   5   6
ATOM      6  C   UNL     1      54.050  27.819  50.161  1.00  0.00     0.000 C 
BRANCH   6   7
ATOM      7  C   UNL     1      53.779  26.334  49.860  1.00  0.00     0.000 C 
BRANCH   7   8
ATOM      8  C   UNL     1      55.066  25.493  49.786  1.00  0.00     0.000 C 
BRANCH   8   9
ATOM      9  C   UNL     1      55.644  25.049  51.144  1.00  0.00     0.000 C 
BRANCH   9  10
ATOM     10  C   UNL     1      54.585  24.434  52.076  1.00  0.00     0.000 C 
BRANCH  10  11
ATOM     11  C   UNL     1      54.565  25.079  53.475  1.00  0.00     0.000 C 
BRANCH  11  12
ATOM     12  C   UNL     1      55.917  25.624  53.976  1.00  0.00     0.000 C 
BRANCH  12  13
ATOM     13  C   UNL     1      55.832  26.667  55.106  1.00  0.00     0.006 C 
BRANCH  13  14
ATOM     14  C   UNL     1      57.202  27.190  55.577  1.00  0.00     0.053 C 
BRANCH  14  15
ATOM     15  C   UNL     1      57.109  28.536  56.229  1.00  0.00     0.041 C 
ATOM     16  O   UNL     1      56.494  28.671  57.319  1.00  0.00    -0.550 OA
ATOM     17  O   UNL     1      57.739  29.636  55.655  1.00  0.00    -0.550 OA
ENDBRANCH  14  15
ENDBRANCH  13  14
ENDBRANCH  12  13
ENDBRANCH  11  12
ENDBRANCH  10  11
ENDBRANCH   9  10
ENDBRANCH   8   9
ENDBRANCH   7   8
ENDBRANCH   6   7
ENDBRANCH   5   6
ENDBRANCH   4   5
ENDBRANCH   3   4
ENDBRANCH   2   3
ENDBRANCH   1   2
BRANCH   1  18
ATOM     18  C   UNL     1      58.930  28.529  49.923  1.00  0.00     0.000 C 
BRANCH  18  19
ATOM     19  C   UNL     1      59.775  27.268  49.654  1.00  0.00     0.000 C 
BRANCH  19  20
ATOM     20  C   UNL     1      59.078  25.926  49.949  1.00  0.00     0.000 C 
BRANCH  20  21
ATOM     21  C   UNL     1      60.007  24.783  50.397  1.00  0.00     0.000 C 
BRANCH  21  22
ATOM     22  C   UNL     1      59.546  24.098  51.695  1.00  0.00     0.000 C 
BRANCH  22  23
ATOM     23  C   UNL     1      59.076  25.101  52.764  1.00  0.00     0.000 C 
BRANCH  23  24
ATOM     24  C   UNL     1      60.129  25.473  53.824  1.00  0.00    -0.000 C 
BRANCH  24  25
ATOM     25  C   UNL     1      60.752  26.859  53.583  1.00  0.00    -0.000 C 
BRANCH  25  26
ATOM     26  C   UNL     1      62.072  26.791  52.796  1.00  0.00    -0.000 C 
BRANCH  26  27
ATOM     27  C   UNL     1      62.466  28.088  52.062  1.00  0.00    -0.000 C 
BRANCH  27  28
ATOM     28  C   UNL     1      63.474  27.876  50.913  1.00  0.00    -0.000 C 
BRANCH  28  29
ATOM     29  C   UNL     1      63.294  26.516  50.222  1.00  0.00    -0.000 C 
BRANCH  29  30
ATOM     30  C   UNL     1      64.637  25.790  50.077  1.00  0.00    -0.000 C 
BRANCH  30  31
ATOM     31  C   UNL     1      64.745  24.630  51.073  1.00  0.00    -0.003 C 
ATOM     32  C   UNL     1      63.466  23.798  51.091  1.00  0.00     0.004 C 
ENDBRANCH  30  31
ENDBRANCH  29  30
ENDBRANCH  28  29
ENDBRANCH  27  28
ENDBRANCH  26  27
ENDBRANCH  25  26
ENDBRANCH  24  25
ENDBRANCH  23  24
ENDBRANCH  22  23
ENDBRANCH  21  22
ENDBRANCH  20  21
ENDBRANCH  19  20
ENDBRANCH  18  19
ENDBRANCH   1  18
TORSDOF 28
ENDMDL
MODEL 3
REMARK VINA RESULT:    -2.723      4.385      7.498
REMARK INTER + INTRA:         -13.328
REMARK INTER:                  -8.042
REMARK INTRA:                  -5.285
REMARK UNBOUND:                -6.148
REMARK SMILES CCCCCCCCCCCCCCCCCCCCCCCCCCCCCC(=O)[O-]
REMARK SMILES IDX 16 1 17 2 18 3 19 4 20 5 21 6 22 7 23 8 24 9 25 10 26 11
REMARK SMILES IDX 27 12 28 13 29 14 30 15 31 16 32 17 15 18 14 19 13 20 12 21
REMARK SMILES IDX 11 22 10 23 9 24 8 25 7 26 6 27 5 28 4 29 3 30 2 31 1 32
REMARK H PARENT
REMARK Flexibility Score: inf
ROOT
ATOM      1  C   UNL     1      56.649  28.186  52.048  1.00  0.00     0.000 C 
ENDROOT
BRANCH   1   2
ATOM      2  C   UNL     1      55.736  28.596  50.874  1.00  0.00     0.000 C 
BRANCH   2   3
ATOM      3  C   UNL     1      54.683  27.551  50.445  1.00  0.00     0.000 C 
BRANCH   3   4
ATOM      4  C   UNL     1      55.231  26.145  50.144  1.00  0.00     0.000 C 
BRANCH   4   5
ATOM      5  C   UNL     1      54.246  25.286  49.333  1.00  0.00     0.000 C 
BRANCH   5   6
ATOM      6  C   UNL     1      53.900  23.960  50.028  1.00  0.00     0.000 C 
BRANCH   6   7
ATOM      7  C   UNL     1      53.811  24.098  51.559  1.00  0.00     0.000 C 
BRANCH   7   8
ATOM      8  C   UNL     1      53.605  22.748  52.271  1.00  0.00     0.000 C 
BRANCH   8   9
ATOM      9  C   UNL     1      54.160  22.667  53.706  1.00  0.00     0.000 C 
BRANCH   9  10
ATOM     10  C   UNL     1      54.791  21.302  54.031  1.00  0.00     0.000 C 
BRANCH  10  11
ATOM     11  C   UNL     1      56.319  21.369  54.210  1.00  0.00     0.000 C 
BRANCH  11  12
ATOM     12  C   UNL     1      57.123  20.269  53.489  1.00  0.00     0.000 C 
BRANCH  12  13
ATOM     13  C   UNL     1      56.339  18.984  53.163  1.00  0.00     0.006 C 
BRANCH  13  14
ATOM     14  C   UNL     1      56.573  18.455  51.735  1.00  0.00     0.053 C 
BRANCH  14  15
ATOM     15  C   UNL     1      57.985  18.004  51.515  1.00  0.00     0.041 C 
ATOM     16  O   UNL     1      58.376  16.899  51.975  1.00  0.00    -0.550 OA
ATOM     17  O   UNL     1      58.859  18.783  50.764  1.00  0.00    -0.550 OA
ENDBRANCH  14  15
ENDBRANCH  13  14
ENDBRANCH  12  13
ENDBRANCH  11  12
ENDBRANCH  10  11
ENDBRANCH   9  10
ENDBRANCH   8   9
ENDBRANCH   7   8
ENDBRANCH   6   7
ENDBRANCH   5   6
ENDBRANCH   4   5
ENDBRANCH   3   4
ENDBRANCH   2   3
ENDBRANCH   1   2
BRANCH   1  18
ATOM     18  C   UNL     1      58.162  28.171  51.728  1.00  0.00     0.000 C 
BRANCH  18  19
ATOM     19  C   UNL     1      58.507  28.629  50.298  1.00  0.00     0.000 C 
BRANCH  19  20
ATOM     20  C   UNL     1      59.559  27.778  49.563  1.00  0.00     0.000 C 
BRANCH  20  21
ATOM     21  C   UNL     1      59.552  26.276  49.905  1.00  0.00     0.000 C 
BRANCH  21  22
ATOM     22  C   UNL     1      60.961  25.687  50.086  1.00  0.00     0.000 C 
BRANCH  22  23
ATOM     23  C   UNL     1      61.684  26.241  51.327  1.00  0.00     0.000 C 
BRANCH  23  24
ATOM     24  C   UNL     1      61.034  25.892  52.678  1.00  0.00    -0.000 C 
BRANCH  24  25
ATOM     25  C   UNL     1      60.918  24.375  52.906  1.00  0.00    -0.000 C 
BRANCH  25  26
ATOM     26  C   UNL     1      59.530  23.953  53.418  1.00  0.00    -0.000 C 
BRANCH  26  27
ATOM     27  C   UNL     1      58.386  24.075  52.392  1.00  0.00    -0.000 C 
BRANCH  27  28
ATOM     28  C   UNL     1      57.096  24.700  52.963  1.00  0.00    -0.000 C 
BRANCH  28  29
ATOM     29  C   UNL     1      57.308  25.306  54.358  1.00  0.00    -0.000 C 
BRANCH  29  30
ATOM     30  C   UNL     1      55.979  25.427  55.115  1.00  0.00    -0.000 C 
BRANCH  30  31
ATOM     31  C   UNL     1      54.958  26.234  54.304  1.00  0.00    -0.003 C 
ATOM     32  C   UNL     1      53.576  26.180  54.949  1.00  0.00     0.004 C 
ENDBRANCH  30  31
ENDBRANCH  29  30
ENDBRANCH  28  29
ENDBRANCH  27  28
ENDBRANCH  26  27
ENDBRANCH  25  26
ENDBRANCH  24  25
ENDBRANCH  23  24
ENDBRANCH  22  23
ENDBRANCH  21  22
ENDBRANCH  20  21
ENDBRANCH  19  20
ENDBRANCH  18  19
ENDBRANCH   1  18
TORSDOF 28
ENDMDL
MODEL 4
REMARK VINA RESULT:    -2.706      3.794      7.106
REMARK INTER + INTRA:         -13.284
REMARK INTER:                  -8.477
REMARK INTRA:                  -4.807
REMARK UNBOUND:                -6.148
REMARK SMILES CCCCCCCCCCCCCCCCCCCCCCCCCCCCCC(=O)[O-]
REMARK SMILES IDX 16 1 17 2 18 3 19 4 20 5 21 6 22 7 23 8 24 9 25 10 26 11
REMARK SMILES IDX 27 12 28 13 29 14 30 15 31 16 32 17 15 18 14 19 13 20 12 21
REMARK SMILES IDX 11 22 10 23 9 24 8 25 7 26 6 27 5 28 4 29 3 30 2 31 1 32
REMARK H PARENT
REMARK Flexibility Score: inf
ROOT
ATOM      1  C   UNL     1      55.018  24.869  50.816  1.00  0.00     0.000 C 
ENDROOT
BRANCH   1   2
ATOM      2  C   UNL     1      54.886  26.018  49.795  1.00  0.00     0.000 C 
BRANCH   2   3
ATOM      3  C   UNL     1      54.046  27.230  50.252  1.00  0.00     0.000 C 
BRANCH   3   4
ATOM      4  C   UNL     1      54.852  28.457  50.713  1.00  0.00     0.000 C 
BRANCH   4   5
ATOM      5  C   UNL     1      55.210  28.403  52.208  1.00  0.00     0.000 C 
BRANCH   5   6
ATOM      6  C   UNL     1      56.648  27.922  52.459  1.00  0.00     0.000 C 
BRANCH   6   7
ATOM      7  C   UNL     1      57.651  29.084  52.573  1.00  0.00     0.000 C 
BRANCH   7   8
ATOM      8  C   UNL     1      58.879  28.908  51.661  1.00  0.00     0.000 C 
BRANCH   8   9
ATOM      9  C   UNL     1      58.567  28.664  50.172  1.00  0.00     0.000 C 
BRANCH   9  10
ATOM     10  C   UNL     1      59.702  27.935  49.432  1.00  0.00     0.000 C 
BRANCH  10  11
ATOM     11  C   UNL     1      60.213  26.691  50.183  1.00  0.00     0.000 C 
BRANCH  11  12
ATOM     12  C   UNL     1      59.356  25.419  50.024  1.00  0.00     0.000 C 
BRANCH  12  13
ATOM     13  C   UNL     1      58.498  25.043  51.246  1.00  0.00     0.006 C 
BRANCH  13  14
ATOM     14  C   UNL     1      59.266  25.068  52.581  1.00  0.00     0.053 C 
BRANCH  14  15
ATOM     15  C   UNL     1      59.541  23.694  53.112  1.00  0.00     0.041 C 
ATOM     16  O   UNL     1      59.633  22.718  52.322  1.00  0.00    -0.550 OA
ATOM     17  O   UNL     1      59.738  23.498  54.474  1.00  0.00    -0.550 OA
ENDBRANCH  14  15
ENDBRANCH  13  14
ENDBRANCH  12  13
ENDBRANCH  11  12
ENDBRANCH  10  11
ENDBRANCH   9  10
ENDBRANCH   8   9
ENDBRANCH   7   8
ENDBRANCH   6   7
ENDBRANCH   5   6
ENDBRANCH   4   5
ENDBRANCH   3   4
ENDBRANCH   2   3
ENDBRANCH   1   2
BRANCH   1  18
ATOM     18  C   UNL     1      53.695  24.436  51.490  1.00  0.00     0.000 C 
BRANCH  18  19
ATOM     19  C   UNL     1      53.812  24.196  53.008  1.00  0.00     0.000 C 
BRANCH  19  20
ATOM     20  C   UNL     1      54.910  25.003  53.726  1.00  0.00     0.000 C 
BRANCH  20  21
ATOM     21  C   UNL     1      56.029  24.167  54.375  1.00  0.00     0.000 C 
BRANCH  21  22
ATOM     22  C   UNL     1      56.049  22.705  53.899  1.00  0.00     0.000 C 
BRANCH  22  23
ATOM     23  C   UNL     1      55.824  21.702  55.045  1.00  0.00     0.000 C 
BRANCH  23  24
ATOM     24  C   UNL     1      54.717  20.661  54.800  1.00  0.00    -0.000 C 
BRANCH  24  25
ATOM     25  C   UNL     1      54.268  20.607  53.330  1.00  0.00    -0.000 C 
BRANCH  25  26
ATOM     26  C   UNL     1      54.804  19.372  52.586  1.00  0.00    -0.000 C 
BRANCH  26  27
ATOM     27  C   UNL     1      55.518  18.331  53.471  1.00  0.00    -0.000 C 
BRANCH  27  28
ATOM     28  C   UNL     1      57.027  18.189  53.180  1.00  0.00    -0.000 C 
BRANCH  28  29
ATOM     29  C   UNL     1      57.394  18.654  51.762  1.00  0.00    -0.000 C 
BRANCH  29  30
ATOM     30  C   UNL     1      57.364  17.482  50.773  1.00  0.00    -0.000 C 
BRANCH  30  31
ATOM     31  C   UNL     1      58.728  17.299  50.098  1.00  0.00    -0.003 C 
ATOM     32  C   UNL     1      59.676  18.441  50.451  1.00  0.00     0.004 C 
ENDBRANCH  30  31
ENDBRANCH  29  30
ENDBRANCH  28  29
ENDBRANCH  27  28
ENDBRANCH  26  27
ENDBRANCH  25  26
ENDBRANCH  24  25
ENDBRANCH  23  24
ENDBRANCH  22  23
ENDBRANCH  21  22
ENDBRANCH  20  21
ENDBRANCH  19  20
ENDBRANCH  18  19
ENDBRANCH   1  18
TORSDOF 28
ENDMDL
MODEL 5
REMARK VINA RESULT:    -2.704      2.403      6.949
REMARK INTER + INTRA:         -13.277
REMARK INTER:                  -7.855
REMARK INTRA:                  -5.422
REMARK UNBOUND:                -6.148
REMARK SMILES CCCCCCCCCCCCCCCCCCCCCCCCCCCCCC(=O)[O-]
REMARK SMILES IDX 16 1 17 2 18 3 19 4 20 5 21 6 22 7 23 8 24 9 25 10 26 11
REMARK SMILES IDX 27 12 28 13 29 14 30 15 31 16 32 17 15 18 14 19 13 20 12 21
REMARK SMILES IDX 11 22 10 23 9 24 8 25 7 26 6 27 5 28 4 29 3 30 2 31 1 32
REMARK H PARENT
REMARK Flexibility Score: inf
ROOT
ATOM      1  C   UNL     1      59.817  26.795  54.866  1.00  0.00     0.000 C 
ENDROOT
BRANCH   1   2
ATOM      2  C   UNL     1      59.629  28.183  54.221  1.00  0.00     0.000 C 
BRANCH   2   3
ATOM      3  C   UNL     1      60.703  28.598  53.192  1.00  0.00     0.000 C 
BRANCH   3   4
ATOM      4  C   UNL     1      60.181  29.359  51.961  1.00  0.00     0.000 C 
BRANCH   4   5
ATOM      5  C   UNL     1      58.863  28.779  51.420  1.00  0.00     0.000 C 
BRANCH   5   6
ATOM      6  C   UNL     1      58.897  28.540  49.902  1.00  0.00     0.000 C 
BRANCH   6   7
ATOM      7  C   UNL     1      59.942  27.488  49.490  1.00  0.00     0.000 C 
BRANCH   7   8
ATOM      8  C   UNL     1      59.550  26.058  49.908  1.00  0.00     0.000 C 
BRANCH   8   9
ATOM      9  C   UNL     1      60.729  25.110  50.201  1.00  0.00     0.000 C 
BRANCH   9  10
ATOM     10  C   UNL     1      61.868  25.790  50.980  1.00  0.00     0.000 C 
BRANCH  10  11
ATOM     11  C   UNL     1      63.200  25.811  50.206  1.00  0.00     0.000 C 
BRANCH  11  12
ATOM     12  C   UNL     1      63.693  27.204  49.768  1.00  0.00     0.000 C 
BRANCH  12  13
ATOM     13  C   UNL     1      63.530  28.323  50.815  1.00  0.00     0.006 C 
BRANCH  13  14
ATOM     14  C   UNL     1      64.598  29.429  50.719  1.00  0.00     0.053 C 
BRANCH  14  15
ATOM     15  C   UNL     1      64.565  30.146  49.403  1.00  0.00     0.041 C 
ATOM     16  O   UNL     1      65.359  29.818  48.483  1.00  0.00    -0.550 OA
ATOM     17  O   UNL     1      63.628  31.149  49.178  1.00  0.00    -0.550 OA
ENDBRANCH  14  15
ENDBRANCH  13  14
ENDBRANCH  12  13
ENDBRANCH  11  12
ENDBRANCH  10  11
ENDBRANCH   9  10
ENDBRANCH   8   9
ENDBRANCH   7   8
ENDBRANCH   6   7
ENDBRANCH   5   6
ENDBRANCH   4   5
ENDBRANCH   3   4
ENDBRANCH   2   3
ENDBRANCH   1   2
BRANCH   1  18
ATOM     18  C   UNL     1      58.557  25.898  54.870  1.00  0.00     0.000 C 
BRANCH  18  19
ATOM     19  C   UNL     1      57.644  26.090  53.643  1.00  0.00     0.000 C 
BRANCH  19  20
ATOM     20  C   UNL     1      56.198  25.584  53.806  1.00  0.00     0.000 C 
BRANCH  20  21
ATOM     21  C   UNL     1      55.485  25.185  52.500  1.00  0.00     0.000 C 
BRANCH  21  22
ATOM     22  C   UNL     1      56.403  25.233  51.267  1.00  0.00     0.000 C 
BRANCH  22  23
ATOM     23  C   UNL     1      55.648  25.595  49.975  1.00  0.00     0.000 C 
BRANCH  23  24
ATOM     24  C   UNL     1      54.114  25.495  50.061  1.00  0.00    -0.000 C 
BRANCH  24  25
ATOM     25  C   UNL     1      53.410  26.793  49.629  1.00  0.00    -0.000 C 
BRANCH  25  26
ATOM     26  C   UNL     1      53.289  27.815  50.772  1.00  0.00    -0.000 C 
BRANCH  26  27
ATOM     27  C   UNL     1      54.400  28.884  50.817  1.00  0.00    -0.000 C 
BRANCH  27  28
ATOM     28  C   UNL     1      55.340  28.760  52.034  1.00  0.00    -0.000 C 
BRANCH  28  29
ATOM     29  C   UNL     1      55.272  29.989  52.952  1.00  0.00    -0.000 C 
BRANCH  29  30
ATOM     30  C   UNL     1      56.272  29.870  54.109  1.00  0.00    -0.000 C 
BRANCH  30  31
ATOM     31  C   UNL     1      55.691  29.028  55.252  1.00  0.00    -0.003 C 
ATOM     32  C   UNL     1      56.713  28.833  56.367  1.00  0.00     0.004 C 
ENDBRANCH  30  31
ENDBRANCH  29  30
ENDBRANCH  28  29
ENDBRANCH  27  28
ENDBRANCH  26  27
ENDBRANCH  25  26
ENDBRANCH  24  25
ENDBRANCH  23  24
ENDBRANCH  22  23
ENDBRANCH  21  22
ENDBRANCH  20  21
ENDBRANCH  19  20
ENDBRANCH  18  19
ENDBRANCH   1  18
TORSDOF 28
ENDMDL
MODEL 6
REMARK VINA RESULT:    -2.703      7.630     10.993
REMARK INTER + INTRA:         -13.276
REMARK INTER:                  -6.964
REMARK INTRA:                  -6.313
REMARK UNBOUND:                -6.148
REMARK SMILES CCCCCCCCCCCCCCCCCCCCCCCCCCCCCC(=O)[O-]
REMARK SMILES IDX 16 1 17 2 18 3 19 4 20 5 21 6 22 7 23 8 24 9 25 10 26 11
REMARK SMILES IDX 27 12 28 13 29 14 30 15 31 16 32 17 15 18 14 19 13 20 12 21
REMARK SMILES IDX 11 22 10 23 9 24 8 25 7 26 6 27 5 28 4 29 3 30 2 31 1 32
REMARK H PARENT
REMARK Flexibility Score: inf
ROOT
ATOM      1  C   UNL     1      63.761  29.641  61.637  1.00  0.00     0.000 C 
ENDROOT
BRANCH   1   2
ATOM      2  C   UNL     1      62.260  29.312  61.512  1.00  0.00     0.000 C 
BRANCH   2   3
ATOM      3  C   UNL     1      61.296  30.512  61.637  1.00  0.00     0.000 C 
BRANCH   3   4
ATOM      4  C   UNL     1      60.827  31.126  60.306  1.00  0.00     0.000 C 
BRANCH   4   5
ATOM      5  C   UNL     1      60.518  30.061  59.240  1.00  0.00     0.000 C 
BRANCH   5   6
ATOM      6  C   UNL     1      61.343  30.248  57.956  1.00  0.00     0.000 C 
BRANCH   6   7
ATOM      7  C   UNL     1      62.231  29.032  57.639  1.00  0.00     0.000 C 
BRANCH   7   8
ATOM      8  C   UNL     1      61.570  27.692  58.015  1.00  0.00     0.000 C 
BRANCH   8   9
ATOM      9  C   UNL     1      62.429  26.753  58.883  1.00  0.00     0.000 C 
BRANCH   9  10
ATOM     10  C   UNL     1      61.613  26.011  59.956  1.00  0.00     0.000 C 
BRANCH  10  11
ATOM     11  C   UNL     1      60.104  26.314  59.885  1.00  0.00     0.000 C 
BRANCH  11  12
ATOM     12  C   UNL     1      59.499  26.980  61.136  1.00  0.00     0.000 C 
BRANCH  12  13
ATOM     13  C   UNL     1      57.973  27.188  61.104  1.00  0.00     0.006 C 
BRANCH  13  14
ATOM     14  C   UNL     1      57.434  27.644  59.735  1.00  0.00     0.053 C 
BRANCH  14  15
ATOM     15  C   UNL     1      55.977  27.990  59.778  1.00  0.00     0.041 C 
ATOM     16  O   UNL     1      55.143  27.163  60.234  1.00  0.00    -0.550 OA
ATOM     17  O   UNL     1      55.543  29.241  59.355  1.00  0.00    -0.550 OA
ENDBRANCH  14  15
ENDBRANCH  13  14
ENDBRANCH  12  13
ENDBRANCH  11  12
ENDBRANCH  10  11
ENDBRANCH   9  10
ENDBRANCH   8   9
ENDBRANCH   7   8
ENDBRANCH   6   7
ENDBRANCH   5   6
ENDBRANCH   4   5
ENDBRANCH   3   4
ENDBRANCH   2   3
ENDBRANCH   1   2
BRANCH   1  18
ATOM     18  C   UNL     1      64.611  29.311  60.388  1.00  0.00     0.000 C 
BRANCH  18  19
ATOM     19  C   UNL     1      65.450  30.494  59.866  1.00  0.00     0.000 C 
BRANCH  19  20
ATOM     20  C   UNL     1      64.771  31.370  58.796  1.00  0.00     0.000 C 
BRANCH  20  21
ATOM     21  C   UNL     1      63.959  32.563  59.335  1.00  0.00     0.000 C 
BRANCH  21  22
ATOM     22  C   UNL     1      64.488  33.103  60.674  1.00  0.00     0.000 C 
BRANCH  22  23
ATOM     23  C   UNL     1      64.967  34.563  60.581  1.00  0.00     0.000 C 
BRANCH  23  24
ATOM     24  C   UNL     1      63.862  35.602  60.317  1.00  0.00    -0.000 C 
BRANCH  24  25
ATOM     25  C   UNL     1      62.656  35.438  61.258  1.00  0.00    -0.000 C 
BRANCH  25  26
ATOM     26  C   UNL     1      61.365  35.061  60.512  1.00  0.00    -0.000 C 
BRANCH  26  27
ATOM     27  C   UNL     1      61.389  35.306  58.990  1.00  0.00    -0.000 C 
BRANCH  27  28
ATOM     28  C   UNL     1      60.661  34.222  58.169  1.00  0.00    -0.000 C 
BRANCH  28  29
ATOM     29  C   UNL     1      61.491  33.743  56.968  1.00  0.00    -0.000 C 
BRANCH  29  30
ATOM     30  C   UNL     1      62.627  34.725  56.656  1.00  0.00    -0.000 C 
BRANCH  30  31
ATOM     31  C   UNL     1      63.787  34.016  55.947  1.00  0.00    -0.003 C 
ATOM     32  C   UNL     1      63.395  32.603  55.529  1.00  0.00     0.004 C 
ENDBRANCH  30  31
ENDBRANCH  29  30
ENDBRANCH  28  29
ENDBRANCH  27  28
ENDBRANCH  26  27
ENDBRANCH  25  26
ENDBRANCH  24  25
ENDBRANCH  23  24
ENDBRANCH  22  23
ENDBRANCH  21  22
ENDBRANCH  20  21
ENDBRANCH  19  20
ENDBRANCH  18  19
ENDBRANCH   1  18
TORSDOF 28
ENDMDL
MODEL 7
REMARK VINA RESULT:    -2.698      3.004      7.080
REMARK INTER + INTRA:         -13.262
REMARK INTER:                  -7.337
REMARK INTRA:                  -5.925
REMARK UNBOUND:                -6.148
REMARK SMILES CCCCCCCCCCCCCCCCCCCCCCCCCCCCCC(=O)[O-]
REMARK SMILES IDX 16 1 17 2 18 3 19 4 20 5 21 6 22 7 23 8 24 9 25 10 26 11
REMARK SMILES IDX 27 12 28 13 29 14 30 15 31 16 32 17 15 18 14 19 13 20 12 21
REMARK SMILES IDX 11 22 10 23 9 24 8 25 7 26 6 27 5 28 4 29 3 30 2 31 1 32
REMARK H PARENT
REMARK Flexibility Score: inf
ROOT
ATOM      1  C   UNL     1      53.230  27.354  50.204  1.00  0.00     0.000 C 
ENDROOT
BRANCH   1   2
ATOM      2  C   UNL     1      54.706  26.989  49.947  1.00  0.00     0.000 C 
BRANCH   2   3
ATOM      3  C   UNL     1      55.023  25.479  49.877  1.00  0.00     0.000 C 
BRANCH   3   4
ATOM      4  C   UNL     1      53.819  24.541  50.067  1.00  0.00     0.000 C 
BRANCH   4   5
ATOM      5  C   UNL     1      53.752  23.942  51.483  1.00  0.00     0.000 C 
BRANCH   5   6
ATOM      6  C   UNL     1      54.812  24.531  52.428  1.00  0.00     0.000 C 
BRANCH   6   7
ATOM      7  C   UNL     1      54.194  25.351  53.574  1.00  0.00     0.000 C 
BRANCH   7   8
ATOM      8  C   UNL     1      54.950  26.665  53.847  1.00  0.00     0.000 C 
BRANCH   8   9
ATOM      9  C   UNL     1      56.338  26.777  53.188  1.00  0.00     0.000 C 
BRANCH   9  10
ATOM     10  C   UNL     1      57.193  27.914  53.776  1.00  0.00     0.000 C 
BRANCH  10  11
ATOM     11  C   UNL     1      57.964  28.707  52.703  1.00  0.00     0.000 C 
BRANCH  11  12
ATOM     12  C   UNL     1      57.481  28.507  51.253  1.00  0.00     0.000 C 
BRANCH  12  13
ATOM     13  C   UNL     1      58.524  27.923  50.282  1.00  0.00     0.006 C 
BRANCH  13  14
ATOM     14  C   UNL     1      59.070  26.547  50.706  1.00  0.00     0.053 C 
BRANCH  14  15
ATOM     15  C   UNL     1      60.347  26.195  50.005  1.00  0.00     0.041 C 
ATOM     16  O   UNL     1      60.677  24.988  49.860  1.00  0.00    -0.550 OA
ATOM     17  O   UNL     1      61.152  27.197  49.475  1.00  0.00    -0.550 OA
ENDBRANCH  14  15
ENDBRANCH  13  14
ENDBRANCH  12  13
ENDBRANCH  11  12
ENDBRANCH  10  11
ENDBRANCH   9  10
ENDBRANCH   8   9
ENDBRANCH   7   8
ENDBRANCH   6   7
ENDBRANCH   5   6
ENDBRANCH   4   5
ENDBRANCH   3   4
ENDBRANCH   2   3
ENDBRANCH   1   2
BRANCH   1  18
ATOM     18  C   UNL     1      53.000  28.442  51.278  1.00  0.00     0.000 C 
BRANCH  18  19
ATOM     19  C   UNL     1      53.964  29.641  51.175  1.00  0.00     0.000 C 
BRANCH  19  20
ATOM     20  C   UNL     1      54.454  30.218  52.517  1.00  0.00     0.000 C 
BRANCH  20  21
ATOM     21  C   UNL     1      53.517  29.988  53.717  1.00  0.00     0.000 C 
BRANCH  21  22
ATOM     22  C   UNL     1      53.204  31.275  54.499  1.00  0.00     0.000 C 
BRANCH  22  23
ATOM     23  C   UNL     1      53.478  32.550  53.682  1.00  0.00     0.000 C 
BRANCH  23  24
ATOM     24  C   UNL     1      53.578  33.849  54.503  1.00  0.00    -0.000 C 
BRANCH  24  25
ATOM     25  C   UNL     1      54.750  34.742  54.063  1.00  0.00    -0.000 C 
BRANCH  25  26
ATOM     26  C   UNL     1      55.714  34.028  53.100  1.00  0.00    -0.000 C 
BRANCH  26  27
ATOM     27  C   UNL     1      57.115  33.733  53.671  1.00  0.00    -0.000 C 
BRANCH  27  28
ATOM     28  C   UNL     1      57.481  32.234  53.692  1.00  0.00    -0.000 C 
BRANCH  28  29
ATOM     29  C   UNL     1      56.892  31.506  54.909  1.00  0.00    -0.000 C 
BRANCH  29  30
ATOM     30  C   UNL     1      57.030  32.354  56.179  1.00  0.00    -0.000 C 
BRANCH  30  31
ATOM     31  C   UNL     1      55.746  32.302  57.016  1.00  0.00    -0.003 C 
ATOM     32  C   UNL     1      55.780  31.141  58.005  1.00  0.00     0.004 C 
ENDBRANCH  30  31
ENDBRANCH  29  30
ENDBRANCH  28  29
ENDBRANCH  27  28
ENDBRANCH  26  27
ENDBRANCH  25  26
ENDBRANCH  24  25
ENDBRANCH  23  24
ENDBRANCH  22  23
ENDBRANCH  21  22
ENDBRANCH  20  21
ENDBRANCH  19  20
ENDBRANCH  18  19
ENDBRANCH   1  18
TORSDOF 28
ENDMDL
MODEL 8
REMARK VINA RESULT:    -2.686      3.269      7.237
REMARK INTER + INTRA:         -13.232
REMARK INTER:                  -7.146
REMARK INTRA:                  -6.086
REMARK UNBOUND:                -6.148
REMARK SMILES CCCCCCCCCCCCCCCCCCCCCCCCCCCCCC(=O)[O-]
REMARK SMILES IDX 16 1 17 2 18 3 19 4 20 5 21 6 22 7 23 8 24 9 25 10 26 11
REMARK SMILES IDX 27 12 28 13 29 14 30 15 31 16 32 17 15 18 14 19 13 20 12 21
REMARK SMILES IDX 11 22 10 23 9 24 8 25 7 26 6 27 5 28 4 29 3 30 2 31 1 32
REMARK H PARENT
REMARK Flexibility Score: inf
ROOT
ATOM      1  C   UNL     1      58.806  24.948  51.455  1.00  0.00     0.000 C 
ENDROOT
BRANCH   1   2
ATOM      2  C   UNL     1      59.343  25.216  50.034  1.00  0.00     0.000 C 
BRANCH   2   3
ATOM      3  C   UNL     1      60.292  26.426  49.892  1.00  0.00     0.000 C 
BRANCH   3   4
ATOM      4  C   UNL     1      59.640  27.719  49.370  1.00  0.00     0.000 C 
BRANCH   4   5
ATOM      5  C   UNL     1      59.720  28.873  50.384  1.00  0.00     0.000 C 
BRANCH   5   6
ATOM      6  C   UNL     1      58.566  28.855  51.399  1.00  0.00     0.000 C 
BRANCH   6   7
ATOM      7  C   UNL     1      58.970  29.432  52.767  1.00  0.00     0.000 C 
BRANCH   7   8
ATOM      8  C   UNL     1      60.192  28.724  53.380  1.00  0.00     0.000 C 
BRANCH   8   9
ATOM      9  C   UNL     1      59.922  27.323  53.960  1.00  0.00     0.000 C 
BRANCH   9  10
ATOM     10  C   UNL     1      61.154  26.402  53.906  1.00  0.00     0.000 C 
BRANCH  10  11
ATOM     11  C   UNL     1      62.252  26.916  52.955  1.00  0.00     0.000 C 
BRANCH  11  12
ATOM     12  C   UNL     1      63.079  25.826  52.244  1.00  0.00     0.000 C 
BRANCH  12  13
ATOM     13  C   UNL     1      62.394  24.452  52.117  1.00  0.00     0.006 C 
BRANCH  13  14
ATOM     14  C   UNL     1      62.979  23.564  51.003  1.00  0.00     0.053 C 
BRANCH  14  15
ATOM     15  C   UNL     1      63.811  22.441  51.542  1.00  0.00     0.041 C 
ATOM     16  O   UNL     1      63.951  21.381  50.876  1.00  0.00    -0.550 OA
ATOM     17  O   UNL     1      64.467  22.579  52.760  1.00  0.00    -0.550 OA
ENDBRANCH  14  15
ENDBRANCH  13  14
ENDBRANCH  12  13
ENDBRANCH  11  12
ENDBRANCH  10  11
ENDBRANCH   9  10
ENDBRANCH   8   9
ENDBRANCH   7   8
ENDBRANCH   6   7
ENDBRANCH   5   6
ENDBRANCH   4   5
ENDBRANCH   3   4
ENDBRANCH   2   3
ENDBRANCH   1   2
BRANCH   1  18
ATOM     18  C   UNL     1      57.308  25.270  51.662  1.00  0.00     0.000 C 
BRANCH  18  19
ATOM     19  C   UNL     1      56.544  25.574  50.357  1.00  0.00     0.000 C 
BRANCH  19  20
ATOM     20  C   UNL     1      55.745  26.891  50.347  1.00  0.00     0.000 C 
BRANCH  20  21
ATOM     21  C   UNL     1      54.253  26.757  49.988  1.00  0.00     0.000 C 
BRANCH  21  22
ATOM     22  C   UNL     1      53.426  28.001  50.351  1.00  0.00     0.000 C 
BRANCH  22  23
ATOM     23  C   UNL     1      54.298  29.181  50.817  1.00  0.00     0.000 C 
BRANCH  23  24
ATOM     24  C   UNL     1      53.667  30.078  51.898  1.00  0.00    -0.000 C 
BRANCH  24  25
ATOM     25  C   UNL     1      53.954  29.580  53.324  1.00  0.00    -0.000 C 
BRANCH  25  26
ATOM     26  C   UNL     1      55.402  29.093  53.507  1.00  0.00    -0.000 C 
BRANCH  26  27
ATOM     27  C   UNL     1      55.551  27.616  53.921  1.00  0.00    -0.000 C 
BRANCH  27  28
ATOM     28  C   UNL     1      54.212  26.914  54.230  1.00  0.00    -0.000 C 
BRANCH  28  29
ATOM     29  C   UNL     1      54.071  25.576  53.489  1.00  0.00    -0.000 C 
BRANCH  29  30
ATOM     30  C   UNL     1      54.157  24.394  54.463  1.00  0.00    -0.000 C 
BRANCH  30  31
ATOM     31  C   UNL     1      55.617  24.005  54.725  1.00  0.00    -0.003 C 
ATOM     32  C   UNL     1      55.970  24.155  56.202  1.00  0.00     0.004 C 
ENDBRANCH  30  31
ENDBRANCH  29  30
ENDBRANCH  28  29
ENDBRANCH  27  28
ENDBRANCH  26  27
ENDBRANCH  25  26
ENDBRANCH  24  25
ENDBRANCH  23  24
ENDBRANCH  22  23
ENDBRANCH  21  22
ENDBRANCH  20  21
ENDBRANCH  19  20
ENDBRANCH  18  19
ENDBRANCH   1  18
TORSDOF 28
ENDMDL
MODEL 9
REMARK VINA RESULT:    -2.619      4.120      5.926
REMARK INTER + INTRA:         -13.055
REMARK INTER:                  -7.172
REMARK INTRA:                  -5.883
REMARK UNBOUND:                -6.148
REMARK SMILES CCCCCCCCCCCCCCCCCCCCCCCCCCCCCC(=O)[O-]
REMARK SMILES IDX 16 1 17 2 18 3 19 4 20 5 21 6 22 7 23 8 24 9 25 10 26 11
REMARK SMILES IDX 27 12 28 13 29 14 30 15 31 16 32 17 15 18 14 19 13 20 12 21
REMARK SMILES IDX 11 22 10 23 9 24 8 25 7 26 6 27 5 28 4 29 3 30 2 31 1 32
REMARK H PARENT
REMARK Flexibility Score: inf
ROOT
ATOM      1  C   UNL     1      55.425  25.212  50.516  1.00  0.00     0.000 C 
ENDROOT
BRANCH   1   2
ATOM      2  C   UNL     1      54.225  25.544  49.605  1.00  0.00     0.000 C 
BRANCH   2   3
ATOM      3  C   UNL     1      53.148  26.463  50.221  1.00  0.00     0.000 C 
BRANCH   3   4
ATOM      4  C   UNL     1      53.392  27.973  50.052  1.00  0.00     0.000 C 
BRANCH   4   5
ATOM      5  C   UNL     1      53.520  28.707  51.397  1.00  0.00     0.000 C 
BRANCH   5   6
ATOM      6  C   UNL     1      54.980  28.888  51.840  1.00  0.00     0.000 C 
BRANCH   6   7
ATOM      7  C   UNL     1      55.271  28.243  53.206  1.00  0.00     0.000 C 
BRANCH   7   8
ATOM      8  C   UNL     1      54.104  27.381  53.722  1.00  0.00     0.000 C 
BRANCH   8   9
ATOM      9  C   UNL     1      54.468  25.931  54.094  1.00  0.00     0.000 C 
BRANCH   9  10
ATOM     10  C   UNL     1      55.943  25.766  54.500  1.00  0.00     0.000 C 
BRANCH  10  11
ATOM     11  C   UNL     1      56.571  24.459  53.980  1.00  0.00     0.000 C 
BRANCH  11  12
ATOM     12  C   UNL     1      55.573  23.357  53.575  1.00  0.00     0.000 C 
BRANCH  12  13
ATOM     13  C   UNL     1      55.545  22.120  54.493  1.00  0.00     0.006 C 
BRANCH  13  14
ATOM     14  C   UNL     1      54.427  21.116  54.153  1.00  0.00     0.053 C 
BRANCH  14  15
ATOM     15  C   UNL     1      54.935  19.924  53.400  1.00  0.00     0.041 C 
ATOM     16  O   UNL     1      54.440  19.624  52.282  1.00  0.00    -0.550 OA
ATOM     17  O   UNL     1      55.985  19.169  53.912  1.00  0.00    -0.550 OA
ENDBRANCH  14  15
ENDBRANCH  13  14
ENDBRANCH  12  13
ENDBRANCH  11  12
ENDBRANCH  10  11
ENDBRANCH   9  10
ENDBRANCH   8   9
ENDBRANCH   7   8
ENDBRANCH   6   7
ENDBRANCH   5   6
ENDBRANCH   4   5
ENDBRANCH   3   4
ENDBRANCH   2   3
ENDBRANCH   1   2
BRANCH   1  18
ATOM     18  C   UNL     1      56.633  26.168  50.383  1.00  0.00     0.000 C 
BRANCH  18  19
ATOM     19  C   UNL     1      57.996  25.503  50.664  1.00  0.00     0.000 C 
BRANCH  19  20
ATOM     20  C   UNL     1      59.078  25.728  49.591  1.00  0.00     0.000 C 
BRANCH  20  21
ATOM     21  C   UNL     1      60.097  26.841  49.901  1.00  0.00     0.000 C 
BRANCH  21  22
ATOM     22  C   UNL     1      59.536  28.256  49.684  1.00  0.00     0.000 C 
BRANCH  22  23
ATOM     23  C   UNL     1      59.093  28.929  50.996  1.00  0.00     0.000 C 
BRANCH  23  24
ATOM     24  C   UNL     1      59.825  28.446  52.262  1.00  0.00    -0.000 C 
BRANCH  24  25
ATOM     25  C   UNL     1      58.886  27.754  53.264  1.00  0.00    -0.000 C 
BRANCH  25  26
ATOM     26  C   UNL     1      59.580  26.633  54.056  1.00  0.00    -0.000 C 
BRANCH  26  27
ATOM     27  C   UNL     1      60.998  26.269  53.573  1.00  0.00    -0.000 C 
BRANCH  27  28
ATOM     28  C   UNL     1      61.064  24.963  52.753  1.00  0.00    -0.000 C 
BRANCH  28  29
ATOM     29  C   UNL     1      60.084  23.899  53.269  1.00  0.00    -0.000 C 
BRANCH  29  30
ATOM     30  C   UNL     1      60.016  22.702  52.313  1.00  0.00    -0.000 C 
BRANCH  30  31
ATOM     31  C   UNL     1      60.791  22.987  51.021  1.00  0.00    -0.003 C 
ATOM     32  C   UNL     1      61.057  21.702  50.243  1.00  0.00     0.004 C 
ENDBRANCH  30  31
ENDBRANCH  29  30
ENDBRANCH  28  29
ENDBRANCH  27  28
ENDBRANCH  26  27
ENDBRANCH  25  26
ENDBRANCH  24  25
ENDBRANCH  23  24
ENDBRANCH  22  23
ENDBRANCH  21  22
ENDBRANCH  20  21
ENDBRANCH  19  20
ENDBRANCH  18  19
ENDBRANCH   1  18
TORSDOF 28
ENDMDL
