MODEL 1
REMARK VINA RESULT:    -4.912      0.000      0.000
REMARK INTER + INTRA:          -9.047
REMARK INTER:                  -8.358
REMARK INTRA:                  -0.689
REMARK UNBOUND:                -0.689
REMARK SMILES CCCCCCCCCCCCCC(=O)[O-]
REMARK SMILES IDX 8 1 9 2 10 3 11 4 12 5 13 6 14 7 15 8 16 9 7 10 6 11 5 12
REMARK SMILES IDX 4 13 3 14 2 15 1 16
REMARK H PARENT
REMARK Flexibility Score: inf
ROOT
ATOM      1  C   UNL     1      13.508  37.890  22.251  1.00  0.00     0.000 C 
ENDROOT
BRANCH   1   2
ATOM      2  C   UNL     1      12.519  38.607  23.176  1.00  0.00     0.000 C 
BRANCH   2   3
ATOM      3  C   UNL     1      11.430  37.647  23.670  1.00  0.00     0.000 C 
BRANCH   3   4
ATOM      4  C   UNL     1      10.356  38.397  24.469  1.00  0.00     0.000 C 
BRANCH   4   5
ATOM      5  C   UNL     1       8.952  37.896  24.108  1.00  0.00     0.006 C 
BRANCH   5   6
ATOM      6  C   UNL     1       7.876  38.838  24.655  1.00  0.00     0.053 C 
BRANCH   6   7
ATOM      7  C   UNL     1       8.192  39.228  26.065  1.00  0.00     0.041 C 
ATOM      8  O   UNL     1       8.031  38.402  27.002  1.00  0.00    -0.550 OA
ATOM      9  O   UNL     1       8.615  40.520  26.351  1.00  0.00    -0.550 OA
ENDBRANCH   6   7
ENDBRANCH   5   6
ENDBRANCH   4   5
ENDBRANCH   3   4
ENDBRANCH   2   3
ENDBRANCH   1   2
BRANCH   1  10
ATOM     10  C   UNL     1      12.772  36.950  21.284  1.00  0.00     0.000 C 
BRANCH  10  11
ATOM     11  C   UNL     1      13.222  35.485  21.419  1.00  0.00    -0.000 C 
BRANCH  11  12
ATOM     12  C   UNL     1      12.285  34.595  22.258  1.00  0.00    -0.000 C 
BRANCH  12  13
ATOM     13  C   UNL     1      12.565  34.653  23.776  1.00  0.00    -0.000 C 
BRANCH  13  14
ATOM     14  C   UNL     1      11.483  33.928  24.595  1.00  0.00    -0.000 C 
BRANCH  14  15
ATOM     15  C   UNL     1      10.301  33.466  23.729  1.00  0.00    -0.003 C 
ATOM     16  C   UNL     1      10.205  31.944  23.630  1.00  0.00     0.004 C 
ENDBRANCH  14  15
ENDBRANCH  13  14
ENDBRANCH  12  13
ENDBRANCH  11  12
ENDBRANCH  10  11
ENDBRANCH   1  10
TORSDOF 12
ENDMDL
MODEL 2
REMARK VINA RESULT:    -4.840      2.503      5.471
REMARK INTER + INTRA:          -8.924
REMARK INTER:                  -8.019
REMARK INTRA:                  -0.905
REMARK UNBOUND:                -0.689
REMARK SMILES CCCCCCCCCCCCCC(=O)[O-]
REMARK SMILES IDX 8 1 9 2 10 3 11 4 12 5 13 6 14 7 15 8 16 9 7 10 6 11 5 12
REMARK SMILES IDX 4 13 3 14 2 15 1 16
REMARK H PARENT
REMARK Flexibility Score: inf
ROOT
ATOM      1  C   UNL     1      13.494  37.345  22.476  1.00  0.00     0.000 C 
ENDROOT
BRANCH   1   2
ATOM      2  C   UNL     1      13.095  37.164  21.008  1.00  0.00     0.000 C 
BRANCH   2   3
ATOM      3  C   UNL     1      12.314  35.860  20.806  1.00  0.00     0.000 C 
BRANCH   3   4
ATOM      4  C   UNL     1      12.761  34.789  21.810  1.00  0.00     0.000 C 
BRANCH   4   5
ATOM      5  C   UNL     1      11.602  34.377  22.726  1.00  0.00     0.006 C 
BRANCH   5   6
ATOM      6  C   UNL     1      12.106  34.052  24.135  1.00  0.00     0.053 C 
BRANCH   6   7
ATOM      7  C   UNL     1      11.079  33.268  24.890  1.00  0.00     0.041 C 
ATOM      8  O   UNL     1      10.871  33.505  26.109  1.00  0.00    -0.550 OA
ATOM      9  O   UNL     1      10.387  32.242  24.260  1.00  0.00    -0.550 OA
ENDBRANCH   6   7
ENDBRANCH   5   6
ENDBRANCH   4   5
ENDBRANCH   3   4
ENDBRANCH   2   3
ENDBRANCH   1   2
BRANCH   1  10
ATOM     10  C   UNL     1      13.162  38.764  22.963  1.00  0.00     0.000 C 
BRANCH  10  11
ATOM     11  C   UNL     1      11.896  38.814  23.835  1.00  0.00    -0.000 C 
BRANCH  11  12
ATOM     12  C   UNL     1      10.958  37.601  23.684  1.00  0.00    -0.000 C 
BRANCH  12  13
ATOM     13  C   UNL     1       9.546  37.831  24.267  1.00  0.00    -0.000 C 
BRANCH  13  14
ATOM     14  C   UNL     1       9.485  39.075  25.171  1.00  0.00    -0.000 C 
BRANCH  14  15
ATOM     15  C   UNL     1       8.105  39.262  25.821  1.00  0.00    -0.003 C 
ATOM     16  C   UNL     1       8.090  40.387  26.855  1.00  0.00     0.004 C 
ENDBRANCH  14  15
ENDBRANCH  13  14
ENDBRANCH  12  13
ENDBRANCH  11  12
ENDBRANCH  10  11
ENDBRANCH   1  10
TORSDOF 12
ENDMDL
MODEL 3
REMARK VINA RESULT:    -4.737      3.341      4.889
REMARK INTER + INTRA:          -8.748
REMARK INTER:                  -7.671
REMARK INTRA:                  -1.077
REMARK UNBOUND:                -0.689
REMARK SMILES CCCCCCCCCCCCCC(=O)[O-]
REMARK SMILES IDX 8 1 9 2 10 3 11 4 12 5 13 6 14 7 15 8 16 9 7 10 6 11 5 12
REMARK SMILES IDX 4 13 3 14 2 15 1 16
REMARK H PARENT
REMARK Flexibility Score: inf
ROOT
ATOM      1  C   UNL     1       9.350  37.189  23.360  1.00  0.00     0.000 C 
ENDROOT
BRANCH   1   2
ATOM      2  C   UNL     1      10.788  37.176  23.887  1.00  0.00     0.000 C 
BRANCH   2   3
ATOM      3  C   UNL     1      11.425  38.567  23.788  1.00  0.00     0.000 C 
BRANCH   3   4
ATOM      4  C   UNL     1      12.829  38.488  23.175  1.00  0.00     0.000 C 
BRANCH   4   5
ATOM      5  C   UNL     1      13.090  37.101  22.575  1.00  0.00     0.006 C 
BRANCH   5   6
ATOM      6  C   UNL     1      13.022  37.143  21.046  1.00  0.00     0.053 C 
BRANCH   6   7
ATOM      7  C   UNL     1      12.394  35.893  20.515  1.00  0.00     0.041 C 
ATOM      8  O   UNL     1      11.447  35.961  19.688  1.00  0.00    -0.550 OA
ATOM      9  O   UNL     1      12.821  34.653  20.972  1.00  0.00    -0.550 OA
ENDBRANCH   6   7
ENDBRANCH   5   6
ENDBRANCH   4   5
ENDBRANCH   3   4
ENDBRANCH   2   3
ENDBRANCH   1   2
BRANCH   1  10
ATOM     10  C   UNL     1       9.022  35.880  22.626  1.00  0.00     0.000 C 
BRANCH  10  11
ATOM     11  C   UNL     1      10.062  34.775  22.885  1.00  0.00    -0.000 C 
BRANCH  11  12
ATOM     12  C   UNL     1       9.477  33.358  23.033  1.00  0.00    -0.000 C 
BRANCH  12  13
ATOM     13  C   UNL     1      10.381  32.392  23.829  1.00  0.00    -0.000 C 
BRANCH  13  14
ATOM     14  C   UNL     1      11.051  33.080  25.032  1.00  0.00    -0.000 C 
BRANCH  14  15
ATOM     15  C   UNL     1      12.358  33.793  24.649  1.00  0.00    -0.003 C 
ATOM     16  C   UNL     1      12.727  34.909  25.625  1.00  0.00     0.004 C 
ENDBRANCH  14  15
ENDBRANCH  13  14
ENDBRANCH  12  13
ENDBRANCH  11  12
ENDBRANCH  10  11
ENDBRANCH   1  10
TORSDOF 12
ENDMDL
MODEL 4
REMARK VINA RESULT:    -4.668      1.001      2.105
REMARK INTER + INTRA:          -8.631
REMARK INTER:                  -7.436
REMARK INTRA:                  -1.195
REMARK UNBOUND:                -0.689
REMARK SMILES CCCCCCCCCCCCCC(=O)[O-]
REMARK SMILES IDX 8 1 9 2 10 3 11 4 12 5 13 6 14 7 15 8 16 9 7 10 6 11 5 12
REMARK SMILES IDX 4 13 3 14 2 15 1 16
REMARK H PARENT
REMARK Flexibility Score: inf
ROOT
ATOM      1  C   UNL     1      13.496  36.209  21.553  1.00  0.00     0.000 C 
ENDROOT
BRANCH   1   2
ATOM      2  C   UNL     1      12.776  37.535  21.822  1.00  0.00     0.000 C 
BRANCH   2   3
ATOM      3  C   UNL     1      12.822  37.895  23.312  1.00  0.00     0.000 C 
BRANCH   3   4
ATOM      4  C   UNL     1      11.588  38.710  23.719  1.00  0.00     0.000 C 
BRANCH   4   5
ATOM      5  C   UNL     1      10.583  37.841  24.485  1.00  0.00     0.006 C 
BRANCH   5   6
ATOM      6  C   UNL     1       9.165  38.409  24.366  1.00  0.00     0.053 C 
BRANCH   6   7
ATOM      7  C   UNL     1       8.843  39.264  25.552  1.00  0.00     0.041 C 
ATOM      8  O   UNL     1       9.168  40.480  25.563  1.00  0.00    -0.550 OA
ATOM      9  O   UNL     1       8.228  38.705  26.665  1.00  0.00    -0.550 OA
ENDBRANCH   6   7
ENDBRANCH   5   6
ENDBRANCH   4   5
ENDBRANCH   3   4
ENDBRANCH   2   3
ENDBRANCH   1   2
BRANCH   1  10
ATOM     10  C   UNL     1      12.557  35.017  21.792  1.00  0.00     0.000 C 
BRANCH  10  11
ATOM     11  C   UNL     1      11.087  35.440  21.953  1.00  0.00    -0.000 C 
BRANCH  11  12
ATOM     12  C   UNL     1      10.341  34.760  23.117  1.00  0.00    -0.000 C 
BRANCH  12  13
ATOM     13  C   UNL     1      10.949  33.405  23.539  1.00  0.00    -0.000 C 
BRANCH  13  14
ATOM     14  C   UNL     1      10.923  33.206  25.065  1.00  0.00    -0.000 C 
BRANCH  14  15
ATOM     15  C   UNL     1      11.552  34.385  25.823  1.00  0.00    -0.003 C 
ATOM     16  C   UNL     1      12.928  34.767  25.279  1.00  0.00     0.004 C 
ENDBRANCH  14  15
ENDBRANCH  13  14
ENDBRANCH  12  13
ENDBRANCH  11  12
ENDBRANCH  10  11
ENDBRANCH   1  10
TORSDOF 12
ENDMDL
MODEL 5
REMARK VINA RESULT:    -4.637     16.979     19.322
REMARK INTER + INTRA:          -8.578
REMARK INTER:                  -7.799
REMARK INTRA:                  -0.779
REMARK UNBOUND:                -0.689
REMARK SMILES CCCCCCCCCCCCCC(=O)[O-]
REMARK SMILES IDX 8 1 9 2 10 3 11 4 12 5 13 6 14 7 15 8 16 9 7 10 6 11 5 12
REMARK SMILES IDX 4 13 3 14 2 15 1 16
REMARK H PARENT
REMARK Flexibility Score: inf
ROOT
ATOM      1  C   UNL     1      27.296  24.465  24.151  1.00  0.00     0.000 C 
ENDROOT
BRANCH   1   2
ATOM      2  C   UNL     1      27.048  23.333  23.148  1.00  0.00     0.000 C 
BRANCH   2   3
ATOM      3  C   UNL     1      26.186  22.226  23.768  1.00  0.00     0.000 C 
BRANCH   3   4
ATOM      4  C   UNL     1      24.893  22.023  22.968  1.00  0.00     0.000 C 
BRANCH   4   5
ATOM      5  C   UNL     1      24.839  22.967  21.761  1.00  0.00     0.006 C 
BRANCH   5   6
ATOM      6  C   UNL     1      23.693  23.974  21.903  1.00  0.00     0.053 C 
BRANCH   6   7
ATOM      7  C   UNL     1      24.136  25.335  21.467  1.00  0.00     0.041 C 
ATOM      8  O   UNL     1      23.364  26.322  21.589  1.00  0.00    -0.550 OA
ATOM      9  O   UNL     1      25.383  25.505  20.880  1.00  0.00    -0.550 OA
ENDBRANCH   6   7
ENDBRANCH   5   6
ENDBRANCH   4   5
ENDBRANCH   3   4
ENDBRANCH   2   3
ENDBRANCH   1   2
BRANCH   1  10
ATOM     10  C   UNL     1      27.488  25.806  23.427  1.00  0.00     0.000 C 
BRANCH  10  11
ATOM     11  C   UNL     1      26.875  26.990  24.194  1.00  0.00    -0.000 C 
BRANCH  11  12
ATOM     12  C   UNL     1      26.518  28.210  23.325  1.00  0.00    -0.000 C 
BRANCH  12  13
ATOM     13  C   UNL     1      25.743  29.310  24.083  1.00  0.00    -0.000 C 
BRANCH  13  14
ATOM     14  C   UNL     1      26.667  30.173  24.961  1.00  0.00    -0.000 C 
BRANCH  14  15
ATOM     15  C   UNL     1      26.030  31.519  25.339  1.00  0.00    -0.003 C 
ATOM     16  C   UNL     1      26.914  32.347  26.271  1.00  0.00     0.004 C 
ENDBRANCH  14  15
ENDBRANCH  13  14
ENDBRANCH  12  13
ENDBRANCH  11  12
ENDBRANCH  10  11
ENDBRANCH   1  10
TORSDOF 12
ENDMDL
MODEL 6
REMARK VINA RESULT:    -4.554      2.282      4.865
REMARK INTER + INTRA:          -8.437
REMARK INTER:                  -6.902
REMARK INTRA:                  -1.536
REMARK UNBOUND:                -0.689
REMARK SMILES CCCCCCCCCCCCCC(=O)[O-]
REMARK SMILES IDX 8 1 9 2 10 3 11 4 12 5 13 6 14 7 15 8 16 9 7 10 6 11 5 12
REMARK SMILES IDX 4 13 3 14 2 15 1 16
REMARK H PARENT
REMARK Flexibility Score: inf
ROOT
ATOM      1  C   UNL     1       8.987  36.543  22.985  1.00  0.00     0.000 C 
ENDROOT
BRANCH   1   2
ATOM      2  C   UNL     1       9.820  35.339  22.535  1.00  0.00     0.000 C 
BRANCH   2   3
ATOM      3  C   UNL     1       9.003  34.044  22.607  1.00  0.00     0.000 C 
BRANCH   3   4
ATOM      4  C   UNL     1       9.771  32.949  23.360  1.00  0.00     0.000 C 
BRANCH   4   5
ATOM      5  C   UNL     1      11.119  33.475  23.868  1.00  0.00     0.006 C 
BRANCH   5   6
ATOM      6  C   UNL     1      11.221  33.340  25.391  1.00  0.00     0.053 C 
BRANCH   6   7
ATOM      7  C   UNL     1      11.844  34.564  25.983  1.00  0.00     0.041 C 
ATOM      8  O   UNL     1      13.019  34.892  25.671  1.00  0.00    -0.550 OA
ATOM      9  O   UNL     1      11.146  35.316  26.919  1.00  0.00    -0.550 OA
ENDBRANCH   6   7
ENDBRANCH   5   6
ENDBRANCH   4   5
ENDBRANCH   3   4
ENDBRANCH   2   3
ENDBRANCH   1   2
BRANCH   1  10
ATOM     10  C   UNL     1       9.852  37.551  23.756  1.00  0.00     0.000 C 
BRANCH  10  11
ATOM     11  C   UNL     1      11.340  37.164  23.779  1.00  0.00    -0.000 C 
BRANCH  11  12
ATOM     12  C   UNL     1      12.275  38.140  23.038  1.00  0.00    -0.000 C 
BRANCH  12  13
ATOM     13  C   UNL     1      13.126  37.470  21.937  1.00  0.00    -0.000 C 
BRANCH  13  14
ATOM     14  C   UNL     1      13.392  35.983  22.230  1.00  0.00    -0.000 C 
BRANCH  14  15
ATOM     15  C   UNL     1      12.925  35.066  21.089  1.00  0.00    -0.003 C 
ATOM     16  C   UNL     1      12.010  35.782  20.096  1.00  0.00     0.004 C 
ENDBRANCH  14  15
ENDBRANCH  13  14
ENDBRANCH  12  13
ENDBRANCH  11  12
ENDBRANCH  10  11
ENDBRANCH   1  10
TORSDOF 12
ENDMDL
MODEL 7
REMARK VINA RESULT:    -4.472     17.094     18.963
REMARK INTER + INTRA:          -8.297
REMARK INTER:                  -7.115
REMARK INTRA:                  -1.182
REMARK UNBOUND:                -0.689
REMARK SMILES CCCCCCCCCCCCCC(=O)[O-]
REMARK SMILES IDX 8 1 9 2 10 3 11 4 12 5 13 6 14 7 15 8 16 9 7 10 6 11 5 12
REMARK SMILES IDX 4 13 3 14 2 15 1 16
REMARK H PARENT
REMARK Flexibility Score: inf
ROOT
ATOM      1  C   UNL     1      24.067  26.030  21.659  1.00  0.00     0.000 C 
ENDROOT
BRANCH   1   2
ATOM      2  C   UNL     1      25.527  26.111  22.116  1.00  0.00     0.000 C 
BRANCH   2   3
ATOM      3  C   UNL     1      25.776  27.377  22.944  1.00  0.00     0.000 C 
BRANCH   3   4
ATOM      4  C   UNL     1      27.255  27.496  23.336  1.00  0.00     0.000 C 
BRANCH   4   5
ATOM      5  C   UNL     1      27.666  28.965  23.491  1.00  0.00     0.006 C 
BRANCH   5   6
ATOM      6  C   UNL     1      27.643  29.389  24.963  1.00  0.00     0.053 C 
BRANCH   6   7
ATOM      7  C   UNL     1      26.598  30.436  25.189  1.00  0.00     0.041 C 
ATOM      8  O   UNL     1      25.451  30.305  24.686  1.00  0.00    -0.550 OA
ATOM      9  O   UNL     1      26.906  31.580  25.913  1.00  0.00    -0.550 OA
ENDBRANCH   6   7
ENDBRANCH   5   6
ENDBRANCH   4   5
ENDBRANCH   3   4
ENDBRANCH   2   3
ENDBRANCH   1   2
BRANCH   1  10
ATOM     10  C   UNL     1      23.739  24.631  21.116  1.00  0.00     0.000 C 
BRANCH  10  11
ATOM     11  C   UNL     1      23.954  23.522  22.159  1.00  0.00    -0.000 C 
BRANCH  11  12
ATOM     12  C   UNL     1      25.004  22.463  21.772  1.00  0.00    -0.000 C 
BRANCH  12  13
ATOM     13  C   UNL     1      26.344  22.611  22.527  1.00  0.00    -0.000 C 
BRANCH  13  14
ATOM     14  C   UNL     1      27.500  22.998  21.588  1.00  0.00    -0.000 C 
BRANCH  14  15
ATOM     15  C   UNL     1      27.034  23.216  20.140  1.00  0.00    -0.003 C 
ATOM     16  C   UNL     1      27.727  24.404  19.472  1.00  0.00     0.004 C 
ENDBRANCH  14  15
ENDBRANCH  13  14
ENDBRANCH  12  13
ENDBRANCH  11  12
ENDBRANCH  10  11
ENDBRANCH   1  10
TORSDOF 12
ENDMDL
MODEL 8
REMARK VINA RESULT:    -4.435     16.956     19.320
REMARK INTER + INTRA:          -8.234
REMARK INTER:                  -7.349
REMARK INTRA:                  -0.885
REMARK UNBOUND:                -0.689
REMARK SMILES CCCCCCCCCCCCCC(=O)[O-]
REMARK SMILES IDX 8 1 9 2 10 3 11 4 12 5 13 6 14 7 15 8 16 9 7 10 6 11 5 12
REMARK SMILES IDX 4 13 3 14 2 15 1 16
REMARK H PARENT
REMARK Flexibility Score: inf
ROOT
ATOM      1  C   UNL     1      26.951  25.925  23.613  1.00  0.00     0.000 C 
ENDROOT
BRANCH   1   2
ATOM      2  C   UNL     1      27.824  25.370  22.483  1.00  0.00     0.000 C 
BRANCH   2   3
ATOM      3  C   UNL     1      27.792  23.837  22.462  1.00  0.00     0.000 C 
BRANCH   3   4
ATOM      4  C   UNL     1      26.875  23.321  21.346  1.00  0.00     0.000 C 
BRANCH   4   5
ATOM      5  C   UNL     1      26.256  24.484  20.561  1.00  0.00     0.006 C 
BRANCH   5   6
ATOM      6  C   UNL     1      24.796  24.188  20.203  1.00  0.00     0.053 C 
BRANCH   6   7
ATOM      7  C   UNL     1      23.888  24.619  21.311  1.00  0.00     0.041 C 
ATOM      8  O   UNL     1      23.624  23.830  22.257  1.00  0.00    -0.550 OA
ATOM      9  O   UNL     1      23.294  25.873  21.275  1.00  0.00    -0.550 OA
ENDBRANCH   6   7
ENDBRANCH   5   6
ENDBRANCH   4   5
ENDBRANCH   3   4
ENDBRANCH   2   3
ENDBRANCH   1   2
BRANCH   1  10
ATOM     10  C   UNL     1      26.176  27.167  23.148  1.00  0.00     0.000 C 
BRANCH  10  11
ATOM     11  C   UNL     1      26.992  28.464  23.286  1.00  0.00    -0.000 C 
BRANCH  11  12
ATOM     12  C   UNL     1      27.787  28.593  24.599  1.00  0.00    -0.000 C 
BRANCH  12  13
ATOM     13  C   UNL     1      27.600  29.952  25.309  1.00  0.00    -0.000 C 
BRANCH  13  14
ATOM     14  C   UNL     1      26.254  30.612  24.958  1.00  0.00    -0.000 C 
BRANCH  14  15
ATOM     15  C   UNL     1      26.127  32.030  25.536  1.00  0.00    -0.003 C 
ATOM     16  C   UNL     1      27.269  32.381  26.489  1.00  0.00     0.004 C 
ENDBRANCH  14  15
ENDBRANCH  13  14
ENDBRANCH  12  13
ENDBRANCH  11  12
ENDBRANCH  10  11
ENDBRANCH   1  10
TORSDOF 12
ENDMDL
MODEL 9
REMARK VINA RESULT:    -4.400     16.833     18.590
REMARK INTER + INTRA:          -8.175
REMARK INTER:                  -7.186
REMARK INTRA:                  -0.989
REMARK UNBOUND:                -0.689
REMARK SMILES CCCCCCCCCCCCCC(=O)[O-]
REMARK SMILES IDX 8 1 9 2 10 3 11 4 12 5 13 6 14 7 15 8 16 9 7 10 6 11 5 12
REMARK SMILES IDX 4 13 3 14 2 15 1 16
REMARK H PARENT
REMARK Flexibility Score: inf
ROOT
ATOM      1  C   UNL     1      26.857  26.047  23.816  1.00  0.00     0.000 C 
ENDROOT
BRANCH   1   2
ATOM      2  C   UNL     1      27.295  26.918  22.635  1.00  0.00     0.000 C 
BRANCH   2   3
ATOM      3  C   UNL     1      27.729  28.311  23.107  1.00  0.00     0.000 C 
BRANCH   3   4
ATOM      4  C   UNL     1      26.899  28.766  24.315  1.00  0.00     0.000 C 
BRANCH   4   5
ATOM      5  C   UNL     1      27.495  30.030  24.946  1.00  0.00     0.006 C 
BRANCH   5   6
ATOM      6  C   UNL     1      26.402  31.061  25.245  1.00  0.00     0.053 C 
BRANCH   6   7
ATOM      7  C   UNL     1      27.008  32.333  25.750  1.00  0.00     0.041 C 
ATOM      8  O   UNL     1      26.760  32.732  26.918  1.00  0.00    -0.550 OA
ATOM      9  O   UNL     1      27.805  33.103  24.913  1.00  0.00    -0.550 OA
ENDBRANCH   6   7
ENDBRANCH   5   6
ENDBRANCH   4   5
ENDBRANCH   3   4
ENDBRANCH   2   3
ENDBRANCH   1   2
BRANCH   1  10
ATOM     10  C   UNL     1      27.698  24.764  23.894  1.00  0.00     0.000 C 
BRANCH  10  11
ATOM     11  C   UNL     1      26.886  23.498  23.571  1.00  0.00    -0.000 C 
BRANCH  11  12
ATOM     12  C   UNL     1      26.556  23.304  22.079  1.00  0.00    -0.000 C 
BRANCH  12  13
ATOM     13  C   UNL     1      25.193  22.622  21.827  1.00  0.00    -0.000 C 
BRANCH  13  14
ATOM     14  C   UNL     1      24.010  23.528  22.211  1.00  0.00    -0.000 C 
BRANCH  14  15
ATOM     15  C   UNL     1      23.644  24.522  21.097  1.00  0.00    -0.003 C 
ATOM     16  C   UNL     1      23.819  25.978  21.528  1.00  0.00     0.004 C 
ENDBRANCH  14  15
ENDBRANCH  13  14
ENDBRANCH  12  13
ENDBRANCH  11  12
ENDBRANCH  10  11
ENDBRANCH   1  10
TORSDOF 12
ENDMDL
