MODEL 1
REMARK VINA RESULT:    -4.373      0.000      0.000
REMARK INTER + INTRA:         -14.081
REMARK INTER:                  -9.996
REMARK INTRA:                  -4.085
REMARK UNBOUND:                -4.085
REMARK SMILES CCCCCCCCCCCCCCCCCCCCCCCC(=O)[O-]
REMARK SMILES IDX 13 1 14 2 15 3 16 4 17 5 18 6 19 7 20 8 21 9 22 10 23 11
REMARK SMILES IDX 24 12 25 13 26 14 12 15 11 16 10 17 9 18 8 19 7 20 6 21 5 22
REMARK SMILES IDX 4 23 3 24 2 25 1 26
REMARK H PARENT
REMARK Flexibility Score: inf
ROOT
ATOM      1  C   UNL     1     -23.911 -35.313 -12.622  1.00  0.00     0.000 C 
ENDROOT
BRANCH   1   2
ATOM      2  C   UNL     1     -22.500 -34.799 -12.944  1.00  0.00     0.000 C 
BRANCH   2   3
ATOM      3  C   UNL     1     -21.408 -35.506 -12.126  1.00  0.00     0.000 C 
BRANCH   3   4
ATOM      4  C   UNL     1     -20.039 -35.495 -12.822  1.00  0.00     0.000 C 
BRANCH   4   5
ATOM      5  C   UNL     1     -20.112 -34.748 -14.162  1.00  0.00     0.000 C 
BRANCH   5   6
ATOM      6  C   UNL     1     -19.265 -33.462 -14.179  1.00  0.00     0.000 C 
BRANCH   6   7
ATOM      7  C   UNL     1     -19.945 -32.242 -14.832  1.00  0.00     0.000 C 
BRANCH   7   8
ATOM      8  C   UNL     1     -21.176 -31.704 -14.080  1.00  0.00     0.000 C 
BRANCH   8   9
ATOM      9  C   UNL     1     -21.033 -30.224 -13.686  1.00  0.00     0.000 C 
BRANCH   9  10
ATOM     10  C   UNL     1     -21.007 -30.018 -12.163  1.00  0.00     0.006 C 
BRANCH  10  11
ATOM     11  C   UNL     1     -20.756 -31.323 -11.396  1.00  0.00     0.053 C 
BRANCH  11  12
ATOM     12  C   UNL     1     -20.705 -31.062  -9.924  1.00  0.00     0.041 C 
ATOM     13  O   UNL     1     -19.703 -31.421  -9.251  1.00  0.00    -0.550 OA
ATOM     14  O   UNL     1     -21.742 -30.379  -9.302  1.00  0.00    -0.550 OA
ENDBRANCH  11  12
ENDBRANCH  10  11
ENDBRANCH   9  10
ENDBRANCH   8   9
ENDBRANCH   7   8
ENDBRANCH   6   7
ENDBRANCH   5   6
ENDBRANCH   4   5
ENDBRANCH   3   4
ENDBRANCH   2   3
ENDBRANCH   1   2
BRANCH   1  15
ATOM     15  C   UNL     1     -24.721 -34.257 -11.861  1.00  0.00     0.000 C 
BRANCH  15  16
ATOM     16  C   UNL     1     -24.104 -32.861 -12.032  1.00  0.00     0.000 C 
BRANCH  16  17
ATOM     17  C   UNL     1     -24.489 -31.900 -10.895  1.00  0.00     0.000 C 
BRANCH  17  18
ATOM     18  C   UNL     1     -24.748 -30.466 -11.391  1.00  0.00    -0.000 C 
BRANCH  18  19
ATOM     19  C   UNL     1     -24.650 -30.345 -12.927  1.00  0.00    -0.000 C 
BRANCH  19  20
ATOM     20  C   UNL     1     -26.009 -30.146 -13.625  1.00  0.00    -0.000 C 
BRANCH  20  21
ATOM     21  C   UNL     1     -27.205 -29.948 -12.674  1.00  0.00    -0.000 C 
BRANCH  21  22
ATOM     22  C   UNL     1     -28.295 -31.034 -12.764  1.00  0.00    -0.000 C 
BRANCH  22  23
ATOM     23  C   UNL     1     -28.019 -32.306 -11.938  1.00  0.00    -0.000 C 
BRANCH  23  24
ATOM     24  C   UNL     1     -28.300 -33.634 -12.671  1.00  0.00    -0.000 C 
BRANCH  24  25
ATOM     25  C   UNL     1     -27.511 -33.832 -13.976  1.00  0.00    -0.003 C 
ATOM     26  C   UNL     1     -27.763 -35.192 -14.625  1.00  0.00     0.004 C 
ENDBRANCH  24  25
ENDBRANCH  23  24
ENDBRANCH  22  23
ENDBRANCH  21  22
ENDBRANCH  20  21
ENDBRANCH  19  20
ENDBRANCH  18  19
ENDBRANCH  17  18
ENDBRANCH  16  17
ENDBRANCH  15  16
ENDBRANCH   1  15
TORSDOF 22
ENDMDL
MODEL 2
REMARK VINA RESULT:    -4.341      1.245      6.390
REMARK INTER + INTRA:         -14.010
REMARK INTER:                 -11.043
REMARK INTRA:                  -2.967
REMARK UNBOUND:                -4.085
REMARK SMILES CCCCCCCCCCCCCCCCCCCCCCCC(=O)[O-]
REMARK SMILES IDX 13 1 14 2 15 3 16 4 17 5 18 6 19 7 20 8 21 9 22 10 23 11
REMARK SMILES IDX 24 12 25 13 26 14 12 15 11 16 10 17 9 18 8 19 7 20 6 21 5 22
REMARK SMILES IDX 4 23 3 24 2 25 1 26
REMARK H PARENT
REMARK Flexibility Score: inf
ROOT
ATOM      1  C   UNL     1     -27.526 -35.201 -13.373  1.00  0.00     0.000 C 
ENDROOT
BRANCH   1   2
ATOM      2  C   UNL     1     -27.840 -33.763 -13.815  1.00  0.00     0.000 C 
BRANCH   2   3
ATOM      3  C   UNL     1     -28.332 -32.880 -12.658  1.00  0.00     0.000 C 
BRANCH   3   4
ATOM      4  C   UNL     1     -28.176 -31.379 -12.946  1.00  0.00     0.000 C 
BRANCH   4   5
ATOM      5  C   UNL     1     -28.163 -30.569 -11.641  1.00  0.00     0.000 C 
BRANCH   5   6
ATOM      6  C   UNL     1     -26.751 -30.109 -11.234  1.00  0.00     0.000 C 
BRANCH   6   7
ATOM      7  C   UNL     1     -25.999 -31.069 -10.290  1.00  0.00     0.000 C 
BRANCH   7   8
ATOM      8  C   UNL     1     -25.165 -32.154 -10.996  1.00  0.00     0.000 C 
BRANCH   8   9
ATOM      9  C   UNL     1     -24.466 -31.635 -12.265  1.00  0.00     0.000 C 
BRANCH   9  10
ATOM     10  C   UNL     1     -23.196 -30.827 -11.951  1.00  0.00     0.006 C 
BRANCH  10  11
ATOM     11  C   UNL     1     -22.201 -31.609 -11.083  1.00  0.00     0.053 C 
BRANCH  11  12
ATOM     12  C   UNL     1     -21.849 -30.824  -9.858  1.00  0.00     0.041 C 
ATOM     13  O   UNL     1     -22.757 -30.334  -9.137  1.00  0.00    -0.550 OA
ATOM     14  O   UNL     1     -20.519 -30.676  -9.486  1.00  0.00    -0.550 OA
ENDBRANCH  11  12
ENDBRANCH  10  11
ENDBRANCH   9  10
ENDBRANCH   8   9
ENDBRANCH   7   8
ENDBRANCH   6   7
ENDBRANCH   5   6
ENDBRANCH   4   5
ENDBRANCH   3   4
ENDBRANCH   2   3
ENDBRANCH   1   2
BRANCH   1  15
ATOM     15  C   UNL     1     -26.042 -35.527 -13.574  1.00  0.00     0.000 C 
BRANCH  15  16
ATOM     16  C   UNL     1     -25.271 -35.424 -12.249  1.00  0.00     0.000 C 
BRANCH  16  17
ATOM     17  C   UNL     1     -23.816 -35.906 -12.372  1.00  0.00     0.000 C 
BRANCH  17  18
ATOM     18  C   UNL     1     -22.851 -34.782 -12.788  1.00  0.00    -0.000 C 
BRANCH  18  19
ATOM     19  C   UNL     1     -21.392 -35.072 -12.373  1.00  0.00    -0.000 C 
BRANCH  19  20
ATOM     20  C   UNL     1     -20.467 -35.426 -13.553  1.00  0.00    -0.000 C 
BRANCH  20  21
ATOM     21  C   UNL     1     -19.225 -34.527 -13.698  1.00  0.00    -0.000 C 
BRANCH  21  22
ATOM     22  C   UNL     1     -19.486 -33.156 -14.354  1.00  0.00    -0.000 C 
BRANCH  22  23
ATOM     23  C   UNL     1     -20.725 -33.095 -15.269  1.00  0.00    -0.000 C 
BRANCH  23  24
ATOM     24  C   UNL     1     -20.713 -31.956 -16.309  1.00  0.00    -0.000 C 
BRANCH  24  25
ATOM     25  C   UNL     1     -20.263 -30.589 -15.767  1.00  0.00    -0.003 C 
ATOM     26  C   UNL     1     -21.267 -29.974 -14.794  1.00  0.00     0.004 C 
ENDBRANCH  24  25
ENDBRANCH  23  24
ENDBRANCH  22  23
ENDBRANCH  21  22
ENDBRANCH  20  21
ENDBRANCH  19  20
ENDBRANCH  18  19
ENDBRANCH  17  18
ENDBRANCH  16  17
ENDBRANCH  15  16
ENDBRANCH   1  15
TORSDOF 22
ENDMDL
MODEL 3
REMARK VINA RESULT:    -4.095      2.361      7.278
REMARK INTER + INTRA:         -13.447
REMARK INTER:                  -9.968
REMARK INTRA:                  -3.479
REMARK UNBOUND:                -4.085
REMARK SMILES CCCCCCCCCCCCCCCCCCCCCCCC(=O)[O-]
REMARK SMILES IDX 13 1 14 2 15 3 16 4 17 5 18 6 19 7 20 8 21 9 22 10 23 11
REMARK SMILES IDX 24 12 25 13 26 14 12 15 11 16 10 17 9 18 8 19 7 20 6 21 5 22
REMARK SMILES IDX 4 23 3 24 2 25 1 26
REMARK H PARENT
REMARK Flexibility Score: inf
ROOT
ATOM      1  C   UNL     1     -22.475 -31.843 -12.414  1.00  0.00     0.000 C 
ENDROOT
BRANCH   1   2
ATOM      2  C   UNL     1     -23.926 -31.349 -12.302  1.00  0.00     0.000 C 
BRANCH   2   3
ATOM      3  C   UNL     1     -24.592 -31.753 -10.977  1.00  0.00     0.000 C 
BRANCH   3   4
ATOM      4  C   UNL     1     -25.198 -30.559 -10.226  1.00  0.00     0.000 C 
BRANCH   4   5
ATOM      5  C   UNL     1     -26.389 -29.972 -10.997  1.00  0.00     0.000 C 
BRANCH   5   6
ATOM      6  C   UNL     1     -27.529 -30.986 -11.202  1.00  0.00     0.000 C 
BRANCH   6   7
ATOM      7  C   UNL     1     -28.054 -31.095 -12.648  1.00  0.00     0.000 C 
BRANCH   7   8
ATOM      8  C   UNL     1     -28.480 -32.510 -13.079  1.00  0.00     0.000 C 
BRANCH   8   9
ATOM      9  C   UNL     1     -27.311 -33.341 -13.634  1.00  0.00     0.000 C 
BRANCH   9  10
ATOM     10  C   UNL     1     -27.228 -34.741 -13.004  1.00  0.00     0.006 C 
BRANCH  10  11
ATOM     11  C   UNL     1     -26.093 -34.859 -11.979  1.00  0.00     0.053 C 
BRANCH  11  12
ATOM     12  C   UNL     1     -24.884 -35.477 -12.608  1.00  0.00     0.041 C 
ATOM     13  O   UNL     1     -23.754 -34.937 -12.476  1.00  0.00    -0.550 OA
ATOM     14  O   UNL     1     -24.997 -36.677 -13.298  1.00  0.00    -0.550 OA
ENDBRANCH  11  12
ENDBRANCH  10  11
ENDBRANCH   9  10
ENDBRANCH   8   9
ENDBRANCH   7   8
ENDBRANCH   6   7
ENDBRANCH   5   6
ENDBRANCH   4   5
ENDBRANCH   3   4
ENDBRANCH   2   3
ENDBRANCH   1   2
BRANCH   1  15
ATOM     15  C   UNL     1     -21.488 -30.671 -12.351  1.00  0.00     0.000 C 
BRANCH  15  16
ATOM     16  C   UNL     1     -20.201 -31.075 -11.615  1.00  0.00     0.000 C 
BRANCH  16  17
ATOM     17  C   UNL     1     -20.385 -32.329 -10.745  1.00  0.00     0.000 C 
BRANCH  17  18
ATOM     18  C   UNL     1     -19.350 -33.425 -11.056  1.00  0.00    -0.000 C 
BRANCH  18  19
ATOM     19  C   UNL     1     -19.970 -34.839 -11.059  1.00  0.00    -0.000 C 
BRANCH  19  20
ATOM     20  C   UNL     1     -19.453 -35.744 -12.193  1.00  0.00    -0.000 C 
BRANCH  20  21
ATOM     21  C   UNL     1     -19.349 -35.064 -13.572  1.00  0.00    -0.000 C 
BRANCH  21  22
ATOM     22  C   UNL     1     -20.673 -34.491 -14.116  1.00  0.00    -0.000 C 
BRANCH  22  23
ATOM     23  C   UNL     1     -20.518 -33.351 -15.142  1.00  0.00    -0.000 C 
BRANCH  23  24
ATOM     24  C   UNL     1     -19.282 -32.451 -14.937  1.00  0.00    -0.000 C 
BRANCH  24  25
ATOM     25  C   UNL     1     -19.482 -30.977 -15.328  1.00  0.00    -0.003 C 
ATOM     26  C   UNL     1     -20.715 -30.755 -16.203  1.00  0.00     0.004 C 
ENDBRANCH  24  25
ENDBRANCH  23  24
ENDBRANCH  22  23
ENDBRANCH  21  22
ENDBRANCH  20  21
ENDBRANCH  19  20
ENDBRANCH  18  19
ENDBRANCH  17  18
ENDBRANCH  16  17
ENDBRANCH  15  16
ENDBRANCH   1  15
TORSDOF 22
ENDMDL
MODEL 4
REMARK VINA RESULT:    -4.065      1.782      4.321
REMARK INTER + INTRA:         -13.377
REMARK INTER:                 -10.317
REMARK INTRA:                  -3.060
REMARK UNBOUND:                -4.085
REMARK SMILES CCCCCCCCCCCCCCCCCCCCCCCC(=O)[O-]
REMARK SMILES IDX 13 1 14 2 15 3 16 4 17 5 18 6 19 7 20 8 21 9 22 10 23 11
REMARK SMILES IDX 24 12 25 13 26 14 12 15 11 16 10 17 9 18 8 19 7 20 6 21 5 22
REMARK SMILES IDX 4 23 3 24 2 25 1 26
REMARK H PARENT
REMARK Flexibility Score: inf
ROOT
ATOM      1  C   UNL     1     -24.483 -30.166 -10.771  1.00  0.00     0.000 C 
ENDROOT
BRANCH   1   2
ATOM      2  C   UNL     1     -23.103 -30.173 -10.097  1.00  0.00     0.000 C 
BRANCH   2   3
ATOM      3  C   UNL     1     -21.999 -30.734 -11.007  1.00  0.00     0.000 C 
BRANCH   3   4
ATOM      4  C   UNL     1     -22.247 -30.442 -12.494  1.00  0.00     0.000 C 
BRANCH   4   5
ATOM      5  C   UNL     1     -20.959 -30.624 -13.311  1.00  0.00     0.000 C 
BRANCH   5   6
ATOM      6  C   UNL     1     -21.220 -31.162 -14.730  1.00  0.00     0.000 C 
BRANCH   6   7
ATOM      7  C   UNL     1     -20.276 -32.295 -15.182  1.00  0.00     0.000 C 
BRANCH   7   8
ATOM      8  C   UNL     1     -20.667 -33.701 -14.690  1.00  0.00     0.000 C 
BRANCH   8   9
ATOM      9  C   UNL     1     -19.814 -34.173 -13.501  1.00  0.00     0.000 C 
BRANCH   9  10
ATOM     10  C   UNL     1     -20.327 -35.488 -12.890  1.00  0.00     0.006 C 
BRANCH  10  11
ATOM     11  C   UNL     1     -19.227 -36.262 -12.151  1.00  0.00     0.053 C 
BRANCH  11  12
ATOM     12  C   UNL     1     -19.173 -35.847 -10.714  1.00  0.00     0.041 C 
ATOM     13  O   UNL     1     -19.305 -34.635 -10.399  1.00  0.00    -0.550 OA
ATOM     14  O   UNL     1     -19.025 -36.805  -9.720  1.00  0.00    -0.550 OA
ENDBRANCH  11  12
ENDBRANCH  10  11
ENDBRANCH   9  10
ENDBRANCH   8   9
ENDBRANCH   7   8
ENDBRANCH   6   7
ENDBRANCH   5   6
ENDBRANCH   4   5
ENDBRANCH   3   4
ENDBRANCH   2   3
ENDBRANCH   1   2
BRANCH   1  15
ATOM     15  C   UNL     1     -25.374 -31.282 -10.214  1.00  0.00     0.000 C 
BRANCH  15  16
ATOM     16  C   UNL     1     -26.843 -31.062 -10.608  1.00  0.00     0.000 C 
BRANCH  16  17
ATOM     17  C   UNL     1     -26.995 -30.186 -11.862  1.00  0.00     0.000 C 
BRANCH  17  18
ATOM     18  C   UNL     1     -27.691 -30.923 -13.020  1.00  0.00    -0.000 C 
BRANCH  18  19
ATOM     19  C   UNL     1     -26.998 -32.257 -13.374  1.00  0.00    -0.000 C 
BRANCH  19  20
ATOM     20  C   UNL     1     -27.975 -33.382 -13.764  1.00  0.00    -0.000 C 
BRANCH  20  21
ATOM     21  C   UNL     1     -27.679 -34.751 -13.124  1.00  0.00    -0.000 C 
BRANCH  21  22
ATOM     22  C   UNL     1     -27.448 -34.722 -11.600  1.00  0.00    -0.000 C 
BRANCH  22  23
ATOM     23  C   UNL     1     -25.970 -34.734 -11.163  1.00  0.00    -0.000 C 
BRANCH  23  24
ATOM     24  C   UNL     1     -25.088 -35.785 -11.868  1.00  0.00    -0.000 C 
BRANCH  24  25
ATOM     25  C   UNL     1     -23.925 -35.207 -12.692  1.00  0.00    -0.003 C 
ATOM     26  C   UNL     1     -23.658 -33.733 -12.392  1.00  0.00     0.004 C 
ENDBRANCH  24  25
ENDBRANCH  23  24
ENDBRANCH  22  23
ENDBRANCH  21  22
ENDBRANCH  20  21
ENDBRANCH  19  20
ENDBRANCH  18  19
ENDBRANCH  17  18
ENDBRANCH  16  17
ENDBRANCH  15  16
ENDBRANCH   1  15
TORSDOF 22
ENDMDL
MODEL 5
REMARK VINA RESULT:    -4.036      2.462      5.383
REMARK INTER + INTRA:         -13.312
REMARK INTER:                 -10.062
REMARK INTRA:                  -3.250
REMARK UNBOUND:                -4.085
REMARK SMILES CCCCCCCCCCCCCCCCCCCCCCCC(=O)[O-]
REMARK SMILES IDX 13 1 14 2 15 3 16 4 17 5 18 6 19 7 20 8 21 9 22 10 23 11
REMARK SMILES IDX 24 12 25 13 26 14 12 15 11 16 10 17 9 18 8 19 7 20 6 21 5 22
REMARK SMILES IDX 4 23 3 24 2 25 1 26
REMARK H PARENT
REMARK Flexibility Score: inf
ROOT
ATOM      1  C   UNL     1     -27.610 -34.712 -13.128  1.00  0.00     0.000 C 
ENDROOT
BRANCH   1   2
ATOM      2  C   UNL     1     -27.357 -34.546 -11.622  1.00  0.00     0.000 C 
BRANCH   2   3
ATOM      3  C   UNL     1     -25.911 -34.878 -11.221  1.00  0.00     0.000 C 
BRANCH   3   4
ATOM      4  C   UNL     1     -24.883 -34.424 -12.268  1.00  0.00     0.000 C 
BRANCH   4   5
ATOM      5  C   UNL     1     -23.959 -35.583 -12.669  1.00  0.00     0.000 C 
BRANCH   5   6
ATOM      6  C   UNL     1     -22.472 -35.283 -12.407  1.00  0.00     0.000 C 
BRANCH   6   7
ATOM      7  C   UNL     1     -21.818 -34.303 -13.402  1.00  0.00     0.000 C 
BRANCH   7   8
ATOM      8  C   UNL     1     -20.471 -34.771 -13.983  1.00  0.00     0.000 C 
BRANCH   8   9
ATOM      9  C   UNL     1     -19.612 -33.606 -14.504  1.00  0.00     0.000 C 
BRANCH   9  10
ATOM     10  C   UNL     1     -20.423 -32.316 -14.702  1.00  0.00     0.006 C 
BRANCH  10  11
ATOM     11  C   UNL     1     -20.749 -32.047 -16.178  1.00  0.00     0.053 C 
BRANCH  11  12
ATOM     12  C   UNL     1     -20.187 -30.728 -16.605  1.00  0.00     0.041 C 
ATOM     13  O   UNL     1     -20.764 -30.052 -17.497  1.00  0.00    -0.550 OA
ATOM     14  O   UNL     1     -19.053 -30.222 -15.984  1.00  0.00    -0.550 OA
ENDBRANCH  11  12
ENDBRANCH  10  11
ENDBRANCH   9  10
ENDBRANCH   8   9
ENDBRANCH   7   8
ENDBRANCH   6   7
ENDBRANCH   5   6
ENDBRANCH   4   5
ENDBRANCH   3   4
ENDBRANCH   2   3
ENDBRANCH   1   2
BRANCH   1  15
ATOM     15  C   UNL     1     -27.867 -33.357 -13.797  1.00  0.00     0.000 C 
BRANCH  15  16
ATOM     16  C   UNL     1     -28.551 -32.384 -12.824  1.00  0.00     0.000 C 
BRANCH  16  17
ATOM     17  C   UNL     1     -27.776 -31.066 -12.663  1.00  0.00     0.000 C 
BRANCH  17  18
ATOM     18  C   UNL     1     -26.351 -31.140 -13.238  1.00  0.00    -0.000 C 
BRANCH  18  19
ATOM     19  C   UNL     1     -25.303 -30.491 -12.308  1.00  0.00    -0.000 C 
BRANCH  19  20
ATOM     20  C   UNL     1     -25.170 -31.186 -10.939  1.00  0.00    -0.000 C 
BRANCH  20  21
ATOM     21  C   UNL     1     -24.120 -30.568  -9.996  1.00  0.00    -0.000 C 
BRANCH  21  22
ATOM     22  C   UNL     1     -22.709 -30.420 -10.601  1.00  0.00    -0.000 C 
BRANCH  22  23
ATOM     23  C   UNL     1     -21.940 -31.741 -10.799  1.00  0.00    -0.000 C 
BRANCH  23  24
ATOM     24  C   UNL     1     -20.460 -31.581 -11.203  1.00  0.00    -0.000 C 
BRANCH  24  25
ATOM     25  C   UNL     1     -19.460 -32.330 -10.306  1.00  0.00    -0.003 C 
ATOM     26  C   UNL     1     -19.263 -33.787 -10.720  1.00  0.00     0.004 C 
ENDBRANCH  24  25
ENDBRANCH  23  24
ENDBRANCH  22  23
ENDBRANCH  21  22
ENDBRANCH  20  21
ENDBRANCH  19  20
ENDBRANCH  18  19
ENDBRANCH  17  18
ENDBRANCH  16  17
ENDBRANCH  15  16
ENDBRANCH   1  15
TORSDOF 22
ENDMDL
MODEL 6
REMARK VINA RESULT:    -3.931      2.458      7.340
REMARK INTER + INTRA:         -13.071
REMARK INTER:                 -10.416
REMARK INTRA:                  -2.655
REMARK UNBOUND:                -4.085
REMARK SMILES CCCCCCCCCCCCCCCCCCCCCCCC(=O)[O-]
REMARK SMILES IDX 13 1 14 2 15 3 16 4 17 5 18 6 19 7 20 8 21 9 22 10 23 11
REMARK SMILES IDX 24 12 25 13 26 14 12 15 11 16 10 17 9 18 8 19 7 20 6 21 5 22
REMARK SMILES IDX 4 23 3 24 2 25 1 26
REMARK H PARENT
REMARK Flexibility Score: inf
ROOT
ATOM      1  C   UNL     1     -23.721 -31.910 -11.979  1.00  0.00     0.000 C 
ENDROOT
BRANCH   1   2
ATOM      2  C   UNL     1     -23.859 -30.440 -11.554  1.00  0.00     0.000 C 
BRANCH   2   3
ATOM      3  C   UNL     1     -24.767 -30.258 -10.327  1.00  0.00     0.000 C 
BRANCH   3   4
ATOM      4  C   UNL     1     -26.121 -30.967 -10.477  1.00  0.00     0.000 C 
BRANCH   4   5
ATOM      5  C   UNL     1     -27.149 -30.048 -11.154  1.00  0.00     0.000 C 
BRANCH   5   6
ATOM      6  C   UNL     1     -27.286 -30.311 -12.664  1.00  0.00     0.000 C 
BRANCH   6   7
ATOM      7  C   UNL     1     -28.391 -31.313 -13.056  1.00  0.00     0.000 C 
BRANCH   7   8
ATOM      8  C   UNL     1     -27.913 -32.765 -13.244  1.00  0.00     0.000 C 
BRANCH   8   9
ATOM      9  C   UNL     1     -28.534 -33.733 -12.223  1.00  0.00     0.000 C 
BRANCH   9  10
ATOM     10  C   UNL     1     -27.547 -34.816 -11.759  1.00  0.00     0.006 C 
BRANCH  10  11
ATOM     11  C   UNL     1     -26.086 -34.354 -11.839  1.00  0.00     0.053 C 
BRANCH  11  12
ATOM     12  C   UNL     1     -25.290 -35.287 -12.695  1.00  0.00     0.041 C 
ATOM     13  O   UNL     1     -25.846 -35.919 -13.632  1.00  0.00    -0.550 OA
ATOM     14  O   UNL     1     -23.923 -35.424 -12.490  1.00  0.00    -0.550 OA
ENDBRANCH  11  12
ENDBRANCH  10  11
ENDBRANCH   9  10
ENDBRANCH   8   9
ENDBRANCH   7   8
ENDBRANCH   6   7
ENDBRANCH   5   6
ENDBRANCH   4   5
ENDBRANCH   3   4
ENDBRANCH   2   3
ENDBRANCH   1   2
BRANCH   1  15
ATOM     15  C   UNL     1     -22.250 -32.343 -11.993  1.00  0.00     0.000 C 
BRANCH  15  16
ATOM     16  C   UNL     1     -21.449 -31.606 -10.909  1.00  0.00     0.000 C 
BRANCH  16  17
ATOM     17  C   UNL     1     -20.120 -31.041 -11.437  1.00  0.00     0.000 C 
BRANCH  17  18
ATOM     18  C   UNL     1     -19.469 -31.946 -12.498  1.00  0.00    -0.000 C 
BRANCH  18  19
ATOM     19  C   UNL     1     -19.902 -31.580 -13.933  1.00  0.00    -0.000 C 
BRANCH  19  20
ATOM     20  C   UNL     1     -19.768 -32.739 -14.939  1.00  0.00    -0.000 C 
BRANCH  20  21
ATOM     21  C   UNL     1     -19.231 -34.055 -14.347  1.00  0.00    -0.000 C 
BRANCH  21  22
ATOM     22  C   UNL     1     -20.313 -35.034 -13.847  1.00  0.00    -0.000 C 
BRANCH  22  23
ATOM     23  C   UNL     1     -19.877 -35.953 -12.688  1.00  0.00    -0.000 C 
BRANCH  23  24
ATOM     24  C   UNL     1     -20.320 -35.489 -11.285  1.00  0.00    -0.000 C 
BRANCH  24  25
ATOM     25  C   UNL     1     -19.220 -35.535 -10.212  1.00  0.00    -0.003 C 
ATOM     26  C   UNL     1     -19.557 -36.470  -9.052  1.00  0.00     0.004 C 
ENDBRANCH  24  25
ENDBRANCH  23  24
ENDBRANCH  22  23
ENDBRANCH  21  22
ENDBRANCH  20  21
ENDBRANCH  19  20
ENDBRANCH  18  19
ENDBRANCH  17  18
ENDBRANCH  16  17
ENDBRANCH  15  16
ENDBRANCH   1  15
TORSDOF 22
ENDMDL
MODEL 7
REMARK VINA RESULT:    -3.896      2.586      4.243
REMARK INTER + INTRA:         -12.992
REMARK INTER:                  -9.379
REMARK INTRA:                  -3.614
REMARK UNBOUND:                -4.085
REMARK SMILES CCCCCCCCCCCCCCCCCCCCCCCC(=O)[O-]
REMARK SMILES IDX 13 1 14 2 15 3 16 4 17 5 18 6 19 7 20 8 21 9 22 10 23 11
REMARK SMILES IDX 24 12 25 13 26 14 12 15 11 16 10 17 9 18 8 19 7 20 6 21 5 22
REMARK SMILES IDX 4 23 3 24 2 25 1 26
REMARK H PARENT
REMARK Flexibility Score: inf
ROOT
ATOM      1  C   UNL     1     -23.626 -29.883 -12.833  1.00  0.00     0.000 C 
ENDROOT
BRANCH   1   2
ATOM      2  C   UNL     1     -22.214 -30.306 -13.266  1.00  0.00     0.000 C 
BRANCH   2   3
ATOM      3  C   UNL     1     -21.150 -30.016 -12.196  1.00  0.00     0.000 C 
BRANCH   3   4
ATOM      4  C   UNL     1     -20.292 -31.244 -11.860  1.00  0.00     0.000 C 
BRANCH   4   5
ATOM      5  C   UNL     1     -21.124 -32.315 -11.140  1.00  0.00     0.000 C 
BRANCH   5   6
ATOM      6  C   UNL     1     -21.371 -33.565 -12.005  1.00  0.00     0.000 C 
BRANCH   6   7
ATOM      7  C   UNL     1     -20.299 -33.837 -13.080  1.00  0.00     0.000 C 
BRANCH   7   8
ATOM      8  C   UNL     1     -20.840 -33.975 -14.515  1.00  0.00     0.000 C 
BRANCH   8   9
ATOM      9  C   UNL     1     -20.536 -32.744 -15.386  1.00  0.00     0.000 C 
BRANCH   9  10
ATOM     10  C   UNL     1     -19.144 -32.154 -15.110  1.00  0.00     0.006 C 
BRANCH  10  11
ATOM     11  C   UNL     1     -19.029 -30.687 -15.545  1.00  0.00     0.053 C 
BRANCH  11  12
ATOM     12  C   UNL     1     -19.894 -30.427 -16.739  1.00  0.00     0.041 C 
ATOM     13  O   UNL     1     -21.020 -29.882 -16.598  1.00  0.00    -0.550 OA
ATOM     14  O   UNL     1     -19.437 -30.744 -18.011  1.00  0.00    -0.550 OA
ENDBRANCH  11  12
ENDBRANCH  10  11
ENDBRANCH   9  10
ENDBRANCH   8   9
ENDBRANCH   7   8
ENDBRANCH   6   7
ENDBRANCH   5   6
ENDBRANCH   4   5
ENDBRANCH   3   4
ENDBRANCH   2   3
ENDBRANCH   1   2
BRANCH   1  15
ATOM     15  C   UNL     1     -24.450 -31.094 -12.383  1.00  0.00     0.000 C 
BRANCH  15  16
ATOM     16  C   UNL     1     -24.568 -31.143 -10.851  1.00  0.00     0.000 C 
BRANCH  16  17
ATOM     17  C   UNL     1     -26.018 -30.990 -10.364  1.00  0.00     0.000 C 
BRANCH  17  18
ATOM     18  C   UNL     1     -26.853 -30.064 -11.266  1.00  0.00    -0.000 C 
BRANCH  18  19
ATOM     19  C   UNL     1     -28.184 -30.711 -11.706  1.00  0.00    -0.000 C 
BRANCH  19  20
ATOM     20  C   UNL     1     -28.136 -31.342 -13.110  1.00  0.00    -0.000 C 
BRANCH  20  21
ATOM     21  C   UNL     1     -27.752 -32.834 -13.140  1.00  0.00    -0.000 C 
BRANCH  21  22
ATOM     22  C   UNL     1     -28.250 -33.659 -11.937  1.00  0.00    -0.000 C 
BRANCH  22  23
ATOM     23  C   UNL     1     -27.302 -34.784 -11.478  1.00  0.00    -0.000 C 
BRANCH  23  24
ATOM     24  C   UNL     1     -25.809 -34.397 -11.422  1.00  0.00    -0.000 C 
BRANCH  24  25
ATOM     25  C   UNL     1     -24.837 -35.504 -11.861  1.00  0.00    -0.003 C 
ATOM     26  C   UNL     1     -25.164 -36.071 -13.242  1.00  0.00     0.004 C 
ENDBRANCH  24  25
ENDBRANCH  23  24
ENDBRANCH  22  23
ENDBRANCH  21  22
ENDBRANCH  20  21
ENDBRANCH  19  20
ENDBRANCH  18  19
ENDBRANCH  17  18
ENDBRANCH  16  17
ENDBRANCH  15  16
ENDBRANCH   1  15
TORSDOF 22
ENDMDL
MODEL 8
REMARK VINA RESULT:    -3.807      1.392      3.247
REMARK INTER + INTRA:         -12.788
REMARK INTER:                  -8.972
REMARK INTRA:                  -3.816
REMARK UNBOUND:                -4.085
REMARK SMILES CCCCCCCCCCCCCCCCCCCCCCCC(=O)[O-]
REMARK SMILES IDX 13 1 14 2 15 3 16 4 17 5 18 6 19 7 20 8 21 9 22 10 23 11
REMARK SMILES IDX 24 12 25 13 26 14 12 15 11 16 10 17 9 18 8 19 7 20 6 21 5 22
REMARK SMILES IDX 4 23 3 24 2 25 1 26
REMARK H PARENT
REMARK Flexibility Score: inf
ROOT
ATOM      1  C   UNL     1     -21.269 -30.528 -14.375  1.00  0.00     0.000 C 
ENDROOT
BRANCH   1   2
ATOM      2  C   UNL     1     -19.833 -30.984 -14.073  1.00  0.00     0.000 C 
BRANCH   2   3
ATOM      3  C   UNL     1     -19.506 -32.359 -14.676  1.00  0.00     0.000 C 
BRANCH   3   4
ATOM      4  C   UNL     1     -20.753 -33.232 -14.880  1.00  0.00     0.000 C 
BRANCH   4   5
ATOM      5  C   UNL     1     -20.670 -34.514 -14.039  1.00  0.00     0.000 C 
BRANCH   5   6
ATOM      6  C   UNL     1     -19.312 -34.680 -13.332  1.00  0.00     0.000 C 
BRANCH   6   7
ATOM      7  C   UNL     1     -19.373 -34.665 -11.791  1.00  0.00     0.000 C 
BRANCH   7   8
ATOM      8  C   UNL     1     -20.208 -33.522 -11.185  1.00  0.00     0.000 C 
BRANCH   8   9
ATOM      9  C   UNL     1     -19.338 -32.392 -10.608  1.00  0.00     0.000 C 
BRANCH   9  10
ATOM     10  C   UNL     1     -20.143 -31.115 -10.318  1.00  0.00     0.006 C 
BRANCH  10  11
ATOM     11  C   UNL     1     -20.154 -30.752  -8.827  1.00  0.00     0.053 C 
BRANCH  11  12
ATOM     12  C   UNL     1     -21.553 -30.490  -8.364  1.00  0.00     0.041 C 
ATOM     13  O   UNL     1     -22.474 -30.306  -9.203  1.00  0.00    -0.550 OA
ATOM     14  O   UNL     1     -21.848 -30.496  -7.007  1.00  0.00    -0.550 OA
ENDBRANCH  11  12
ENDBRANCH  10  11
ENDBRANCH   9  10
ENDBRANCH   8   9
ENDBRANCH   7   8
ENDBRANCH   6   7
ENDBRANCH   5   6
ENDBRANCH   4   5
ENDBRANCH   3   4
ENDBRANCH   2   3
ENDBRANCH   1   2
BRANCH   1  15
ATOM     15  C   UNL     1     -21.919 -29.898 -13.138  1.00  0.00     0.000 C 
BRANCH  15  16
ATOM     16  C   UNL     1     -23.303 -30.509 -12.872  1.00  0.00     0.000 C 
BRANCH  16  17
ATOM     17  C   UNL     1     -23.222 -31.927 -12.284  1.00  0.00     0.000 C 
BRANCH  17  18
ATOM     18  C   UNL     1     -24.445 -32.283 -11.421  1.00  0.00    -0.000 C 
BRANCH  18  19
ATOM     19  C   UNL     1     -25.413 -31.094 -11.248  1.00  0.00    -0.000 C 
BRANCH  19  20
ATOM     20  C   UNL     1     -26.733 -31.245 -12.028  1.00  0.00    -0.000 C 
BRANCH  20  21
ATOM     21  C   UNL     1     -26.791 -32.457 -12.978  1.00  0.00    -0.000 C 
BRANCH  21  22
ATOM     22  C   UNL     1     -27.958 -33.431 -12.720  1.00  0.00    -0.000 C 
BRANCH  22  23
ATOM     23  C   UNL     1     -27.600 -34.926 -12.839  1.00  0.00    -0.000 C 
BRANCH  23  24
ATOM     24  C   UNL     1     -26.188 -35.217 -13.386  1.00  0.00    -0.000 C 
BRANCH  24  25
ATOM     25  C   UNL     1     -25.243 -35.918 -12.395  1.00  0.00    -0.003 C 
ATOM     26  C   UNL     1     -23.774 -35.559 -12.617  1.00  0.00     0.004 C 
ENDBRANCH  24  25
ENDBRANCH  23  24
ENDBRANCH  22  23
ENDBRANCH  21  22
ENDBRANCH  20  21
ENDBRANCH  19  20
ENDBRANCH  18  19
ENDBRANCH  17  18
ENDBRANCH  16  17
ENDBRANCH  15  16
ENDBRANCH   1  15
TORSDOF 22
ENDMDL
