MODEL 1
REMARK VINA RESULT:    -6.374      0.000      0.000
REMARK INTER + INTRA:         -16.334
REMARK INTER:                 -14.571
REMARK INTRA:                  -1.763
REMARK UNBOUND:                -1.763
REMARK SMILES CCCCCCCCCCCCCCCCCCCCCCCC(=O)[O-]
REMARK SMILES IDX 13 1 14 2 15 3 16 4 17 5 18 6 19 7 20 8 21 9 22 10 23 11
REMARK SMILES IDX 24 12 25 13 26 14 12 15 11 16 10 17 9 18 8 19 7 20 6 21 5 22
REMARK SMILES IDX 4 23 3 24 2 25 1 26
REMARK H PARENT
REMARK Flexibility Score: inf
ROOT
ATOM      1  C   UNL     1      88.945 325.806 199.279  1.00  0.00     0.000 C 
ENDROOT
BRANCH   1   2
ATOM      2  C   UNL     1      88.852 326.714 198.040  1.00  0.00     0.000 C 
BRANCH   2   3
ATOM      3  C   UNL     1      88.155 326.038 196.852  1.00  0.00     0.000 C 
BRANCH   3   4
ATOM      4  C   UNL     1      88.739 326.512 195.511  1.00  0.00     0.000 C 
BRANCH   4   5
ATOM      5  C   UNL     1      87.640 326.818 194.471  1.00  0.00     0.000 C 
BRANCH   5   6
ATOM      6  C   UNL     1      86.338 326.030 194.698  1.00  0.00     0.000 C 
BRANCH   6   7
ATOM      7  C   UNL     1      86.031 325.042 193.562  1.00  0.00     0.000 C 
BRANCH   7   8
ATOM      8  C   UNL     1      86.781 323.709 193.716  1.00  0.00     0.000 C 
BRANCH   8   9
ATOM      9  C   UNL     1      88.102 323.653 192.920  1.00  0.00     0.000 C 
BRANCH   9  10
ATOM     10  C   UNL     1      87.958 324.261 191.515  1.00  0.00     0.006 C 
BRANCH  10  11
ATOM     11  C   UNL     1      88.467 323.316 190.418  1.00  0.00     0.053 C 
BRANCH  11  12
ATOM     12  C   UNL     1      87.449 322.280 190.056  1.00  0.00     0.041 C 
ATOM     13  O   UNL     1      86.905 322.298 188.920  1.00  0.00    -0.550 OA
ATOM     14  O   UNL     1      87.112 321.285 190.965  1.00  0.00    -0.550 OA
ENDBRANCH  11  12
ENDBRANCH  10  11
ENDBRANCH   9  10
ENDBRANCH   8   9
ENDBRANCH   7   8
ENDBRANCH   6   7
ENDBRANCH   5   6
ENDBRANCH   4   5
ENDBRANCH   3   4
ENDBRANCH   2   3
ENDBRANCH   1   2
BRANCH   1  15
ATOM     15  C   UNL     1      89.707 326.435 200.461  1.00  0.00     0.000 C 
BRANCH  15  16
ATOM     16  C   UNL     1      88.877 326.443 201.759  1.00  0.00     0.000 C 
BRANCH  16  17
ATOM     17  C   UNL     1      89.741 326.661 203.016  1.00  0.00     0.000 C 
BRANCH  17  18
ATOM     18  C   UNL     1      89.015 327.391 204.159  1.00  0.00    -0.000 C 
BRANCH  18  19
ATOM     19  C   UNL     1      89.704 327.216 205.521  1.00  0.00    -0.000 C 
BRANCH  19  20
ATOM     20  C   UNL     1      88.782 326.494 206.517  1.00  0.00    -0.000 C 
BRANCH  20  21
ATOM     21  C   UNL     1      88.405 325.072 206.064  1.00  0.00    -0.000 C 
BRANCH  21  22
ATOM     22  C   UNL     1      86.890 324.798 205.952  1.00  0.00    -0.000 C 
BRANCH  22  23
ATOM     23  C   UNL     1      86.502 323.613 205.050  1.00  0.00    -0.000 C 
BRANCH  23  24
ATOM     24  C   UNL     1      87.290 323.582 203.728  1.00  0.00    -0.000 C 
BRANCH  24  25
ATOM     25  C   UNL     1      86.382 323.732 202.497  1.00  0.00    -0.003 C 
ATOM     26  C   UNL     1      86.214 322.428 201.715  1.00  0.00     0.004 C 
ENDBRANCH  24  25
ENDBRANCH  23  24
ENDBRANCH  22  23
ENDBRANCH  21  22
ENDBRANCH  20  21
ENDBRANCH  19  20
ENDBRANCH  18  19
ENDBRANCH  17  18
ENDBRANCH  16  17
ENDBRANCH  15  16
ENDBRANCH   1  15
TORSDOF 22
ENDMDL
MODEL 2
REMARK VINA RESULT:    -6.235      0.982      1.763
REMARK INTER + INTRA:         -16.017
REMARK INTER:                 -13.994
REMARK INTRA:                  -2.022
REMARK UNBOUND:                -1.763
REMARK SMILES CCCCCCCCCCCCCCCCCCCCCCCC(=O)[O-]
REMARK SMILES IDX 13 1 14 2 15 3 16 4 17 5 18 6 19 7 20 8 21 9 22 10 23 11
REMARK SMILES IDX 24 12 25 13 26 14 12 15 11 16 10 17 9 18 8 19 7 20 6 21 5 22
REMARK SMILES IDX 4 23 3 24 2 25 1 26
REMARK H PARENT
REMARK Flexibility Score: inf
ROOT
ATOM      1  C   UNL     1      89.573 325.624 200.721  1.00  0.00     0.000 C 
ENDROOT
BRANCH   1   2
ATOM      2  C   UNL     1      89.229 326.021 199.275  1.00  0.00     0.000 C 
BRANCH   2   3
ATOM      3  C   UNL     1      88.717 324.844 198.435  1.00  0.00     0.000 C 
BRANCH   3   4
ATOM      4  C   UNL     1      89.222 324.924 196.985  1.00  0.00     0.000 C 
BRANCH   4   5
ATOM      5  C   UNL     1      88.722 326.193 196.262  1.00  0.00     0.000 C 
BRANCH   5   6
ATOM      6  C   UNL     1      87.190 326.331 196.244  1.00  0.00     0.000 C 
BRANCH   6   7
ATOM      7  C   UNL     1      86.604 326.319 194.823  1.00  0.00     0.000 C 
BRANCH   7   8
ATOM      8  C   UNL     1      87.654 325.982 193.752  1.00  0.00     0.000 C 
BRANCH   8   9
ATOM      9  C   UNL     1      87.447 324.596 193.105  1.00  0.00     0.000 C 
BRANCH   9  10
ATOM     10  C   UNL     1      88.108 324.499 191.720  1.00  0.00     0.006 C 
BRANCH  10  11
ATOM     11  C   UNL     1      87.748 323.194 190.995  1.00  0.00     0.053 C 
BRANCH  11  12
ATOM     12  C   UNL     1      88.204 323.204 189.568  1.00  0.00     0.041 C 
ATOM     13  O   UNL     1      87.610 322.500 188.711  1.00  0.00    -0.550 OA
ATOM     14  O   UNL     1      89.273 324.004 189.183  1.00  0.00    -0.550 OA
ENDBRANCH  11  12
ENDBRANCH  10  11
ENDBRANCH   9  10
ENDBRANCH   8   9
ENDBRANCH   7   8
ENDBRANCH   6   7
ENDBRANCH   5   6
ENDBRANCH   4   5
ENDBRANCH   3   4
ENDBRANCH   2   3
ENDBRANCH   1   2
BRANCH   1  15
ATOM     15  C   UNL     1      88.850 326.465 201.791  1.00  0.00     0.000 C 
BRANCH  15  16
ATOM     16  C   UNL     1      89.777 326.853 202.960  1.00  0.00     0.000 C 
BRANCH  16  17
ATOM     17  C   UNL     1      89.005 327.431 204.163  1.00  0.00     0.000 C 
BRANCH  17  18
ATOM     18  C   UNL     1      89.714 327.236 205.515  1.00  0.00    -0.000 C 
BRANCH  18  19
ATOM     19  C   UNL     1      88.893 326.405 206.512  1.00  0.00    -0.000 C 
BRANCH  19  20
ATOM     20  C   UNL     1      88.498 325.048 205.906  1.00  0.00    -0.000 C 
BRANCH  20  21
ATOM     21  C   UNL     1      86.992 324.752 206.028  1.00  0.00    -0.000 C 
BRANCH  21  22
ATOM     22  C   UNL     1      86.456 323.667 205.070  1.00  0.00    -0.000 C 
BRANCH  22  23
ATOM     23  C   UNL     1      87.293 323.439 203.799  1.00  0.00    -0.000 C 
BRANCH  23  24
ATOM     24  C   UNL     1      86.498 323.684 202.504  1.00  0.00    -0.000 C 
BRANCH  24  25
ATOM     25  C   UNL     1      86.651 322.536 201.495  1.00  0.00    -0.003 C 
ATOM     26  C   UNL     1      88.111 322.200 201.186  1.00  0.00     0.004 C 
ENDBRANCH  24  25
ENDBRANCH  23  24
ENDBRANCH  22  23
ENDBRANCH  21  22
ENDBRANCH  20  21
ENDBRANCH  19  20
ENDBRANCH  18  19
ENDBRANCH  17  18
ENDBRANCH  16  17
ENDBRANCH  15  16
ENDBRANCH   1  15
TORSDOF 22
ENDMDL
MODEL 3
REMARK VINA RESULT:    -6.142      3.158     10.662
REMARK INTER + INTRA:         -15.804
REMARK INTER:                 -13.748
REMARK INTRA:                  -2.056
REMARK UNBOUND:                -1.763
REMARK SMILES CCCCCCCCCCCCCCCCCCCCCCCC(=O)[O-]
REMARK SMILES IDX 13 1 14 2 15 3 16 4 17 5 18 6 19 7 20 8 21 9 22 10 23 11
REMARK SMILES IDX 24 12 25 13 26 14 12 15 11 16 10 17 9 18 8 19 7 20 6 21 5 22
REMARK SMILES IDX 4 23 3 24 2 25 1 26
REMARK H PARENT
REMARK Flexibility Score: inf
ROOT
ATOM      1  C   UNL     1      89.052 324.760 200.042  1.00  0.00     0.000 C 
ENDROOT
BRANCH   1   2
ATOM      2  C   UNL     1      89.453 326.116 200.648  1.00  0.00     0.000 C 
BRANCH   2   3
ATOM      3  C   UNL     1      88.734 326.420 201.969  1.00  0.00     0.000 C 
BRANCH   3   4
ATOM      4  C   UNL     1      89.733 326.615 203.122  1.00  0.00     0.000 C 
BRANCH   4   5
ATOM      5  C   UNL     1      89.097 327.338 204.328  1.00  0.00     0.000 C 
BRANCH   5   6
ATOM      6  C   UNL     1      89.295 326.601 205.665  1.00  0.00     0.000 C 
BRANCH   6   7
ATOM      7  C   UNL     1      88.866 325.127 205.605  1.00  0.00     0.000 C 
BRANCH   7   8
ATOM      8  C   UNL     1      87.408 324.916 206.043  1.00  0.00     0.000 C 
BRANCH   8   9
ATOM      9  C   UNL     1      86.618 323.973 205.110  1.00  0.00     0.000 C 
BRANCH   9  10
ATOM     10  C   UNL     1      87.354 323.721 203.784  1.00  0.00     0.006 C 
BRANCH  10  11
ATOM     11  C   UNL     1      86.384 323.499 202.614  1.00  0.00     0.053 C 
BRANCH  11  12
ATOM     12  C   UNL     1      86.525 322.131 202.022  1.00  0.00     0.041 C 
ATOM     13  O   UNL     1      86.962 321.992 200.849  1.00  0.00    -0.550 OA
ATOM     14  O   UNL     1      86.192 321.009 202.771  1.00  0.00    -0.550 OA
ENDBRANCH  11  12
ENDBRANCH  10  11
ENDBRANCH   9  10
ENDBRANCH   8   9
ENDBRANCH   7   8
ENDBRANCH   6   7
ENDBRANCH   5   6
ENDBRANCH   4   5
ENDBRANCH   3   4
ENDBRANCH   2   3
ENDBRANCH   1   2
BRANCH   1  15
ATOM     15  C   UNL     1      88.942 324.766 198.506  1.00  0.00     0.000 C 
BRANCH  15  16
ATOM     16  C   UNL     1      88.653 326.171 197.942  1.00  0.00     0.000 C 
BRANCH  16  17
ATOM     17  C   UNL     1      88.467 326.170 196.412  1.00  0.00     0.000 C 
BRANCH  17  18
ATOM     18  C   UNL     1      86.998 326.235 195.958  1.00  0.00    -0.000 C 
BRANCH  18  19
ATOM     19  C   UNL     1      86.834 326.741 194.517  1.00  0.00    -0.000 C 
BRANCH  19  20
ATOM     20  C   UNL     1      88.075 326.412 193.672  1.00  0.00    -0.000 C 
BRANCH  20  21
ATOM     21  C   UNL     1      87.865 325.203 192.743  1.00  0.00    -0.000 C 
BRANCH  21  22
ATOM     22  C   UNL     1      88.297 323.841 193.328  1.00  0.00    -0.000 C 
BRANCH  22  23
ATOM     23  C   UNL     1      88.365 322.683 192.317  1.00  0.00    -0.000 C 
BRANCH  23  24
ATOM     24  C   UNL     1      87.756 323.042 190.950  1.00  0.00    -0.000 C 
BRANCH  24  25
ATOM     25  C   UNL     1      88.719 322.766 189.785  1.00  0.00    -0.003 C 
ATOM     26  C   UNL     1      89.274 324.044 189.152  1.00  0.00     0.004 C 
ENDBRANCH  24  25
ENDBRANCH  23  24
ENDBRANCH  22  23
ENDBRANCH  21  22
ENDBRANCH  20  21
ENDBRANCH  19  20
ENDBRANCH  18  19
ENDBRANCH  17  18
ENDBRANCH  16  17
ENDBRANCH  15  16
ENDBRANCH   1  15
TORSDOF 22
ENDMDL
MODEL 4
REMARK VINA RESULT:    -6.139      1.310      2.393
REMARK INTER + INTRA:         -15.798
REMARK INTER:                 -12.927
REMARK INTRA:                  -2.871
REMARK UNBOUND:                -1.763
REMARK SMILES CCCCCCCCCCCCCCCCCCCCCCCC(=O)[O-]
REMARK SMILES IDX 13 1 14 2 15 3 16 4 17 5 18 6 19 7 20 8 21 9 22 10 23 11
REMARK SMILES IDX 24 12 25 13 26 14 12 15 11 16 10 17 9 18 8 19 7 20 6 21 5 22
REMARK SMILES IDX 4 23 3 24 2 25 1 26
REMARK H PARENT
REMARK Flexibility Score: inf
ROOT
ATOM      1  C   UNL     1      90.583 325.096 200.466  1.00  0.00     0.000 C 
ENDROOT
BRANCH   1   2
ATOM      2  C   UNL     1      90.377 324.096 199.315  1.00  0.00     0.000 C 
BRANCH   2   3
ATOM      3  C   UNL     1      88.903 323.733 199.093  1.00  0.00     0.000 C 
BRANCH   3   4
ATOM      4  C   UNL     1      88.479 323.964 197.633  1.00  0.00     0.000 C 
BRANCH   4   5
ATOM      5  C   UNL     1      89.493 324.837 196.863  1.00  0.00     0.000 C 
BRANCH   5   6
ATOM      6  C   UNL     1      88.882 326.122 196.276  1.00  0.00     0.000 C 
BRANCH   6   7
ATOM      7  C   UNL     1      87.517 326.470 196.890  1.00  0.00     0.000 C 
BRANCH   7   8
ATOM      8  C   UNL     1      86.394 326.534 195.843  1.00  0.00     0.000 C 
BRANCH   8   9
ATOM      9  C   UNL     1      86.913 326.587 194.390  1.00  0.00     0.000 C 
BRANCH   9  10
ATOM     10  C   UNL     1      86.634 325.281 193.627  1.00  0.00     0.006 C 
BRANCH  10  11
ATOM     11  C   UNL     1      87.836 324.832 192.785  1.00  0.00     0.053 C 
BRANCH  11  12
ATOM     12  C   UNL     1      87.432 323.892 191.691  1.00  0.00     0.041 C 
ATOM     13  O   UNL     1      86.223 323.569 191.550  1.00  0.00    -0.550 OA
ATOM     14  O   UNL     1      88.387 323.386 190.818  1.00  0.00    -0.550 OA
ENDBRANCH  11  12
ENDBRANCH  10  11
ENDBRANCH   9  10
ENDBRANCH   8   9
ENDBRANCH   7   8
ENDBRANCH   6   7
ENDBRANCH   5   6
ENDBRANCH   4   5
ENDBRANCH   3   4
ENDBRANCH   2   3
ENDBRANCH   1   2
BRANCH   1  15
ATOM     15  C   UNL     1      89.625 326.302 200.429  1.00  0.00     0.000 C 
BRANCH  15  16
ATOM     16  C   UNL     1      88.830 326.463 201.739  1.00  0.00     0.000 C 
BRANCH  16  17
ATOM     17  C   UNL     1      89.743 326.596 202.974  1.00  0.00     0.000 C 
BRANCH  17  18
ATOM     18  C   UNL     1      89.148 327.453 204.105  1.00  0.00    -0.000 C 
BRANCH  18  19
ATOM     19  C   UNL     1      89.896 327.296 205.438  1.00  0.00    -0.000 C 
BRANCH  19  20
ATOM     20  C   UNL     1      89.045 326.529 206.462  1.00  0.00    -0.000 C 
BRANCH  20  21
ATOM     21  C   UNL     1      89.443 325.047 206.584  1.00  0.00    -0.000 C 
BRANCH  21  22
ATOM     22  C   UNL     1      88.298 324.037 206.359  1.00  0.00    -0.000 C 
BRANCH  22  23
ATOM     23  C   UNL     1      87.177 324.514 205.418  1.00  0.00    -0.000 C 
BRANCH  23  24
ATOM     24  C   UNL     1      86.556 323.370 204.596  1.00  0.00    -0.000 C 
BRANCH  24  25
ATOM     25  C   UNL     1      86.865 323.490 203.095  1.00  0.00    -0.003 C 
ATOM     26  C   UNL     1      88.292 323.068 202.742  1.00  0.00     0.004 C 
ENDBRANCH  24  25
ENDBRANCH  23  24
ENDBRANCH  22  23
ENDBRANCH  21  22
ENDBRANCH  20  21
ENDBRANCH  19  20
ENDBRANCH  18  19
ENDBRANCH  17  18
ENDBRANCH  16  17
ENDBRANCH  15  16
ENDBRANCH   1  15
TORSDOF 22
ENDMDL
MODEL 5
REMARK VINA RESULT:    -6.069     20.012     23.377
REMARK INTER + INTRA:         -15.638
REMARK INTER:                 -13.686
REMARK INTRA:                  -1.952
REMARK UNBOUND:                -1.763
REMARK SMILES CCCCCCCCCCCCCCCCCCCCCCCC(=O)[O-]
REMARK SMILES IDX 13 1 14 2 15 3 16 4 17 5 18 6 19 7 20 8 21 9 22 10 23 11
REMARK SMILES IDX 24 12 25 13 26 14 12 15 11 16 10 17 9 18 8 19 7 20 6 21 5 22
REMARK SMILES IDX 4 23 3 24 2 25 1 26
REMARK H PARENT
REMARK Flexibility Score: inf
ROOT
ATOM      1  C   UNL     1     103.064 312.923 199.250  1.00  0.00     0.000 C 
ENDROOT
BRANCH   1   2
ATOM      2  C   UNL     1     103.102 311.559 199.960  1.00  0.00     0.000 C 
BRANCH   2   3
ATOM      3  C   UNL     1     104.100 311.517 201.126  1.00  0.00     0.000 C 
BRANCH   3   4
ATOM      4  C   UNL     1     103.384 311.325 202.473  1.00  0.00     0.000 C 
BRANCH   4   5
ATOM      5  C   UNL     1     104.318 310.734 203.551  1.00  0.00     0.000 C 
BRANCH   5   6
ATOM      6  C   UNL     1     103.733 310.790 204.973  1.00  0.00     0.000 C 
BRANCH   6   7
ATOM      7  C   UNL     1     104.495 311.755 205.896  1.00  0.00     0.000 C 
BRANCH   7   8
ATOM      8  C   UNL     1     105.789 312.287 205.259  1.00  0.00     0.000 C 
BRANCH   8   9
ATOM      9  C   UNL     1     105.741 313.798 204.945  1.00  0.00     0.000 C 
BRANCH   9  10
ATOM     10  C   UNL     1     105.983 314.088 203.454  1.00  0.00     0.006 C 
BRANCH  10  11
ATOM     11  C   UNL     1     104.794 314.807 202.801  1.00  0.00     0.053 C 
BRANCH  11  12
ATOM     12  C   UNL     1     105.174 315.450 201.503  1.00  0.00     0.041 C 
ATOM     13  O   UNL     1     105.696 314.762 200.587  1.00  0.00    -0.550 OA
ATOM     14  O   UNL     1     104.937 316.803 201.300  1.00  0.00    -0.550 OA
ENDBRANCH  11  12
ENDBRANCH  10  11
ENDBRANCH   9  10
ENDBRANCH   8   9
ENDBRANCH   7   8
ENDBRANCH   6   7
ENDBRANCH   5   6
ENDBRANCH   4   5
ENDBRANCH   3   4
ENDBRANCH   2   3
ENDBRANCH   1   2
BRANCH   1  15
ATOM     15  C   UNL     1     103.797 312.946 197.895  1.00  0.00     0.000 C 
BRANCH  15  16
ATOM     16  C   UNL     1     103.895 311.547 197.255  1.00  0.00     0.000 C 
BRANCH  16  17
ATOM     17  C   UNL     1     104.124 311.606 195.732  1.00  0.00     0.000 C 
BRANCH  17  18
ATOM     18  C   UNL     1     105.603 311.525 195.315  1.00  0.00    -0.000 C 
BRANCH  18  19
ATOM     19  C   UNL     1     105.826 311.819 193.824  1.00  0.00    -0.000 C 
BRANCH  19  20
ATOM     20  C   UNL     1     104.549 311.553 193.011  1.00  0.00    -0.000 C 
BRANCH  20  21
ATOM     21  C   UNL     1     104.153 312.737 192.112  1.00  0.00    -0.000 C 
BRANCH  21  22
ATOM     22  C   UNL     1     105.295 313.722 191.780  1.00  0.00    -0.000 C 
BRANCH  22  23
ATOM     23  C   UNL     1     105.138 314.488 190.454  1.00  0.00    -0.000 C 
BRANCH  23  24
ATOM     24  C   UNL     1     103.685 314.910 190.174  1.00  0.00    -0.000 C 
BRANCH  24  25
ATOM     25  C   UNL     1     103.296 314.735 188.697  1.00  0.00    -0.003 C 
ATOM     26  C   UNL     1     104.013 315.717 187.769  1.00  0.00     0.004 C 
ENDBRANCH  24  25
ENDBRANCH  23  24
ENDBRANCH  22  23
ENDBRANCH  21  22
ENDBRANCH  20  21
ENDBRANCH  19  20
ENDBRANCH  18  19
ENDBRANCH  17  18
ENDBRANCH  16  17
ENDBRANCH  15  16
ENDBRANCH   1  15
TORSDOF 22
ENDMDL
MODEL 6
REMARK VINA RESULT:    -6.044      3.737     10.765
REMARK INTER + INTRA:         -15.581
REMARK INTER:                 -13.370
REMARK INTRA:                  -2.210
REMARK UNBOUND:                -1.763
REMARK SMILES CCCCCCCCCCCCCCCCCCCCCCCC(=O)[O-]
REMARK SMILES IDX 13 1 14 2 15 3 16 4 17 5 18 6 19 7 20 8 21 9 22 10 23 11
REMARK SMILES IDX 24 12 25 13 26 14 12 15 11 16 10 17 9 18 8 19 7 20 6 21 5 22
REMARK SMILES IDX 4 23 3 24 2 25 1 26
REMARK H PARENT
REMARK Flexibility Score: inf
ROOT
ATOM      1  C   UNL     1      89.214 326.188 200.793  1.00  0.00     0.000 C 
ENDROOT
BRANCH   1   2
ATOM      2  C   UNL     1      90.649 326.423 201.294  1.00  0.00     0.000 C 
BRANCH   2   3
ATOM      3  C   UNL     1      90.708 326.843 202.769  1.00  0.00     0.000 C 
BRANCH   3   4
ATOM      4  C   UNL     1      89.302 326.933 203.386  1.00  0.00     0.000 C 
BRANCH   4   5
ATOM      5  C   UNL     1      89.326 327.537 204.806  1.00  0.00     0.000 C 
BRANCH   5   6
ATOM      6  C   UNL     1      90.198 326.749 205.799  1.00  0.00     0.000 C 
BRANCH   6   7
ATOM      7  C   UNL     1      89.372 325.975 206.839  1.00  0.00     0.000 C 
BRANCH   7   8
ATOM      8  C   UNL     1      87.863 326.024 206.552  1.00  0.00     0.000 C 
BRANCH   8   9
ATOM      9  C   UNL     1      87.288 324.678 206.062  1.00  0.00     0.000 C 
BRANCH   9  10
ATOM     10  C   UNL     1      88.387 323.623 205.845  1.00  0.00     0.006 C 
BRANCH  10  11
ATOM     11  C   UNL     1      88.070 322.687 204.670  1.00  0.00     0.053 C 
BRANCH  11  12
ATOM     12  C   UNL     1      88.302 323.352 203.348  1.00  0.00     0.041 C 
ATOM     13  O   UNL     1      89.457 323.374 202.846  1.00  0.00    -0.550 OA
ATOM     14  O   UNL     1      87.242 323.933 202.664  1.00  0.00    -0.550 OA
ENDBRANCH  11  12
ENDBRANCH  10  11
ENDBRANCH   9  10
ENDBRANCH   8   9
ENDBRANCH   7   8
ENDBRANCH   6   7
ENDBRANCH   5   6
ENDBRANCH   4   5
ENDBRANCH   3   4
ENDBRANCH   2   3
ENDBRANCH   1   2
BRANCH   1  15
ATOM     15  C   UNL     1      89.062 326.268 199.262  1.00  0.00     0.000 C 
BRANCH  15  16
ATOM     16  C   UNL     1      89.339 324.918 198.571  1.00  0.00     0.000 C 
BRANCH  16  17
ATOM     17  C   UNL     1      88.708 324.829 197.168  1.00  0.00     0.000 C 
BRANCH  17  18
ATOM     18  C   UNL     1      88.153 326.165 196.643  1.00  0.00    -0.000 C 
BRANCH  18  19
ATOM     19  C   UNL     1      88.699 326.542 195.257  1.00  0.00    -0.000 C 
BRANCH  19  20
ATOM     20  C   UNL     1      87.562 326.967 194.313  1.00  0.00    -0.000 C 
BRANCH  20  21
ATOM     21  C   UNL     1      86.286 326.125 194.495  1.00  0.00    -0.000 C 
BRANCH  21  22
ATOM     22  C   UNL     1      86.151 324.921 193.538  1.00  0.00    -0.000 C 
BRANCH  22  23
ATOM     23  C   UNL     1      87.090 323.738 193.833  1.00  0.00    -0.000 C 
BRANCH  23  24
ATOM     24  C   UNL     1      88.166 323.542 192.750  1.00  0.00    -0.000 C 
BRANCH  24  25
ATOM     25  C   UNL     1      87.709 324.038 191.370  1.00  0.00    -0.003 C 
ATOM     26  C   UNL     1      88.628 323.582 190.235  1.00  0.00     0.004 C 
ENDBRANCH  24  25
ENDBRANCH  23  24
ENDBRANCH  22  23
ENDBRANCH  21  22
ENDBRANCH  20  21
ENDBRANCH  19  20
ENDBRANCH  18  19
ENDBRANCH  17  18
ENDBRANCH  16  17
ENDBRANCH  15  16
ENDBRANCH   1  15
TORSDOF 22
ENDMDL
MODEL 7
REMARK VINA RESULT:    -6.039      3.002     10.219
REMARK INTER + INTRA:         -15.568
REMARK INTER:                 -13.458
REMARK INTRA:                  -2.110
REMARK UNBOUND:                -1.763
REMARK SMILES CCCCCCCCCCCCCCCCCCCCCCCC(=O)[O-]
REMARK SMILES IDX 13 1 14 2 15 3 16 4 17 5 18 6 19 7 20 8 21 9 22 10 23 11
REMARK SMILES IDX 24 12 25 13 26 14 12 15 11 16 10 17 9 18 8 19 7 20 6 21 5 22
REMARK SMILES IDX 4 23 3 24 2 25 1 26
REMARK H PARENT
REMARK Flexibility Score: inf
ROOT
ATOM      1  C   UNL     1      90.577 326.279 201.405  1.00  0.00     0.000 C 
ENDROOT
BRANCH   1   2
ATOM      2  C   UNL     1      90.638 326.817 202.845  1.00  0.00     0.000 C 
BRANCH   2   3
ATOM      3  C   UNL     1      89.256 327.153 203.419  1.00  0.00     0.000 C 
BRANCH   3   4
ATOM      4  C   UNL     1      89.350 327.610 204.884  1.00  0.00     0.000 C 
BRANCH   4   5
ATOM      5  C   UNL     1      90.131 326.607 205.760  1.00  0.00     0.000 C 
BRANCH   5   6
ATOM      6  C   UNL     1      89.277 325.949 206.857  1.00  0.00     0.000 C 
BRANCH   6   7
ATOM      7  C   UNL     1      87.860 325.594 206.381  1.00  0.00     0.000 C 
BRANCH   7   8
ATOM      8  C   UNL     1      87.709 324.106 206.027  1.00  0.00     0.000 C 
BRANCH   8   9
ATOM      9  C   UNL     1      86.939 323.864 204.711  1.00  0.00     0.000 C 
BRANCH   9  10
ATOM     10  C   UNL     1      87.865 323.892 203.484  1.00  0.00     0.006 C 
BRANCH  10  11
ATOM     11  C   UNL     1      87.083 323.838 202.164  1.00  0.00     0.053 C 
BRANCH  11  12
ATOM     12  C   UNL     1      87.140 322.480 201.536  1.00  0.00     0.041 C 
ATOM     13  O   UNL     1      87.074 321.449 202.255  1.00  0.00    -0.550 OA
ATOM     14  O   UNL     1      87.249 322.353 200.157  1.00  0.00    -0.550 OA
ENDBRANCH  11  12
ENDBRANCH  10  11
ENDBRANCH   9  10
ENDBRANCH   8   9
ENDBRANCH   7   8
ENDBRANCH   6   7
ENDBRANCH   5   6
ENDBRANCH   4   5
ENDBRANCH   3   4
ENDBRANCH   2   3
ENDBRANCH   1   2
BRANCH   1  15
ATOM     15  C   UNL     1      89.181 326.369 200.760  1.00  0.00     0.000 C 
BRANCH  15  16
ATOM     16  C   UNL     1      89.243 326.391 199.221  1.00  0.00     0.000 C 
BRANCH  16  17
ATOM     17  C   UNL     1      89.229 324.978 198.605  1.00  0.00     0.000 C 
BRANCH  17  18
ATOM     18  C   UNL     1      88.506 324.892 197.249  1.00  0.00    -0.000 C 
BRANCH  18  19
ATOM     19  C   UNL     1      88.324 326.260 196.575  1.00  0.00    -0.000 C 
BRANCH  19  20
ATOM     20  C   UNL     1      86.879 326.446 196.085  1.00  0.00    -0.000 C 
BRANCH  20  21
ATOM     21  C   UNL     1      86.790 326.737 194.576  1.00  0.00    -0.000 C 
BRANCH  21  22
ATOM     22  C   UNL     1      87.975 326.215 193.735  1.00  0.00    -0.000 C 
BRANCH  22  23
ATOM     23  C   UNL     1      87.850 324.759 193.254  1.00  0.00    -0.000 C 
BRANCH  23  24
ATOM     24  C   UNL     1      88.124 324.598 191.749  1.00  0.00    -0.000 C 
BRANCH  24  25
ATOM     25  C   UNL     1      88.167 323.125 191.312  1.00  0.00    -0.003 C 
ATOM     26  C   UNL     1      87.054 322.759 190.329  1.00  0.00     0.004 C 
ENDBRANCH  24  25
ENDBRANCH  23  24
ENDBRANCH  22  23
ENDBRANCH  21  22
ENDBRANCH  20  21
ENDBRANCH  19  20
ENDBRANCH  18  19
ENDBRANCH  17  18
ENDBRANCH  16  17
ENDBRANCH  15  16
ENDBRANCH   1  15
TORSDOF 22
ENDMDL
MODEL 8
REMARK VINA RESULT:    -6.020      1.462      2.570
REMARK INTER + INTRA:         -15.525
REMARK INTER:                 -13.662
REMARK INTRA:                  -1.862
REMARK UNBOUND:                -1.763
REMARK SMILES CCCCCCCCCCCCCCCCCCCCCCCC(=O)[O-]
REMARK SMILES IDX 13 1 14 2 15 3 16 4 17 5 18 6 19 7 20 8 21 9 22 10 23 11
REMARK SMILES IDX 24 12 25 13 26 14 12 15 11 16 10 17 9 18 8 19 7 20 6 21 5 22
REMARK SMILES IDX 4 23 3 24 2 25 1 26
REMARK H PARENT
REMARK Flexibility Score: inf
ROOT
ATOM      1  C   UNL     1      88.919 325.498 198.233  1.00  0.00     0.000 C 
ENDROOT
BRANCH   1   2
ATOM      2  C   UNL     1      88.072 326.128 197.114  1.00  0.00     0.000 C 
BRANCH   2   3
ATOM      3  C   UNL     1      88.888 326.456 195.857  1.00  0.00     0.000 C 
BRANCH   3   4
ATOM      4  C   UNL     1      87.977 326.838 194.678  1.00  0.00     0.000 C 
BRANCH   4   5
ATOM      5  C   UNL     1      86.546 326.282 194.842  1.00  0.00     0.000 C 
BRANCH   5   6
ATOM      6  C   UNL     1      86.193 325.178 193.830  1.00  0.00     0.000 C 
BRANCH   6   7
ATOM      7  C   UNL     1      86.900 323.846 194.127  1.00  0.00     0.000 C 
BRANCH   7   8
ATOM      8  C   UNL     1      88.091 323.585 193.191  1.00  0.00     0.000 C 
BRANCH   8   9
ATOM      9  C   UNL     1      88.010 324.367 191.863  1.00  0.00     0.000 C 
BRANCH   9  10
ATOM     10  C   UNL     1      87.722 323.446 190.665  1.00  0.00     0.006 C 
BRANCH  10  11
ATOM     11  C   UNL     1      88.802 323.551 189.579  1.00  0.00     0.053 C 
BRANCH  11  12
ATOM     12  C   UNL     1      89.586 322.281 189.447  1.00  0.00     0.041 C 
ATOM     13  O   UNL     1      89.732 321.523 190.441  1.00  0.00    -0.550 OA
ATOM     14  O   UNL     1      90.141 321.929 188.223  1.00  0.00    -0.550 OA
ENDBRANCH  11  12
ENDBRANCH  10  11
ENDBRANCH   9  10
ENDBRANCH   8   9
ENDBRANCH   7   8
ENDBRANCH   6   7
ENDBRANCH   5   6
ENDBRANCH   4   5
ENDBRANCH   3   4
ENDBRANCH   2   3
ENDBRANCH   1   2
BRANCH   1  15
ATOM     15  C   UNL     1      89.260 326.466 199.382  1.00  0.00     0.000 C 
BRANCH  15  16
ATOM     16  C   UNL     1      88.543 326.097 200.696  1.00  0.00     0.000 C 
BRANCH  16  17
ATOM     17  C   UNL     1      89.512 325.574 201.775  1.00  0.00     0.000 C 
BRANCH  17  18
ATOM     18  C   UNL     1      90.954 326.091 201.628  1.00  0.00    -0.000 C 
BRANCH  18  19
ATOM     19  C   UNL     1      91.285 327.236 202.597  1.00  0.00    -0.000 C 
BRANCH  19  20
ATOM     20  C   UNL     1      90.246 327.322 203.726  1.00  0.00    -0.000 C 
BRANCH  20  21
ATOM     21  C   UNL     1      90.877 327.615 205.100  1.00  0.00    -0.000 C 
BRANCH  21  22
ATOM     22  C   UNL     1      90.457 326.655 206.234  1.00  0.00    -0.000 C 
BRANCH  22  23
ATOM     23  C   UNL     1      88.943 326.565 206.492  1.00  0.00    -0.000 C 
BRANCH  23  24
ATOM     24  C   UNL     1      88.423 325.116 206.518  1.00  0.00    -0.000 C 
BRANCH  24  25
ATOM     25  C   UNL     1      88.032 324.606 205.122  1.00  0.00    -0.003 C 
ATOM     26  C   UNL     1      86.722 323.816 205.119  1.00  0.00     0.004 C 
ENDBRANCH  24  25
ENDBRANCH  23  24
ENDBRANCH  22  23
ENDBRANCH  21  22
ENDBRANCH  20  21
ENDBRANCH  19  20
ENDBRANCH  18  19
ENDBRANCH  17  18
ENDBRANCH  16  17
ENDBRANCH  15  16
ENDBRANCH   1  15
TORSDOF 22
ENDMDL
MODEL 9
REMARK VINA RESULT:    -5.967      4.214     10.997
REMARK INTER + INTRA:         -15.405
REMARK INTER:                 -13.502
REMARK INTRA:                  -1.903
REMARK UNBOUND:                -1.763
REMARK SMILES CCCCCCCCCCCCCCCCCCCCCCCC(=O)[O-]
REMARK SMILES IDX 13 1 14 2 15 3 16 4 17 5 18 6 19 7 20 8 21 9 22 10 23 11
REMARK SMILES IDX 24 12 25 13 26 14 12 15 11 16 10 17 9 18 8 19 7 20 6 21 5 22
REMARK SMILES IDX 4 23 3 24 2 25 1 26
REMARK H PARENT
REMARK Flexibility Score: inf
ROOT
ATOM      1  C   UNL     1      88.500 325.630 201.545  1.00  0.00     0.000 C 
ENDROOT
BRANCH   1   2
ATOM      2  C   UNL     1      88.243 324.114 201.531  1.00  0.00     0.000 C 
BRANCH   2   3
ATOM      3  C   UNL     1      87.073 323.695 202.432  1.00  0.00     0.000 C 
BRANCH   3   4
ATOM      4  C   UNL     1      87.527 323.491 203.887  1.00  0.00     0.000 C 
BRANCH   4   5
ATOM      5  C   UNL     1      86.373 323.689 204.892  1.00  0.00     0.000 C 
BRANCH   5   6
ATOM      6  C   UNL     1      86.694 324.694 206.012  1.00  0.00     0.000 C 
BRANCH   6   7
ATOM      7  C   UNL     1      88.203 324.926 206.193  1.00  0.00     0.000 C 
BRANCH   7   8
ATOM      8  C   UNL     1      88.527 326.330 206.726  1.00  0.00     0.000 C 
BRANCH   8   9
ATOM      9  C   UNL     1      89.896 326.865 206.253  1.00  0.00     0.000 C 
BRANCH   9  10
ATOM     10  C   UNL     1      89.963 327.014 204.724  1.00  0.00     0.006 C 
BRANCH  10  11
ATOM     11  C   UNL     1      90.974 326.048 204.089  1.00  0.00     0.053 C 
BRANCH  11  12
ATOM     12  C   UNL     1      92.148 326.772 203.506  1.00  0.00     0.041 C 
ATOM     13  O   UNL     1      93.209 326.895 204.173  1.00  0.00    -0.550 OA
ATOM     14  O   UNL     1      92.077 327.296 202.222  1.00  0.00    -0.550 OA
ENDBRANCH  11  12
ENDBRANCH  10  11
ENDBRANCH   9  10
ENDBRANCH   8   9
ENDBRANCH   7   8
ENDBRANCH   6   7
ENDBRANCH   5   6
ENDBRANCH   4   5
ENDBRANCH   3   4
ENDBRANCH   2   3
ENDBRANCH   1   2
BRANCH   1  15
ATOM     15  C   UNL     1      89.379 326.129 200.382  1.00  0.00     0.000 C 
BRANCH  15  16
ATOM     16  C   UNL     1      89.845 324.983 199.463  1.00  0.00     0.000 C 
BRANCH  16  17
ATOM     17  C   UNL     1      89.118 324.979 198.104  1.00  0.00     0.000 C 
BRANCH  17  18
ATOM     18  C   UNL     1      88.535 326.345 197.700  1.00  0.00    -0.000 C 
BRANCH  18  19
ATOM     19  C   UNL     1      88.190 326.435 196.206  1.00  0.00    -0.000 C 
BRANCH  19  20
ATOM     20  C   UNL     1      86.670 326.520 195.994  1.00  0.00    -0.000 C 
BRANCH  20  21
ATOM     21  C   UNL     1      86.228 326.017 194.608  1.00  0.00    -0.000 C 
BRANCH  21  22
ATOM     22  C   UNL     1      87.376 325.726 193.618  1.00  0.00    -0.000 C 
BRANCH  22  23
ATOM     23  C   UNL     1      87.345 324.332 192.966  1.00  0.00    -0.000 C 
BRANCH  23  24
ATOM     24  C   UNL     1      88.046 324.294 191.597  1.00  0.00    -0.000 C 
BRANCH  24  25
ATOM     25  C   UNL     1      87.462 323.220 190.666  1.00  0.00    -0.003 C 
ATOM     26  C   UNL     1      86.016 322.855 191.006  1.00  0.00     0.004 C 
ENDBRANCH  24  25
ENDBRANCH  23  24
ENDBRANCH  22  23
ENDBRANCH  21  22
ENDBRANCH  20  21
ENDBRANCH  19  20
ENDBRANCH  18  19
ENDBRANCH  17  18
ENDBRANCH  16  17
ENDBRANCH  15  16
ENDBRANCH   1  15
TORSDOF 22
ENDMDL
