MODEL 1
REMARK VINA RESULT:    -1.612      0.000      0.000
REMARK INTER + INTRA:         -10.259
REMARK INTER:                  -4.251
REMARK INTRA:                  -6.008
REMARK UNBOUND:                -6.008
REMARK SMILES CCCCCCCCCCCCCCCCCCCCCCCCCCCCCC(=O)[O-]
REMARK SMILES IDX 16 1 17 2 18 3 19 4 20 5 21 6 22 7 23 8 24 9 25 10 26 11
REMARK SMILES IDX 27 12 28 13 29 14 30 15 31 16 32 17 15 18 14 19 13 20 12 21
REMARK SMILES IDX 11 22 10 23 9 24 8 25 7 26 6 27 5 28 4 29 3 30 2 31 1 32
REMARK H PARENT
REMARK Flexibility Score: inf
ROOT
ATOM      1  C   UNL     1      43.419  36.817  23.056  1.00  0.00     0.000 C 
ENDROOT
BRANCH   1   2
ATOM      2  C   UNL     1      43.725  36.469  21.590  1.00  0.00     0.000 C 
BRANCH   2   3
ATOM      3  C   UNL     1      43.262  37.564  20.615  1.00  0.00     0.000 C 
BRANCH   3   4
ATOM      4  C   UNL     1      42.069  37.125  19.755  1.00  0.00     0.000 C 
BRANCH   4   5
ATOM      5  C   UNL     1      40.747  37.555  20.405  1.00  0.00     0.000 C 
BRANCH   5   6
ATOM      6  C   UNL     1      40.106  38.768  19.715  1.00  0.00     0.000 C 
BRANCH   6   7
ATOM      7  C   UNL     1      39.339  38.392  18.431  1.00  0.00     0.000 C 
BRANCH   7   8
ATOM      8  C   UNL     1      37.886  38.896  18.471  1.00  0.00     0.000 C 
BRANCH   8   9
ATOM      9  C   UNL     1      36.875  37.736  18.440  1.00  0.00     0.000 C 
BRANCH   9  10
ATOM     10  C   UNL     1      36.877  36.907  19.740  1.00  0.00     0.000 C 
BRANCH  10  11
ATOM     11  C   UNL     1      37.017  35.387  19.525  1.00  0.00     0.000 C 
BRANCH  11  12
ATOM     12  C   UNL     1      37.738  35.033  18.214  1.00  0.00     0.000 C 
BRANCH  12  13
ATOM     13  C   UNL     1      39.202  34.646  18.473  1.00  0.00     0.006 C 
BRANCH  13  14
ATOM     14  C   UNL     1      39.948  34.298  17.176  1.00  0.00     0.053 C 
BRANCH  14  15
ATOM     15  C   UNL     1      41.418  34.103  17.411  1.00  0.00     0.041 C 
ATOM     16  O   UNL     1      41.855  33.906  18.576  1.00  0.00    -0.550 OA
ATOM     17  O   UNL     1      42.312  34.178  16.351  1.00  0.00    -0.550 OA
ENDBRANCH  14  15
ENDBRANCH  13  14
ENDBRANCH  12  13
ENDBRANCH  11  12
ENDBRANCH  10  11
ENDBRANCH   9  10
ENDBRANCH   8   9
ENDBRANCH   7   8
ENDBRANCH   6   7
ENDBRANCH   5   6
ENDBRANCH   4   5
ENDBRANCH   3   4
ENDBRANCH   2   3
ENDBRANCH   1   2
BRANCH   1  18
ATOM     18  C   UNL     1      42.227  36.001  23.580  1.00  0.00     0.000 C 
BRANCH  18  19
ATOM     19  C   UNL     1      41.849  34.827  22.660  1.00  0.00     0.000 C 
BRANCH  19  20
ATOM     20  C   UNL     1      40.555  34.117  23.088  1.00  0.00     0.000 C 
BRANCH  20  21
ATOM     21  C   UNL     1      39.357  34.469  22.189  1.00  0.00     0.000 C 
BRANCH  21  22
ATOM     22  C   UNL     1      37.985  34.277  22.873  1.00  0.00     0.000 C 
BRANCH  22  23
ATOM     23  C   UNL     1      38.097  34.000  24.384  1.00  0.00     0.000 C 
BRANCH  23  24
ATOM     24  C   UNL     1      37.313  35.013  25.240  1.00  0.00    -0.000 C 
BRANCH  24  25
ATOM     25  C   UNL     1      37.171  36.420  24.628  1.00  0.00    -0.000 C 
BRANCH  25  26
ATOM     26  C   UNL     1      38.468  37.243  24.702  1.00  0.00    -0.000 C 
BRANCH  26  27
ATOM     27  C   UNL     1      38.908  37.778  23.329  1.00  0.00    -0.000 C 
BRANCH  27  28
ATOM     28  C   UNL     1      38.484  39.236  23.093  1.00  0.00    -0.000 C 
BRANCH  28  29
ATOM     29  C   UNL     1      39.602  40.208  23.497  1.00  0.00    -0.000 C 
BRANCH  29  30
ATOM     30  C   UNL     1      41.000  39.560  23.468  1.00  0.00    -0.000 C 
BRANCH  30  31
ATOM     31  C   UNL     1      42.165  40.541  23.248  1.00  0.00    -0.003 C 
ATOM     32  C   UNL     1      42.371  40.905  21.779  1.00  0.00     0.004 C 
ENDBRANCH  30  31
ENDBRANCH  29  30
ENDBRANCH  28  29
ENDBRANCH  27  28
ENDBRANCH  26  27
ENDBRANCH  25  26
ENDBRANCH  24  25
ENDBRANCH  23  24
ENDBRANCH  22  23
ENDBRANCH  21  22
ENDBRANCH  20  21
ENDBRANCH  19  20
ENDBRANCH  18  19
ENDBRANCH   1  18
TORSDOF 28
ENDMDL
MODEL 2
REMARK VINA RESULT:    -1.591     18.968     22.439
REMARK INTER + INTRA:         -10.203
REMARK INTER:                  -3.920
REMARK INTRA:                  -6.284
REMARK UNBOUND:                -6.008
REMARK SMILES CCCCCCCCCCCCCCCCCCCCCCCCCCCCCC(=O)[O-]
REMARK SMILES IDX 16 1 17 2 18 3 19 4 20 5 21 6 22 7 23 8 24 9 25 10 26 11
REMARK SMILES IDX 27 12 28 13 29 14 30 15 31 16 32 17 15 18 14 19 13 20 12 21
REMARK SMILES IDX 11 22 10 23 9 24 8 25 7 26 6 27 5 28 4 29 3 30 2 31 1 32
REMARK H PARENT
REMARK Flexibility Score: inf
ROOT
ATOM      1  C   UNL     1      53.762  48.501  16.722  1.00  0.00     0.000 C 
ENDROOT
BRANCH   1   2
ATOM      2  C   UNL     1      53.522  48.253  15.224  1.00  0.00     0.000 C 
BRANCH   2   3
ATOM      3  C   UNL     1      52.412  49.149  14.649  1.00  0.00     0.000 C 
BRANCH   3   4
ATOM      4  C   UNL     1      52.368  49.124  13.115  1.00  0.00     0.000 C 
BRANCH   4   5
ATOM      5  C   UNL     1      52.901  50.443  12.538  1.00  0.00     0.000 C 
BRANCH   5   6
ATOM      6  C   UNL     1      54.130  50.251  11.638  1.00  0.00     0.000 C 
BRANCH   6   7
ATOM      7  C   UNL     1      55.410  49.924  12.432  1.00  0.00     0.000 C 
BRANCH   7   8
ATOM      8  C   UNL     1      56.662  50.504  11.753  1.00  0.00     0.000 C 
BRANCH   8   9
ATOM      9  C   UNL     1      56.370  50.982  10.319  1.00  0.00     0.000 C 
BRANCH   9  10
ATOM     10  C   UNL     1      56.714  52.468  10.101  1.00  0.00     0.000 C 
BRANCH  10  11
ATOM     11  C   UNL     1      56.625  53.335  11.373  1.00  0.00     0.000 C 
BRANCH  11  12
ATOM     12  C   UNL     1      55.310  54.125  11.466  1.00  0.00     0.000 C 
BRANCH  12  13
ATOM     13  C   UNL     1      54.474  53.965  10.187  1.00  0.00     0.006 C 
BRANCH  13  14
ATOM     14  C   UNL     1      52.999  53.661  10.491  1.00  0.00     0.053 C 
BRANCH  14  15
ATOM     15  C   UNL     1      52.428  52.649   9.541  1.00  0.00     0.041 C 
ATOM     16  O   UNL     1      51.214  52.321   9.615  1.00  0.00    -0.550 OA
ATOM     17  O   UNL     1      53.244  52.036   8.599  1.00  0.00    -0.550 OA
ENDBRANCH  14  15
ENDBRANCH  13  14
ENDBRANCH  12  13
ENDBRANCH  11  12
ENDBRANCH  10  11
ENDBRANCH   9  10
ENDBRANCH   8   9
ENDBRANCH   7   8
ENDBRANCH   6   7
ENDBRANCH   5   6
ENDBRANCH   4   5
ENDBRANCH   3   4
ENDBRANCH   2   3
ENDBRANCH   1   2
BRANCH   1  18
ATOM     18  C   UNL     1      55.258  48.694  17.016  1.00  0.00     0.000 C 
BRANCH  18  19
ATOM     19  C   UNL     1      56.126  48.703  15.746  1.00  0.00     0.000 C 
BRANCH  19  20
ATOM     20  C   UNL     1      57.114  49.880  15.698  1.00  0.00     0.000 C 
BRANCH  20  21
ATOM     21  C   UNL     1      57.046  50.766  16.954  1.00  0.00     0.000 C 
BRANCH  21  22
ATOM     22  C   UNL     1      57.125  52.279  16.657  1.00  0.00     0.000 C 
BRANCH  22  23
ATOM     23  C   UNL     1      56.923  52.613  15.167  1.00  0.00     0.000 C 
BRANCH  23  24
ATOM     24  C   UNL     1      55.623  53.397  14.897  1.00  0.00    -0.000 C 
BRANCH  24  25
ATOM     25  C   UNL     1      54.363  52.532  14.705  1.00  0.00    -0.000 C 
BRANCH  25  26
ATOM     26  C   UNL     1      53.349  52.681  15.852  1.00  0.00    -0.000 C 
BRANCH  26  27
ATOM     27  C   UNL     1      53.641  53.898  16.744  1.00  0.00    -0.000 C 
BRANCH  27  28
ATOM     28  C   UNL     1      53.731  53.537  18.236  1.00  0.00    -0.000 C 
BRANCH  28  29
ATOM     29  C   UNL     1      53.832  52.018  18.430  1.00  0.00    -0.000 C 
BRANCH  29  30
ATOM     30  C   UNL     1      54.778  51.621  19.581  1.00  0.00    -0.000 C 
BRANCH  30  31
ATOM     31  C   UNL     1      54.178  50.642  20.606  1.00  0.00    -0.003 C 
ATOM     32  C   UNL     1      52.978  49.868  20.062  1.00  0.00     0.004 C 
ENDBRANCH  30  31
ENDBRANCH  29  30
ENDBRANCH  28  29
ENDBRANCH  27  28
ENDBRANCH  26  27
ENDBRANCH  25  26
ENDBRANCH  24  25
ENDBRANCH  23  24
ENDBRANCH  22  23
ENDBRANCH  21  22
ENDBRANCH  20  21
ENDBRANCH  19  20
ENDBRANCH  18  19
ENDBRANCH   1  18
TORSDOF 28
ENDMDL
MODEL 3
REMARK VINA RESULT:    -1.537     11.057     14.187
REMARK INTER + INTRA:         -10.061
REMARK INTER:                  -3.340
REMARK INTRA:                  -6.721
REMARK UNBOUND:                -6.008
REMARK SMILES CCCCCCCCCCCCCCCCCCCCCCCCCCCCCC(=O)[O-]
REMARK SMILES IDX 16 1 17 2 18 3 19 4 20 5 21 6 22 7 23 8 24 9 25 10 26 11
REMARK SMILES IDX 27 12 28 13 29 14 30 15 31 16 32 17 15 18 14 19 13 20 12 21
REMARK SMILES IDX 11 22 10 23 9 24 8 25 7 26 6 27 5 28 4 29 3 30 2 31 1 32
REMARK H PARENT
REMARK Flexibility Score: inf
ROOT
ATOM      1  C   UNL     1      42.083  48.620  21.218  1.00  0.00     0.000 C 
ENDROOT
BRANCH   1   2
ATOM      2  C   UNL     1      42.907  49.903  21.028  1.00  0.00     0.000 C 
BRANCH   2   3
ATOM      3  C   UNL     1      42.154  51.162  21.489  1.00  0.00     0.000 C 
BRANCH   3   4
ATOM      4  C   UNL     1      42.126  52.260  20.417  1.00  0.00     0.000 C 
BRANCH   4   5
ATOM      5  C   UNL     1      40.942  53.210  20.647  1.00  0.00     0.000 C 
BRANCH   5   6
ATOM      6  C   UNL     1      40.539  53.320  22.124  1.00  0.00     0.000 C 
BRANCH   6   7
ATOM      7  C   UNL     1      39.011  53.375  22.326  1.00  0.00     0.000 C 
BRANCH   7   8
ATOM      8  C   UNL     1      38.260  53.348  20.985  1.00  0.00     0.000 C 
BRANCH   8   9
ATOM      9  C   UNL     1      36.876  52.687  21.114  1.00  0.00     0.000 C 
BRANCH   9  10
ATOM     10  C   UNL     1      36.959  51.166  21.349  1.00  0.00     0.000 C 
BRANCH  10  11
ATOM     11  C   UNL     1      37.299  50.345  20.089  1.00  0.00     0.000 C 
BRANCH  11  12
ATOM     12  C   UNL     1      38.709  49.734  20.137  1.00  0.00     0.000 C 
BRANCH  12  13
ATOM     13  C   UNL     1      39.557  50.203  18.945  1.00  0.00     0.006 C 
BRANCH  13  14
ATOM     14  C   UNL     1      38.764  51.105  17.987  1.00  0.00     0.053 C 
BRANCH  14  15
ATOM     15  C   UNL     1      39.668  51.944  17.131  1.00  0.00     0.041 C 
ATOM     16  O   UNL     1      40.368  51.408  16.231  1.00  0.00    -0.550 OA
ATOM     17  O   UNL     1      39.768  53.311  17.351  1.00  0.00    -0.550 OA
ENDBRANCH  14  15
ENDBRANCH  13  14
ENDBRANCH  12  13
ENDBRANCH  11  12
ENDBRANCH  10  11
ENDBRANCH   9  10
ENDBRANCH   8   9
ENDBRANCH   7   8
ENDBRANCH   6   7
ENDBRANCH   5   6
ENDBRANCH   4   5
ENDBRANCH   3   4
ENDBRANCH   2   3
ENDBRANCH   1   2
BRANCH   1  18
ATOM     18  C   UNL     1      42.202  47.700  19.994  1.00  0.00     0.000 C 
BRANCH  18  19
ATOM     19  C   UNL     1      41.508  46.341  20.191  1.00  0.00     0.000 C 
BRANCH  19  20
ATOM     20  C   UNL     1      39.994  46.393  19.930  1.00  0.00     0.000 C 
BRANCH  20  21
ATOM     21  C   UNL     1      39.163  45.977  21.157  1.00  0.00     0.000 C 
BRANCH  21  22
ATOM     22  C   UNL     1      40.008  45.711  22.422  1.00  0.00     0.000 C 
BRANCH  22  23
ATOM     23  C   UNL     1      39.800  46.769  23.522  1.00  0.00     0.000 C 
BRANCH  23  24
ATOM     24  C   UNL     1      38.635  47.730  23.218  1.00  0.00    -0.000 C 
BRANCH  24  25
ATOM     25  C   UNL     1      38.588  49.001  24.088  1.00  0.00    -0.000 C 
BRANCH  25  26
ATOM     26  C   UNL     1      39.656  50.037  23.698  1.00  0.00    -0.000 C 
BRANCH  26  27
ATOM     27  C   UNL     1      40.588  50.393  24.868  1.00  0.00    -0.000 C 
BRANCH  27  28
ATOM     28  C   UNL     1      40.259  51.756  25.500  1.00  0.00    -0.000 C 
BRANCH  28  29
ATOM     29  C   UNL     1      41.533  52.584  25.718  1.00  0.00    -0.000 C 
BRANCH  29  30
ATOM     30  C   UNL     1      42.742  52.045  24.929  1.00  0.00    -0.000 C 
BRANCH  30  31
ATOM     31  C   UNL     1      43.924  53.023  24.804  1.00  0.00    -0.003 C 
ATOM     32  C   UNL     1      43.973  53.731  23.451  1.00  0.00     0.004 C 
ENDBRANCH  30  31
ENDBRANCH  29  30
ENDBRANCH  28  29
ENDBRANCH  27  28
ENDBRANCH  26  27
ENDBRANCH  25  26
ENDBRANCH  24  25
ENDBRANCH  23  24
ENDBRANCH  22  23
ENDBRANCH  21  22
ENDBRANCH  20  21
ENDBRANCH  19  20
ENDBRANCH  18  19
ENDBRANCH   1  18
TORSDOF 28
ENDMDL
MODEL 4
REMARK VINA RESULT:    -1.532      1.919      3.569
REMARK INTER + INTRA:         -10.048
REMARK INTER:                  -3.727
REMARK INTRA:                  -6.320
REMARK UNBOUND:                -6.008
REMARK SMILES CCCCCCCCCCCCCCCCCCCCCCCCCCCCCC(=O)[O-]
REMARK SMILES IDX 16 1 17 2 18 3 19 4 20 5 21 6 22 7 23 8 24 9 25 10 26 11
REMARK SMILES IDX 27 12 28 13 29 14 30 15 31 16 32 17 15 18 14 19 13 20 12 21
REMARK SMILES IDX 11 22 10 23 9 24 8 25 7 26 6 27 5 28 4 29 3 30 2 31 1 32
REMARK H PARENT
REMARK Flexibility Score: inf
ROOT
ATOM      1  C   UNL     1      41.066  35.065  20.669  1.00  0.00     0.000 C 
ENDROOT
BRANCH   1   2
ATOM      2  C   UNL     1      39.756  34.667  19.971  1.00  0.00     0.000 C 
BRANCH   2   3
ATOM      3  C   UNL     1      39.964  34.302  18.491  1.00  0.00     0.000 C 
BRANCH   3   4
ATOM      4  C   UNL     1      38.865  34.869  17.582  1.00  0.00     0.000 C 
BRANCH   4   5
ATOM      5  C   UNL     1      37.548  35.022  18.356  1.00  0.00     0.000 C 
BRANCH   5   6
ATOM      6  C   UNL     1      36.876  36.384  18.133  1.00  0.00     0.000 C 
BRANCH   6   7
ATOM      7  C   UNL     1      37.732  37.345  17.285  1.00  0.00     0.000 C 
BRANCH   7   8
ATOM      8  C   UNL     1      37.511  38.812  17.692  1.00  0.00     0.000 C 
BRANCH   8   9
ATOM      9  C   UNL     1      38.448  39.767  16.931  1.00  0.00     0.000 C 
BRANCH   9  10
ATOM     10  C   UNL     1      39.350  40.593  17.869  1.00  0.00     0.000 C 
BRANCH  10  11
ATOM     11  C   UNL     1      40.672  39.901  18.256  1.00  0.00     0.000 C 
BRANCH  11  12
ATOM     12  C   UNL     1      41.122  38.855  17.223  1.00  0.00     0.000 C 
BRANCH  12  13
ATOM     13  C   UNL     1      41.547  37.547  17.907  1.00  0.00     0.006 C 
BRANCH  13  14
ATOM     14  C   UNL     1      42.549  36.748  17.061  1.00  0.00     0.053 C 
BRANCH  14  15
ATOM     15  C   UNL     1      43.582  36.066  17.911  1.00  0.00     0.041 C 
ATOM     16  O   UNL     1      44.551  36.720  18.380  1.00  0.00    -0.550 OA
ATOM     17  O   UNL     1      43.497  34.701  18.154  1.00  0.00    -0.550 OA
ENDBRANCH  14  15
ENDBRANCH  13  14
ENDBRANCH  12  13
ENDBRANCH  11  12
ENDBRANCH  10  11
ENDBRANCH   9  10
ENDBRANCH   8   9
ENDBRANCH   7   8
ENDBRANCH   6   7
ENDBRANCH   5   6
ENDBRANCH   4   5
ENDBRANCH   3   4
ENDBRANCH   2   3
ENDBRANCH   1   2
BRANCH   1  18
ATOM     18  C   UNL     1      41.248  34.290  21.983  1.00  0.00     0.000 C 
BRANCH  18  19
ATOM     19  C   UNL     1      41.309  35.205  23.219  1.00  0.00     0.000 C 
BRANCH  19  20
ATOM     20  C   UNL     1      39.957  35.335  23.940  1.00  0.00     0.000 C 
BRANCH  20  21
ATOM     21  C   UNL     1      39.010  34.158  23.648  1.00  0.00     0.000 C 
BRANCH  21  22
ATOM     22  C   UNL     1      37.631  34.586  23.101  1.00  0.00     0.000 C 
BRANCH  22  23
ATOM     23  C   UNL     1      37.418  36.111  23.127  1.00  0.00     0.000 C 
BRANCH  23  24
ATOM     24  C   UNL     1      36.951  36.676  21.772  1.00  0.00    -0.000 C 
BRANCH  24  25
ATOM     25  C   UNL     1      37.517  38.062  21.408  1.00  0.00    -0.000 C 
BRANCH  25  26
ATOM     26  C   UNL     1      39.006  38.023  21.022  1.00  0.00    -0.000 C 
BRANCH  26  27
ATOM     27  C   UNL     1      39.812  39.164  21.664  1.00  0.00    -0.000 C 
BRANCH  27  28
ATOM     28  C   UNL     1      41.266  38.769  21.971  1.00  0.00    -0.000 C 
BRANCH  28  29
ATOM     29  C   UNL     1      41.755  39.433  23.266  1.00  0.00    -0.000 C 
BRANCH  29  30
ATOM     30  C   UNL     1      41.258  38.714  24.535  1.00  0.00    -0.000 C 
BRANCH  30  31
ATOM     31  C   UNL     1      42.350  37.984  25.338  1.00  0.00    -0.003 C 
ATOM     32  C   UNL     1      41.912  37.627  26.756  1.00  0.00     0.004 C 
ENDBRANCH  30  31
ENDBRANCH  29  30
ENDBRANCH  28  29
ENDBRANCH  27  28
ENDBRANCH  26  27
ENDBRANCH  25  26
ENDBRANCH  24  25
ENDBRANCH  23  24
ENDBRANCH  22  23
ENDBRANCH  21  22
ENDBRANCH  20  21
ENDBRANCH  19  20
ENDBRANCH  18  19
ENDBRANCH   1  18
TORSDOF 28
ENDMDL
MODEL 5
REMARK VINA RESULT:    -1.529     11.671     15.248
REMARK INTER + INTRA:         -10.039
REMARK INTER:                  -3.377
REMARK INTRA:                  -6.662
REMARK UNBOUND:                -6.008
REMARK SMILES CCCCCCCCCCCCCCCCCCCCCCCCCCCCCC(=O)[O-]
REMARK SMILES IDX 16 1 17 2 18 3 19 4 20 5 21 6 22 7 23 8 24 9 25 10 26 11
REMARK SMILES IDX 27 12 28 13 29 14 30 15 31 16 32 17 15 18 14 19 13 20 12 21
REMARK SMILES IDX 11 22 10 23 9 24 8 25 7 26 6 27 5 28 4 29 3 30 2 31 1 32
REMARK H PARENT
REMARK Flexibility Score: inf
ROOT
ATOM      1  C   UNL     1      40.788  49.895  20.962  1.00  0.00     0.000 C 
ENDROOT
BRANCH   1   2
ATOM      2  C   UNL     1      40.073  50.404  22.224  1.00  0.00     0.000 C 
BRANCH   2   3
ATOM      3  C   UNL     1      38.642  50.888  21.936  1.00  0.00     0.000 C 
BRANCH   3   4
ATOM      4  C   UNL     1      38.203  52.025  22.868  1.00  0.00     0.000 C 
BRANCH   4   5
ATOM      5  C   UNL     1      38.555  53.390  22.259  1.00  0.00     0.000 C 
BRANCH   5   6
ATOM      6  C   UNL     1      38.387  53.428  20.734  1.00  0.00     0.000 C 
BRANCH   6   7
ATOM      7  C   UNL     1      39.597  54.052  20.012  1.00  0.00     0.000 C 
BRANCH   7   8
ATOM      8  C   UNL     1      40.830  54.124  20.928  1.00  0.00     0.000 C 
BRANCH   8   9
ATOM      9  C   UNL     1      42.012  53.316  20.366  1.00  0.00     0.000 C 
BRANCH   9  10
ATOM     10  C   UNL     1      42.534  53.873  19.027  1.00  0.00     0.000 C 
BRANCH  10  11
ATOM     11  C   UNL     1      42.881  52.795  17.981  1.00  0.00     0.000 C 
BRANCH  11  12
ATOM     12  C   UNL     1      43.185  51.426  18.611  1.00  0.00     0.000 C 
BRANCH  12  13
ATOM     13  C   UNL     1      44.119  50.597  17.716  1.00  0.00     0.006 C 
BRANCH  13  14
ATOM     14  C   UNL     1      44.072  49.100  18.057  1.00  0.00     0.053 C 
BRANCH  14  15
ATOM     15  C   UNL     1      44.939  48.767  19.237  1.00  0.00     0.041 C 
ATOM     16  O   UNL     1      46.144  49.131  19.262  1.00  0.00    -0.550 OA
ATOM     17  O   UNL     1      44.428  48.022  20.291  1.00  0.00    -0.550 OA
ENDBRANCH  14  15
ENDBRANCH  13  14
ENDBRANCH  12  13
ENDBRANCH  11  12
ENDBRANCH  10  11
ENDBRANCH   9  10
ENDBRANCH   8   9
ENDBRANCH   7   8
ENDBRANCH   6   7
ENDBRANCH   5   6
ENDBRANCH   4   5
ENDBRANCH   3   4
ENDBRANCH   2   3
ENDBRANCH   1   2
BRANCH   1  18
ATOM     18  C   UNL     1      40.747  48.361  20.885  1.00  0.00     0.000 C 
BRANCH  18  19
ATOM     19  C   UNL     1      40.953  47.823  19.458  1.00  0.00     0.000 C 
BRANCH  19  20
ATOM     20  C   UNL     1      39.639  47.423  18.767  1.00  0.00     0.000 C 
BRANCH  20  21
ATOM     21  C   UNL     1      38.412  47.589  19.681  1.00  0.00     0.000 C 
BRANCH  21  22
ATOM     22  C   UNL     1      37.361  48.583  19.140  1.00  0.00     0.000 C 
BRANCH  22  23
ATOM     23  C   UNL     1      37.862  49.393  17.930  1.00  0.00     0.000 C 
BRANCH  23  24
ATOM     24  C   UNL     1      38.392  50.787  18.318  1.00  0.00    -0.000 C 
BRANCH  24  25
ATOM     25  C   UNL     1      39.687  51.220  17.604  1.00  0.00    -0.000 C 
BRANCH  25  26
ATOM     26  C   UNL     1      39.487  52.429  16.674  1.00  0.00    -0.000 C 
BRANCH  26  27
ATOM     27  C   UNL     1      39.484  52.036  15.188  1.00  0.00    -0.000 C 
BRANCH  27  28
ATOM     28  C   UNL     1      38.104  51.570  14.697  1.00  0.00    -0.000 C 
BRANCH  28  29
ATOM     29  C   UNL     1      38.174  50.146  14.127  1.00  0.00    -0.000 C 
BRANCH  29  30
ATOM     30  C   UNL     1      39.614  49.600  14.050  1.00  0.00    -0.000 C 
BRANCH  30  31
ATOM     31  C   UNL     1      39.927  48.454  15.028  1.00  0.00    -0.003 C 
ATOM     32  C   UNL     1      41.329  48.546  15.628  1.00  0.00     0.004 C 
ENDBRANCH  30  31
ENDBRANCH  29  30
ENDBRANCH  28  29
ENDBRANCH  27  28
ENDBRANCH  26  27
ENDBRANCH  25  26
ENDBRANCH  24  25
ENDBRANCH  23  24
ENDBRANCH  22  23
ENDBRANCH  21  22
ENDBRANCH  20  21
ENDBRANCH  19  20
ENDBRANCH  18  19
ENDBRANCH   1  18
TORSDOF 28
ENDMDL
MODEL 6
REMARK VINA RESULT:    -1.506      2.531      5.980
REMARK INTER + INTRA:          -9.980
REMARK INTER:                  -3.681
REMARK INTRA:                  -6.300
REMARK UNBOUND:                -6.008
REMARK SMILES CCCCCCCCCCCCCCCCCCCCCCCCCCCCCC(=O)[O-]
REMARK SMILES IDX 16 1 17 2 18 3 19 4 20 5 21 6 22 7 23 8 24 9 25 10 26 11
REMARK SMILES IDX 27 12 28 13 29 14 30 15 31 16 32 17 15 18 14 19 13 20 12 21
REMARK SMILES IDX 11 22 10 23 9 24 8 25 7 26 6 27 5 28 4 29 3 30 2 31 1 32
REMARK H PARENT
REMARK Flexibility Score: inf
ROOT
ATOM      1  C   UNL     1      41.021  35.835  21.490  1.00  0.00     0.000 C 
ENDROOT
BRANCH   1   2
ATOM      2  C   UNL     1      40.144  34.581  21.343  1.00  0.00     0.000 C 
BRANCH   2   3
ATOM      3  C   UNL     1      39.518  34.141  22.676  1.00  0.00     0.000 C 
BRANCH   3   4
ATOM      4  C   UNL     1      37.988  34.269  22.683  1.00  0.00     0.000 C 
BRANCH   4   5
ATOM      5  C   UNL     1      37.540  35.339  23.688  1.00  0.00     0.000 C 
BRANCH   5   6
ATOM      6  C   UNL     1      38.675  35.815  24.604  1.00  0.00     0.000 C 
BRANCH   6   7
ATOM      7  C   UNL     1      38.239  36.937  25.568  1.00  0.00     0.000 C 
BRANCH   7   8
ATOM      8  C   UNL     1      39.382  37.931  25.836  1.00  0.00     0.000 C 
BRANCH   8   9
ATOM      9  C   UNL     1      40.612  37.643  24.956  1.00  0.00     0.000 C 
BRANCH   9  10
ATOM     10  C   UNL     1      41.892  38.328  25.475  1.00  0.00     0.000 C 
BRANCH  10  11
ATOM     11  C   UNL     1      42.076  39.781  24.994  1.00  0.00     0.000 C 
BRANCH  11  12
ATOM     12  C   UNL     1      43.176  39.923  23.930  1.00  0.00     0.000 C 
BRANCH  12  13
ATOM     13  C   UNL     1      42.752  39.274  22.603  1.00  0.00     0.006 C 
BRANCH  13  14
ATOM     14  C   UNL     1      41.441  39.864  22.062  1.00  0.00     0.053 C 
BRANCH  14  15
ATOM     15  C   UNL     1      41.680  41.095  21.236  1.00  0.00     0.041 C 
ATOM     16  O   UNL     1      41.211  42.206  21.601  1.00  0.00    -0.550 OA
ATOM     17  O   UNL     1      42.386  41.010  20.043  1.00  0.00    -0.550 OA
ENDBRANCH  14  15
ENDBRANCH  13  14
ENDBRANCH  12  13
ENDBRANCH  11  12
ENDBRANCH  10  11
ENDBRANCH   9  10
ENDBRANCH   8   9
ENDBRANCH   7   8
ENDBRANCH   6   7
ENDBRANCH   5   6
ENDBRANCH   4   5
ENDBRANCH   3   4
ENDBRANCH   2   3
ENDBRANCH   1   2
BRANCH   1  18
ATOM     18  C   UNL     1      41.421  36.394  20.115  1.00  0.00     0.000 C 
BRANCH  18  19
ATOM     19  C   UNL     1      40.960  35.506  18.947  1.00  0.00     0.000 C 
BRANCH  19  20
ATOM     20  C   UNL     1      40.407  36.310  17.759  1.00  0.00     0.000 C 
BRANCH  20  21
ATOM     21  C   UNL     1      39.108  35.713  17.188  1.00  0.00     0.000 C 
BRANCH  21  22
ATOM     22  C   UNL     1      38.462  34.643  18.094  1.00  0.00     0.000 C 
BRANCH  22  23
ATOM     23  C   UNL     1      37.034  35.011  18.540  1.00  0.00     0.000 C 
BRANCH  23  24
ATOM     24  C   UNL     1      37.010  35.941  19.768  1.00  0.00    -0.000 C 
BRANCH  24  25
ATOM     25  C   UNL     1      36.875  37.443  19.452  1.00  0.00    -0.000 C 
BRANCH  25  26
ATOM     26  C   UNL     1      38.081  38.270  19.930  1.00  0.00    -0.000 C 
BRANCH  26  27
ATOM     27  C   UNL     1      38.327  38.135  21.441  1.00  0.00    -0.000 C 
BRANCH  27  28
ATOM     28  C   UNL     1      37.224  38.790  22.288  1.00  0.00    -0.000 C 
BRANCH  28  29
ATOM     29  C   UNL     1      36.946  40.224  21.816  1.00  0.00    -0.000 C 
BRANCH  29  30
ATOM     30  C   UNL     1      37.746  41.280  22.604  1.00  0.00    -0.000 C 
BRANCH  30  31
ATOM     31  C   UNL     1      38.433  40.757  23.878  1.00  0.00    -0.003 C 
ATOM     32  C   UNL     1      39.124  41.858  24.680  1.00  0.00     0.004 C 
ENDBRANCH  30  31
ENDBRANCH  29  30
ENDBRANCH  28  29
ENDBRANCH  27  28
ENDBRANCH  26  27
ENDBRANCH  25  26
ENDBRANCH  24  25
ENDBRANCH  23  24
ENDBRANCH  22  23
ENDBRANCH  21  22
ENDBRANCH  20  21
ENDBRANCH  19  20
ENDBRANCH  18  19
ENDBRANCH   1  18
TORSDOF 28
ENDMDL
MODEL 7
REMARK VINA RESULT:    -1.501      3.037      6.596
REMARK INTER + INTRA:          -9.966
REMARK INTER:                  -3.605
REMARK INTRA:                  -6.361
REMARK UNBOUND:                -6.008
REMARK SMILES CCCCCCCCCCCCCCCCCCCCCCCCCCCCCC(=O)[O-]
REMARK SMILES IDX 16 1 17 2 18 3 19 4 20 5 21 6 22 7 23 8 24 9 25 10 26 11
REMARK SMILES IDX 27 12 28 13 29 14 30 15 31 16 32 17 15 18 14 19 13 20 12 21
REMARK SMILES IDX 11 22 10 23 9 24 8 25 7 26 6 27 5 28 4 29 3 30 2 31 1 32
REMARK H PARENT
REMARK Flexibility Score: inf
ROOT
ATOM      1  C   UNL     1      42.607  38.617  22.819  1.00  0.00     0.000 C 
ENDROOT
BRANCH   1   2
ATOM      2  C   UNL     1      43.432  37.459  23.404  1.00  0.00     0.000 C 
BRANCH   2   3
ATOM      3  C   UNL     1      42.554  36.285  23.868  1.00  0.00     0.000 C 
BRANCH   3   4
ATOM      4  C   UNL     1      42.825  34.996  23.080  1.00  0.00     0.000 C 
BRANCH   4   5
ATOM      5  C   UNL     1      42.207  35.079  21.677  1.00  0.00     0.000 C 
BRANCH   5   6
ATOM      6  C   UNL     1      40.675  35.168  21.701  1.00  0.00     0.000 C 
BRANCH   6   7
ATOM      7  C   UNL     1      40.006  33.876  22.209  1.00  0.00     0.000 C 
BRANCH   7   8
ATOM      8  C   UNL     1      38.762  34.178  23.062  1.00  0.00     0.000 C 
BRANCH   8   9
ATOM      9  C   UNL     1      39.033  35.277  24.105  1.00  0.00     0.000 C 
BRANCH   9  10
ATOM     10  C   UNL     1      38.034  36.447  24.014  1.00  0.00     0.000 C 
BRANCH  10  11
ATOM     11  C   UNL     1      38.205  37.517  25.111  1.00  0.00     0.000 C 
BRANCH  11  12
ATOM     12  C   UNL     1      39.410  37.246  26.027  1.00  0.00     0.000 C 
BRANCH  12  13
ATOM     13  C   UNL     1      39.523  38.314  27.125  1.00  0.00     0.006 C 
BRANCH  13  14
ATOM     14  C   UNL     1      39.243  39.727  26.591  1.00  0.00     0.053 C 
BRANCH  14  15
ATOM     15  C   UNL     1      40.510  40.470  26.280  1.00  0.00     0.041 C 
ATOM     16  O   UNL     1      40.469  41.559  25.647  1.00  0.00    -0.550 OA
ATOM     17  O   UNL     1      41.739  39.943  26.654  1.00  0.00    -0.550 OA
ENDBRANCH  14  15
ENDBRANCH  13  14
ENDBRANCH  12  13
ENDBRANCH  11  12
ENDBRANCH  10  11
ENDBRANCH   9  10
ENDBRANCH   8   9
ENDBRANCH   7   8
ENDBRANCH   6   7
ENDBRANCH   5   6
ENDBRANCH   4   5
ENDBRANCH   3   4
ENDBRANCH   2   3
ENDBRANCH   1   2
BRANCH   1  18
ATOM     18  C   UNL     1      41.122  38.477  23.186  1.00  0.00     0.000 C 
BRANCH  18  19
ATOM     19  C   UNL     1      40.240  39.568  22.553  1.00  0.00     0.000 C 
BRANCH  19  20
ATOM     20  C   UNL     1      40.303  39.578  21.017  1.00  0.00     0.000 C 
BRANCH  20  21
ATOM     21  C   UNL     1      39.542  38.401  20.382  1.00  0.00     0.000 C 
BRANCH  21  22
ATOM     22  C   UNL     1      38.296  38.826  19.573  1.00  0.00     0.000 C 
BRANCH  22  23
ATOM     23  C   UNL     1      37.059  37.957  19.869  1.00  0.00     0.000 C 
BRANCH  23  24
ATOM     24  C   UNL     1      37.417  36.597  20.499  1.00  0.00    -0.000 C 
BRANCH  24  25
ATOM     25  C   UNL     1      37.186  35.372  19.593  1.00  0.00    -0.000 C 
BRANCH  25  26
ATOM     26  C   UNL     1      37.278  35.705  18.094  1.00  0.00    -0.000 C 
BRANCH  26  27
ATOM     27  C   UNL     1      38.411  34.940  17.389  1.00  0.00    -0.000 C 
BRANCH  27  28
ATOM     28  C   UNL     1      39.493  34.444  18.362  1.00  0.00    -0.000 C 
BRANCH  28  29
ATOM     29  C   UNL     1      40.895  34.835  17.873  1.00  0.00    -0.000 C 
BRANCH  29  30
ATOM     30  C   UNL     1      41.256  36.298  18.195  1.00  0.00    -0.000 C 
BRANCH  30  31
ATOM     31  C   UNL     1      42.764  36.609  18.195  1.00  0.00    -0.003 C 
ATOM     32  C   UNL     1      43.155  37.671  19.221  1.00  0.00     0.004 C 
ENDBRANCH  30  31
ENDBRANCH  29  30
ENDBRANCH  28  29
ENDBRANCH  27  28
ENDBRANCH  26  27
ENDBRANCH  25  26
ENDBRANCH  24  25
ENDBRANCH  23  24
ENDBRANCH  22  23
ENDBRANCH  21  22
ENDBRANCH  20  21
ENDBRANCH  19  20
ENDBRANCH  18  19
ENDBRANCH   1  18
TORSDOF 28
ENDMDL
