MODEL 1
REMARK VINA RESULT:    -4.495      0.000      0.000
REMARK INTER + INTRA:          -7.637
REMARK INTER:                  -7.124
REMARK INTRA:                  -0.513
REMARK UNBOUND:                -0.513
REMARK SMILES CCCCCCCCCCCC(=O)[O-]
REMARK SMILES IDX 7 1 8 2 9 3 10 4 11 5 12 6 13 7 14 8 6 9 5 10 4 11 3 12 2 13
REMARK SMILES IDX 1 14
REMARK H PARENT
REMARK Flexibility Score: inf
ROOT
ATOM      1  C   UNL     1      18.103  -8.550  14.186  1.00  0.00     0.000 C 
ENDROOT
BRANCH   1   2
ATOM      2  C   UNL     1      17.759  -9.753  13.293  1.00  0.00     0.000 C 
BRANCH   2   3
ATOM      3  C   UNL     1      16.793  -9.346  12.174  1.00  0.00     0.000 C 
BRANCH   3   4
ATOM      4  C   UNL     1      15.533 -10.224  12.187  1.00  0.00     0.006 C 
BRANCH   4   5
ATOM      5  C   UNL     1      15.868 -11.720  12.262  1.00  0.00     0.053 C 
BRANCH   5   6
ATOM      6  C   UNL     1      14.634 -12.563  12.358  1.00  0.00     0.041 C 
ATOM      7  O   UNL     1      14.713 -13.760  12.741  1.00  0.00    -0.550 OA
ATOM      8  O   UNL     1      13.400 -12.037  11.994  1.00  0.00    -0.550 OA
ENDBRANCH   5   6
ENDBRANCH   4   5
ENDBRANCH   3   4
ENDBRANCH   2   3
ENDBRANCH   1   2
BRANCH   1   9
ATOM      9  C   UNL     1      17.651  -7.213  13.577  1.00  0.00     0.000 C 
BRANCH   9  10
ATOM     10  C   UNL     1      17.356  -6.146  14.641  1.00  0.00    -0.000 C 
BRANCH  10  11
ATOM     11  C   UNL     1      17.344  -6.761  16.046  1.00  0.00    -0.000 C 
BRANCH  11  12
ATOM     12  C   UNL     1      16.343  -6.035  16.957  1.00  0.00    -0.000 C 
BRANCH  12  13
ATOM     13  C   UNL     1      17.016  -5.380  18.172  1.00  0.00    -0.003 C 
ATOM     14  C   UNL     1      16.045  -4.553  19.013  1.00  0.00     0.004 C 
ENDBRANCH  12  13
ENDBRANCH  11  12
ENDBRANCH  10  11
ENDBRANCH   9  10
ENDBRANCH   1   9
TORSDOF 10
ENDMDL
MODEL 2
REMARK VINA RESULT:    -4.351      3.596      7.020
REMARK INTER + INTRA:          -7.407
REMARK INTER:                  -6.803
REMARK INTRA:                  -0.604
REMARK UNBOUND:                -0.513
REMARK SMILES CCCCCCCCCCCC(=O)[O-]
REMARK SMILES IDX 7 1 8 2 9 3 10 4 11 5 12 6 13 7 14 8 6 9 5 10 4 11 3 12 2 13
REMARK SMILES IDX 1 14
REMARK H PARENT
REMARK Flexibility Score: inf
ROOT
ATOM      1  C   UNL     1      18.127  -8.703  13.545  1.00  0.00     0.000 C 
ENDROOT
BRANCH   1   2
ATOM      2  C   UNL     1      17.702  -7.424  12.807  1.00  0.00     0.000 C 
BRANCH   2   3
ATOM      3  C   UNL     1      17.724  -6.215  13.750  1.00  0.00     0.000 C 
BRANCH   3   4
ATOM      4  C   UNL     1      16.665  -6.358  14.853  1.00  0.00     0.006 C 
BRANCH   4   5
ATOM      5  C   UNL     1      17.293  -6.536  16.242  1.00  0.00     0.053 C 
BRANCH   5   6
ATOM      6  C   UNL     1      16.559  -5.758  17.289  1.00  0.00     0.041 C 
ATOM      7  O   UNL     1      15.371  -5.389  17.088  1.00  0.00    -0.550 OA
ATOM      8  O   UNL     1      17.195  -5.411  18.475  1.00  0.00    -0.550 OA
ENDBRANCH   5   6
ENDBRANCH   4   5
ENDBRANCH   3   4
ENDBRANCH   2   3
ENDBRANCH   1   2
BRANCH   1   9
ATOM      9  C   UNL     1      17.394  -9.954  13.031  1.00  0.00     0.000 C 
BRANCH   9  10
ATOM     10  C   UNL     1      16.101  -9.615  12.275  1.00  0.00    -0.000 C 
BRANCH  10  11
ATOM     11  C   UNL     1      15.178 -10.837  12.191  1.00  0.00    -0.000 C 
BRANCH  11  12
ATOM     12  C   UNL     1      15.982 -12.142  12.292  1.00  0.00    -0.000 C 
BRANCH  12  13
ATOM     13  C   UNL     1      15.089 -13.369  12.526  1.00  0.00    -0.003 C 
ATOM     14  C   UNL     1      13.619 -13.001  12.727  1.00  0.00     0.004 C 
ENDBRANCH  12  13
ENDBRANCH  11  12
ENDBRANCH  10  11
ENDBRANCH   9  10
ENDBRANCH   1   9
TORSDOF 10
ENDMDL
MODEL 3
REMARK VINA RESULT:    -4.266      1.914      2.717
REMARK INTER + INTRA:          -7.273
REMARK INTER:                  -6.202
REMARK INTRA:                  -1.071
REMARK UNBOUND:                -0.513
REMARK SMILES CCCCCCCCCCCC(=O)[O-]
REMARK SMILES IDX 7 1 8 2 9 3 10 4 11 5 12 6 13 7 14 8 6 9 5 10 4 11 3 12 2 13
REMARK SMILES IDX 1 14
REMARK H PARENT
REMARK Flexibility Score: inf
ROOT
ATOM      1  C   UNL     1      18.269  -8.901  13.563  1.00  0.00     0.000 C 
ENDROOT
BRANCH   1   2
ATOM      2  C   UNL     1      17.393 -10.072  13.091  1.00  0.00     0.000 C 
BRANCH   2   3
ATOM      3  C   UNL     1      16.299  -9.586  12.133  1.00  0.00     0.000 C 
BRANCH   3   4
ATOM      4  C   UNL     1      14.966 -10.296  12.413  1.00  0.00     0.006 C 
BRANCH   4   5
ATOM      5  C   UNL     1      15.026 -11.794  12.084  1.00  0.00     0.053 C 
BRANCH   5   6
ATOM      6  C   UNL     1      13.880 -12.543  12.692  1.00  0.00     0.041 C 
ATOM      7  O   UNL     1      12.857 -11.924  13.087  1.00  0.00    -0.550 OA
ATOM      8  O   UNL     1      13.954 -13.922  12.851  1.00  0.00    -0.550 OA
ENDBRANCH   5   6
ENDBRANCH   4   5
ENDBRANCH   3   4
ENDBRANCH   2   3
ENDBRANCH   1   2
BRANCH   1   9
ATOM      9  C   UNL     1      18.279  -7.731  12.567  1.00  0.00     0.000 C 
BRANCH   9  10
ATOM     10  C   UNL     1      18.085  -6.369  13.250  1.00  0.00    -0.000 C 
BRANCH  10  11
ATOM     11  C   UNL     1      17.376  -6.528  14.601  1.00  0.00    -0.000 C 
BRANCH  11  12
ATOM     12  C   UNL     1      15.913  -6.068  14.513  1.00  0.00    -0.000 C 
BRANCH  12  13
ATOM     13  C   UNL     1      15.559  -5.486  13.136  1.00  0.00    -0.003 C 
ATOM     14  C   UNL     1      14.464  -6.277  12.423  1.00  0.00     0.004 C 
ENDBRANCH  12  13
ENDBRANCH  11  12
ENDBRANCH  10  11
ENDBRANCH   9  10
ENDBRANCH   1   9
TORSDOF 10
ENDMDL
MODEL 4
REMARK VINA RESULT:    -4.257      3.666      6.543
REMARK INTER + INTRA:          -7.259
REMARK INTER:                  -6.482
REMARK INTRA:                  -0.777
REMARK UNBOUND:                -0.513
REMARK SMILES CCCCCCCCCCCC(=O)[O-]
REMARK SMILES IDX 7 1 8 2 9 3 10 4 11 5 12 6 13 7 14 8 6 9 5 10 4 11 3 12 2 13
REMARK SMILES IDX 1 14
REMARK H PARENT
REMARK Flexibility Score: inf
ROOT
ATOM      1  C   UNL     1      18.203  -8.778  13.673  1.00  0.00     0.000 C 
ENDROOT
BRANCH   1   2
ATOM      2  C   UNL     1      18.185  -7.545  12.756  1.00  0.00     0.000 C 
BRANCH   2   3
ATOM      3  C   UNL     1      17.868  -6.274  13.554  1.00  0.00     0.000 C 
BRANCH   3   4
ATOM      4  C   UNL     1      16.534  -6.412  14.303  1.00  0.00     0.006 C 
BRANCH   4   5
ATOM      5  C   UNL     1      15.326  -6.159  13.391  1.00  0.00     0.053 C 
BRANCH   5   6
ATOM      6  C   UNL     1      14.274  -5.341  14.074  1.00  0.00     0.041 C 
ATOM      7  O   UNL     1      14.082  -5.464  15.313  1.00  0.00    -0.550 OA
ATOM      8  O   UNL     1      13.484  -4.466  13.339  1.00  0.00    -0.550 OA
ENDBRANCH   5   6
ENDBRANCH   4   5
ENDBRANCH   3   4
ENDBRANCH   2   3
ENDBRANCH   1   2
BRANCH   1   9
ATOM      9  C   UNL     1      17.514  -9.997  13.039  1.00  0.00     0.000 C 
BRANCH   9  10
ATOM     10  C   UNL     1      16.182  -9.639  12.364  1.00  0.00    -0.000 C 
BRANCH  10  11
ATOM     11  C   UNL     1      15.212 -10.827  12.401  1.00  0.00    -0.000 C 
BRANCH  11  12
ATOM     12  C   UNL     1      15.962 -12.156  12.226  1.00  0.00    -0.000 C 
BRANCH  12  13
ATOM     13  C   UNL     1      15.085 -13.375  12.547  1.00  0.00    -0.003 C 
ATOM     14  C   UNL     1      13.603 -13.023  12.668  1.00  0.00     0.004 C 
ENDBRANCH  12  13
ENDBRANCH  11  12
ENDBRANCH  10  11
ENDBRANCH   9  10
ENDBRANCH   1   9
TORSDOF 10
ENDMDL
MODEL 5
REMARK VINA RESULT:    -4.169      3.873      5.972
REMARK INTER + INTRA:          -7.119
REMARK INTER:                  -6.132
REMARK INTRA:                  -0.987
REMARK UNBOUND:                -0.513
REMARK SMILES CCCCCCCCCCCC(=O)[O-]
REMARK SMILES IDX 7 1 8 2 9 3 10 4 11 5 12 6 13 7 14 8 6 9 5 10 4 11 3 12 2 13
REMARK SMILES IDX 1 14
REMARK H PARENT
REMARK Flexibility Score: inf
ROOT
ATOM      1  C   UNL     1      13.352 -12.624  12.973  1.00  0.00     0.000 C 
ENDROOT
BRANCH   1   2
ATOM      2  C   UNL     1      12.347 -11.463  12.922  1.00  0.00     0.000 C 
BRANCH   2   3
ATOM      3  C   UNL     1      12.901 -10.295  12.096  1.00  0.00     0.000 C 
BRANCH   3   4
ATOM      4  C   UNL     1      13.075  -9.040  12.963  1.00  0.00     0.006 C 
BRANCH   4   5
ATOM      5  C   UNL     1      13.954  -7.981  12.284  1.00  0.00     0.053 C 
BRANCH   5   6
ATOM      6  C   UNL     1      14.381  -6.914  13.243  1.00  0.00     0.041 C 
ATOM      7  O   UNL     1      13.545  -6.073  13.668  1.00  0.00    -0.550 OA
ATOM      8  O   UNL     1      15.709  -6.826  13.644  1.00  0.00    -0.550 OA
ENDBRANCH   5   6
ENDBRANCH   4   5
ENDBRANCH   3   4
ENDBRANCH   2   3
ENDBRANCH   1   2
BRANCH   1   9
ATOM      9  C   UNL     1      14.422 -12.529  11.875  1.00  0.00     0.000 C 
BRANCH   9  10
ATOM     10  C   UNL     1      15.850 -12.495  12.440  1.00  0.00    -0.000 C 
BRANCH  10  11
ATOM     11  C   UNL     1      16.633 -11.301  11.882  1.00  0.00    -0.000 C 
BRANCH  11  12
ATOM     12  C   UNL     1      16.604 -10.117  12.861  1.00  0.00    -0.000 C 
BRANCH  12  13
ATOM     13  C   UNL     1      17.980  -9.457  13.029  1.00  0.00    -0.003 C 
ATOM     14  C   UNL     1      18.460  -9.450  14.480  1.00  0.00     0.004 C 
ENDBRANCH  12  13
ENDBRANCH  11  12
ENDBRANCH  10  11
ENDBRANCH   9  10
ENDBRANCH   1   9
TORSDOF 10
ENDMDL
MODEL 6
REMARK VINA RESULT:    -4.164      2.268      3.623
REMARK INTER + INTRA:          -7.111
REMARK INTER:                  -6.124
REMARK INTRA:                  -0.987
REMARK UNBOUND:                -0.513
REMARK SMILES CCCCCCCCCCCC(=O)[O-]
REMARK SMILES IDX 7 1 8 2 9 3 10 4 11 5 12 6 13 7 14 8 6 9 5 10 4 11 3 12 2 13
REMARK SMILES IDX 1 14
REMARK H PARENT
REMARK Flexibility Score: inf
ROOT
ATOM      1  C   UNL     1      14.287  -6.635  12.643  1.00  0.00     0.000 C 
ENDROOT
BRANCH   1   2
ATOM      2  C   UNL     1      14.484  -7.965  11.899  1.00  0.00     0.000 C 
BRANCH   2   3
ATOM      3  C   UNL     1      13.828  -9.122  12.662  1.00  0.00     0.000 C 
BRANCH   3   4
ATOM      4  C   UNL     1      14.568 -10.443  12.404  1.00  0.00     0.006 C 
BRANCH   4   5
ATOM      5  C   UNL     1      13.648 -11.663  12.547  1.00  0.00     0.053 C 
BRANCH   5   6
ATOM      6  C   UNL     1      14.424 -12.944  12.581  1.00  0.00     0.041 C 
ATOM      7  O   UNL     1      13.847 -14.025  12.869  1.00  0.00    -0.550 OA
ATOM      8  O   UNL     1      15.789 -12.939  12.325  1.00  0.00    -0.550 OA
ENDBRANCH   5   6
ENDBRANCH   4   5
ENDBRANCH   3   4
ENDBRANCH   2   3
ENDBRANCH   1   2
BRANCH   1   9
ATOM      9  C   UNL     1      15.618  -5.944  12.981  1.00  0.00     0.000 C 
BRANCH   9  10
ATOM     10  C   UNL     1      16.291  -6.533  14.230  1.00  0.00    -0.000 C 
BRANCH  10  11
ATOM     11  C   UNL     1      17.802  -6.685  14.020  1.00  0.00    -0.000 C 
BRANCH  11  12
ATOM     12  C   UNL     1      18.104  -7.648  12.862  1.00  0.00    -0.000 C 
BRANCH  12  13
ATOM     13  C   UNL     1      17.850  -9.116  13.234  1.00  0.00    -0.003 C 
ATOM     14  C   UNL     1      18.548  -9.528  14.529  1.00  0.00     0.004 C 
ENDBRANCH  12  13
ENDBRANCH  11  12
ENDBRANCH  10  11
ENDBRANCH   9  10
ENDBRANCH   1   9
TORSDOF 10
ENDMDL
MODEL 7
REMARK VINA RESULT:    -4.138      4.046      5.934
REMARK INTER + INTRA:          -7.070
REMARK INTER:                  -6.032
REMARK INTRA:                  -1.038
REMARK UNBOUND:                -0.513
REMARK SMILES CCCCCCCCCCCC(=O)[O-]
REMARK SMILES IDX 7 1 8 2 9 3 10 4 11 5 12 6 13 7 14 8 6 9 5 10 4 11 3 12 2 13
REMARK SMILES IDX 1 14
REMARK H PARENT
REMARK Flexibility Score: inf
ROOT
ATOM      1  C   UNL     1      14.139 -13.491  12.242  1.00  0.00     0.000 C 
ENDROOT
BRANCH   1   2
ATOM      2  C   UNL     1      15.537 -13.086  12.734  1.00  0.00     0.000 C 
BRANCH   2   3
ATOM      3  C   UNL     1      16.056 -11.863  11.967  1.00  0.00     0.000 C 
BRANCH   3   4
ATOM      4  C   UNL     1      16.806 -10.904  12.903  1.00  0.00     0.006 C 
BRANCH   4   5
ATOM      5  C   UNL     1      17.052  -9.534  12.256  1.00  0.00     0.053 C 
BRANCH   5   6
ATOM      6  C   UNL     1      18.068  -8.736  13.011  1.00  0.00     0.041 C 
ATOM      7  O   UNL     1      18.502  -9.150  14.119  1.00  0.00    -0.550 OA
ATOM      8  O   UNL     1      18.514  -7.519  12.509  1.00  0.00    -0.550 OA
ENDBRANCH   5   6
ENDBRANCH   4   5
ENDBRANCH   3   4
ENDBRANCH   2   3
ENDBRANCH   1   2
BRANCH   1   9
ATOM      9  C   UNL     1      13.013 -12.768  12.999  1.00  0.00     0.000 C 
BRANCH   9  10
ATOM     10  C   UNL     1      12.410 -11.606  12.197  1.00  0.00    -0.000 C 
BRANCH  10  11
ATOM     11  C   UNL     1      12.528 -10.286  12.969  1.00  0.00    -0.000 C 
BRANCH  11  12
ATOM     12  C   UNL     1      13.093  -9.173  12.074  1.00  0.00    -0.000 C 
BRANCH  12  13
ATOM     13  C   UNL     1      13.812  -8.077  12.875  1.00  0.00    -0.003 C 
ATOM     14  C   UNL     1      14.433  -7.003  11.984  1.00  0.00     0.004 C 
ENDBRANCH  12  13
ENDBRANCH  11  12
ENDBRANCH  10  11
ENDBRANCH   9  10
ENDBRANCH   1   9
TORSDOF 10
ENDMDL
MODEL 8
REMARK VINA RESULT:    -4.103      3.403      6.825
REMARK INTER + INTRA:          -7.015
REMARK INTER:                  -6.476
REMARK INTRA:                  -0.538
REMARK UNBOUND:                -0.513
REMARK SMILES CCCCCCCCCCCC(=O)[O-]
REMARK SMILES IDX 7 1 8 2 9 3 10 4 11 5 12 6 13 7 14 8 6 9 5 10 4 11 3 12 2 13
REMARK SMILES IDX 1 14
REMARK H PARENT
REMARK Flexibility Score: inf
ROOT
ATOM      1  C   UNL     1      17.136 -10.406  13.350  1.00  0.00     0.000 C 
ENDROOT
BRANCH   1   2
ATOM      2  C   UNL     1      18.175  -9.274  13.354  1.00  0.00     0.000 C 
BRANCH   2   3
ATOM      3  C   UNL     1      17.669  -8.063  12.560  1.00  0.00     0.000 C 
BRANCH   3   4
ATOM      4  C   UNL     1      18.525  -6.820  12.846  1.00  0.00     0.006 C 
BRANCH   4   5
ATOM      5  C   UNL     1      17.700  -5.670  13.440  1.00  0.00     0.053 C 
BRANCH   5   6
ATOM      6  C   UNL     1      16.877  -6.120  14.607  1.00  0.00     0.041 C 
ATOM      7  O   UNL     1      17.438  -6.556  15.647  1.00  0.00    -0.550 OA
ATOM      8  O   UNL     1      15.490  -6.088  14.535  1.00  0.00    -0.550 OA
ENDBRANCH   5   6
ENDBRANCH   4   5
ENDBRANCH   3   4
ENDBRANCH   2   3
ENDBRANCH   1   2
BRANCH   1   9
ATOM      9  C   UNL     1      16.757 -10.855  11.929  1.00  0.00     0.000 C 
BRANCH   9  10
ATOM     10  C   UNL     1      15.395 -11.563  11.875  1.00  0.00    -0.000 C 
BRANCH  10  11
ATOM     11  C   UNL     1      15.470 -12.950  12.525  1.00  0.00    -0.000 C 
BRANCH  11  12
ATOM     12  C   UNL     1      14.082 -13.606  12.585  1.00  0.00    -0.000 C 
BRANCH  12  13
ATOM     13  C   UNL     1      13.002 -12.655  13.122  1.00  0.00    -0.003 C 
ATOM     14  C   UNL     1      11.802 -12.531  12.183  1.00  0.00     0.004 C 
ENDBRANCH  12  13
ENDBRANCH  11  12
ENDBRANCH  10  11
ENDBRANCH   9  10
ENDBRANCH   1   9
TORSDOF 10
ENDMDL
MODEL 9
REMARK VINA RESULT:    -4.086      2.288      3.035
REMARK INTER + INTRA:          -6.988
REMARK INTER:                  -6.038
REMARK INTRA:                  -0.950
REMARK UNBOUND:                -0.513
REMARK SMILES CCCCCCCCCCCC(=O)[O-]
REMARK SMILES IDX 7 1 8 2 9 3 10 4 11 5 12 6 13 7 14 8 6 9 5 10 4 11 3 12 2 13
REMARK SMILES IDX 1 14
REMARK H PARENT
REMARK Flexibility Score: inf
ROOT
ATOM      1  C   UNL     1      17.416  -9.985  12.964  1.00  0.00     0.000 C 
ENDROOT
BRANCH   1   2
ATOM      2  C   UNL     1      16.400  -9.499  11.918  1.00  0.00     0.000 C 
BRANCH   2   3
ATOM      3  C   UNL     1      14.981  -9.481  12.499  1.00  0.00     0.000 C 
BRANCH   3   4
ATOM      4  C   UNL     1      14.385 -10.896  12.539  1.00  0.00     0.006 C 
BRANCH   4   5
ATOM      5  C   UNL     1      12.859 -10.879  12.704  1.00  0.00     0.053 C 
BRANCH   5   6
ATOM      6  C   UNL     1      12.287 -12.262  12.743  1.00  0.00     0.041 C 
ATOM      7  O   UNL     1      11.129 -12.481  12.300  1.00  0.00    -0.550 OA
ATOM      8  O   UNL     1      13.021 -13.304  13.297  1.00  0.00    -0.550 OA
ENDBRANCH   5   6
ENDBRANCH   4   5
ENDBRANCH   3   4
ENDBRANCH   2   3
ENDBRANCH   1   2
BRANCH   1   9
ATOM      9  C   UNL     1      18.290  -8.847  13.514  1.00  0.00     0.000 C 
BRANCH   9  10
ATOM     10  C   UNL     1      18.352  -7.638  12.569  1.00  0.00    -0.000 C 
BRANCH  10  11
ATOM     11  C   UNL     1      18.148  -6.328  13.340  1.00  0.00    -0.000 C 
BRANCH  11  12
ATOM     12  C   UNL     1      16.728  -5.781  13.130  1.00  0.00    -0.000 C 
BRANCH  12  13
ATOM     13  C   UNL     1      15.787  -6.115  14.297  1.00  0.00    -0.003 C 
ATOM     14  C   UNL     1      14.312  -6.053  13.904  1.00  0.00     0.004 C 
ENDBRANCH  12  13
ENDBRANCH  11  12
ENDBRANCH  10  11
ENDBRANCH   9  10
ENDBRANCH   1   9
TORSDOF 10
ENDMDL
