MODEL 1
REMARK VINA RESULT:    -4.915      0.000      0.000
REMARK INTER + INTRA:          -6.038
REMARK INTER:                  -5.778
REMARK INTRA:                  -0.260
REMARK UNBOUND:                -0.260
REMARK SMILES O=C([O-])C=Cc1ccc(O)c(O)c1
REMARK SMILES IDX 6 1 13 2 7 3 11 4 8 5 9 6 5 7 4 8 2 9 1 10 3 11 12 12 10 14
REMARK H PARENT 12 13 10 15
REMARK Flexibility Score: inf
ROOT
ATOM      1  C   UNL     1     182.897 -24.093  40.045  1.00  0.00    -0.022 A 
ATOM      2  C   UNL     1     183.233 -24.952  38.984  1.00  0.00     0.058 A 
ATOM      3  C   UNL     1     182.096 -24.575  41.090  1.00  0.00     0.012 A 
ATOM      4  C   UNL     1     182.816 -26.291  38.995  1.00  0.00     0.157 A 
ATOM      5  C   UNL     1     181.680 -25.910  41.103  1.00  0.00     0.051 A 
ATOM      6  C   UNL     1     182.042 -26.772  40.060  1.00  0.00     0.157 A 
ENDROOT
BRANCH   1   7
ATOM      7  C   UNL     1     183.282 -22.667  40.028  1.00  0.00     0.010 C 
ATOM      8  C   UNL     1     182.601 -21.685  39.416  1.00  0.00     0.025 C 
BRANCH   8   9
ATOM      9  C   UNL     1     181.455 -21.868  38.506  1.00  0.00     0.064 C 
ATOM     10  O   UNL     1     180.268 -21.736  38.906  1.00  0.00    -0.545 OA
ATOM     11  O   UNL     1     181.688 -22.261  37.195  1.00  0.00    -0.545 OA
ENDBRANCH   8   9
ENDBRANCH   1   7
BRANCH   4  12
ATOM     12  O   UNL     1     183.164 -27.147  37.952  1.00  0.00    -0.504 OA
ATOM     13  H   UNL     1     183.762 -26.841  37.193  1.00  0.00     0.293 HD
ENDBRANCH   4  12
BRANCH   6  14
ATOM     14  O   UNL     1     181.632 -28.103  40.070  1.00  0.00    -0.504 OA
ATOM     15  H   UNL     1     182.286 -28.859  40.240  1.00  0.00     0.293 HD
ENDBRANCH   6  14
TORSDOF 4
ENDMDL
MODEL 2
REMARK VINA RESULT:    -4.901     13.639     14.967
REMARK INTER + INTRA:          -6.021
REMARK INTER:                  -5.825
REMARK INTRA:                  -0.196
REMARK UNBOUND:                -0.260
REMARK SMILES O=C([O-])C=Cc1ccc(O)c(O)c1
REMARK SMILES IDX 6 1 13 2 7 3 11 4 8 5 9 6 5 7 4 8 2 9 1 10 3 11 12 12 10 14
REMARK H PARENT 12 13 10 15
REMARK Flexibility Score: inf
ROOT
ATOM      1  C   UNL     1     181.317 -22.420  24.664  1.00  0.00    -0.022 A 
ATOM      2  C   UNL     1     182.028 -22.429  25.877  1.00  0.00     0.058 A 
ATOM      3  C   UNL     1     181.958 -21.978  23.497  1.00  0.00     0.012 A 
ATOM      4  C   UNL     1     183.378 -22.051  25.912  1.00  0.00     0.157 A 
ATOM      5  C   UNL     1     183.304 -21.601  23.530  1.00  0.00     0.051 A 
ATOM      6  C   UNL     1     184.018 -21.641  24.735  1.00  0.00     0.157 A 
ENDROOT
BRANCH   1   7
ATOM      7  C   UNL     1     179.882 -22.764  24.614  1.00  0.00     0.010 C 
ATOM      8  C   UNL     1     178.875 -21.961  24.996  1.00  0.00     0.025 C 
BRANCH   8   9
ATOM      9  C   UNL     1     179.020 -20.672  25.698  1.00  0.00     0.064 C 
ATOM     10  O   UNL     1     178.997 -19.577  25.077  1.00  0.00    -0.545 OA
ATOM     11  O   UNL     1     179.254 -20.670  27.067  1.00  0.00    -0.545 OA
ENDBRANCH   8   9
ENDBRANCH   1   7
BRANCH   4  12
ATOM     12  O   UNL     1     184.086 -22.077  27.111  1.00  0.00    -0.504 OA
ATOM     13  H   UNL     1     184.640 -22.882  27.382  1.00  0.00     0.293 HD
ENDBRANCH   4  12
BRANCH   6  14
ATOM     14  O   UNL     1     185.360 -21.270  24.772  1.00  0.00    -0.504 OA
ATOM     15  H   UNL     1     186.100 -21.934  24.578  1.00  0.00     0.293 HD
ENDBRANCH   6  14
TORSDOF 4
ENDMDL
MODEL 3
REMARK VINA RESULT:    -4.795     13.233     15.127
REMARK INTER + INTRA:          -5.896
REMARK INTER:                  -5.776
REMARK INTRA:                  -0.120
REMARK UNBOUND:                -0.260
REMARK SMILES O=C([O-])C=Cc1ccc(O)c(O)c1
REMARK SMILES IDX 6 1 13 2 7 3 11 4 8 5 9 6 5 7 4 8 2 9 1 10 3 11 12 12 10 14
REMARK H PARENT 12 13 10 15
REMARK Flexibility Score: inf
ROOT
ATOM      1  C   UNL     1     180.117 -21.498  25.311  1.00  0.00    -0.022 A 
ATOM      2  C   UNL     1     180.543 -20.502  24.415  1.00  0.00     0.058 A 
ATOM      3  C   UNL     1     180.205 -22.845  24.930  1.00  0.00     0.012 A 
ATOM      4  C   UNL     1     181.099 -20.852  23.176  1.00  0.00     0.157 A 
ATOM      5  C   UNL     1     180.759 -23.195  23.696  1.00  0.00     0.051 A 
ATOM      6  C   UNL     1     181.212 -22.202  22.818  1.00  0.00     0.157 A 
ENDROOT
BRANCH   1   7
ATOM      7  C   UNL     1     179.482 -21.150  26.598  1.00  0.00     0.010 C 
ATOM      8  C   UNL     1     179.993 -21.406  27.813  1.00  0.00     0.025 C 
BRANCH   8   9
ATOM      9  C   UNL     1     181.182 -22.234  28.090  1.00  0.00     0.064 C 
ATOM     10  O   UNL     1     182.342 -21.747  28.078  1.00  0.00    -0.545 OA
ATOM     11  O   UNL     1     181.022 -23.597  28.304  1.00  0.00    -0.545 OA
ENDBRANCH   8   9
ENDBRANCH   1   7
BRANCH   4  12
ATOM     12  O   UNL     1     181.537 -19.865  22.295  1.00  0.00    -0.504 OA
ATOM     13  H   UNL     1     181.113 -19.741  21.384  1.00  0.00     0.293 HD
ENDBRANCH   4  12
BRANCH   6  14
ATOM     14  O   UNL     1     181.767 -22.547  21.588  1.00  0.00    -0.504 OA
ATOM     15  H   UNL     1     181.745 -21.911  20.799  1.00  0.00     0.293 HD
ENDBRANCH   6  14
TORSDOF 4
ENDMDL
MODEL 4
REMARK VINA RESULT:    -4.783      5.292      6.498
REMARK INTER + INTRA:          -5.883
REMARK INTER:                  -5.607
REMARK INTRA:                  -0.276
REMARK UNBOUND:                -0.260
REMARK SMILES O=C([O-])C=Cc1ccc(O)c(O)c1
REMARK SMILES IDX 6 1 13 2 7 3 11 4 8 5 9 6 5 7 4 8 2 9 1 10 3 11 12 12 10 14
REMARK H PARENT 12 13 10 15
REMARK Flexibility Score: inf
ROOT
ATOM      1  C   UNL     1     183.285 -26.115  34.586  1.00  0.00    -0.022 A 
ATOM      2  C   UNL     1     184.304 -26.444  33.675  1.00  0.00     0.058 A 
ATOM      3  C   UNL     1     182.017 -25.765  34.099  1.00  0.00     0.012 A 
ATOM      4  C   UNL     1     184.042 -26.473  32.297  1.00  0.00     0.157 A 
ATOM      5  C   UNL     1     181.755 -25.794  32.727  1.00  0.00     0.051 A 
ATOM      6  C   UNL     1     182.764 -26.152  31.823  1.00  0.00     0.157 A 
ENDROOT
BRANCH   1   7
ATOM      7  C   UNL     1     183.552 -26.028  36.036  1.00  0.00     0.010 C 
ATOM      8  C   UNL     1     183.861 -24.906  36.705  1.00  0.00     0.025 C 
BRANCH   8   9
ATOM      9  C   UNL     1     184.166 -23.597  36.097  1.00  0.00     0.064 C 
ATOM     10  O   UNL     1     185.350 -23.234  35.871  1.00  0.00    -0.545 OA
ATOM     11  O   UNL     1     183.125 -22.716  35.829  1.00  0.00    -0.545 OA
ENDBRANCH   8   9
ENDBRANCH   1   7
BRANCH   4  12
ATOM     12  O   UNL     1     185.047 -26.816  31.396  1.00  0.00    -0.504 OA
ATOM     13  H   UNL     1     185.968 -27.102  31.711  1.00  0.00     0.293 HD
ENDBRANCH   4  12
BRANCH   6  14
ATOM     14  O   UNL     1     182.506 -26.185  30.454  1.00  0.00    -0.504 OA
ATOM     15  H   UNL     1     182.022 -25.427  29.987  1.00  0.00     0.293 HD
ENDBRANCH   6  14
TORSDOF 4
ENDMDL
MODEL 5
REMARK VINA RESULT:    -4.756      4.691      6.279
REMARK INTER + INTRA:          -5.850
REMARK INTER:                  -5.607
REMARK INTRA:                  -0.243
REMARK UNBOUND:                -0.260
REMARK SMILES O=C([O-])C=Cc1ccc(O)c(O)c1
REMARK SMILES IDX 6 1 13 2 7 3 11 4 8 5 9 6 5 7 4 8 2 9 1 10 3 11 12 12 10 14
REMARK H PARENT 12 13 10 15
REMARK Flexibility Score: inf
ROOT
ATOM      1  C   UNL     1     184.216 -25.714  35.229  1.00  0.00    -0.022 A 
ATOM      2  C   UNL     1     184.313 -26.588  34.132  1.00  0.00     0.058 A 
ATOM      3  C   UNL     1     184.233 -24.330  35.006  1.00  0.00     0.012 A 
ATOM      4  C   UNL     1     184.373 -26.083  32.825  1.00  0.00     0.157 A 
ATOM      5  C   UNL     1     184.291 -23.825  33.703  1.00  0.00     0.051 A 
ATOM      6  C   UNL     1     184.356 -24.699  32.610  1.00  0.00     0.157 A 
ENDROOT
BRANCH   1   7
ATOM      7  C   UNL     1     184.204 -26.223  36.615  1.00  0.00     0.010 C 
ATOM      8  C   UNL     1     183.114 -26.351  37.388  1.00  0.00     0.025 C 
BRANCH   8   9
ATOM      9  C   UNL     1     181.766 -25.846  37.068  1.00  0.00     0.064 C 
ATOM     10  O   UNL     1     180.939 -26.538  36.417  1.00  0.00    -0.545 OA
ATOM     11  O   UNL     1     181.424 -24.550  37.434  1.00  0.00    -0.545 OA
ENDBRANCH   8   9
ENDBRANCH   1   7
BRANCH   4  12
ATOM     12  O   UNL     1     184.451 -26.950  31.737  1.00  0.00    -0.504 OA
ATOM     13  H   UNL     1     183.623 -27.379  31.340  1.00  0.00     0.293 HD
ENDBRANCH   4  12
BRANCH   6  14
ATOM     14  O   UNL     1     184.413 -24.200  31.311  1.00  0.00    -0.504 OA
ATOM     15  H   UNL     1     184.035 -23.290  31.075  1.00  0.00     0.293 HD
ENDBRANCH   6  14
TORSDOF 4
ENDMDL
MODEL 6
REMARK VINA RESULT:    -4.722      3.496      4.362
REMARK INTER + INTRA:          -5.810
REMARK INTER:                  -5.529
REMARK INTRA:                  -0.281
REMARK UNBOUND:                -0.260
REMARK SMILES O=C([O-])C=Cc1ccc(O)c(O)c1
REMARK SMILES IDX 6 1 13 2 7 3 11 4 8 5 9 6 5 7 4 8 2 9 1 10 3 11 12 12 10 14
REMARK H PARENT 12 13 10 15
REMARK Flexibility Score: inf
ROOT
ATOM      1  C   UNL     1     182.520 -25.673  37.449  1.00  0.00    -0.022 A 
ATOM      2  C   UNL     1     182.836 -26.360  38.634  1.00  0.00     0.058 A 
ATOM      3  C   UNL     1     181.357 -26.019  36.745  1.00  0.00     0.012 A 
ATOM      4  C   UNL     1     181.972 -27.345  39.136  1.00  0.00     0.157 A 
ATOM      5  C   UNL     1     180.495 -27.000  37.244  1.00  0.00     0.051 A 
ATOM      6  C   UNL     1     180.797 -27.661  38.442  1.00  0.00     0.157 A 
ENDROOT
BRANCH   1   7
ATOM      7  C   UNL     1     183.440 -24.669  36.876  1.00  0.00     0.010 C 
ATOM      8  C   UNL     1     184.378 -24.914  35.947  1.00  0.00     0.025 C 
BRANCH   8   9
ATOM      9  C   UNL     1     184.782 -26.247  35.461  1.00  0.00     0.064 C 
ATOM     10  O   UNL     1     185.686 -26.910  36.033  1.00  0.00    -0.545 OA
ATOM     11  O   UNL     1     184.199 -26.752  34.306  1.00  0.00    -0.545 OA
ENDBRANCH   8   9
ENDBRANCH   1   7
BRANCH   4  12
ATOM     12  O   UNL     1     182.277 -28.013  40.319  1.00  0.00    -0.504 OA
ATOM     13  H   UNL     1     181.779 -27.820  41.181  1.00  0.00     0.293 HD
ENDBRANCH   4  12
BRANCH   6  14
ATOM     14  O   UNL     1     179.940 -28.638  38.944  1.00  0.00    -0.504 OA
ATOM     15  H   UNL     1     179.711 -28.686  39.930  1.00  0.00     0.293 HD
ENDBRANCH   6  14
TORSDOF 4
ENDMDL
MODEL 7
REMARK VINA RESULT:    -4.717     14.163     15.505
REMARK INTER + INTRA:          -5.804
REMARK INTER:                  -5.564
REMARK INTRA:                  -0.241
REMARK UNBOUND:                -0.260
REMARK SMILES O=C([O-])C=Cc1ccc(O)c(O)c1
REMARK SMILES IDX 6 1 13 2 7 3 11 4 8 5 9 6 5 7 4 8 2 9 1 10 3 11 12 12 10 14
REMARK H PARENT 12 13 10 15
REMARK Flexibility Score: inf
ROOT
ATOM      1  C   UNL     1     182.236 -20.545  24.883  1.00  0.00    -0.022 A 
ATOM      2  C   UNL     1     181.666 -21.810  25.111  1.00  0.00     0.058 A 
ATOM      3  C   UNL     1     182.568 -20.169  23.574  1.00  0.00     0.012 A 
ATOM      4  C   UNL     1     181.382 -22.665  24.036  1.00  0.00     0.157 A 
ATOM      5  C   UNL     1     182.285 -21.019  22.502  1.00  0.00     0.051 A 
ATOM      6  C   UNL     1     181.688 -22.266  22.729  1.00  0.00     0.157 A 
ENDROOT
BRANCH   1   7
ATOM      7  C   UNL     1     182.591 -19.651  26.005  1.00  0.00     0.010 C 
ATOM      8  C   UNL     1     181.734 -18.860  26.671  1.00  0.00     0.025 C 
BRANCH   8   9
ATOM      9  C   UNL     1     180.331 -18.602  26.296  1.00  0.00     0.064 C 
ATOM     10  O   UNL     1     179.976 -17.507  25.786  1.00  0.00    -0.545 OA
ATOM     11  O   UNL     1     179.368 -19.564  26.574  1.00  0.00    -0.545 OA
ENDBRANCH   8   9
ENDBRANCH   1   7
BRANCH   4  12
ATOM     12  O   UNL     1     180.800 -23.910  24.261  1.00  0.00    -0.504 OA
ATOM     13  H   UNL     1     180.267 -24.384  23.541  1.00  0.00     0.293 HD
ENDBRANCH   4  12
BRANCH   6  14
ATOM     14  O   UNL     1     181.402 -23.116  21.662  1.00  0.00    -0.504 OA
ATOM     15  H   UNL     1     182.030 -23.867  21.399  1.00  0.00     0.293 HD
ENDBRANCH   6  14
TORSDOF 4
ENDMDL
MODEL 8
REMARK VINA RESULT:    -4.694     15.029     16.213
REMARK INTER + INTRA:          -5.777
REMARK INTER:                  -5.717
REMARK INTRA:                  -0.060
REMARK UNBOUND:                -0.260
REMARK SMILES O=C([O-])C=Cc1ccc(O)c(O)c1
REMARK SMILES IDX 6 1 13 2 7 3 11 4 8 5 9 6 5 7 4 8 2 9 1 10 3 11 12 12 10 14
REMARK H PARENT 12 13 10 15
REMARK Flexibility Score: inf
ROOT
ATOM      1  C   UNL     1     182.008 -20.034  24.133  1.00  0.00    -0.022 A 
ATOM      2  C   UNL     1     182.035 -20.649  22.869  1.00  0.00     0.058 A 
ATOM      3  C   UNL     1     181.445 -20.722  25.218  1.00  0.00     0.012 A 
ATOM      4  C   UNL     1     181.554 -21.956  22.704  1.00  0.00     0.157 A 
ATOM      5  C   UNL     1     180.966 -22.025  25.055  1.00  0.00     0.051 A 
ATOM      6  C   UNL     1     181.024 -22.647  23.801  1.00  0.00     0.157 A 
ENDROOT
BRANCH   1   7
ATOM      7  C   UNL     1     182.461 -18.640  24.317  1.00  0.00     0.010 C 
ATOM      8  C   UNL     1     183.736 -18.223  24.268  1.00  0.00     0.025 C 
BRANCH   8   9
ATOM      9  C   UNL     1     184.925 -19.094  24.203  1.00  0.00     0.064 C 
ATOM     10  O   UNL     1     185.820 -18.924  23.333  1.00  0.00    -0.545 OA
ATOM     11  O   UNL     1     185.027 -20.167  25.079  1.00  0.00    -0.545 OA
ENDBRANCH   8   9
ENDBRANCH   1   7
BRANCH   4  12
ATOM     12  O   UNL     1     181.598 -22.571  21.455  1.00  0.00    -0.504 OA
ATOM     13  H   UNL     1     181.802 -23.559  21.358  1.00  0.00     0.293 HD
ENDBRANCH   4  12
BRANCH   6  14
ATOM     14  O   UNL     1     180.550 -23.947  23.636  1.00  0.00    -0.504 OA
ATOM     15  H   UNL     1     180.499 -24.596  24.412  1.00  0.00     0.293 HD
ENDBRANCH   6  14
TORSDOF 4
ENDMDL
