MODEL 1
REMARK VINA RESULT:    -5.283      0.000      0.000
REMARK INTER + INTRA:         -11.579
REMARK INTER:                 -10.225
REMARK INTRA:                  -1.353
REMARK UNBOUND:                -1.353
REMARK SMILES CCCCCCCCCCCCCCCCCC(=O)[O-]
REMARK SMILES IDX 10 1 11 2 12 3 13 4 14 5 15 6 16 7 17 8 18 9 19 10 20 11
REMARK SMILES IDX 9 12 8 13 7 14 6 15 5 16 4 17 3 18 2 19 1 20
REMARK H PARENT
REMARK Flexibility Score: inf
ROOT
ATOM      1  C   UNL     1     -16.619  37.426  16.774  1.00  0.00     0.000 C 
ENDROOT
BRANCH   1   2
ATOM      2  C   UNL     1     -16.642  37.400  18.311  1.00  0.00     0.000 C 
BRANCH   2   3
ATOM      3  C   UNL     1     -17.584  38.461  18.905  1.00  0.00     0.000 C 
BRANCH   3   4
ATOM      4  C   UNL     1     -17.325  39.865  18.332  1.00  0.00     0.000 C 
BRANCH   4   5
ATOM      5  C   UNL     1     -18.251  40.937  18.937  1.00  0.00     0.000 C 
BRANCH   5   6
ATOM      6  C   UNL     1     -18.605  40.736  20.424  1.00  0.00     0.000 C 
BRANCH   6   7
ATOM      7  C   UNL     1     -17.637  41.397  21.421  1.00  0.00     0.006 C 
BRANCH   7   8
ATOM      8  C   UNL     1     -17.475  42.903  21.183  1.00  0.00     0.053 C 
BRANCH   8   9
ATOM      9  C   UNL     1     -16.362  43.448  22.021  1.00  0.00     0.041 C 
ATOM     10  O   UNL     1     -15.213  42.937  21.956  1.00  0.00    -0.550 OA
ATOM     11  O   UNL     1     -16.579  44.552  22.835  1.00  0.00    -0.550 OA
ENDBRANCH   8   9
ENDBRANCH   7   8
ENDBRANCH   6   7
ENDBRANCH   5   6
ENDBRANCH   4   5
ENDBRANCH   3   4
ENDBRANCH   2   3
ENDBRANCH   1   2
BRANCH   1  12
ATOM     12  C   UNL     1     -16.133  36.101  16.167  1.00  0.00     0.000 C 
BRANCH  12  13
ATOM     13  C   UNL     1     -14.851  36.262  15.334  1.00  0.00    -0.000 C 
BRANCH  13  14
ATOM     14  C   UNL     1     -14.872  37.579  14.546  1.00  0.00    -0.000 C 
BRANCH  14  15
ATOM     15  C   UNL     1     -14.653  37.377  13.035  1.00  0.00    -0.000 C 
BRANCH  15  16
ATOM     16  C   UNL     1     -15.929  37.068  12.226  1.00  0.00    -0.000 C 
BRANCH  16  17
ATOM     17  C   UNL     1     -15.820  35.868  11.267  1.00  0.00    -0.000 C 
BRANCH  17  18
ATOM     18  C   UNL     1     -16.742  34.705  11.663  1.00  0.00    -0.000 C 
BRANCH  18  19
ATOM     19  C   UNL     1     -17.494  35.020  12.960  1.00  0.00    -0.003 C 
ATOM     20  C   UNL     1     -17.912  33.741  13.680  1.00  0.00     0.004 C 
ENDBRANCH  18  19
ENDBRANCH  17  18
ENDBRANCH  16  17
ENDBRANCH  15  16
ENDBRANCH  14  15
ENDBRANCH  13  14
ENDBRANCH  12  13
ENDBRANCH   1  12
TORSDOF 16
ENDMDL
MODEL 2
REMARK VINA RESULT:    -5.197      1.478      2.938
REMARK INTER + INTRA:         -11.411
REMARK INTER:                 -10.241
REMARK INTRA:                  -1.170
REMARK UNBOUND:                -1.353
REMARK SMILES CCCCCCCCCCCCCCCCCC(=O)[O-]
REMARK SMILES IDX 10 1 11 2 12 3 13 4 14 5 15 6 16 7 17 8 18 9 19 10 20 11
REMARK SMILES IDX 9 12 8 13 7 14 6 15 5 16 4 17 3 18 2 19 1 20
REMARK H PARENT
REMARK Flexibility Score: inf
ROOT
ATOM      1  C   UNL     1     -17.041  39.178  18.517  1.00  0.00     0.000 C 
ENDROOT
BRANCH   1   2
ATOM      2  C   UNL     1     -18.169  39.489  19.516  1.00  0.00     0.000 C 
BRANCH   2   3
ATOM      3  C   UNL     1     -18.829  40.853  19.254  1.00  0.00     0.000 C 
BRANCH   3   4
ATOM      4  C   UNL     1     -18.772  41.779  20.480  1.00  0.00     0.000 C 
BRANCH   4   5
ATOM      5  C   UNL     1     -17.568  41.487  21.394  1.00  0.00     0.000 C 
BRANCH   5   6
ATOM      6  C   UNL     1     -16.337  42.387  21.168  1.00  0.00     0.000 C 
BRANCH   6   7
ATOM      7  C   UNL     1     -16.015  43.354  22.322  1.00  0.00     0.006 C 
BRANCH   7   8
ATOM      8  C   UNL     1     -16.787  44.675  22.225  1.00  0.00     0.053 C 
BRANCH   8   9
ATOM      9  C   UNL     1     -16.364  45.608  23.315  1.00  0.00     0.041 C 
ATOM     10  O   UNL     1     -15.529  45.234  24.180  1.00  0.00    -0.550 OA
ATOM     11  O   UNL     1     -16.852  46.908  23.346  1.00  0.00    -0.550 OA
ENDBRANCH   8   9
ENDBRANCH   7   8
ENDBRANCH   6   7
ENDBRANCH   5   6
ENDBRANCH   4   5
ENDBRANCH   3   4
ENDBRANCH   2   3
ENDBRANCH   1   2
BRANCH   1  12
ATOM     12  C   UNL     1     -16.919  37.677  18.211  1.00  0.00     0.000 C 
BRANCH  12  13
ATOM     13  C   UNL     1     -16.588  37.396  16.737  1.00  0.00    -0.000 C 
BRANCH  13  14
ATOM     14  C   UNL     1     -15.939  36.013  16.575  1.00  0.00    -0.000 C 
BRANCH  14  15
ATOM     15  C   UNL     1     -15.603  35.677  15.111  1.00  0.00    -0.000 C 
BRANCH  15  16
ATOM     16  C   UNL     1     -16.782  35.132  14.278  1.00  0.00    -0.000 C 
BRANCH  16  17
ATOM     17  C   UNL     1     -17.149  35.971  13.040  1.00  0.00    -0.000 C 
BRANCH  17  18
ATOM     18  C   UNL     1     -18.252  37.001  13.325  1.00  0.00    -0.000 C 
BRANCH  18  19
ATOM     19  C   UNL     1     -17.707  38.430  13.218  1.00  0.00    -0.003 C 
ATOM     20  C   UNL     1     -16.275  38.436  12.691  1.00  0.00     0.004 C 
ENDBRANCH  18  19
ENDBRANCH  17  18
ENDBRANCH  16  17
ENDBRANCH  15  16
ENDBRANCH  14  15
ENDBRANCH  13  14
ENDBRANCH  12  13
ENDBRANCH   1  12
TORSDOF 16
ENDMDL
MODEL 3
REMARK VINA RESULT:    -5.196      1.991      3.714
REMARK INTER + INTRA:         -11.409
REMARK INTER:                  -9.980
REMARK INTRA:                  -1.429
REMARK UNBOUND:                -1.353
REMARK SMILES CCCCCCCCCCCCCCCCCC(=O)[O-]
REMARK SMILES IDX 10 1 11 2 12 3 13 4 14 5 15 6 16 7 17 8 18 9 19 10 20 11
REMARK SMILES IDX 9 12 8 13 7 14 6 15 5 16 4 17 3 18 2 19 1 20
REMARK H PARENT
REMARK Flexibility Score: inf
ROOT
ATOM      1  C   UNL     1     -14.785  37.558  14.531  1.00  0.00     0.000 C 
ENDROOT
BRANCH   1   2
ATOM      2  C   UNL     1     -14.635  36.167  15.171  1.00  0.00     0.000 C 
BRANCH   2   3
ATOM      3  C   UNL     1     -15.742  35.868  16.196  1.00  0.00     0.000 C 
BRANCH   3   4
ATOM      4  C   UNL     1     -16.598  37.106  16.516  1.00  0.00     0.000 C 
BRANCH   4   5
ATOM      5  C   UNL     1     -16.661  37.414  18.023  1.00  0.00     0.000 C 
BRANCH   5   6
ATOM      6  C   UNL     1     -16.957  38.885  18.382  1.00  0.00     0.000 C 
BRANCH   6   7
ATOM      7  C   UNL     1     -17.948  39.087  19.542  1.00  0.00     0.006 C 
BRANCH   7   8
ATOM      8  C   UNL     1     -17.642  40.338  20.374  1.00  0.00     0.053 C 
BRANCH   8   9
ATOM      9  C   UNL     1     -18.847  41.221  20.452  1.00  0.00     0.041 C 
ATOM     10  O   UNL     1     -18.787  42.411  20.044  1.00  0.00    -0.550 OA
ATOM     11  O   UNL     1     -20.051  40.716  20.926  1.00  0.00    -0.550 OA
ENDBRANCH   8   9
ENDBRANCH   7   8
ENDBRANCH   6   7
ENDBRANCH   5   6
ENDBRANCH   4   5
ENDBRANCH   3   4
ENDBRANCH   2   3
ENDBRANCH   1   2
BRANCH   1  12
ATOM     12  C   UNL     1     -15.577  37.522  13.215  1.00  0.00     0.000 C 
BRANCH  12  13
ATOM     13  C   UNL     1     -15.301  36.255  12.389  1.00  0.00    -0.000 C 
BRANCH  13  14
ATOM     14  C   UNL     1     -16.611  35.540  12.027  1.00  0.00    -0.000 C 
BRANCH  14  15
ATOM     15  C   UNL     1     -17.724  35.768  13.066  1.00  0.00    -0.000 C 
BRANCH  15  16
ATOM     16  C   UNL     1     -18.164  34.509  13.839  1.00  0.00    -0.000 C 
BRANCH  16  17
ATOM     17  C   UNL     1     -17.704  33.172  13.227  1.00  0.00    -0.000 C 
BRANCH  17  18
ATOM     18  C   UNL     1     -18.448  31.963  13.811  1.00  0.00    -0.000 C 
BRANCH  18  19
ATOM     19  C   UNL     1     -17.861  30.650  13.279  1.00  0.00    -0.003 C 
ATOM     20  C   UNL     1     -16.931  30.902  12.095  1.00  0.00     0.004 C 
ENDBRANCH  18  19
ENDBRANCH  17  18
ENDBRANCH  16  17
ENDBRANCH  15  16
ENDBRANCH  14  15
ENDBRANCH  13  14
ENDBRANCH  12  13
ENDBRANCH   1  12
TORSDOF 16
ENDMDL
MODEL 4
REMARK VINA RESULT:    -5.136      1.589      3.068
REMARK INTER + INTRA:         -11.293
REMARK INTER:                 -10.413
REMARK INTRA:                  -0.880
REMARK UNBOUND:                -1.353
REMARK SMILES CCCCCCCCCCCCCCCCCC(=O)[O-]
REMARK SMILES IDX 10 1 11 2 12 3 13 4 14 5 15 6 16 7 17 8 18 9 19 10 20 11
REMARK SMILES IDX 9 12 8 13 7 14 6 15 5 16 4 17 3 18 2 19 1 20
REMARK H PARENT
REMARK Flexibility Score: inf
ROOT
ATOM      1  C   UNL     1     -17.461  39.100  19.392  1.00  0.00     0.000 C 
ENDROOT
BRANCH   1   2
ATOM      2  C   UNL     1     -18.381  40.326  19.259  1.00  0.00     0.000 C 
BRANCH   2   3
ATOM      3  C   UNL     1     -18.536  41.093  20.583  1.00  0.00     0.000 C 
BRANCH   3   4
ATOM      4  C   UNL     1     -17.437  40.740  21.599  1.00  0.00     0.000 C 
BRANCH   4   5
ATOM      5  C   UNL     1     -16.511  41.929  21.914  1.00  0.00     0.000 C 
BRANCH   5   6
ATOM      6  C   UNL     1     -17.060  43.314  21.516  1.00  0.00     0.000 C 
BRANCH   6   7
ATOM      7  C   UNL     1     -16.763  44.445  22.516  1.00  0.00     0.006 C 
BRANCH   7   8
ATOM      8  C   UNL     1     -16.544  45.801  21.834  1.00  0.00     0.053 C 
BRANCH   8   9
ATOM      9  C   UNL     1     -16.234  46.854  22.850  1.00  0.00     0.041 C 
ATOM     10  O   UNL     1     -16.508  48.061  22.615  1.00  0.00    -0.550 OA
ATOM     11  O   UNL     1     -15.691  46.499  24.078  1.00  0.00    -0.550 OA
ENDBRANCH   8   9
ENDBRANCH   7   8
ENDBRANCH   6   7
ENDBRANCH   5   6
ENDBRANCH   4   5
ENDBRANCH   3   4
ENDBRANCH   2   3
ENDBRANCH   1   2
BRANCH   1  12
ATOM     12  C   UNL     1     -16.985  38.568  18.031  1.00  0.00     0.000 C 
BRANCH  12  13
ATOM     13  C   UNL     1     -16.645  37.070  18.064  1.00  0.00    -0.000 C 
BRANCH  13  14
ATOM     14  C   UNL     1     -16.158  36.588  16.689  1.00  0.00    -0.000 C 
BRANCH  14  15
ATOM     15  C   UNL     1     -16.627  37.494  15.536  1.00  0.00    -0.000 C 
BRANCH  15  16
ATOM     16  C   UNL     1     -15.682  37.545  14.319  1.00  0.00    -0.000 C 
BRANCH  16  17
ATOM     17  C   UNL     1     -15.632  36.256  13.477  1.00  0.00    -0.000 C 
BRANCH  17  18
ATOM     18  C   UNL     1     -16.860  36.091  12.569  1.00  0.00    -0.000 C 
BRANCH  18  19
ATOM     19  C   UNL     1     -17.103  34.613  12.241  1.00  0.00    -0.003 C 
ATOM     20  C   UNL     1     -17.734  33.883  13.423  1.00  0.00     0.004 C 
ENDBRANCH  18  19
ENDBRANCH  17  18
ENDBRANCH  16  17
ENDBRANCH  15  16
ENDBRANCH  14  15
ENDBRANCH  13  14
ENDBRANCH  12  13
ENDBRANCH   1  12
TORSDOF 16
ENDMDL
MODEL 5
REMARK VINA RESULT:    -5.130      3.644     10.086
REMARK INTER + INTRA:         -11.282
REMARK INTER:                 -10.430
REMARK INTRA:                  -0.852
REMARK UNBOUND:                -1.353
REMARK SMILES CCCCCCCCCCCCCCCCCC(=O)[O-]
REMARK SMILES IDX 10 1 11 2 12 3 13 4 14 5 15 6 16 7 17 8 18 9 19 10 20 11
REMARK SMILES IDX 9 12 8 13 7 14 6 15 5 16 4 17 3 18 2 19 1 20
REMARK H PARENT
REMARK Flexibility Score: inf
ROOT
ATOM      1  C   UNL     1     -17.221  39.647  19.244  1.00  0.00     0.000 C 
ENDROOT
BRANCH   1   2
ATOM      2  C   UNL     1     -17.345  38.170  18.835  1.00  0.00     0.000 C 
BRANCH   2   3
ATOM      3  C   UNL     1     -16.844  37.910  17.405  1.00  0.00     0.000 C 
BRANCH   3   4
ATOM      4  C   UNL     1     -16.245  36.503  17.237  1.00  0.00     0.000 C 
BRANCH   4   5
ATOM      5  C   UNL     1     -15.700  36.251  15.819  1.00  0.00     0.000 C 
BRANCH   5   6
ATOM      6  C   UNL     1     -16.543  35.295  14.951  1.00  0.00     0.000 C 
BRANCH   6   7
ATOM      7  C   UNL     1     -17.608  35.978  14.074  1.00  0.00     0.006 C 
BRANCH   7   8
ATOM      8  C   UNL     1     -17.022  36.597  12.799  1.00  0.00     0.053 C 
BRANCH   8   9
ATOM      9  C   UNL     1     -16.896  38.080  12.948  1.00  0.00     0.041 C 
ATOM     10  O   UNL     1     -15.763  38.627  12.901  1.00  0.00    -0.550 OA
ATOM     11  O   UNL     1     -18.033  38.865  13.087  1.00  0.00    -0.550 OA
ENDBRANCH   8   9
ENDBRANCH   7   8
ENDBRANCH   6   7
ENDBRANCH   5   6
ENDBRANCH   4   5
ENDBRANCH   3   4
ENDBRANCH   2   3
ENDBRANCH   1   2
BRANCH   1  12
ATOM     12  C   UNL     1     -18.586  40.346  19.357  1.00  0.00     0.000 C 
BRANCH  12  13
ATOM     13  C   UNL     1     -18.661  41.317  20.546  1.00  0.00    -0.000 C 
BRANCH  13  14
ATOM     14  C   UNL     1     -17.475  41.109  21.499  1.00  0.00    -0.000 C 
BRANCH  14  15
ATOM     15  C   UNL     1     -16.705  42.410  21.790  1.00  0.00    -0.000 C 
BRANCH  15  16
ATOM     16  C   UNL     1     -17.429  43.705  21.372  1.00  0.00    -0.000 C 
BRANCH  16  17
ATOM     17  C   UNL     1     -16.723  45.010  21.784  1.00  0.00    -0.000 C 
BRANCH  17  18
ATOM     18  C   UNL     1     -16.701  45.221  23.305  1.00  0.00    -0.000 C 
BRANCH  18  19
ATOM     19  C   UNL     1     -16.602  46.711  23.650  1.00  0.00    -0.003 C 
ATOM     20  C   UNL     1     -16.293  47.545  22.409  1.00  0.00     0.004 C 
ENDBRANCH  18  19
ENDBRANCH  17  18
ENDBRANCH  16  17
ENDBRANCH  15  16
ENDBRANCH  14  15
ENDBRANCH  13  14
ENDBRANCH  12  13
ENDBRANCH   1  12
TORSDOF 16
ENDMDL
MODEL 6
REMARK VINA RESULT:    -5.074      6.216      8.104
REMARK INTER + INTRA:         -11.174
REMARK INTER:                  -9.165
REMARK INTRA:                  -2.009
REMARK UNBOUND:                -1.353
REMARK SMILES CCCCCCCCCCCCCCCCCC(=O)[O-]
REMARK SMILES IDX 10 1 11 2 12 3 13 4 14 5 15 6 16 7 17 8 18 9 19 10 20 11
REMARK SMILES IDX 9 12 8 13 7 14 6 15 5 16 4 17 3 18 2 19 1 20
REMARK H PARENT
REMARK Flexibility Score: inf
ROOT
ATOM      1  C   UNL     1     -14.575  38.621  13.595  1.00  0.00     0.000 C 
ENDROOT
BRANCH   1   2
ATOM      2  C   UNL     1     -15.505  39.065  12.453  1.00  0.00     0.000 C 
BRANCH   2   3
ATOM      3  C   UNL     1     -15.202  40.493  11.968  1.00  0.00     0.000 C 
BRANCH   3   4
ATOM      4  C   UNL     1     -15.965  40.851  10.681  1.00  0.00     0.000 C 
BRANCH   4   5
ATOM      5  C   UNL     1     -17.425  41.262  10.947  1.00  0.00     0.000 C 
BRANCH   5   6
ATOM      6  C   UNL     1     -18.022  42.259   9.934  1.00  0.00     0.000 C 
BRANCH   6   7
ATOM      7  C   UNL     1     -17.246  42.390   8.612  1.00  0.00     0.006 C 
BRANCH   7   8
ATOM      8  C   UNL     1     -17.022  43.849   8.195  1.00  0.00     0.053 C 
BRANCH   8   9
ATOM      9  C   UNL     1     -15.719  44.351   8.733  1.00  0.00     0.041 C 
ATOM     10  O   UNL     1     -15.635  45.519   9.198  1.00  0.00    -0.550 OA
ATOM     11  O   UNL     1     -14.611  43.515   8.769  1.00  0.00    -0.550 OA
ENDBRANCH   8   9
ENDBRANCH   7   8
ENDBRANCH   6   7
ENDBRANCH   5   6
ENDBRANCH   4   5
ENDBRANCH   3   4
ENDBRANCH   2   3
ENDBRANCH   1   2
BRANCH   1  12
ATOM     12  C   UNL     1     -13.752  37.374  13.237  1.00  0.00     0.000 C 
BRANCH  12  13
ATOM     13  C   UNL     1     -13.885  36.253  14.279  1.00  0.00    -0.000 C 
BRANCH  13  14
ATOM     14  C   UNL     1     -14.918  36.623  15.353  1.00  0.00    -0.000 C 
BRANCH  14  15
ATOM     15  C   UNL     1     -15.814  35.438  15.757  1.00  0.00    -0.000 C 
BRANCH  15  16
ATOM     16  C   UNL     1     -16.869  35.031  14.710  1.00  0.00    -0.000 C 
BRANCH  16  17
ATOM     17  C   UNL     1     -17.724  36.188  14.160  1.00  0.00    -0.000 C 
BRANCH  17  18
ATOM     18  C   UNL     1     -17.579  36.365  12.641  1.00  0.00    -0.000 C 
BRANCH  18  19
ATOM     19  C   UNL     1     -16.700  35.261  12.043  1.00  0.00    -0.003 C 
ATOM     20  C   UNL     1     -15.910  35.775  10.842  1.00  0.00     0.004 C 
ENDBRANCH  18  19
ENDBRANCH  17  18
ENDBRANCH  16  17
ENDBRANCH  15  16
ENDBRANCH  14  15
ENDBRANCH  13  14
ENDBRANCH  12  13
ENDBRANCH   1  12
TORSDOF 16
ENDMDL
MODEL 7
REMARK VINA RESULT:    -4.997      4.355     10.389
REMARK INTER + INTRA:         -11.025
REMARK INTER:                 -10.061
REMARK INTRA:                  -0.963
REMARK UNBOUND:                -1.353
REMARK SMILES CCCCCCCCCCCCCCCCCC(=O)[O-]
REMARK SMILES IDX 10 1 11 2 12 3 13 4 14 5 15 6 16 7 17 8 18 9 19 10 20 11
REMARK SMILES IDX 9 12 8 13 7 14 6 15 5 16 4 17 3 18 2 19 1 20
REMARK H PARENT
REMARK Flexibility Score: inf
ROOT
ATOM      1  C   UNL     1     -17.659  41.042  18.727  1.00  0.00     0.000 C 
ENDROOT
BRANCH   1   2
ATOM      2  C   UNL     1     -17.673  39.693  17.988  1.00  0.00     0.000 C 
BRANCH   2   3
ATOM      3  C   UNL     1     -17.291  38.517  18.901  1.00  0.00     0.000 C 
BRANCH   3   4
ATOM      4  C   UNL     1     -16.720  37.324  18.116  1.00  0.00     0.000 C 
BRANCH   4   5
ATOM      5  C   UNL     1     -16.636  37.591  16.602  1.00  0.00     0.000 C 
BRANCH   5   6
ATOM      6  C   UNL     1     -16.058  36.435  15.761  1.00  0.00     0.000 C 
BRANCH   6   7
ATOM      7  C   UNL     1     -16.060  36.669  14.240  1.00  0.00     0.006 C 
BRANCH   7   8
ATOM      8  C   UNL     1     -17.384  36.270  13.577  1.00  0.00     0.053 C 
BRANCH   8   9
ATOM      9  C   UNL     1     -17.305  34.870  13.055  1.00  0.00     0.041 C 
ATOM     10  O   UNL     1     -17.663  33.903  13.778  1.00  0.00    -0.550 OA
ATOM     11  O   UNL     1     -16.886  34.636  11.752  1.00  0.00    -0.550 OA
ENDBRANCH   8   9
ENDBRANCH   7   8
ENDBRANCH   6   7
ENDBRANCH   5   6
ENDBRANCH   4   5
ENDBRANCH   3   4
ENDBRANCH   2   3
ENDBRANCH   1   2
BRANCH   1  12
ATOM     12  C   UNL     1     -18.874  41.223  19.651  1.00  0.00     0.000 C 
BRANCH  12  13
ATOM     13  C   UNL     1     -18.495  41.208  21.140  1.00  0.00    -0.000 C 
BRANCH  13  14
ATOM     14  C   UNL     1     -16.987  40.985  21.321  1.00  0.00    -0.000 C 
BRANCH  14  15
ATOM     15  C   UNL     1     -16.343  41.996  22.287  1.00  0.00    -0.000 C 
BRANCH  15  16
ATOM     16  C   UNL     1     -16.016  43.371  21.672  1.00  0.00    -0.000 C 
BRANCH  16  17
ATOM     17  C   UNL     1     -16.933  44.523  22.122  1.00  0.00    -0.000 C 
BRANCH  17  18
ATOM     18  C   UNL     1     -16.424  45.230  23.387  1.00  0.00    -0.000 C 
BRANCH  18  19
ATOM     19  C   UNL     1     -16.428  46.752  23.202  1.00  0.00    -0.003 C 
ATOM     20  C   UNL     1     -16.039  47.135  21.776  1.00  0.00     0.004 C 
ENDBRANCH  18  19
ENDBRANCH  17  18
ENDBRANCH  16  17
ENDBRANCH  15  16
ENDBRANCH  14  15
ENDBRANCH  13  14
ENDBRANCH  12  13
ENDBRANCH   1  12
TORSDOF 16
ENDMDL
MODEL 8
REMARK VINA RESULT:    -4.931      6.428      9.372
REMARK INTER + INTRA:         -10.897
REMARK INTER:                  -8.451
REMARK INTRA:                  -2.446
REMARK UNBOUND:                -1.353
REMARK SMILES CCCCCCCCCCCCCCCCCC(=O)[O-]
REMARK SMILES IDX 10 1 11 2 12 3 13 4 14 5 15 6 16 7 17 8 18 9 19 10 20 11
REMARK SMILES IDX 9 12 8 13 7 14 6 15 5 16 4 17 3 18 2 19 1 20
REMARK H PARENT
REMARK Flexibility Score: inf
ROOT
ATOM      1  C   UNL     1     -17.382  41.614   9.599  1.00  0.00     0.000 C 
ENDROOT
BRANCH   1   2
ATOM      2  C   UNL     1     -17.934  42.085  10.955  1.00  0.00     0.000 C 
BRANCH   2   3
ATOM      3  C   UNL     1     -17.142  41.515  12.144  1.00  0.00     0.000 C 
BRANCH   3   4
ATOM      4  C   UNL     1     -16.043  40.534  11.702  1.00  0.00     0.000 C 
BRANCH   4   5
ATOM      5  C   UNL     1     -16.140  39.170  12.411  1.00  0.00     0.000 C 
BRANCH   5   6
ATOM      6  C   UNL     1     -17.557  38.766  12.868  1.00  0.00     0.000 C 
BRANCH   6   7
ATOM      7  C   UNL     1     -17.621  37.519  13.768  1.00  0.00     0.006 C 
BRANCH   7   8
ATOM      8  C   UNL     1     -17.518  36.209  12.978  1.00  0.00     0.053 C 
BRANCH   8   9
ATOM      9  C   UNL     1     -17.254  35.062  13.902  1.00  0.00     0.041 C 
ATOM     10  O   UNL     1     -16.660  35.254  14.996  1.00  0.00    -0.550 OA
ATOM     11  O   UNL     1     -17.709  33.789  13.580  1.00  0.00    -0.550 OA
ENDBRANCH   8   9
ENDBRANCH   7   8
ENDBRANCH   6   7
ENDBRANCH   5   6
ENDBRANCH   4   5
ENDBRANCH   3   4
ENDBRANCH   2   3
ENDBRANCH   1   2
BRANCH   1  12
ATOM     12  C   UNL     1     -17.309  42.748   8.564  1.00  0.00     0.000 C 
BRANCH  12  13
ATOM     13  C   UNL     1     -16.347  42.437   7.406  1.00  0.00    -0.000 C 
BRANCH  13  14
ATOM     14  C   UNL     1     -15.263  41.443   7.847  1.00  0.00    -0.000 C 
BRANCH  14  15
ATOM     15  C   UNL     1     -13.901  42.115   8.102  1.00  0.00    -0.000 C 
BRANCH  15  16
ATOM     16  C   UNL     1     -13.337  41.930   9.524  1.00  0.00    -0.000 C 
BRANCH  16  17
ATOM     17  C   UNL     1     -13.608  43.097  10.492  1.00  0.00    -0.000 C 
BRANCH  17  18
ATOM     18  C   UNL     1     -13.956  44.404   9.765  1.00  0.00    -0.000 C 
BRANCH  18  19
ATOM     19  C   UNL     1     -15.220  45.039  10.356  1.00  0.00    -0.003 C 
ATOM     20  C   UNL     1     -15.282  44.841  11.868  1.00  0.00     0.004 C 
ENDBRANCH  18  19
ENDBRANCH  17  18
ENDBRANCH  16  17
ENDBRANCH  15  16
ENDBRANCH  14  15
ENDBRANCH  13  14
ENDBRANCH  12  13
ENDBRANCH   1  12
TORSDOF 16
ENDMDL
MODEL 9
REMARK VINA RESULT:    -4.848      6.442      9.291
REMARK INTER + INTRA:         -10.737
REMARK INTER:                  -8.836
REMARK INTRA:                  -1.900
REMARK UNBOUND:                -1.353
REMARK SMILES CCCCCCCCCCCCCCCCCC(=O)[O-]
REMARK SMILES IDX 10 1 11 2 12 3 13 4 14 5 15 6 16 7 17 8 18 9 19 10 20 11
REMARK SMILES IDX 9 12 8 13 7 14 6 15 5 16 4 17 3 18 2 19 1 20
REMARK H PARENT
REMARK Flexibility Score: inf
ROOT
ATOM      1  C   UNL     1     -17.258  41.218   9.881  1.00  0.00     0.000 C 
ENDROOT
BRANCH   1   2
ATOM      2  C   UNL     1     -17.309  40.819  11.365  1.00  0.00     0.000 C 
BRANCH   2   3
ATOM      3  C   UNL     1     -15.943  40.354  11.898  1.00  0.00     0.000 C 
BRANCH   3   4
ATOM      4  C   UNL     1     -16.001  38.946  12.516  1.00  0.00     0.000 C 
BRANCH   4   5
ATOM      5  C   UNL     1     -14.718  38.579  13.285  1.00  0.00     0.000 C 
BRANCH   5   6
ATOM      6  C   UNL     1     -14.674  37.141  13.840  1.00  0.00     0.000 C 
BRANCH   6   7
ATOM      7  C   UNL     1     -15.502  36.907  15.116  1.00  0.00     0.006 C 
BRANCH   7   8
ATOM      8  C   UNL     1     -16.177  35.531  15.143  1.00  0.00     0.053 C 
BRANCH   8   9
ATOM      9  C   UNL     1     -17.241  35.449  14.094  1.00  0.00     0.041 C 
ATOM     10  O   UNL     1     -18.121  36.347  14.014  1.00  0.00    -0.550 OA
ATOM     11  O   UNL     1     -17.232  34.411  13.173  1.00  0.00    -0.550 OA
ENDBRANCH   8   9
ENDBRANCH   7   8
ENDBRANCH   6   7
ENDBRANCH   5   6
ENDBRANCH   4   5
ENDBRANCH   3   4
ENDBRANCH   2   3
ENDBRANCH   1   2
BRANCH   1  12
ATOM     12  C   UNL     1     -15.973  40.742   9.185  1.00  0.00     0.000 C 
BRANCH  12  13
ATOM     13  C   UNL     1     -15.984  41.006   7.671  1.00  0.00    -0.000 C 
BRANCH  13  14
ATOM     14  C   UNL     1     -14.675  41.670   7.221  1.00  0.00    -0.000 C 
BRANCH  14  15
ATOM     15  C   UNL     1     -14.768  43.206   7.170  1.00  0.00    -0.000 C 
BRANCH  15  16
ATOM     16  C   UNL     1     -16.200  43.776   7.232  1.00  0.00    -0.000 C 
BRANCH  16  17
ATOM     17  C   UNL     1     -16.426  44.860   8.302  1.00  0.00    -0.000 C 
BRANCH  17  18
ATOM     18  C   UNL     1     -15.148  45.203   9.082  1.00  0.00    -0.000 C 
BRANCH  18  19
ATOM     19  C   UNL     1     -15.288  44.817  10.558  1.00  0.00    -0.003 C 
ATOM     20  C   UNL     1     -14.459  43.578  10.886  1.00  0.00     0.004 C 
ENDBRANCH  18  19
ENDBRANCH  17  18
ENDBRANCH  16  17
ENDBRANCH  15  16
ENDBRANCH  14  15
ENDBRANCH  13  14
ENDBRANCH  12  13
ENDBRANCH   1  12
TORSDOF 16
ENDMDL
