MODEL 1
REMARK VINA RESULT:    -5.915      0.000      0.000
REMARK INTER + INTRA:         -18.320
REMARK INTER:                 -15.598
REMARK INTRA:                  -2.722
REMARK UNBOUND:                -2.722
REMARK SMILES CCCCCCCCCCCCCCCCCCCCCCCCCCCCCC(=O)[O-]
REMARK SMILES IDX 16 1 17 2 18 3 19 4 20 5 21 6 22 7 23 8 24 9 25 10 26 11
REMARK SMILES IDX 27 12 28 13 29 14 30 15 31 16 32 17 15 18 14 19 13 20 12 21
REMARK SMILES IDX 11 22 10 23 9 24 8 25 7 26 6 27 5 28 4 29 3 30 2 31 1 32
REMARK H PARENT
REMARK Flexibility Score: inf
ROOT
ATOM      1  C   UNL     1     -30.642  -2.615  23.663  1.00  0.00     0.000 C 
ENDROOT
BRANCH   1   2
ATOM      2  C   UNL     1     -30.919  -1.377  24.533  1.00  0.00     0.000 C 
BRANCH   2   3
ATOM      3  C   UNL     1     -30.719  -0.059  23.767  1.00  0.00     0.000 C 
BRANCH   3   4
ATOM      4  C   UNL     1     -29.886   0.957  24.563  1.00  0.00     0.000 C 
BRANCH   4   5
ATOM      5  C   UNL     1     -30.044   0.731  26.074  1.00  0.00     0.000 C 
BRANCH   5   6
ATOM      6  C   UNL     1     -28.740   0.271  26.749  1.00  0.00     0.000 C 
BRANCH   6   7
ATOM      7  C   UNL     1     -28.697   0.457  28.280  1.00  0.00     0.000 C 
BRANCH   7   8
ATOM      8  C   UNL     1     -29.852   1.290  28.870  1.00  0.00     0.000 C 
BRANCH   8   9
ATOM      9  C   UNL     1     -29.888   1.357  30.409  1.00  0.00     0.000 C 
BRANCH   9  10
ATOM     10  C   UNL     1     -30.729   2.508  30.994  1.00  0.00     0.000 C 
BRANCH  10  11
ATOM     11  C   UNL     1     -31.227   2.286  32.433  1.00  0.00     0.000 C 
BRANCH  11  12
ATOM     12  C   UNL     1     -30.973   3.497  33.346  1.00  0.00     0.000 C 
BRANCH  12  13
ATOM     13  C   UNL     1     -29.535   3.532  33.895  1.00  0.00     0.006 C 
BRANCH  13  14
ATOM     14  C   UNL     1     -28.914   2.144  34.125  1.00  0.00     0.053 C 
BRANCH  14  15
ATOM     15  C   UNL     1     -27.637   1.967  33.363  1.00  0.00     0.041 C 
ATOM     16  O   UNL     1     -26.784   2.892  33.330  1.00  0.00    -0.550 OA
ATOM     17  O   UNL     1     -27.376   0.768  32.713  1.00  0.00    -0.550 OA
ENDBRANCH  14  15
ENDBRANCH  13  14
ENDBRANCH  12  13
ENDBRANCH  11  12
ENDBRANCH  10  11
ENDBRANCH   9  10
ENDBRANCH   8   9
ENDBRANCH   7   8
ENDBRANCH   6   7
ENDBRANCH   5   6
ENDBRANCH   4   5
ENDBRANCH   3   4
ENDBRANCH   2   3
ENDBRANCH   1   2
BRANCH   1  18
ATOM     18  C   UNL     1     -29.142  -2.915  23.498  1.00  0.00     0.000 C 
BRANCH  18  19
ATOM     19  C   UNL     1     -28.233  -2.221  24.537  1.00  0.00     0.000 C 
BRANCH  19  20
ATOM     20  C   UNL     1     -26.842  -1.811  24.016  1.00  0.00     0.000 C 
BRANCH  20  21
ATOM     21  C   UNL     1     -26.738  -0.315  23.679  1.00  0.00     0.000 C 
BRANCH  21  22
ATOM     22  C   UNL     1     -27.229  -0.039  22.250  1.00  0.00     0.000 C 
BRANCH  22  23
ATOM     23  C   UNL     1     -26.793  -1.133  21.251  1.00  0.00     0.000 C 
BRANCH  23  24
ATOM     24  C   UNL     1     -27.684  -1.208  19.995  1.00  0.00    -0.000 C 
BRANCH  24  25
ATOM     25  C   UNL     1     -28.893  -2.152  20.127  1.00  0.00    -0.000 C 
BRANCH  25  26
ATOM     26  C   UNL     1     -29.369  -2.737  18.777  1.00  0.00    -0.000 C 
BRANCH  26  27
ATOM     27  C   UNL     1     -28.418  -2.405  17.615  1.00  0.00    -0.000 C 
BRANCH  27  28
ATOM     28  C   UNL     1     -28.529  -3.407  16.452  1.00  0.00    -0.000 C 
BRANCH  28  29
ATOM     29  C   UNL     1     -29.017  -2.767  15.134  1.00  0.00    -0.000 C 
BRANCH  29  30
ATOM     30  C   UNL     1     -27.980  -2.901  14.006  1.00  0.00    -0.000 C 
BRANCH  30  31
ATOM     31  C   UNL     1     -26.786  -1.948  14.179  1.00  0.00    -0.003 C 
ATOM     32  C   UNL     1     -25.444  -2.680  14.212  1.00  0.00     0.004 C 
ENDBRANCH  30  31
ENDBRANCH  29  30
ENDBRANCH  28  29
ENDBRANCH  27  28
ENDBRANCH  26  27
ENDBRANCH  25  26
ENDBRANCH  24  25
ENDBRANCH  23  24
ENDBRANCH  22  23
ENDBRANCH  21  22
ENDBRANCH  20  21
ENDBRANCH  19  20
ENDBRANCH  18  19
ENDBRANCH   1  18
TORSDOF 28
ENDMDL
MODEL 2
REMARK VINA RESULT:    -5.891      4.666     12.877
REMARK INTER + INTRA:         -18.255
REMARK INTER:                 -14.886
REMARK INTRA:                  -3.370
REMARK UNBOUND:                -2.722
REMARK SMILES CCCCCCCCCCCCCCCCCCCCCCCCCCCCCC(=O)[O-]
REMARK SMILES IDX 16 1 17 2 18 3 19 4 20 5 21 6 22 7 23 8 24 9 25 10 26 11
REMARK SMILES IDX 27 12 28 13 29 14 30 15 31 16 32 17 15 18 14 19 13 20 12 21
REMARK SMILES IDX 11 22 10 23 9 24 8 25 7 26 6 27 5 28 4 29 3 30 2 31 1 32
REMARK H PARENT
REMARK Flexibility Score: inf
ROOT
ATOM      1  C   UNL     1     -27.910   0.050  26.023  1.00  0.00     0.000 C 
ENDROOT
BRANCH   1   2
ATOM      2  C   UNL     1     -27.218  -0.432  24.737  1.00  0.00     0.000 C 
BRANCH   2   3
ATOM      3  C   UNL     1     -26.751   0.731  23.846  1.00  0.00     0.000 C 
BRANCH   3   4
ATOM      4  C   UNL     1     -27.746   1.035  22.716  1.00  0.00     0.000 C 
BRANCH   4   5
ATOM      5  C   UNL     1     -29.105   1.467  23.284  1.00  0.00     0.000 C 
BRANCH   5   6
ATOM      6  C   UNL     1     -30.294   0.863  22.516  1.00  0.00     0.000 C 
BRANCH   6   7
ATOM      7  C   UNL     1     -31.073  -0.232  23.274  1.00  0.00     0.000 C 
BRANCH   7   8
ATOM      8  C   UNL     1     -30.889  -1.661  22.727  1.00  0.00     0.000 C 
BRANCH   8   9
ATOM      9  C   UNL     1     -29.577  -2.355  23.144  1.00  0.00     0.000 C 
BRANCH   9  10
ATOM     10  C   UNL     1     -28.532  -2.506  22.022  1.00  0.00     0.000 C 
BRANCH  10  11
ATOM     11  C   UNL     1     -29.060  -2.254  20.600  1.00  0.00     0.000 C 
BRANCH  11  12
ATOM     12  C   UNL     1     -28.317  -1.116  19.880  1.00  0.00     0.000 C 
BRANCH  12  13
ATOM     13  C   UNL     1     -28.154  -1.377  18.372  1.00  0.00     0.006 C 
BRANCH  13  14
ATOM     14  C   UNL     1     -28.729  -2.722  17.899  1.00  0.00     0.053 C 
BRANCH  14  15
ATOM     15  C   UNL     1     -28.529  -2.933  16.430  1.00  0.00     0.041 C 
ATOM     16  O   UNL     1     -27.578  -2.366  15.831  1.00  0.00    -0.550 OA
ATOM     17  O   UNL     1     -29.377  -3.780  15.728  1.00  0.00    -0.550 OA
ENDBRANCH  14  15
ENDBRANCH  13  14
ENDBRANCH  12  13
ENDBRANCH  11  12
ENDBRANCH  10  11
ENDBRANCH   9  10
ENDBRANCH   8   9
ENDBRANCH   7   8
ENDBRANCH   6   7
ENDBRANCH   5   6
ENDBRANCH   4   5
ENDBRANCH   3   4
ENDBRANCH   2   3
ENDBRANCH   1   2
BRANCH   1  18
ATOM     18  C   UNL     1     -29.185  -0.743  26.358  1.00  0.00     0.000 C 
BRANCH  18  19
ATOM     19  C   UNL     1     -30.347   0.116  26.907  1.00  0.00     0.000 C 
BRANCH  19  20
ATOM     20  C   UNL     1     -29.951   1.128  27.999  1.00  0.00     0.000 C 
BRANCH  20  21
ATOM     21  C   UNL     1     -28.937   0.565  29.008  1.00  0.00     0.000 C 
BRANCH  21  22
ATOM     22  C   UNL     1     -29.209   1.106  30.420  1.00  0.00     0.000 C 
BRANCH  22  23
ATOM     23  C   UNL     1     -28.444   0.325  31.512  1.00  0.00     0.000 C 
BRANCH  23  24
ATOM     24  C   UNL     1     -28.174   1.154  32.783  1.00  0.00    -0.000 C 
BRANCH  24  25
ATOM     25  C   UNL     1     -27.388   2.455  32.539  1.00  0.00    -0.000 C 
BRANCH  25  26
ATOM     26  C   UNL     1     -28.226   3.734  32.770  1.00  0.00    -0.000 C 
BRANCH  26  27
ATOM     27  C   UNL     1     -29.060   3.677  34.060  1.00  0.00    -0.000 C 
BRANCH  27  28
ATOM     28  C   UNL     1     -30.574   3.741  33.792  1.00  0.00    -0.000 C 
BRANCH  28  29
ATOM     29  C   UNL     1     -30.966   3.285  32.369  1.00  0.00    -0.000 C 
BRANCH  29  30
ATOM     30  C   UNL     1     -32.413   2.769  32.304  1.00  0.00    -0.000 C 
BRANCH  30  31
ATOM     31  C   UNL     1     -32.685   1.632  33.304  1.00  0.00    -0.003 C 
ATOM     32  C   UNL     1     -31.728   0.452  33.134  1.00  0.00     0.004 C 
ENDBRANCH  30  31
ENDBRANCH  29  30
ENDBRANCH  28  29
ENDBRANCH  27  28
ENDBRANCH  26  27
ENDBRANCH  25  26
ENDBRANCH  24  25
ENDBRANCH  23  24
ENDBRANCH  22  23
ENDBRANCH  21  22
ENDBRANCH  20  21
ENDBRANCH  19  20
ENDBRANCH  18  19
ENDBRANCH   1  18
TORSDOF 28
ENDMDL
MODEL 3
REMARK VINA RESULT:    -5.790      4.862     14.039
REMARK INTER + INTRA:         -17.990
REMARK INTER:                 -15.370
REMARK INTRA:                  -2.620
REMARK UNBOUND:                -2.722
REMARK SMILES CCCCCCCCCCCCCCCCCCCCCCCCCCCCCC(=O)[O-]
REMARK SMILES IDX 16 1 17 2 18 3 19 4 20 5 21 6 22 7 23 8 24 9 25 10 26 11
REMARK SMILES IDX 27 12 28 13 29 14 30 15 31 16 32 17 15 18 14 19 13 20 12 21
REMARK SMILES IDX 11 22 10 23 9 24 8 25 7 26 6 27 5 28 4 29 3 30 2 31 1 32
REMARK H PARENT
REMARK Flexibility Score: inf
ROOT
ATOM      1  C   UNL     1     -28.671  -1.592  25.472  1.00  0.00     0.000 C 
ENDROOT
BRANCH   1   2
ATOM      2  C   UNL     1     -27.945  -1.834  24.138  1.00  0.00     0.000 C 
BRANCH   2   3
ATOM      3  C   UNL     1     -26.698  -0.948  23.974  1.00  0.00     0.000 C 
BRANCH   3   4
ATOM      4  C   UNL     1     -26.800  -0.019  22.755  1.00  0.00     0.000 C 
BRANCH   4   5
ATOM      5  C   UNL     1     -28.126   0.755  22.765  1.00  0.00     0.000 C 
BRANCH   5   6
ATOM      6  C   UNL     1     -29.045   0.379  21.589  1.00  0.00     0.000 C 
BRANCH   6   7
ATOM      7  C   UNL     1     -28.491  -0.712  20.649  1.00  0.00     0.000 C 
BRANCH   7   8
ATOM      8  C   UNL     1     -29.491  -1.824  20.279  1.00  0.00     0.000 C 
BRANCH   8   9
ATOM      9  C   UNL     1     -28.989  -2.826  19.220  1.00  0.00     0.000 C 
BRANCH   9  10
ATOM     10  C   UNL     1     -28.821  -2.249  17.801  1.00  0.00     0.000 C 
BRANCH  10  11
ATOM     11  C   UNL     1     -28.685  -3.297  16.683  1.00  0.00     0.000 C 
BRANCH  11  12
ATOM     12  C   UNL     1     -29.292  -2.829  15.350  1.00  0.00     0.000 C 
BRANCH  12  13
ATOM     13  C   UNL     1     -28.461  -3.277  14.133  1.00  0.00     0.006 C 
BRANCH  13  14
ATOM     14  C   UNL     1     -27.196  -2.437  13.891  1.00  0.00     0.053 C 
BRANCH  14  15
ATOM     15  C   UNL     1     -25.949  -3.191  14.233  1.00  0.00     0.041 C 
ATOM     16  O   UNL     1     -25.878  -4.430  14.025  1.00  0.00    -0.550 OA
ATOM     17  O   UNL     1     -24.852  -2.518  14.756  1.00  0.00    -0.550 OA
ENDBRANCH  14  15
ENDBRANCH  13  14
ENDBRANCH  12  13
ENDBRANCH  11  12
ENDBRANCH  10  11
ENDBRANCH   9  10
ENDBRANCH   8   9
ENDBRANCH   7   8
ENDBRANCH   6   7
ENDBRANCH   5   6
ENDBRANCH   4   5
ENDBRANCH   3   4
ENDBRANCH   2   3
ENDBRANCH   1   2
BRANCH   1  18
ATOM     18  C   UNL     1     -30.185  -1.375  25.306  1.00  0.00     0.000 C 
BRANCH  18  19
ATOM     19  C   UNL     1     -30.709  -0.045  25.894  1.00  0.00     0.000 C 
BRANCH  19  20
ATOM     20  C   UNL     1     -29.655   0.803  26.632  1.00  0.00     0.000 C 
BRANCH  20  21
ATOM     21  C   UNL     1     -30.100   1.229  28.041  1.00  0.00     0.000 C 
BRANCH  21  22
ATOM     22  C   UNL     1     -29.071   0.797  29.096  1.00  0.00     0.000 C 
BRANCH  22  23
ATOM     23  C   UNL     1     -29.329   1.442  30.475  1.00  0.00     0.000 C 
BRANCH  23  24
ATOM     24  C   UNL     1     -28.941   0.535  31.660  1.00  0.00    -0.000 C 
BRANCH  24  25
ATOM     25  C   UNL     1     -27.996   1.192  32.683  1.00  0.00    -0.000 C 
BRANCH  25  26
ATOM     26  C   UNL     1     -27.348   2.499  32.172  1.00  0.00    -0.000 C 
BRANCH  26  27
ATOM     27  C   UNL     1     -27.573   3.688  33.120  1.00  0.00    -0.000 C 
BRANCH  27  28
ATOM     28  C   UNL     1     -28.796   3.494  34.035  1.00  0.00    -0.000 C 
BRANCH  28  29
ATOM     29  C   UNL     1     -30.137   3.821  33.343  1.00  0.00    -0.000 C 
BRANCH  29  30
ATOM     30  C   UNL     1     -31.338   3.221  34.095  1.00  0.00    -0.000 C 
BRANCH  30  31
ATOM     31  C   UNL     1     -32.219   2.335  33.198  1.00  0.00    -0.003 C 
ATOM     32  C   UNL     1     -32.040   0.843  33.479  1.00  0.00     0.004 C 
ENDBRANCH  30  31
ENDBRANCH  29  30
ENDBRANCH  28  29
ENDBRANCH  27  28
ENDBRANCH  26  27
ENDBRANCH  25  26
ENDBRANCH  24  25
ENDBRANCH  23  24
ENDBRANCH  22  23
ENDBRANCH  21  22
ENDBRANCH  20  21
ENDBRANCH  19  20
ENDBRANCH  18  19
ENDBRANCH   1  18
TORSDOF 28
ENDMDL
MODEL 4
REMARK VINA RESULT:    -5.737      1.838      3.341
REMARK INTER + INTRA:         -17.849
REMARK INTER:                 -14.795
REMARK INTRA:                  -3.054
REMARK UNBOUND:                -2.722
REMARK SMILES CCCCCCCCCCCCCCCCCCCCCCCCCCCCCC(=O)[O-]
REMARK SMILES IDX 16 1 17 2 18 3 19 4 20 5 21 6 22 7 23 8 24 9 25 10 26 11
REMARK SMILES IDX 27 12 28 13 29 14 30 15 31 16 32 17 15 18 14 19 13 20 12 21
REMARK SMILES IDX 11 22 10 23 9 24 8 25 7 26 6 27 5 28 4 29 3 30 2 31 1 32
REMARK H PARENT
REMARK Flexibility Score: inf
ROOT
ATOM      1  C   UNL     1     -27.080  -0.491  23.194  1.00  0.00     0.000 C 
ENDROOT
BRANCH   1   2
ATOM      2  C   UNL     1     -27.119  -0.999  24.645  1.00  0.00     0.000 C 
BRANCH   2   3
ATOM      3  C   UNL     1     -27.535   0.094  25.643  1.00  0.00     0.000 C 
BRANCH   3   4
ATOM      4  C   UNL     1     -28.851  -0.242  26.361  1.00  0.00     0.000 C 
BRANCH   4   5
ATOM      5  C   UNL     1     -28.743   0.044  27.866  1.00  0.00     0.000 C 
BRANCH   5   6
ATOM      6  C   UNL     1     -29.766   1.087  28.350  1.00  0.00     0.000 C 
BRANCH   6   7
ATOM      7  C   UNL     1     -29.743   1.368  29.867  1.00  0.00     0.000 C 
BRANCH   7   8
ATOM      8  C   UNL     1     -28.684   0.580  30.662  1.00  0.00     0.000 C 
BRANCH   8   9
ATOM      9  C   UNL     1     -28.557   0.972  32.147  1.00  0.00     0.000 C 
BRANCH   9  10
ATOM     10  C   UNL     1     -27.703   2.224  32.423  1.00  0.00     0.000 C 
BRANCH  10  11
ATOM     11  C   UNL     1     -27.902   2.856  33.811  1.00  0.00     0.000 C 
BRANCH  11  12
ATOM     12  C   UNL     1     -28.871   4.050  33.790  1.00  0.00     0.000 C 
BRANCH  12  13
ATOM     13  C   UNL     1     -30.318   3.643  34.125  1.00  0.00     0.006 C 
BRANCH  13  14
ATOM     14  C   UNL     1     -31.180   3.314  32.895  1.00  0.00     0.053 C 
BRANCH  14  15
ATOM     15  C   UNL     1     -31.950   2.042  33.073  1.00  0.00     0.041 C 
ATOM     16  O   UNL     1     -31.615   1.216  33.962  1.00  0.00    -0.550 OA
ATOM     17  O   UNL     1     -33.056   1.781  32.274  1.00  0.00    -0.550 OA
ENDBRANCH  14  15
ENDBRANCH  13  14
ENDBRANCH  12  13
ENDBRANCH  11  12
ENDBRANCH  10  11
ENDBRANCH   9  10
ENDBRANCH   8   9
ENDBRANCH   7   8
ENDBRANCH   6   7
ENDBRANCH   5   6
ENDBRANCH   4   5
ENDBRANCH   3   4
ENDBRANCH   2   3
ENDBRANCH   1   2
BRANCH   1  18
ATOM     18  C   UNL     1     -27.500   0.983  23.058  1.00  0.00     0.000 C 
BRANCH  18  19
ATOM     19  C   UNL     1     -28.733   1.217  22.157  1.00  0.00     0.000 C 
BRANCH  19  20
ATOM     20  C   UNL     1     -30.038   1.545  22.909  1.00  0.00     0.000 C 
BRANCH  20  21
ATOM     21  C   UNL     1     -30.765   0.296  23.433  1.00  0.00     0.000 C 
BRANCH  21  22
ATOM     22  C   UNL     1     -30.861  -0.782  22.344  1.00  0.00     0.000 C 
BRANCH  22  23
ATOM     23  C   UNL     1     -30.028  -2.039  22.679  1.00  0.00     0.000 C 
BRANCH  23  24
ATOM     24  C   UNL     1     -29.250  -2.600  21.473  1.00  0.00    -0.000 C 
BRANCH  24  25
ATOM     25  C   UNL     1     -29.519  -1.868  20.145  1.00  0.00    -0.000 C 
BRANCH  25  26
ATOM     26  C   UNL     1     -28.281  -1.127  19.589  1.00  0.00    -0.000 C 
BRANCH  26  27
ATOM     27  C   UNL     1     -27.876  -1.610  18.187  1.00  0.00    -0.000 C 
BRANCH  27  28
ATOM     28  C   UNL     1     -28.849  -2.656  17.615  1.00  0.00    -0.000 C 
BRANCH  28  29
ATOM     29  C   UNL     1     -28.542  -3.046  16.153  1.00  0.00    -0.000 C 
BRANCH  29  30
ATOM     30  C   UNL     1     -29.675  -2.641  15.195  1.00  0.00    -0.000 C 
BRANCH  30  31
ATOM     31  C   UNL     1     -29.937  -3.693  14.104  1.00  0.00    -0.003 C 
ATOM     32  C   UNL     1     -30.259  -5.073  14.676  1.00  0.00     0.004 C 
ENDBRANCH  30  31
ENDBRANCH  29  30
ENDBRANCH  28  29
ENDBRANCH  27  28
ENDBRANCH  26  27
ENDBRANCH  25  26
ENDBRANCH  24  25
ENDBRANCH  23  24
ENDBRANCH  22  23
ENDBRANCH  21  22
ENDBRANCH  20  21
ENDBRANCH  19  20
ENDBRANCH  18  19
ENDBRANCH   1  18
TORSDOF 28
ENDMDL
MODEL 5
REMARK VINA RESULT:    -5.601      5.121     13.668
REMARK INTER + INTRA:         -17.492
REMARK INTER:                 -14.720
REMARK INTRA:                  -2.772
REMARK UNBOUND:                -2.722
REMARK SMILES CCCCCCCCCCCCCCCCCCCCCCCCCCCCCC(=O)[O-]
REMARK SMILES IDX 16 1 17 2 18 3 19 4 20 5 21 6 22 7 23 8 24 9 25 10 26 11
REMARK SMILES IDX 27 12 28 13 29 14 30 15 31 16 32 17 15 18 14 19 13 20 12 21
REMARK SMILES IDX 11 22 10 23 9 24 8 25 7 26 6 27 5 28 4 29 3 30 2 31 1 32
REMARK H PARENT
REMARK Flexibility Score: inf
ROOT
ATOM      1  C   UNL     1     -30.760  -1.278  23.101  1.00  0.00     0.000 C 
ENDROOT
BRANCH   1   2
ATOM      2  C   UNL     1     -30.119  -2.244  24.112  1.00  0.00     0.000 C 
BRANCH   2   3
ATOM      3  C   UNL     1     -28.706  -2.683  23.696  1.00  0.00     0.000 C 
BRANCH   3   4
ATOM      4  C   UNL     1     -27.611  -1.896  24.432  1.00  0.00     0.000 C 
BRANCH   4   5
ATOM      5  C   UNL     1     -26.534  -1.407  23.452  1.00  0.00     0.000 C 
BRANCH   5   6
ATOM      6  C   UNL     1     -27.103  -0.508  22.340  1.00  0.00     0.000 C 
BRANCH   6   7
ATOM      7  C   UNL     1     -27.378  -1.221  20.999  1.00  0.00     0.000 C 
BRANCH   7   8
ATOM      8  C   UNL     1     -28.629  -0.732  20.244  1.00  0.00     0.000 C 
BRANCH   8   9
ATOM      9  C   UNL     1     -29.508  -1.848  19.648  1.00  0.00     0.000 C 
BRANCH   9  10
ATOM     10  C   UNL     1     -28.842  -2.685  18.539  1.00  0.00     0.000 C 
BRANCH  10  11
ATOM     11  C   UNL     1     -28.254  -1.872  17.373  1.00  0.00     0.000 C 
BRANCH  11  12
ATOM     12  C   UNL     1     -27.890  -2.745  16.161  1.00  0.00     0.000 C 
BRANCH  12  13
ATOM     13  C   UNL     1     -28.629  -4.096  16.161  1.00  0.00     0.006 C 
BRANCH  13  14
ATOM     14  C   UNL     1     -29.131  -4.540  14.778  1.00  0.00     0.053 C 
BRANCH  14  15
ATOM     15  C   UNL     1     -30.401  -3.847  14.392  1.00  0.00     0.041 C 
ATOM     16  O   UNL     1     -30.369  -2.682  13.916  1.00  0.00    -0.550 OA
ATOM     17  O   UNL     1     -31.619  -4.498  14.533  1.00  0.00    -0.550 OA
ENDBRANCH  14  15
ENDBRANCH  13  14
ENDBRANCH  12  13
ENDBRANCH  11  12
ENDBRANCH  10  11
ENDBRANCH   9  10
ENDBRANCH   8   9
ENDBRANCH   7   8
ENDBRANCH   6   7
ENDBRANCH   5   6
ENDBRANCH   4   5
ENDBRANCH   3   4
ENDBRANCH   2   3
ENDBRANCH   1   2
BRANCH   1  18
ATOM     18  C   UNL     1     -30.906   0.155  23.642  1.00  0.00     0.000 C 
BRANCH  18  19
ATOM     19  C   UNL     1     -29.700   0.653  24.470  1.00  0.00     0.000 C 
BRANCH  19  20
ATOM     20  C   UNL     1     -30.023   1.041  25.925  1.00  0.00     0.000 C 
BRANCH  20  21
ATOM     21  C   UNL     1     -29.698  -0.071  26.935  1.00  0.00     0.000 C 
BRANCH  21  22
ATOM     22  C   UNL     1     -28.708   0.426  27.999  1.00  0.00     0.000 C 
BRANCH  22  23
ATOM     23  C   UNL     1     -29.391   0.722  29.353  1.00  0.00     0.000 C 
BRANCH  23  24
ATOM     24  C   UNL     1     -28.399   1.086  30.475  1.00  0.00    -0.000 C 
BRANCH  24  25
ATOM     25  C   UNL     1     -28.851   0.669  31.886  1.00  0.00    -0.000 C 
BRANCH  25  26
ATOM     26  C   UNL     1     -28.184   1.490  33.015  1.00  0.00    -0.000 C 
BRANCH  26  27
ATOM     27  C   UNL     1     -28.042   2.980  32.664  1.00  0.00    -0.000 C 
BRANCH  27  28
ATOM     28  C   UNL     1     -28.949   3.881  33.521  1.00  0.00    -0.000 C 
BRANCH  28  29
ATOM     29  C   UNL     1     -30.323   3.248  33.834  1.00  0.00    -0.000 C 
BRANCH  29  30
ATOM     30  C   UNL     1     -31.292   3.352  32.644  1.00  0.00    -0.000 C 
BRANCH  30  31
ATOM     31  C   UNL     1     -32.395   2.280  32.679  1.00  0.00    -0.003 C 
ATOM     32  C   UNL     1     -32.011   1.062  33.520  1.00  0.00     0.004 C 
ENDBRANCH  30  31
ENDBRANCH  29  30
ENDBRANCH  28  29
ENDBRANCH  27  28
ENDBRANCH  26  27
ENDBRANCH  25  26
ENDBRANCH  24  25
ENDBRANCH  23  24
ENDBRANCH  22  23
ENDBRANCH  21  22
ENDBRANCH  20  21
ENDBRANCH  19  20
ENDBRANCH  18  19
ENDBRANCH   1  18
TORSDOF 28
ENDMDL
MODEL 6
REMARK VINA RESULT:    -5.569      1.123      2.464
REMARK INTER + INTRA:         -17.405
REMARK INTER:                 -14.642
REMARK INTRA:                  -2.763
REMARK UNBOUND:                -2.722
REMARK SMILES CCCCCCCCCCCCCCCCCCCCCCCCCCCCCC(=O)[O-]
REMARK SMILES IDX 16 1 17 2 18 3 19 4 20 5 21 6 22 7 23 8 24 9 25 10 26 11
REMARK SMILES IDX 27 12 28 13 29 14 30 15 31 16 32 17 15 18 14 19 13 20 12 21
REMARK SMILES IDX 11 22 10 23 9 24 8 25 7 26 6 27 5 28 4 29 3 30 2 31 1 32
REMARK H PARENT
REMARK Flexibility Score: inf
ROOT
ATOM      1  C   UNL     1     -27.114  -0.951  24.568  1.00  0.00     0.000 C 
ENDROOT
BRANCH   1   2
ATOM      2  C   UNL     1     -27.080   0.359  25.373  1.00  0.00     0.000 C 
BRANCH   2   3
ATOM      3  C   UNL     1     -27.700   0.209  26.773  1.00  0.00     0.000 C 
BRANCH   3   4
ATOM      4  C   UNL     1     -28.929  -0.712  26.770  1.00  0.00     0.000 C 
BRANCH   4   5
ATOM      5  C   UNL     1     -30.223   0.102  26.919  1.00  0.00     0.000 C 
BRANCH   5   6
ATOM      6  C   UNL     1     -29.994   1.473  27.579  1.00  0.00     0.000 C 
BRANCH   6   7
ATOM      7  C   UNL     1     -30.613   1.635  28.982  1.00  0.00     0.000 C 
BRANCH   7   8
ATOM      8  C   UNL     1     -29.691   1.242  30.152  1.00  0.00     0.000 C 
BRANCH   8   9
ATOM      9  C   UNL     1     -30.323   1.368  31.552  1.00  0.00     0.000 C 
BRANCH   9  10
ATOM     10  C   UNL     1     -31.306   2.543  31.723  1.00  0.00     0.000 C 
BRANCH  10  11
ATOM     11  C   UNL     1     -31.164   3.326  33.039  1.00  0.00     0.000 C 
BRANCH  11  12
ATOM     12  C   UNL     1     -29.913   2.926  33.839  1.00  0.00     0.000 C 
BRANCH  12  13
ATOM     13  C   UNL     1     -28.793   3.979  33.752  1.00  0.00     0.006 C 
BRANCH  13  14
ATOM     14  C   UNL     1     -27.373   3.400  33.863  1.00  0.00     0.053 C 
BRANCH  14  15
ATOM     15  C   UNL     1     -27.124   2.327  32.849  1.00  0.00     0.041 C 
ATOM     16  O   UNL     1     -27.349   1.122  33.132  1.00  0.00    -0.550 OA
ATOM     17  O   UNL     1     -26.669   2.662  31.580  1.00  0.00    -0.550 OA
ENDBRANCH  14  15
ENDBRANCH  13  14
ENDBRANCH  12  13
ENDBRANCH  11  12
ENDBRANCH  10  11
ENDBRANCH   9  10
ENDBRANCH   8   9
ENDBRANCH   7   8
ENDBRANCH   6   7
ENDBRANCH   5   6
ENDBRANCH   4   5
ENDBRANCH   3   4
ENDBRANCH   2   3
ENDBRANCH   1   2
BRANCH   1  18
ATOM     18  C   UNL     1     -27.047  -0.728  23.047  1.00  0.00     0.000 C 
BRANCH  18  19
ATOM     19  C   UNL     1     -27.690   0.592  22.565  1.00  0.00     0.000 C 
BRANCH  19  20
ATOM     20  C   UNL     1     -28.980   0.998  23.304  1.00  0.00     0.000 C 
BRANCH  20  21
ATOM     21  C   UNL     1     -30.253   0.422  22.663  1.00  0.00     0.000 C 
BRANCH  21  22
ATOM     22  C   UNL     1     -30.610  -0.938  23.279  1.00  0.00     0.000 C 
BRANCH  22  23
ATOM     23  C   UNL     1     -30.385  -2.112  22.299  1.00  0.00     0.000 C 
BRANCH  23  24
ATOM     24  C   UNL     1     -30.085  -1.658  20.857  1.00  0.00    -0.000 C 
BRANCH  24  25
ATOM     25  C   UNL     1     -28.772  -2.213  20.274  1.00  0.00    -0.000 C 
BRANCH  25  26
ATOM     26  C   UNL     1     -28.096  -1.260  19.260  1.00  0.00    -0.000 C 
BRANCH  26  27
ATOM     27  C   UNL     1     -28.071  -1.828  17.832  1.00  0.00    -0.000 C 
BRANCH  27  28
ATOM     28  C   UNL     1     -28.895  -3.120  17.693  1.00  0.00    -0.000 C 
BRANCH  28  29
ATOM     29  C   UNL     1     -28.697  -3.831  16.336  1.00  0.00    -0.000 C 
BRANCH  29  30
ATOM     30  C   UNL     1     -29.211  -2.985  15.158  1.00  0.00    -0.000 C 
BRANCH  30  31
ATOM     31  C   UNL     1     -28.171  -2.835  14.035  1.00  0.00    -0.003 C 
ATOM     32  C   UNL     1     -27.022  -1.899  14.411  1.00  0.00     0.004 C 
ENDBRANCH  30  31
ENDBRANCH  29  30
ENDBRANCH  28  29
ENDBRANCH  27  28
ENDBRANCH  26  27
ENDBRANCH  25  26
ENDBRANCH  24  25
ENDBRANCH  23  24
ENDBRANCH  22  23
ENDBRANCH  21  22
ENDBRANCH  20  21
ENDBRANCH  19  20
ENDBRANCH  18  19
ENDBRANCH   1  18
TORSDOF 28
ENDMDL
MODEL 7
REMARK VINA RESULT:    -5.451      4.738     13.072
REMARK INTER + INTRA:         -17.096
REMARK INTER:                 -13.845
REMARK INTRA:                  -3.251
REMARK UNBOUND:                -2.722
REMARK SMILES CCCCCCCCCCCCCCCCCCCCCCCCCCCCCC(=O)[O-]
REMARK SMILES IDX 16 1 17 2 18 3 19 4 20 5 21 6 22 7 23 8 24 9 25 10 26 11
REMARK SMILES IDX 27 12 28 13 29 14 30 15 31 16 32 17 15 18 14 19 13 20 12 21
REMARK SMILES IDX 11 22 10 23 9 24 8 25 7 26 6 27 5 28 4 29 3 30 2 31 1 32
REMARK H PARENT
REMARK Flexibility Score: inf
ROOT
ATOM      1  C   UNL     1     -30.762  -0.677  22.356  1.00  0.00     0.000 C 
ENDROOT
BRANCH   1   2
ATOM      2  C   UNL     1     -31.255  -1.854  23.214  1.00  0.00     0.000 C 
BRANCH   2   3
ATOM      3  C   UNL     1     -30.121  -2.818  23.601  1.00  0.00     0.000 C 
BRANCH   3   4
ATOM      4  C   UNL     1     -29.181  -2.219  24.658  1.00  0.00     0.000 C 
BRANCH   4   5
ATOM      5  C   UNL     1     -27.718  -2.576  24.355  1.00  0.00     0.000 C 
BRANCH   5   6
ATOM      6  C   UNL     1     -26.821  -1.336  24.194  1.00  0.00     0.000 C 
BRANCH   6   7
ATOM      7  C   UNL     1     -26.506  -0.943  22.736  1.00  0.00     0.000 C 
BRANCH   7   8
ATOM      8  C   UNL     1     -27.275  -1.740  21.664  1.00  0.00     0.000 C 
BRANCH   8   9
ATOM      9  C   UNL     1     -27.135  -1.202  20.227  1.00  0.00     0.000 C 
BRANCH   9  10
ATOM     10  C   UNL     1     -28.464  -0.996  19.473  1.00  0.00     0.000 C 
BRANCH  10  11
ATOM     11  C   UNL     1     -29.340  -2.253  19.341  1.00  0.00     0.000 C 
BRANCH  11  12
ATOM     12  C   UNL     1     -28.962  -3.121  18.129  1.00  0.00     0.000 C 
BRANCH  12  13
ATOM     13  C   UNL     1     -28.308  -2.304  16.999  1.00  0.00     0.006 C 
BRANCH  13  14
ATOM     14  C   UNL     1     -28.053  -3.103  15.710  1.00  0.00     0.053 C 
BRANCH  14  15
ATOM     15  C   UNL     1     -26.857  -2.600  14.965  1.00  0.00     0.041 C 
ATOM     16  O   UNL     1     -25.714  -3.065  15.210  1.00  0.00    -0.550 OA
ATOM     17  O   UNL     1     -27.009  -1.635  13.977  1.00  0.00    -0.550 OA
ENDBRANCH  14  15
ENDBRANCH  13  14
ENDBRANCH  12  13
ENDBRANCH  11  12
ENDBRANCH  10  11
ENDBRANCH   9  10
ENDBRANCH   8   9
ENDBRANCH   7   8
ENDBRANCH   6   7
ENDBRANCH   5   6
ENDBRANCH   4   5
ENDBRANCH   3   4
ENDBRANCH   2   3
ENDBRANCH   1   2
BRANCH   1  18
ATOM     18  C   UNL     1     -30.786   0.668  23.102  1.00  0.00     0.000 C 
BRANCH  18  19
ATOM     19  C   UNL     1     -29.431   1.084  23.716  1.00  0.00     0.000 C 
BRANCH  19  20
ATOM     20  C   UNL     1     -29.410   1.175  25.254  1.00  0.00     0.000 C 
BRANCH  20  21
ATOM     21  C   UNL     1     -30.580   0.433  25.920  1.00  0.00     0.000 C 
BRANCH  21  22
ATOM     22  C   UNL     1     -30.242   0.064  27.372  1.00  0.00     0.000 C 
BRANCH  22  23
ATOM     23  C   UNL     1     -30.208   1.295  28.305  1.00  0.00     0.000 C 
BRANCH  23  24
ATOM     24  C   UNL     1     -29.304   1.106  29.538  1.00  0.00    -0.000 C 
BRANCH  24  25
ATOM     25  C   UNL     1     -29.790   1.837  30.803  1.00  0.00    -0.000 C 
BRANCH  25  26
ATOM     26  C   UNL     1     -30.974   1.133  31.505  1.00  0.00    -0.000 C 
BRANCH  26  27
ATOM     27  C   UNL     1     -31.890   2.112  32.257  1.00  0.00    -0.000 C 
BRANCH  27  28
ATOM     28  C   UNL     1     -31.172   3.415  32.650  1.00  0.00    -0.000 C 
BRANCH  28  29
ATOM     29  C   UNL     1     -30.588   3.385  34.080  1.00  0.00    -0.000 C 
BRANCH  29  30
ATOM     30  C   UNL     1     -29.065   3.597  34.088  1.00  0.00    -0.000 C 
BRANCH  30  31
ATOM     31  C   UNL     1     -28.280   2.275  34.049  1.00  0.00    -0.003 C 
ATOM     32  C   UNL     1     -26.993   2.373  33.229  1.00  0.00     0.004 C 
ENDBRANCH  30  31
ENDBRANCH  29  30
ENDBRANCH  28  29
ENDBRANCH  27  28
ENDBRANCH  26  27
ENDBRANCH  25  26
ENDBRANCH  24  25
ENDBRANCH  23  24
ENDBRANCH  22  23
ENDBRANCH  21  22
ENDBRANCH  20  21
ENDBRANCH  19  20
ENDBRANCH  18  19
ENDBRANCH   1  18
TORSDOF 28
ENDMDL
MODEL 8
REMARK VINA RESULT:    -5.437      1.811      3.123
REMARK INTER + INTRA:         -17.057
REMARK INTER:                 -14.114
REMARK INTRA:                  -2.943
REMARK UNBOUND:                -2.722
REMARK SMILES CCCCCCCCCCCCCCCCCCCCCCCCCCCCCC(=O)[O-]
REMARK SMILES IDX 16 1 17 2 18 3 19 4 20 5 21 6 22 7 23 8 24 9 25 10 26 11
REMARK SMILES IDX 27 12 28 13 29 14 30 15 31 16 32 17 15 18 14 19 13 20 12 21
REMARK SMILES IDX 11 22 10 23 9 24 8 25 7 26 6 27 5 28 4 29 3 30 2 31 1 32
REMARK H PARENT
REMARK Flexibility Score: inf
ROOT
ATOM      1  C   UNL     1     -27.460  -0.561  24.559  1.00  0.00     0.000 C 
ENDROOT
BRANCH   1   2
ATOM      2  C   UNL     1     -27.512   0.208  25.890  1.00  0.00     0.000 C 
BRANCH   2   3
ATOM      3  C   UNL     1     -28.537  -0.380  26.873  1.00  0.00     0.000 C 
BRANCH   3   4
ATOM      4  C   UNL     1     -29.900   0.323  26.785  1.00  0.00     0.000 C 
BRANCH   4   5
ATOM      5  C   UNL     1     -30.172   1.151  28.049  1.00  0.00     0.000 C 
BRANCH   5   6
ATOM      6  C   UNL     1     -29.026   1.071  29.074  1.00  0.00     0.000 C 
BRANCH   6   7
ATOM      7  C   UNL     1     -29.473   1.011  30.549  1.00  0.00     0.000 C 
BRANCH   7   8
ATOM      8  C   UNL     1     -28.442   0.403  31.520  1.00  0.00     0.000 C 
BRANCH   8   9
ATOM      9  C   UNL     1     -28.208   1.209  32.812  1.00  0.00     0.000 C 
BRANCH   9  10
ATOM     10  C   UNL     1     -27.270   2.423  32.666  1.00  0.00     0.000 C 
BRANCH  10  11
ATOM     11  C   UNL     1     -27.900   3.780  33.022  1.00  0.00     0.000 C 
BRANCH  11  12
ATOM     12  C   UNL     1     -29.048   3.657  34.037  1.00  0.00     0.000 C 
BRANCH  12  13
ATOM     13  C   UNL     1     -30.435   3.730  33.373  1.00  0.00     0.006 C 
BRANCH  13  14
ATOM     14  C   UNL     1     -31.535   2.963  34.125  1.00  0.00     0.053 C 
BRANCH  14  15
ATOM     15  C   UNL     1     -32.318   2.068  33.215  1.00  0.00     0.041 C 
ATOM     16  O   UNL     1     -32.310   2.263  31.972  1.00  0.00    -0.550 OA
ATOM     17  O   UNL     1     -33.036   1.001  33.739  1.00  0.00    -0.550 OA
ENDBRANCH  14  15
ENDBRANCH  13  14
ENDBRANCH  12  13
ENDBRANCH  11  12
ENDBRANCH  10  11
ENDBRANCH   9  10
ENDBRANCH   8   9
ENDBRANCH   7   8
ENDBRANCH   6   7
ENDBRANCH   5   6
ENDBRANCH   4   5
ENDBRANCH   3   4
ENDBRANCH   2   3
ENDBRANCH   1   2
BRANCH   1  18
ATOM     18  C   UNL     1     -27.801  -2.054  24.709  1.00  0.00     0.000 C 
BRANCH  18  19
ATOM     19  C   UNL     1     -28.939  -2.546  23.786  1.00  0.00     0.000 C 
BRANCH  19  20
ATOM     20  C   UNL     1     -30.285  -1.816  23.962  1.00  0.00     0.000 C 
BRANCH  20  21
ATOM     21  C   UNL     1     -30.805  -1.183  22.662  1.00  0.00     0.000 C 
BRANCH  21  22
ATOM     22  C   UNL     1     -30.070   0.131  22.358  1.00  0.00     0.000 C 
BRANCH  22  23
ATOM     23  C   UNL     1     -29.349   0.105  20.992  1.00  0.00     0.000 C 
BRANCH  23  24
ATOM     24  C   UNL     1     -27.950  -0.541  21.049  1.00  0.00    -0.000 C 
BRANCH  24  25
ATOM     25  C   UNL     1     -27.715  -1.644  20.001  1.00  0.00    -0.000 C 
BRANCH  25  26
ATOM     26  C   UNL     1     -28.925  -2.590  19.821  1.00  0.00    -0.000 C 
BRANCH  26  27
ATOM     27  C   UNL     1     -28.937  -3.291  18.452  1.00  0.00    -0.000 C 
BRANCH  27  28
ATOM     28  C   UNL     1     -28.981  -2.298  17.277  1.00  0.00    -0.000 C 
BRANCH  28  29
ATOM     29  C   UNL     1     -27.717  -2.340  16.391  1.00  0.00    -0.000 C 
BRANCH  29  30
ATOM     30  C   UNL     1     -28.002  -2.939  15.003  1.00  0.00    -0.000 C 
BRANCH  30  31
ATOM     31  C   UNL     1     -29.506  -3.064  14.706  1.00  0.00    -0.003 C 
ATOM     32  C   UNL     1     -29.953  -4.512  14.507  1.00  0.00     0.004 C 
ENDBRANCH  30  31
ENDBRANCH  29  30
ENDBRANCH  28  29
ENDBRANCH  27  28
ENDBRANCH  26  27
ENDBRANCH  25  26
ENDBRANCH  24  25
ENDBRANCH  23  24
ENDBRANCH  22  23
ENDBRANCH  21  22
ENDBRANCH  20  21
ENDBRANCH  19  20
ENDBRANCH  18  19
ENDBRANCH   1  18
TORSDOF 28
ENDMDL
MODEL 9
REMARK VINA RESULT:    -5.385      5.128     14.158
REMARK INTER + INTRA:         -16.921
REMARK INTER:                 -14.105
REMARK INTRA:                  -2.817
REMARK UNBOUND:                -2.722
REMARK SMILES CCCCCCCCCCCCCCCCCCCCCCCCCCCCCC(=O)[O-]
REMARK SMILES IDX 16 1 17 2 18 3 19 4 20 5 21 6 22 7 23 8 24 9 25 10 26 11
REMARK SMILES IDX 27 12 28 13 29 14 30 15 31 16 32 17 15 18 14 19 13 20 12 21
REMARK SMILES IDX 11 22 10 23 9 24 8 25 7 26 6 27 5 28 4 29 3 30 2 31 1 32
REMARK H PARENT
REMARK Flexibility Score: inf
ROOT
ATOM      1  C   UNL     1     -30.240  -0.070  25.297  1.00  0.00     0.000 C 
ENDROOT
BRANCH   1   2
ATOM      2  C   UNL     1     -30.084   0.628  23.936  1.00  0.00     0.000 C 
BRANCH   2   3
ATOM      3  C   UNL     1     -30.322  -0.326  22.752  1.00  0.00     0.000 C 
BRANCH   3   4
ATOM      4  C   UNL     1     -30.019  -1.788  23.113  1.00  0.00     0.000 C 
BRANCH   4   5
ATOM      5  C   UNL     1     -28.591  -2.171  22.696  1.00  0.00     0.000 C 
BRANCH   5   6
ATOM      6  C   UNL     1     -27.858  -1.034  21.964  1.00  0.00     0.000 C 
BRANCH   6   7
ATOM      7  C   UNL     1     -27.495  -1.331  20.494  1.00  0.00     0.000 C 
BRANCH   7   8
ATOM      8  C   UNL     1     -28.688  -1.354  19.519  1.00  0.00     0.000 C 
BRANCH   8   9
ATOM      9  C   UNL     1     -29.036  -2.741  18.946  1.00  0.00     0.000 C 
BRANCH   9  10
ATOM     10  C   UNL     1     -28.923  -2.865  17.414  1.00  0.00     0.000 C 
BRANCH  10  11
ATOM     11  C   UNL     1     -27.714  -2.148  16.789  1.00  0.00     0.000 C 
BRANCH  11  12
ATOM     12  C   UNL     1     -27.958  -1.728  15.330  1.00  0.00     0.000 C 
BRANCH  12  13
ATOM     13  C   UNL     1     -28.326  -2.919  14.426  1.00  0.00     0.006 C 
BRANCH  13  14
ATOM     14  C   UNL     1     -29.809  -2.970  14.024  1.00  0.00     0.053 C 
BRANCH  14  15
ATOM     15  C   UNL     1     -30.457  -4.258  14.428  1.00  0.00     0.041 C 
ATOM     16  O   UNL     1     -31.711  -4.348  14.482  1.00  0.00    -0.550 OA
ATOM     17  O   UNL     1     -29.674  -5.368  14.718  1.00  0.00    -0.550 OA
ENDBRANCH  14  15
ENDBRANCH  13  14
ENDBRANCH  12  13
ENDBRANCH  11  12
ENDBRANCH  10  11
ENDBRANCH   9  10
ENDBRANCH   8   9
ENDBRANCH   7   8
ENDBRANCH   6   7
ENDBRANCH   5   6
ENDBRANCH   4   5
ENDBRANCH   3   4
ENDBRANCH   2   3
ENDBRANCH   1   2
BRANCH   1  18
ATOM     18  C   UNL     1     -28.895  -0.388  25.972  1.00  0.00     0.000 C 
BRANCH  18  19
ATOM     19  C   UNL     1     -28.792   0.073  27.443  1.00  0.00     0.000 C 
BRANCH  19  20
ATOM     20  C   UNL     1     -29.802   1.159  27.860  1.00  0.00     0.000 C 
BRANCH  20  21
ATOM     21  C   UNL     1     -30.167   1.106  29.352  1.00  0.00     0.000 C 
BRANCH  21  22
ATOM     22  C   UNL     1     -28.941   1.398  30.228  1.00  0.00     0.000 C 
BRANCH  22  23
ATOM     23  C   UNL     1     -28.902   0.527  31.504  1.00  0.00     0.000 C 
BRANCH  23  24
ATOM     24  C   UNL     1     -28.134   1.180  32.670  1.00  0.00    -0.000 C 
BRANCH  24  25
ATOM     25  C   UNL     1     -27.341   2.442  32.283  1.00  0.00    -0.000 C 
BRANCH  25  26
ATOM     26  C   UNL     1     -28.007   3.757  32.751  1.00  0.00    -0.000 C 
BRANCH  26  27
ATOM     27  C   UNL     1     -28.686   3.626  34.124  1.00  0.00    -0.000 C 
BRANCH  27  28
ATOM     28  C   UNL     1     -30.213   3.803  34.051  1.00  0.00    -0.000 C 
BRANCH  28  29
ATOM     29  C   UNL     1     -30.784   3.622  32.627  1.00  0.00    -0.000 C 
BRANCH  29  30
ATOM     30  C   UNL     1     -31.889   2.553  32.579  1.00  0.00    -0.000 C 
BRANCH  30  31
ATOM     31  C   UNL     1     -31.866   1.617  33.798  1.00  0.00    -0.003 C 
ATOM     32  C   UNL     1     -32.036   0.146  33.420  1.00  0.00     0.004 C 
ENDBRANCH  30  31
ENDBRANCH  29  30
ENDBRANCH  28  29
ENDBRANCH  27  28
ENDBRANCH  26  27
ENDBRANCH  25  26
ENDBRANCH  24  25
ENDBRANCH  23  24
ENDBRANCH  22  23
ENDBRANCH  21  22
ENDBRANCH  20  21
ENDBRANCH  19  20
ENDBRANCH  18  19
ENDBRANCH   1  18
TORSDOF 28
ENDMDL
