MODEL 1
REMARK VINA RESULT:    -3.925      0.000      0.000
REMARK INTER + INTRA:          -7.310
REMARK INTER:                  -6.220
REMARK INTRA:                  -1.091
REMARK UNBOUND:                -1.091
REMARK SMILES CCCCCCCCCCCC(=O)[O-]
REMARK SMILES IDX 7 1 8 2 9 3 10 4 11 5 12 6 13 7 14 8 6 9 5 10 4 11 3 12 2 13
REMARK SMILES IDX 1 14
REMARK H PARENT
REMARK Flexibility Score: inf
ROOT
ATOM      1  C   UNL     1      -5.242   2.983  -8.901  1.00  0.00     0.000 C 
ENDROOT
BRANCH   1   2
ATOM      2  C   UNL     1      -5.199   3.930 -10.111  1.00  0.00     0.000 C 
BRANCH   2   3
ATOM      3  C   UNL     1      -4.999   5.401  -9.707  1.00  0.00     0.000 C 
BRANCH   3   4
ATOM      4  C   UNL     1      -5.639   5.732  -8.343  1.00  0.00     0.006 C 
BRANCH   4   5
ATOM      5  C   UNL     1      -6.675   6.866  -8.408  1.00  0.00     0.053 C 
BRANCH   5   6
ATOM      6  C   UNL     1      -6.117   8.180  -7.956  1.00  0.00     0.041 C 
ATOM      7  O   UNL     1      -6.826   8.970  -7.277  1.00  0.00    -0.550 OA
ATOM      8  O   UNL     1      -4.805   8.522  -8.264  1.00  0.00    -0.550 OA
ENDBRANCH   5   6
ENDBRANCH   4   5
ENDBRANCH   3   4
ENDBRANCH   2   3
ENDBRANCH   1   2
BRANCH   1   9
ATOM      9  C   UNL     1      -6.387   1.963  -8.986  1.00  0.00     0.000 C 
BRANCH   9  10
ATOM     10  C   UNL     1      -7.549   2.512  -9.827  1.00  0.00    -0.000 C 
BRANCH  10  11
ATOM     11  C   UNL     1      -8.872   2.567  -9.045  1.00  0.00    -0.000 C 
BRANCH  11  12
ATOM     12  C   UNL     1      -8.658   2.603  -7.521  1.00  0.00    -0.000 C 
BRANCH  12  13
ATOM     13  C   UNL     1      -8.752   4.026  -6.948  1.00  0.00    -0.003 C 
ATOM     14  C   UNL     1      -9.717   4.123  -5.766  1.00  0.00     0.004 C 
ENDBRANCH  12  13
ENDBRANCH  11  12
ENDBRANCH  10  11
ENDBRANCH   9  10
ENDBRANCH   1   9
TORSDOF 10
ENDMDL
MODEL 2
REMARK VINA RESULT:    -3.669     22.213     23.442
REMARK INTER + INTRA:          -6.904
REMARK INTER:                  -5.751
REMARK INTRA:                  -1.152
REMARK UNBOUND:                -1.091
REMARK SMILES CCCCCCCCCCCC(=O)[O-]
REMARK SMILES IDX 7 1 8 2 9 3 10 4 11 5 12 6 13 7 14 8 6 9 5 10 4 11 3 12 2 13
REMARK SMILES IDX 1 14
REMARK H PARENT
REMARK Flexibility Score: inf
ROOT
ATOM      1  C   UNL     1       6.783  -7.383   6.892  1.00  0.00     0.000 C 
ENDROOT
BRANCH   1   2
ATOM      2  C   UNL     1       6.494  -8.164   5.599  1.00  0.00     0.000 C 
BRANCH   2   3
ATOM      3  C   UNL     1       5.919  -9.566   5.870  1.00  0.00     0.000 C 
BRANCH   3   4
ATOM      4  C   UNL     1       4.877  -9.991   4.815  1.00  0.00     0.006 C 
BRANCH   4   5
ATOM      5  C   UNL     1       4.951  -9.178   3.512  1.00  0.00     0.053 C 
BRANCH   5   6
ATOM      6  C   UNL     1       3.744  -9.368   2.648  1.00  0.00     0.041 C 
ATOM      7  O   UNL     1       3.365  -8.447   1.876  1.00  0.00    -0.550 OA
ATOM      8  O   UNL     1       3.050 -10.573   2.676  1.00  0.00    -0.550 OA
ENDBRANCH   5   6
ENDBRANCH   4   5
ENDBRANCH   3   4
ENDBRANCH   2   3
ENDBRANCH   1   2
BRANCH   1   9
ATOM      9  C   UNL     1       6.860  -8.290   8.129  1.00  0.00     0.000 C 
BRANCH   9  10
ATOM     10  C   UNL     1       6.333  -7.563   9.376  1.00  0.00    -0.000 C 
BRANCH  10  11
ATOM     11  C   UNL     1       4.800  -7.449   9.391  1.00  0.00    -0.000 C 
BRANCH  11  12
ATOM     12  C   UNL     1       4.105  -8.748   8.947  1.00  0.00    -0.000 C 
BRANCH  12  13
ATOM     13  C   UNL     1       2.961  -8.493   7.953  1.00  0.00    -0.003 C 
ATOM     14  C   UNL     1       2.220  -9.773   7.566  1.00  0.00     0.004 C 
ENDBRANCH  12  13
ENDBRANCH  11  12
ENDBRANCH  10  11
ENDBRANCH   9  10
ENDBRANCH   1   9
TORSDOF 10
ENDMDL
MODEL 3
REMARK VINA RESULT:    -3.610     22.708     24.107
REMARK INTER + INTRA:          -6.811
REMARK INTER:                  -5.767
REMARK INTRA:                  -1.044
REMARK UNBOUND:                -1.091
REMARK SMILES CCCCCCCCCCCC(=O)[O-]
REMARK SMILES IDX 7 1 8 2 9 3 10 4 11 5 12 6 13 7 14 8 6 9 5 10 4 11 3 12 2 13
REMARK SMILES IDX 1 14
REMARK H PARENT
REMARK Flexibility Score: inf
ROOT
ATOM      1  C   UNL     1       6.572  -7.996   6.165  1.00  0.00     0.000 C 
ENDROOT
BRANCH   1   2
ATOM      2  C   UNL     1       5.358  -8.614   6.877  1.00  0.00     0.000 C 
BRANCH   2   3
ATOM      3  C   UNL     1       5.030 -10.030   6.369  1.00  0.00     0.000 C 
BRANCH   3   4
ATOM      4  C   UNL     1       3.844 -10.044   5.383  1.00  0.00     0.006 C 
BRANCH   4   5
ATOM      5  C   UNL     1       4.211 -10.569   3.985  1.00  0.00     0.053 C 
BRANCH   5   6
ATOM      6  C   UNL     1       4.404  -9.467   2.991  1.00  0.00     0.041 C 
ATOM      7  O   UNL     1       5.440  -8.750   3.031  1.00  0.00    -0.550 OA
ATOM      8  O   UNL     1       3.451  -9.244   2.004  1.00  0.00    -0.550 OA
ENDBRANCH   5   6
ENDBRANCH   4   5
ENDBRANCH   3   4
ENDBRANCH   2   3
ENDBRANCH   1   2
BRANCH   1   9
ATOM      9  C   UNL     1       7.899  -8.647   6.582  1.00  0.00     0.000 C 
BRANCH   9  10
ATOM     10  C   UNL     1       7.989  -8.781   8.110  1.00  0.00    -0.000 C 
BRANCH  10  11
ATOM     11  C   UNL     1       8.509  -7.502   8.786  1.00  0.00    -0.000 C 
BRANCH  11  12
ATOM     12  C   UNL     1       7.421  -6.773   9.593  1.00  0.00    -0.000 C 
BRANCH  12  13
ATOM     13  C   UNL     1       6.974  -5.462   8.927  1.00  0.00    -0.003 C 
ATOM     14  C   UNL     1       8.087  -4.808   8.108  1.00  0.00     0.004 C 
ENDBRANCH  12  13
ENDBRANCH  11  12
ENDBRANCH  10  11
ENDBRANCH   9  10
ENDBRANCH   1   9
TORSDOF 10
ENDMDL
MODEL 4
REMARK VINA RESULT:    -3.530     22.238     23.704
REMARK INTER + INTRA:          -6.685
REMARK INTER:                  -5.456
REMARK INTRA:                  -1.229
REMARK UNBOUND:                -1.091
REMARK SMILES CCCCCCCCCCCC(=O)[O-]
REMARK SMILES IDX 7 1 8 2 9 3 10 4 11 5 12 6 13 7 14 8 6 9 5 10 4 11 3 12 2 13
REMARK SMILES IDX 1 14
REMARK H PARENT
REMARK Flexibility Score: inf
ROOT
ATOM      1  C   UNL     1       3.601  -9.104   7.792  1.00  0.00     0.000 C 
ENDROOT
BRANCH   1   2
ATOM      2  C   UNL     1       4.172 -10.531   7.802  1.00  0.00     0.000 C 
BRANCH   2   3
ATOM      3  C   UNL     1       4.343 -11.111   6.387  1.00  0.00     0.000 C 
BRANCH   3   4
ATOM      4  C   UNL     1       3.747 -10.197   5.297  1.00  0.00     0.006 C 
BRANCH   4   5
ATOM      5  C   UNL     1       4.373 -10.405   3.908  1.00  0.00     0.053 C 
BRANCH   5   6
ATOM      6  C   UNL     1       3.442 -10.029   2.797  1.00  0.00     0.041 C 
ATOM      7  O   UNL     1       2.519 -10.814   2.450  1.00  0.00    -0.550 OA
ATOM      8  O   UNL     1       3.579  -8.801   2.159  1.00  0.00    -0.550 OA
ENDBRANCH   5   6
ENDBRANCH   4   5
ENDBRANCH   3   4
ENDBRANCH   2   3
ENDBRANCH   1   2
BRANCH   1   9
ATOM      9  C   UNL     1       4.447  -8.120   8.615  1.00  0.00     0.000 C 
BRANCH   9  10
ATOM     10  C   UNL     1       5.869  -8.664   8.826  1.00  0.00    -0.000 C 
BRANCH  10  11
ATOM     11  C   UNL     1       6.930  -7.863   8.055  1.00  0.00    -0.000 C 
BRANCH  11  12
ATOM     12  C   UNL     1       6.460  -7.460   6.646  1.00  0.00    -0.000 C 
BRANCH  12  13
ATOM     13  C   UNL     1       7.015  -8.386   5.553  1.00  0.00    -0.003 C 
ATOM     14  C   UNL     1       6.782  -7.840   4.143  1.00  0.00     0.004 C 
ENDBRANCH  12  13
ENDBRANCH  11  12
ENDBRANCH  10  11
ENDBRANCH   9  10
ENDBRANCH   1   9
TORSDOF 10
ENDMDL
MODEL 5
REMARK VINA RESULT:    -3.517      2.810      4.783
REMARK INTER + INTRA:          -6.664
REMARK INTER:                  -5.455
REMARK INTRA:                  -1.209
REMARK UNBOUND:                -1.091
REMARK SMILES CCCCCCCCCCCC(=O)[O-]
REMARK SMILES IDX 7 1 8 2 9 3 10 4 11 5 12 6 13 7 14 8 6 9 5 10 4 11 3 12 2 13
REMARK SMILES IDX 1 14
REMARK H PARENT
REMARK Flexibility Score: inf
ROOT
ATOM      1  C   UNL     1      -5.250   3.077  -8.914  1.00  0.00     0.000 C 
ENDROOT
BRANCH   1   2
ATOM      2  C   UNL     1      -6.355   2.031  -9.139  1.00  0.00     0.000 C 
BRANCH   2   3
ATOM      3  C   UNL     1      -7.684   2.662  -9.592  1.00  0.00     0.000 C 
BRANCH   3   4
ATOM      4  C   UNL     1      -8.855   2.314  -8.650  1.00  0.00     0.006 C 
BRANCH   4   5
ATOM      5  C   UNL     1      -9.189   3.429  -7.644  1.00  0.00     0.053 C 
BRANCH   5   6
ATOM      6  C   UNL     1      -9.375   2.909  -6.252  1.00  0.00     0.041 C 
ATOM      7  O   UNL     1      -9.837   1.752  -6.064  1.00  0.00    -0.550 OA
ATOM      8  O   UNL     1      -9.016   3.693  -5.162  1.00  0.00    -0.550 OA
ENDBRANCH   5   6
ENDBRANCH   4   5
ENDBRANCH   3   4
ENDBRANCH   2   3
ENDBRANCH   1   2
BRANCH   1   9
ATOM      9  C   UNL     1      -5.140   4.081 -10.072  1.00  0.00     0.000 C 
BRANCH   9  10
ATOM     10  C   UNL     1      -4.851   5.495  -9.545  1.00  0.00    -0.000 C 
BRANCH  10  11
ATOM     11  C   UNL     1      -5.600   5.804  -8.239  1.00  0.00    -0.000 C 
BRANCH  11  12
ATOM     12  C   UNL     1      -6.530   7.024  -8.363  1.00  0.00    -0.000 C 
BRANCH  12  13
ATOM     13  C   UNL     1      -8.007   6.626  -8.506  1.00  0.00    -0.003 C 
ATOM     14  C   UNL     1      -8.414   6.383  -9.959  1.00  0.00     0.004 C 
ENDBRANCH  12  13
ENDBRANCH  11  12
ENDBRANCH  10  11
ENDBRANCH   9  10
ENDBRANCH   1   9
TORSDOF 10
ENDMDL
MODEL 6
REMARK VINA RESULT:    -3.370     22.251     23.439
REMARK INTER + INTRA:          -6.430
REMARK INTER:                  -5.279
REMARK INTRA:                  -1.151
REMARK UNBOUND:                -1.091
REMARK SMILES CCCCCCCCCCCC(=O)[O-]
REMARK SMILES IDX 7 1 8 2 9 3 10 4 11 5 12 6 13 7 14 8 6 9 5 10 4 11 3 12 2 13
REMARK SMILES IDX 1 14
REMARK H PARENT
REMARK Flexibility Score: inf
ROOT
ATOM      1  C   UNL     1       6.618  -7.413   7.076  1.00  0.00     0.000 C 
ENDROOT
BRANCH   1   2
ATOM      2  C   UNL     1       6.752  -8.447   5.947  1.00  0.00     0.000 C 
BRANCH   2   3
ATOM      3  C   UNL     1       6.715  -7.806   4.548  1.00  0.00     0.000 C 
BRANCH   3   4
ATOM      4  C   UNL     1       5.875  -8.623   3.545  1.00  0.00     0.006 C 
BRANCH   4   5
ATOM      5  C   UNL     1       4.881  -9.587   4.214  1.00  0.00     0.053 C 
BRANCH   5   6
ATOM      6  C   UNL     1       3.756  -9.973   3.305  1.00  0.00     0.041 C 
ATOM      7  O   UNL     1       2.945 -10.874   3.647  1.00  0.00    -0.550 OA
ATOM      8  O   UNL     1       3.589  -9.321   2.088  1.00  0.00    -0.550 OA
ENDBRANCH   5   6
ENDBRANCH   4   5
ENDBRANCH   3   4
ENDBRANCH   2   3
ENDBRANCH   1   2
BRANCH   1   9
ATOM      9  C   UNL     1       5.900  -7.974   8.313  1.00  0.00     0.000 C 
BRANCH   9  10
ATOM     10  C   UNL     1       5.842  -9.509   8.264  1.00  0.00    -0.000 C 
BRANCH  10  11
ATOM     11  C   UNL     1       4.508 -10.067   8.785  1.00  0.00    -0.000 C 
BRANCH  11  12
ATOM     12  C   UNL     1       3.597 -10.578   7.655  1.00  0.00    -0.000 C 
BRANCH  12  13
ATOM     13  C   UNL     1       2.682  -9.479   7.094  1.00  0.00    -0.003 C 
ATOM     14  C   UNL     1       2.134  -8.555   8.183  1.00  0.00     0.004 C 
ENDBRANCH  12  13
ENDBRANCH  11  12
ENDBRANCH  10  11
ENDBRANCH   9  10
ENDBRANCH   1   9
TORSDOF 10
ENDMDL
MODEL 7
REMARK VINA RESULT:    -3.362     11.729     13.397
REMARK INTER + INTRA:          -6.417
REMARK INTER:                  -5.231
REMARK INTRA:                  -1.186
REMARK UNBOUND:                -1.091
REMARK SMILES CCCCCCCCCCCC(=O)[O-]
REMARK SMILES IDX 7 1 8 2 9 3 10 4 11 5 12 6 13 7 14 8 6 9 5 10 4 11 3 12 2 13
REMARK SMILES IDX 1 14
REMARK H PARENT
REMARK Flexibility Score: inf
ROOT
ATOM      1  C   UNL     1      -4.917  -9.488  -6.011  1.00  0.00     0.000 C 
ENDROOT
BRANCH   1   2
ATOM      2  C   UNL     1      -5.438  -8.351  -6.906  1.00  0.00     0.000 C 
BRANCH   2   3
ATOM      3  C   UNL     1      -6.695  -8.750  -7.699  1.00  0.00     0.000 C 
BRANCH   3   4
ATOM      4  C   UNL     1      -7.904  -7.844  -7.384  1.00  0.00     0.006 C 
BRANCH   4   5
ATOM      5  C   UNL     1      -8.131  -6.735  -8.425  1.00  0.00     0.053 C 
BRANCH   5   6
ATOM      6  C   UNL     1      -7.682  -5.392  -7.939  1.00  0.00     0.041 C 
ATOM      7  O   UNL     1      -8.459  -4.671  -7.258  1.00  0.00    -0.550 OA
ATOM      8  O   UNL     1      -6.395  -4.945  -8.219  1.00  0.00    -0.550 OA
ENDBRANCH   5   6
ENDBRANCH   4   5
ENDBRANCH   3   4
ENDBRANCH   2   3
ENDBRANCH   1   2
BRANCH   1   9
ATOM      9  C   UNL     1      -6.024 -10.124  -5.156  1.00  0.00     0.000 C 
BRANCH   9  10
ATOM     10  C   UNL     1      -6.306  -9.278  -3.905  1.00  0.00    -0.000 C 
BRANCH  10  11
ATOM     11  C   UNL     1      -7.745  -9.445  -3.390  1.00  0.00    -0.000 C 
BRANCH  11  12
ATOM     12  C   UNL     1      -8.585 -10.386  -4.272  1.00  0.00    -0.000 C 
BRANCH  12  13
ATOM     13  C   UNL     1      -9.827  -9.693  -4.853  1.00  0.00    -0.003 C 
ATOM     14  C   UNL     1     -10.049  -8.296  -4.273  1.00  0.00     0.004 C 
ENDBRANCH  12  13
ENDBRANCH  11  12
ENDBRANCH  10  11
ENDBRANCH   9  10
ENDBRANCH   1   9
TORSDOF 10
ENDMDL
MODEL 8
REMARK VINA RESULT:    -3.329     21.810     22.957
REMARK INTER + INTRA:          -6.366
REMARK INTER:                  -5.729
REMARK INTRA:                  -0.637
REMARK UNBOUND:                -1.091
REMARK SMILES CCCCCCCCCCCC(=O)[O-]
REMARK SMILES IDX 7 1 8 2 9 3 10 4 11 5 12 6 13 7 14 8 6 9 5 10 4 11 3 12 2 13
REMARK SMILES IDX 1 14
REMARK H PARENT
REMARK Flexibility Score: inf
ROOT
ATOM      1  C   UNL     1       5.351  -8.615   7.190  1.00  0.00     0.000 C 
ENDROOT
BRANCH   1   2
ATOM      2  C   UNL     1       6.339  -9.073   6.105  1.00  0.00     0.000 C 
BRANCH   2   3
ATOM      3  C   UNL     1       6.476  -8.056   4.959  1.00  0.00     0.000 C 
BRANCH   3   4
ATOM      4  C   UNL     1       5.830  -8.550   3.648  1.00  0.00     0.006 C 
BRANCH   4   5
ATOM      5  C   UNL     1       4.722  -9.595   3.863  1.00  0.00     0.053 C 
BRANCH   5   6
ATOM      6  C   UNL     1       3.703  -9.583   2.766  1.00  0.00     0.041 C 
ATOM      7  O   UNL     1       3.018 -10.613   2.526  1.00  0.00    -0.550 OA
ATOM      8  O   UNL     1       3.492  -8.426   2.024  1.00  0.00    -0.550 OA
ENDBRANCH   5   6
ENDBRANCH   4   5
ENDBRANCH   3   4
ENDBRANCH   2   3
ENDBRANCH   1   2
BRANCH   1   9
ATOM      9  C   UNL     1       5.188  -9.645   8.318  1.00  0.00     0.000 C 
BRANCH   9  10
ATOM     10  C   UNL     1       3.837 -10.369   8.209  1.00  0.00    -0.000 C 
BRANCH  10  11
ATOM     11  C   UNL     1       2.913  -9.741   7.153  1.00  0.00    -0.000 C 
BRANCH  11  12
ATOM     12  C   UNL     1       1.655  -9.103   7.770  1.00  0.00    -0.000 C 
BRANCH  12  13
ATOM     13  C   UNL     1       0.512 -10.114   7.951  1.00  0.00    -0.003 C 
ATOM     14  C   UNL     1      -0.198 -10.443   6.638  1.00  0.00     0.004 C 
ENDBRANCH  12  13
ENDBRANCH  11  12
ENDBRANCH  10  11
ENDBRANCH   9  10
ENDBRANCH   1   9
TORSDOF 10
ENDMDL
MODEL 9
REMARK VINA RESULT:    -3.245     11.761     13.808
REMARK INTER + INTRA:          -6.232
REMARK INTER:                  -4.892
REMARK INTRA:                  -1.340
REMARK UNBOUND:                -1.091
REMARK SMILES CCCCCCCCCCCC(=O)[O-]
REMARK SMILES IDX 7 1 8 2 9 3 10 4 11 5 12 6 13 7 14 8 6 9 5 10 4 11 3 12 2 13
REMARK SMILES IDX 1 14
REMARK H PARENT
REMARK Flexibility Score: inf
ROOT
ATOM      1  C   UNL     1      -9.745  -8.745  -4.522  1.00  0.00     0.000 C 
ENDROOT
BRANCH   1   2
ATOM      2  C   UNL     1      -9.522  -9.747  -5.666  1.00  0.00     0.000 C 
BRANCH   2   3
ATOM      3  C   UNL     1      -9.488  -9.072  -7.049  1.00  0.00     0.000 C 
BRANCH   3   4
ATOM      4  C   UNL     1      -9.135  -7.573  -6.965  1.00  0.00     0.006 C 
BRANCH   4   5
ATOM      5  C   UNL     1      -8.437  -7.033  -8.225  1.00  0.00     0.053 C 
BRANCH   5   6
ATOM      6  C   UNL     1      -7.883  -5.656  -8.028  1.00  0.00     0.041 C 
ATOM      7  O   UNL     1      -6.885  -5.273  -8.695  1.00  0.00    -0.550 OA
ATOM      8  O   UNL     1      -8.484  -4.787  -7.125  1.00  0.00    -0.550 OA
ENDBRANCH   5   6
ENDBRANCH   4   5
ENDBRANCH   3   4
ENDBRANCH   2   3
ENDBRANCH   1   2
BRANCH   1   9
ATOM      9  C   UNL     1      -8.686  -8.862  -3.416  1.00  0.00     0.000 C 
BRANCH   9  10
ATOM     10  C   UNL     1      -7.625  -9.913  -3.781  1.00  0.00    -0.000 C 
BRANCH  10  11
ATOM     11  C   UNL     1      -6.281  -9.283  -4.178  1.00  0.00    -0.000 C 
BRANCH  11  12
ATOM     12  C   UNL     1      -5.560 -10.072  -5.285  1.00  0.00    -0.000 C 
BRANCH  12  13
ATOM     13  C   UNL     1      -5.784  -9.468  -6.680  1.00  0.00    -0.003 C 
ATOM     14  C   UNL     1      -5.222  -8.051  -6.806  1.00  0.00     0.004 C 
ENDBRANCH  12  13
ENDBRANCH  11  12
ENDBRANCH  10  11
ENDBRANCH   9  10
ENDBRANCH   1   9
TORSDOF 10
ENDMDL
