MODEL 1
REMARK VINA RESULT:     8.493      0.000      0.000
REMARK INTER + INTRA:          12.129
REMARK INTER:                  11.223
REMARK INTRA:                   0.906
REMARK UNBOUND:                 0.906
REMARK SMILES CC[C@@H](C=C[C@H](C)[C@H]1CC[C@H]2C3=CC[C@@H]4C[C@H](O)CC[C@]4(C)[C@H]3CC[C@@]12C)C(C)C
REMARK SMILES IDX 6 1 7 2 5 3 4 4 3 5 2 6 1 7 28 8 29 9 30 10 8 11 9 12 26 13
REMARK SMILES IDX 10 14 11 15 25 16 27 17 12 18 24 19 23 20 13 21 21 22 14 23
REMARK SMILES IDX 15 24 20 25 22 26 16 27 19 28 17 29 18 30
REMARK H PARENT 18 31
REMARK Flexibility Score: inf
ROOT
ATOM      1  C   UNL     1      12.338  17.194  24.165  1.00  0.00     0.012 C 
ATOM      2  C   UNL     1      10.837  17.513  24.057  1.00  0.00     0.012 C 
ENDROOT
BRANCH   1   3
ATOM      3  C   UNL     1      13.051  17.864  23.009  1.00  0.00    -0.028 C 
ATOM      4  C   UNL     1      14.270  17.465  22.601  1.00  0.00    -0.027 C 
BRANCH   4   5
ATOM      5  C   UNL     1      15.113  18.124  21.515  1.00  0.00     0.014 C 
BRANCH   5   6
ATOM      6  C   UNL     1      14.356  18.122  20.152  1.00  0.00     0.004 C 
ATOM      7  C   UNL     1      12.824  18.060  20.249  1.00  0.00     0.004 C 
ENDBRANCH   5   6
BRANCH   5   8
ATOM      8  C   UNL     1      16.611  17.667  21.428  1.00  0.00    -0.011 C 
ATOM      9  C   UNL     1      17.325  18.106  20.140  1.00  0.00     0.008 C 
ATOM     10  C   UNL     1      17.425  18.117  22.653  1.00  0.00     0.008 C 
ENDBRANCH   5   8
ENDBRANCH   4   5
ENDBRANCH   1   3
BRANCH   1  11
ATOM     11  C   UNL     1      13.016  17.614  25.517  1.00  0.00     0.002 C 
ATOM     12  C   UNL     1      12.106  17.638  26.744  1.00  0.00     0.005 C 
ATOM     13  C   UNL     1      14.312  16.861  25.952  1.00  0.00    -0.023 C 
ATOM     14  C   UNL     1      13.043  17.689  27.946  1.00  0.00     0.009 C 
ATOM     15  C   UNL     1      14.441  17.257  27.460  1.00  0.00     0.021 C 
ATOM     16  C   UNL     1      14.267  15.306  25.725  1.00  0.00     0.008 C 
ATOM     17  C   UNL     1      15.523  17.419  25.159  1.00  0.00     0.012 C 
ATOM     18  C   UNL     1      15.012  16.174  28.366  1.00  0.00    -0.067 C 
ATOM     19  C   UNL     1      13.762  14.518  26.933  1.00  0.00     0.009 C 
ATOM     20  C   UNL     1      14.728  14.702  28.119  1.00  0.00     0.021 C 
ATOM     21  C   UNL     1      15.758  16.514  29.433  1.00  0.00    -0.027 C 
ATOM     22  C   UNL     1      14.357  13.879  29.438  1.00  0.00    -0.023 C 
ATOM     23  C   UNL     1      16.130  15.466  30.443  1.00  0.00     0.031 C 
ATOM     24  C   UNL     1      14.867  14.631  30.733  1.00  0.00     0.002 C 
ATOM     25  C   UNL     1      15.030  12.472  29.312  1.00  0.00     0.010 C 
ATOM     26  C   UNL     1      12.820  13.695  29.575  1.00  0.00     0.012 C 
ATOM     27  C   UNL     1      15.015  13.741  31.993  1.00  0.00     0.036 C 
ATOM     28  C   UNL     1      15.012  11.651  30.604  1.00  0.00     0.032 C 
ATOM     29  C   UNL     1      15.715  12.404  31.738  1.00  0.00     0.114 C 
BRANCH  29  30
ATOM     30  O   UNL     1      17.072  12.620  31.440  1.00  0.00    -0.393 OA
ATOM     31  H   UNL     1      17.273  12.094  30.624  1.00  0.00     0.210 HD
ENDBRANCH  29  30
ENDBRANCH   1  11
TORSDOF 6
ENDMDL
MODEL 2
REMARK VINA RESULT:    10.958      0.916      1.075
REMARK INTER + INTRA:          15.387
REMARK INTER:                  15.884
REMARK INTRA:                  -0.497
REMARK UNBOUND:                 0.906
REMARK SMILES CC[C@@H](C=C[C@H](C)[C@H]1CC[C@H]2C3=CC[C@@H]4C[C@H](O)CC[C@]4(C)[C@H]3CC[C@@]12C)C(C)C
REMARK SMILES IDX 6 1 7 2 5 3 4 4 3 5 2 6 1 7 28 8 29 9 30 10 8 11 9 12 26 13
REMARK SMILES IDX 10 14 11 15 25 16 27 17 12 18 24 19 23 20 13 21 21 22 14 23
REMARK SMILES IDX 15 24 20 25 22 26 16 27 19 28 17 29 18 30
REMARK H PARENT 18 31
REMARK Flexibility Score: inf
ROOT
ATOM      1  C   UNL     1      12.043  17.246  25.099  1.00  0.00     0.012 C 
ATOM      2  C   UNL     1      10.595  17.737  24.932  1.00  0.00     0.012 C 
ENDROOT
BRANCH   1   3
ATOM      3  C   UNL     1      12.886  17.870  24.006  1.00  0.00    -0.028 C 
ATOM      4  C   UNL     1      12.650  17.626  22.704  1.00  0.00    -0.027 C 
BRANCH   4   5
ATOM      5  C   UNL     1      13.487  18.125  21.530  1.00  0.00     0.014 C 
BRANCH   5   6
ATOM      6  C   UNL     1      12.682  18.026  20.198  1.00  0.00     0.004 C 
ATOM      7  C   UNL     1      11.159  17.906  20.355  1.00  0.00     0.004 C 
ENDBRANCH   5   6
BRANCH   5   8
ATOM      8  C   UNL     1      14.955  17.582  21.446  1.00  0.00    -0.011 C 
ATOM      9  C   UNL     1      15.637  17.833  20.092  1.00  0.00     0.008 C 
ATOM     10  C   UNL     1      15.839  18.124  22.582  1.00  0.00     0.008 C 
ENDBRANCH   5   8
ENDBRANCH   4   5
ENDBRANCH   1   3
BRANCH   1  11
ATOM     11  C   UNL     1      12.692  17.541  26.497  1.00  0.00     0.002 C 
ATOM     12  C   UNL     1      11.815  17.261  27.717  1.00  0.00     0.005 C 
ATOM     13  C   UNL     1      14.083  16.906  26.808  1.00  0.00    -0.023 C 
ATOM     14  C   UNL     1      12.764  17.251  28.909  1.00  0.00     0.009 C 
ATOM     15  C   UNL     1      14.195  17.082  28.359  1.00  0.00     0.021 C 
ATOM     16  C   UNL     1      14.233  15.411  26.346  1.00  0.00     0.008 C 
ATOM     17  C   UNL     1      15.195  17.730  26.106  1.00  0.00     0.012 C 
ATOM     18  C   UNL     1      14.920  15.959  29.087  1.00  0.00    -0.067 C 
ATOM     19  C   UNL     1      13.860  14.390  27.420  1.00  0.00     0.009 C 
ATOM     20  C   UNL     1      14.821  14.516  28.619  1.00  0.00     0.021 C 
ATOM     21  C   UNL     1      15.640  16.227  30.192  1.00  0.00    -0.027 C 
ATOM     22  C   UNL     1      14.588  13.462  29.797  1.00  0.00    -0.023 C 
ATOM     23  C   UNL     1      16.166  15.095  31.028  1.00  0.00     0.031 C 
ATOM     24  C   UNL     1      15.027  14.070  31.191  1.00  0.00     0.002 C 
ATOM     25  C   UNL     1      15.432  12.190  29.455  1.00  0.00     0.010 C 
ATOM     26  C   UNL     1      13.091  13.062  29.908  1.00  0.00     0.012 C 
ATOM     27  C   UNL     1      15.316  13.026  32.299  1.00  0.00     0.036 C 
ATOM     28  C   UNL     1      15.549  11.188  30.606  1.00  0.00     0.032 C 
ATOM     29  C   UNL     1      16.175  11.845  31.840  1.00  0.00     0.114 C 
BRANCH  29  30
ATOM     30  O   UNL     1      17.486  12.278  31.575  1.00  0.00    -0.393 OA
ATOM     31  H   UNL     1      18.058  11.919  32.301  1.00  0.00     0.210 HD
ENDBRANCH  29  30
ENDBRANCH   1  11
TORSDOF 6
ENDMDL
