MODEL 1
REMARK VINA RESULT:    -5.983      0.000      0.000
REMARK INTER + INTRA:          -7.316
REMARK INTER:                  -7.207
REMARK INTRA:                  -0.109
REMARK UNBOUND:                -0.109
REMARK SMILES O=c1c(O)c(-c2ccc(O)c(O)c2)oc2cc(O)cc(O)c12
REMARK SMILES IDX 5 1 3 2 2 3 1 4 22 5 20 6 19 7 17 8 16 9 15 10 14 11 6 12
REMARK SMILES IDX 7 13 8 14 9 15 13 16 11 17 10 18 12 20 4 22 21 24 18 26
REMARK H PARENT 10 19 12 21 4 23 21 25 18 27
REMARK Flexibility Score: inf
ROOT
ATOM      1  C   UNL     1      27.986  48.834  61.124  1.00  0.00     0.180 A 
ATOM      2  C   UNL     1      28.690  49.602  62.067  1.00  0.00     0.208 A 
ATOM      3  C   UNL     1      29.355  48.949  63.118  1.00  0.00     0.238 A 
ATOM      4  O   UNL     1      29.920  49.646  64.000  1.00  0.00    -0.285 OA
ATOM      5  C   UNL     1      29.355  47.534  63.181  1.00  0.00     0.111 A 
ATOM      6  C   UNL     1      30.033  46.766  64.175  1.00  0.00     0.134 A 
ATOM      7  C   UNL     1      29.875  45.375  64.199  1.00  0.00     0.093 A 
ATOM      8  C   UNL     1      29.118  44.718  63.230  1.00  0.00     0.123 A 
ATOM      9  C   UNL     1      28.496  45.455  62.221  1.00  0.00     0.094 A 
ATOM     10  C   UNL     1      28.603  46.846  62.193  1.00  0.00     0.146 A 
ATOM     11  O   UNL     1      27.978  47.510  61.228  1.00  0.00    -0.452 OA
ENDROOT
BRANCH   1  12
ATOM     12  C   UNL     1      27.250  49.450  59.997  1.00  0.00     0.025 A 
ATOM     13  C   UNL     1      25.859  49.284  59.908  1.00  0.00     0.016 A 
ATOM     14  C   UNL     1      25.141  49.875  58.865  1.00  0.00     0.051 A 
ATOM     15  C   UNL     1      25.798  50.652  57.907  1.00  0.00     0.157 A 
ATOM     16  C   UNL     1      27.906  50.250  59.043  1.00  0.00     0.062 A 
ATOM     17  C   UNL     1      27.186  50.845  57.998  1.00  0.00     0.158 A 
BRANCH  15  18
ATOM     18  O   UNL     1      25.054  51.227  56.875  1.00  0.00    -0.504 OA
ATOM     19  H   UNL     1      25.494  51.658  56.072  1.00  0.00     0.293 HD
ENDBRANCH  15  18
BRANCH  17  20
ATOM     20  O   UNL     1      27.844  51.632  57.053  1.00  0.00    -0.504 OA
ATOM     21  H   UNL     1      28.207  51.236  56.193  1.00  0.00     0.293 HD
ENDBRANCH  17  20
ENDBRANCH   1  12
BRANCH   2  22
ATOM     22  O   UNL     1      28.741  50.992  61.944  1.00  0.00    -0.502 OA
ATOM     23  H   UNL     1      29.568  51.480  61.617  1.00  0.00     0.293 HD
ENDBRANCH   2  22
BRANCH   6  24
ATOM     24  O   UNL     1      30.886  47.310  65.140  1.00  0.00    -0.507 OA
ATOM     25  H   UNL     1      30.624  47.522  66.090  1.00  0.00     0.293 HD
ENDBRANCH   6  24
BRANCH   8  26
ATOM     26  O   UNL     1      28.997  43.331  63.275  1.00  0.00    -0.508 OA
ATOM     27  H   UNL     1      28.235  42.880  63.769  1.00  0.00     0.293 HD
ENDBRANCH   8  26
TORSDOF 6
ENDMDL
MODEL 2
REMARK VINA RESULT:    -5.772      1.494      3.090
REMARK INTER + INTRA:          -7.062
REMARK INTER:                  -7.438
REMARK INTRA:                   0.376
REMARK UNBOUND:                -0.109
REMARK SMILES O=c1c(O)c(-c2ccc(O)c(O)c2)oc2cc(O)cc(O)c12
REMARK SMILES IDX 5 1 3 2 2 3 1 4 22 5 20 6 19 7 17 8 16 9 15 10 14 11 6 12
REMARK SMILES IDX 7 13 8 14 9 15 13 16 11 17 10 18 12 20 4 22 21 24 18 26
REMARK H PARENT 10 19 12 21 4 23 21 25 18 27
REMARK Flexibility Score: inf
ROOT
ATOM      1  C   UNL     1      27.518  48.458  60.956  1.00  0.00     0.180 A 
ATOM      2  C   UNL     1      27.343  47.065  61.000  1.00  0.00     0.208 A 
ATOM      3  C   UNL     1      28.108  46.310  61.904  1.00  0.00     0.238 A 
ATOM      4  O   UNL     1      28.000  45.057  61.887  1.00  0.00    -0.285 OA
ATOM      5  C   UNL     1      28.999  46.964  62.791  1.00  0.00     0.111 A 
ATOM      6  C   UNL     1      29.791  46.304  63.778  1.00  0.00     0.134 A 
ATOM      7  C   UNL     1      30.715  47.042  64.527  1.00  0.00     0.093 A 
ATOM      8  C   UNL     1      30.832  48.422  64.371  1.00  0.00     0.123 A 
ATOM      9  C   UNL     1      30.023  49.086  63.448  1.00  0.00     0.094 A 
ATOM     10  C   UNL     1      29.119  48.372  62.659  1.00  0.00     0.146 A 
ATOM     11  O   UNL     1      28.384  49.039  61.777  1.00  0.00    -0.452 OA
ENDROOT
BRANCH   1  12
ATOM     12  C   UNL     1      26.757  49.319  60.021  1.00  0.00     0.025 A 
ATOM     13  C   UNL     1      26.714  50.705  60.239  1.00  0.00     0.016 A 
ATOM     14  C   UNL     1      26.021  51.539  59.358  1.00  0.00     0.051 A 
ATOM     15  C   UNL     1      25.375  51.004  58.240  1.00  0.00     0.157 A 
ATOM     16  C   UNL     1      26.125  48.785  58.883  1.00  0.00     0.062 A 
ATOM     17  C   UNL     1      25.431  49.621  57.997  1.00  0.00     0.158 A 
BRANCH  15  18
ATOM     18  O   UNL     1      24.688  51.861  57.379  1.00  0.00    -0.504 OA
ATOM     19  H   UNL     1      23.685  51.982  57.429  1.00  0.00     0.293 HD
ENDBRANCH  15  18
BRANCH  17  20
ATOM     20  O   UNL     1      24.801  49.084  56.875  1.00  0.00    -0.504 OA
ATOM     21  H   UNL     1      24.119  48.338  56.955  1.00  0.00     0.293 HD
ENDBRANCH  17  20
ENDBRANCH   1  12
BRANCH   2  22
ATOM     22  O   UNL     1      26.403  46.447  60.171  1.00  0.00    -0.502 OA
ATOM     23  H   UNL     1      26.407  46.563  59.164  1.00  0.00     0.293 HD
ENDBRANCH   2  22
BRANCH   6  24
ATOM     24  O   UNL     1      29.694  44.942  64.079  1.00  0.00    -0.507 OA
ATOM     25  H   UNL     1      29.863  44.193  63.425  1.00  0.00     0.293 HD
ENDBRANCH   6  24
BRANCH   8  26
ATOM     26  O   UNL     1      31.750  49.127  65.147  1.00  0.00    -0.508 OA
ATOM     27  H   UNL     1      32.609  49.493  64.751  1.00  0.00     0.293 HD
ENDBRANCH   8  26
TORSDOF 6
ENDMDL
MODEL 3
REMARK VINA RESULT:    -5.006      3.000      6.137
REMARK INTER + INTRA:          -6.140
REMARK INTER:                  -6.272
REMARK INTRA:                   0.132
REMARK UNBOUND:                -0.109
REMARK SMILES O=c1c(O)c(-c2ccc(O)c(O)c2)oc2cc(O)cc(O)c12
REMARK SMILES IDX 5 1 3 2 2 3 1 4 22 5 20 6 19 7 17 8 16 9 15 10 14 11 6 12
REMARK SMILES IDX 7 13 8 14 9 15 13 16 11 17 10 18 12 20 4 22 21 24 18 26
REMARK H PARENT 10 19 12 21 4 23 21 25 18 27
REMARK Flexibility Score: inf
ROOT
ATOM      1  C   UNL     1      29.600  47.639  62.421  1.00  0.00     0.180 A 
ATOM      2  C   UNL     1      30.134  48.070  63.647  1.00  0.00     0.208 A 
ATOM      3  C   UNL     1      30.844  49.281  63.693  1.00  0.00     0.238 A 
ATOM      4  O   UNL     1      31.382  49.624  64.777  1.00  0.00    -0.285 OA
ATOM      5  C   UNL     1      30.964  50.073  62.524  1.00  0.00     0.111 A 
ATOM      6  C   UNL     1      31.622  51.338  62.465  1.00  0.00     0.134 A 
ATOM      7  C   UNL     1      31.771  51.981  61.230  1.00  0.00     0.093 A 
ATOM      8  C   UNL     1      31.231  51.439  60.065  1.00  0.00     0.123 A 
ATOM      9  C   UNL     1      30.537  50.229  60.120  1.00  0.00     0.094 A 
ATOM     10  C   UNL     1      30.405  49.545  61.330  1.00  0.00     0.146 A 
ATOM     11  O   UNL     1      29.757  48.387  61.335  1.00  0.00    -0.452 OA
ENDROOT
BRANCH   1  12
ATOM     12  C   UNL     1      28.852  46.368  62.291  1.00  0.00     0.025 A 
ATOM     13  C   UNL     1      27.754  46.300  61.419  1.00  0.00     0.016 A 
ATOM     14  C   UNL     1      27.046  45.105  61.264  1.00  0.00     0.051 A 
ATOM     15  C   UNL     1      27.434  43.959  61.964  1.00  0.00     0.157 A 
ATOM     16  C   UNL     1      29.253  45.207  62.978  1.00  0.00     0.062 A 
ATOM     17  C   UNL     1      28.545  44.007  62.821  1.00  0.00     0.158 A 
BRANCH  15  18
ATOM     18  O   UNL     1      26.706  42.780  61.791  1.00  0.00    -0.504 OA
ATOM     19  H   UNL     1      27.150  41.871  61.780  1.00  0.00     0.293 HD
ENDBRANCH  15  18
BRANCH  17  20
ATOM     20  O   UNL     1      28.945  42.863  63.510  1.00  0.00    -0.504 OA
ATOM     21  H   UNL     1      28.856  42.791  64.518  1.00  0.00     0.293 HD
ENDBRANCH  17  20
ENDBRANCH   1  12
BRANCH   2  22
ATOM     22  O   UNL     1      29.939  47.312  64.804  1.00  0.00    -0.502 OA
ATOM     23  H   UNL     1      29.938  46.299  64.798  1.00  0.00     0.293 HD
ENDBRANCH   2  22
BRANCH   6  24
ATOM     24  O   UNL     1      32.123  52.014  63.581  1.00  0.00    -0.507 OA
ATOM     25  H   UNL     1      32.437  52.972  63.584  1.00  0.00     0.293 HD
ENDBRANCH   6  24
BRANCH   8  26
ATOM     26  O   UNL     1      31.383  52.116  58.857  1.00  0.00    -0.508 OA
ATOM     27  H   UNL     1      30.583  52.388  58.296  1.00  0.00     0.293 HD
ENDBRANCH   8  26
TORSDOF 6
ENDMDL
MODEL 4
REMARK VINA RESULT:    -4.906      2.075      6.891
REMARK INTER + INTRA:          -6.020
REMARK INTER:                  -5.701
REMARK INTRA:                  -0.319
REMARK UNBOUND:                -0.109
REMARK SMILES O=c1c(O)c(-c2ccc(O)c(O)c2)oc2cc(O)cc(O)c12
REMARK SMILES IDX 5 1 3 2 2 3 1 4 22 5 20 6 19 7 17 8 16 9 15 10 14 11 6 12
REMARK SMILES IDX 7 13 8 14 9 15 13 16 11 17 10 18 12 20 4 22 21 24 18 26
REMARK H PARENT 10 19 12 21 4 23 21 25 18 27
REMARK Flexibility Score: inf
ROOT
ATOM      1  C   UNL     1      29.546  48.225  62.033  1.00  0.00     0.180 A 
ATOM      2  C   UNL     1      30.832  48.640  61.647  1.00  0.00     0.208 A 
ATOM      3  C   UNL     1      30.961  49.696  60.731  1.00  0.00     0.238 A 
ATOM      4  O   UNL     1      32.112  50.013  60.333  1.00  0.00    -0.285 OA
ATOM      5  C   UNL     1      29.805  50.361  60.254  1.00  0.00     0.111 A 
ATOM      6  C   UNL     1      29.819  51.473  59.359  1.00  0.00     0.134 A 
ATOM      7  C   UNL     1      28.609  51.983  58.872  1.00  0.00     0.093 A 
ATOM      8  C   UNL     1      27.386  51.465  59.296  1.00  0.00     0.123 A 
ATOM      9  C   UNL     1      27.359  50.415  60.215  1.00  0.00     0.094 A 
ATOM     10  C   UNL     1      28.550  49.860  60.689  1.00  0.00     0.146 A 
ATOM     11  O   UNL     1      28.480  48.847  61.544  1.00  0.00    -0.452 OA
ENDROOT
BRANCH   1  12
ATOM     12  C   UNL     1      29.329  47.111  62.984  1.00  0.00     0.025 A 
ATOM     13  C   UNL     1      29.166  45.807  62.493  1.00  0.00     0.016 A 
ATOM     14  C   UNL     1      28.981  44.737  63.373  1.00  0.00     0.051 A 
ATOM     15  C   UNL     1      28.974  44.951  64.754  1.00  0.00     0.157 A 
ATOM     16  C   UNL     1      29.343  47.321  64.375  1.00  0.00     0.062 A 
ATOM     17  C   UNL     1      29.161  46.249  65.259  1.00  0.00     0.158 A 
BRANCH  15  18
ATOM     18  O   UNL     1      28.785  43.864  65.608  1.00  0.00    -0.504 OA
ATOM     19  H   UNL     1      28.552  42.942  65.261  1.00  0.00     0.293 HD
ENDBRANCH  15  18
BRANCH  17  20
ATOM     20  O   UNL     1      29.170  46.466  66.636  1.00  0.00    -0.504 OA
ATOM     21  H   UNL     1      29.384  45.722  67.290  1.00  0.00     0.293 HD
ENDBRANCH  17  20
ENDBRANCH   1  12
BRANCH   2  22
ATOM     22  O   UNL     1      31.962  48.021  62.187  1.00  0.00    -0.502 OA
ATOM     23  H   UNL     1      32.657  48.529  62.723  1.00  0.00     0.293 HD
ENDBRANCH   2  22
BRANCH   6  24
ATOM     24  O   UNL     1      30.982  52.125  58.937  1.00  0.00    -0.507 OA
ATOM     25  H   UNL     1      31.509  52.782  59.491  1.00  0.00     0.293 HD
ENDBRANCH   6  24
BRANCH   8  26
ATOM     26  O   UNL     1      26.202  52.009  58.805  1.00  0.00    -0.508 OA
ATOM     27  H   UNL     1      25.736  52.779  59.273  1.00  0.00     0.293 HD
ENDBRANCH   8  26
TORSDOF 6
ENDMDL
MODEL 5
REMARK VINA RESULT:    -4.899      1.907      6.840
REMARK INTER + INTRA:          -6.011
REMARK INTER:                  -5.699
REMARK INTRA:                  -0.312
REMARK UNBOUND:                -0.109
REMARK SMILES O=c1c(O)c(-c2ccc(O)c(O)c2)oc2cc(O)cc(O)c12
REMARK SMILES IDX 5 1 3 2 2 3 1 4 22 5 20 6 19 7 17 8 16 9 15 10 14 11 6 12
REMARK SMILES IDX 7 13 8 14 9 15 13 16 11 17 10 18 12 20 4 22 21 24 18 26
REMARK H PARENT 10 19 12 21 4 23 21 25 18 27
REMARK Flexibility Score: inf
ROOT
ATOM      1  C   UNL     1      29.585  47.927  62.387  1.00  0.00     0.180 A 
ATOM      2  C   UNL     1      30.861  48.435  62.093  1.00  0.00     0.208 A 
ATOM      3  C   UNL     1      30.976  49.515  61.203  1.00  0.00     0.238 A 
ATOM      4  O   UNL     1      32.125  49.917  60.886  1.00  0.00    -0.285 OA
ATOM      5  C   UNL     1      29.809  50.110  60.662  1.00  0.00     0.111 A 
ATOM      6  C   UNL     1      29.804  51.237  59.786  1.00  0.00     0.134 A 
ATOM      7  C   UNL     1      28.596  51.673  59.229  1.00  0.00     0.093 A 
ATOM      8  C   UNL     1      27.387  51.066  59.565  1.00  0.00     0.123 A 
ATOM      9  C   UNL     1      27.373  49.998  60.464  1.00  0.00     0.094 A 
ATOM     10  C   UNL     1      28.566  49.516  61.006  1.00  0.00     0.146 A 
ATOM     11  O   UNL     1      28.511  48.484  61.839  1.00  0.00    -0.452 OA
ENDROOT
BRANCH   1  12
ATOM     12  C   UNL     1      29.385  46.782  63.305  1.00  0.00     0.025 A 
ATOM     13  C   UNL     1      29.325  47.009  64.689  1.00  0.00     0.016 A 
ATOM     14  C   UNL     1      29.116  45.946  65.572  1.00  0.00     0.051 A 
ATOM     15  C   UNL     1      28.946  44.647  65.086  1.00  0.00     0.157 A 
ATOM     16  C   UNL     1      29.193  45.476  62.817  1.00  0.00     0.062 A 
ATOM     17  C   UNL     1      28.980  44.410  63.702  1.00  0.00     0.158 A 
BRANCH  15  18
ATOM     18  O   UNL     1      28.741  43.605  65.992  1.00  0.00    -0.504 OA
ATOM     19  H   UNL     1      28.626  43.770  66.984  1.00  0.00     0.293 HD
ENDBRANCH  15  18
BRANCH  17  20
ATOM     20  O   UNL     1      28.797  43.118  63.211  1.00  0.00    -0.504 OA
ATOM     21  H   UNL     1      29.505  42.657  62.651  1.00  0.00     0.293 HD
ENDBRANCH  17  20
ENDBRANCH   1  12
BRANCH   2  22
ATOM     22  O   UNL     1      31.994  47.884  62.696  1.00  0.00    -0.502 OA
ATOM     23  H   UNL     1      32.847  48.413  62.838  1.00  0.00     0.293 HD
ENDBRANCH   2  22
BRANCH   6  24
ATOM     24  O   UNL     1      30.944  51.975  59.451  1.00  0.00    -0.507 OA
ATOM     25  H   UNL     1      31.523  51.807  58.643  1.00  0.00     0.293 HD
ENDBRANCH   6  24
BRANCH   8  26
ATOM     26  O   UNL     1      26.201  51.538  59.006  1.00  0.00    -0.508 OA
ATOM     27  H   UNL     1      26.189  52.015  58.111  1.00  0.00     0.293 HD
ENDBRANCH   8  26
TORSDOF 6
ENDMDL
MODEL 6
REMARK VINA RESULT:    -4.074      1.451      6.793
REMARK INTER + INTRA:          -5.017
REMARK INTER:                  -5.362
REMARK INTRA:                   0.345
REMARK UNBOUND:                -0.109
REMARK SMILES O=c1c(O)c(-c2ccc(O)c(O)c2)oc2cc(O)cc(O)c12
REMARK SMILES IDX 5 1 3 2 2 3 1 4 22 5 20 6 19 7 17 8 16 9 15 10 14 11 6 12
REMARK SMILES IDX 7 13 8 14 9 15 13 16 11 17 10 18 12 20 4 22 21 24 18 26
REMARK H PARENT 10 19 12 21 4 23 21 25 18 27
REMARK Flexibility Score: inf
ROOT
ATOM      1  C   UNL     1      27.891  47.497  60.989  1.00  0.00     0.180 A 
ATOM      2  C   UNL     1      28.843  48.530  61.018  1.00  0.00     0.208 A 
ATOM      3  C   UNL     1      28.629  49.677  60.236  1.00  0.00     0.238 A 
ATOM      4  O   UNL     1      29.521  50.564  60.210  1.00  0.00    -0.285 OA
ATOM      5  C   UNL     1      27.440  49.801  59.478  1.00  0.00     0.111 A 
ATOM      6  C   UNL     1      27.097  50.938  58.685  1.00  0.00     0.134 A 
ATOM      7  C   UNL     1      25.943  50.904  57.894  1.00  0.00     0.093 A 
ATOM      8  C   UNL     1      25.086  49.805  57.914  1.00  0.00     0.123 A 
ATOM      9  C   UNL     1      25.382  48.711  58.728  1.00  0.00     0.094 A 
ATOM     10  C   UNL     1      26.545  48.698  59.500  1.00  0.00     0.146 A 
ATOM     11  O   UNL     1      26.800  47.628  60.242  1.00  0.00    -0.452 OA
ENDROOT
BRANCH   1  12
ATOM     12  C   UNL     1      28.053  46.252  61.775  1.00  0.00     0.025 A 
ATOM     13  C   UNL     1      27.442  45.070  61.329  1.00  0.00     0.016 A 
ATOM     14  C   UNL     1      27.599  43.879  62.043  1.00  0.00     0.051 A 
ATOM     15  C   UNL     1      28.381  43.848  63.201  1.00  0.00     0.157 A 
ATOM     16  C   UNL     1      28.857  46.214  62.929  1.00  0.00     0.062 A 
ATOM     17  C   UNL     1      29.017  45.019  63.645  1.00  0.00     0.158 A 
BRANCH  15  18
ATOM     18  O   UNL     1      28.517  42.645  63.895  1.00  0.00    -0.504 OA
ATOM     19  H   UNL     1      29.240  42.504  64.589  1.00  0.00     0.293 HD
ENDBRANCH  15  18
BRANCH  17  20
ATOM     20  O   UNL     1      29.810  44.991  64.792  1.00  0.00    -0.504 OA
ATOM     21  H   UNL     1      30.707  44.519  64.805  1.00  0.00     0.293 HD
ENDBRANCH  17  20
ENDBRANCH   1  12
BRANCH   2  22
ATOM     22  O   UNL     1      29.974  48.421  61.832  1.00  0.00    -0.502 OA
ATOM     23  H   UNL     1      30.890  48.739  61.537  1.00  0.00     0.293 HD
ENDBRANCH   2  22
BRANCH   6  24
ATOM     24  O   UNL     1      27.836  52.124  58.657  1.00  0.00    -0.507 OA
ATOM     25  H   UNL     1      27.486  53.029  58.934  1.00  0.00     0.293 HD
ENDBRANCH   6  24
BRANCH   8  26
ATOM     26  O   UNL     1      23.937  49.814  57.127  1.00  0.00    -0.508 OA
ATOM     27  H   UNL     1      23.897  50.323  56.250  1.00  0.00     0.293 HD
ENDBRANCH   8  26
TORSDOF 6
ENDMDL
MODEL 7
REMARK VINA RESULT:    -3.954      1.787      6.804
REMARK INTER + INTRA:          -4.872
REMARK INTER:                  -4.550
REMARK INTRA:                  -0.323
REMARK UNBOUND:                -0.109
REMARK SMILES O=c1c(O)c(-c2ccc(O)c(O)c2)oc2cc(O)cc(O)c12
REMARK SMILES IDX 5 1 3 2 2 3 1 4 22 5 20 6 19 7 17 8 16 9 15 10 14 11 6 12
REMARK SMILES IDX 7 13 8 14 9 15 13 16 11 17 10 18 12 20 4 22 21 24 18 26
REMARK H PARENT 10 19 12 21 4 23 21 25 18 27
REMARK Flexibility Score: inf
ROOT
ATOM      1  C   UNL     1      28.405  48.366  62.013  1.00  0.00     0.180 A 
ATOM      2  C   UNL     1      27.806  49.215  62.959  1.00  0.00     0.208 A 
ATOM      3  C   UNL     1      26.925  50.215  62.516  1.00  0.00     0.238 A 
ATOM      4  O   UNL     1      26.450  51.018  63.360  1.00  0.00    -0.285 OA
ATOM      5  C   UNL     1      26.610  50.318  61.139  1.00  0.00     0.111 A 
ATOM      6  C   UNL     1      25.696  51.263  60.583  1.00  0.00     0.134 A 
ATOM      7  C   UNL     1      25.544  51.342  59.194  1.00  0.00     0.093 A 
ATOM      8  C   UNL     1      26.222  50.470  58.344  1.00  0.00     0.123 A 
ATOM      9  C   UNL     1      27.076  49.504  58.879  1.00  0.00     0.094 A 
ATOM     10  C   UNL     1      27.278  49.426  60.259  1.00  0.00     0.146 A 
ATOM     11  O   UNL     1      28.116  48.508  60.725  1.00  0.00    -0.452 OA
ENDROOT
BRANCH   1  12
ATOM     12  C   UNL     1      29.355  47.299  62.401  1.00  0.00     0.025 A 
ATOM     13  C   UNL     1      30.723  47.593  62.496  1.00  0.00     0.016 A 
ATOM     14  C   UNL     1      31.635  46.607  62.882  1.00  0.00     0.051 A 
ATOM     15  C   UNL     1      31.191  45.318  63.193  1.00  0.00     0.157 A 
ATOM     16  C   UNL     1      28.908  46.007  62.736  1.00  0.00     0.062 A 
ATOM     17  C   UNL     1      29.821  45.017  63.125  1.00  0.00     0.158 A 
BRANCH  15  18
ATOM     18  O   UNL     1      32.125  44.353  63.573  1.00  0.00    -0.504 OA
ATOM     19  H   UNL     1      31.860  43.396  63.768  1.00  0.00     0.293 HD
ENDBRANCH  15  18
BRANCH  17  20
ATOM     20  O   UNL     1      29.371  43.737  63.449  1.00  0.00    -0.504 OA
ATOM     21  H   UNL     1      28.535  43.347  63.031  1.00  0.00     0.293 HD
ENDBRANCH  17  20
ENDBRANCH   1  12
BRANCH   2  22
ATOM     22  O   UNL     1      28.070  49.048  64.321  1.00  0.00    -0.502 OA
ATOM     23  H   UNL     1      28.996  48.832  64.673  1.00  0.00     0.293 HD
ENDBRANCH   2  22
BRANCH   6  24
ATOM     24  O   UNL     1      24.901  52.125  61.345  1.00  0.00    -0.507 OA
ATOM     25  H   UNL     1      24.108  52.640  60.994  1.00  0.00     0.293 HD
ENDBRANCH   6  24
BRANCH   8  26
ATOM     26  O   UNL     1      26.033  50.565  56.967  1.00  0.00    -0.508 OA
ATOM     27  H   UNL     1      25.122  50.422  56.545  1.00  0.00     0.293 HD
ENDBRANCH   8  26
TORSDOF 6
ENDMDL
MODEL 8
REMARK VINA RESULT:    -3.931      1.634      2.060
REMARK INTER + INTRA:          -4.844
REMARK INTER:                  -4.668
REMARK INTRA:                  -0.176
REMARK UNBOUND:                -0.109
REMARK SMILES O=c1c(O)c(-c2ccc(O)c(O)c2)oc2cc(O)cc(O)c12
REMARK SMILES IDX 5 1 3 2 2 3 1 4 22 5 20 6 19 7 17 8 16 9 15 10 14 11 6 12
REMARK SMILES IDX 7 13 8 14 9 15 13 16 11 17 10 18 12 20 4 22 21 24 18 26
REMARK H PARENT 10 19 12 21 4 23 21 25 18 27
REMARK Flexibility Score: inf
ROOT
ATOM      1  C   UNL     1      27.684  48.007  61.150  1.00  0.00     0.180 A 
ATOM      2  C   UNL     1      28.808  48.313  61.936  1.00  0.00     0.208 A 
ATOM      3  C   UNL     1      29.433  47.286  62.662  1.00  0.00     0.238 A 
ATOM      4  O   UNL     1      30.392  47.580  63.421  1.00  0.00    -0.285 OA
ATOM      5  C   UNL     1      28.960  45.955  62.549  1.00  0.00     0.111 A 
ATOM      6  C   UNL     1      29.543  44.828  63.204  1.00  0.00     0.134 A 
ATOM      7  C   UNL     1      28.925  43.576  63.103  1.00  0.00     0.093 A 
ATOM      8  C   UNL     1      27.785  43.395  62.322  1.00  0.00     0.123 A 
ATOM      9  C   UNL     1      27.238  44.479  61.633  1.00  0.00     0.094 A 
ATOM     10  C   UNL     1      27.809  45.748  61.744  1.00  0.00     0.146 A 
ATOM     11  O   UNL     1      27.244  46.755  61.090  1.00  0.00    -0.452 OA
ENDROOT
BRANCH   1  12
ATOM     12  C   UNL     1      26.964  49.038  60.368  1.00  0.00     0.025 A 
ATOM     13  C   UNL     1      26.887  48.916  58.972  1.00  0.00     0.016 A 
ATOM     14  C   UNL     1      26.195  49.866  58.216  1.00  0.00     0.051 A 
ATOM     15  C   UNL     1      25.557  50.940  58.843  1.00  0.00     0.157 A 
ATOM     16  C   UNL     1      26.304  50.108  60.999  1.00  0.00     0.062 A 
ATOM     17  C   UNL     1      25.607  51.060  60.241  1.00  0.00     0.158 A 
BRANCH  15  18
ATOM     18  O   UNL     1      24.876  51.874  58.062  1.00  0.00    -0.504 OA
ATOM     19  H   UNL     1      23.873  51.999  58.125  1.00  0.00     0.293 HD
ENDBRANCH  15  18
BRANCH  17  20
ATOM     20  O   UNL     1      24.961  52.122  60.874  1.00  0.00    -0.504 OA
ATOM     21  H   UNL     1      25.386  53.039  60.939  1.00  0.00     0.293 HD
ENDBRANCH  17  20
ENDBRANCH   1  12
BRANCH   2  22
ATOM     22  O   UNL     1      29.305  49.618  61.974  1.00  0.00    -0.502 OA
ATOM     23  H   UNL     1      28.701  50.430  62.014  1.00  0.00     0.293 HD
ENDBRANCH   2  22
BRANCH   6  24
ATOM     24  O   UNL     1      30.731  44.877  63.939  1.00  0.00    -0.507 OA
ATOM     25  H   UNL     1      31.301  44.078  64.169  1.00  0.00     0.293 HD
ENDBRANCH   6  24
BRANCH   8  26
ATOM     26  O   UNL     1      27.208  42.131  62.230  1.00  0.00    -0.508 OA
ATOM     27  H   UNL     1      27.229  41.479  63.007  1.00  0.00     0.293 HD
ENDBRANCH   8  26
TORSDOF 6
ENDMDL
