MODEL 1
REMARK VINA RESULT:    -6.615      0.000      0.000
REMARK INTER + INTRA:          -8.081
REMARK INTER:                  -7.776
REMARK INTRA:                  -0.306
REMARK UNBOUND:                -0.306
REMARK SMILES O=c1cc(-c2ccc(O)c(O)c2)oc2cc(O)cc(O)c12
REMARK SMILES IDX 4 1 3 2 2 3 1 4 21 5 19 6 18 7 16 8 15 9 14 10 13 11 5 12
REMARK SMILES IDX 6 13 7 14 8 15 12 16 10 17 9 18 11 20 20 22 17 24
REMARK H PARENT 9 19 11 21 20 23 17 25
REMARK Flexibility Score: inf
ROOT
ATOM      1  C   UNL     1      69.469  48.208   8.459  1.00  0.00     0.138 A 
ATOM      2  C   UNL     1      70.422  48.210   9.486  1.00  0.00     0.100 A 
ATOM      3  C   UNL     1      71.781  48.169   9.166  1.00  0.00     0.197 A 
ATOM      4  O   UNL     1      72.611  48.108  10.110  1.00  0.00    -0.289 OA
ATOM      5  C   UNL     1      72.184  48.158   7.810  1.00  0.00     0.107 A 
ATOM      6  C   UNL     1      73.540  48.158   7.366  1.00  0.00     0.134 A 
ATOM      7  C   UNL     1      73.819  48.030   5.999  1.00  0.00     0.093 A 
ATOM      8  C   UNL     1      72.792  47.962   5.057  1.00  0.00     0.123 A 
ATOM      9  C   UNL     1      71.462  48.016   5.477  1.00  0.00     0.094 A 
ATOM     10  C   UNL     1      71.152  48.109   6.836  1.00  0.00     0.146 A 
ATOM     11  O   UNL     1      69.873  48.143   7.195  1.00  0.00    -0.456 OA
ENDROOT
BRANCH   1  12
ATOM     12  C   UNL     1      68.012  48.252   8.743  1.00  0.00     0.021 A 
ATOM     13  C   UNL     1      67.496  48.930   9.864  1.00  0.00     0.016 A 
ATOM     14  C   UNL     1      66.119  48.963  10.100  1.00  0.00     0.051 A 
ATOM     15  C   UNL     1      65.234  48.329   9.220  1.00  0.00     0.157 A 
ATOM     16  C   UNL     1      67.115  47.629   7.856  1.00  0.00     0.062 A 
ATOM     17  C   UNL     1      65.736  47.660   8.091  1.00  0.00     0.158 A 
BRANCH  15  18
ATOM     18  O   UNL     1      63.861  48.363   9.461  1.00  0.00    -0.504 OA
ATOM     19  H   UNL     1      63.228  48.869   8.852  1.00  0.00     0.293 HD
ENDBRANCH  15  18
BRANCH  17  20
ATOM     20  O   UNL     1      64.881  47.023   7.193  1.00  0.00    -0.504 OA
ATOM     21  H   UNL     1      64.059  47.479   6.815  1.00  0.00     0.293 HD
ENDBRANCH  17  20
ENDBRANCH   1  12
BRANCH   6  22
ATOM     22  O   UNL     1      74.641  48.306   8.215  1.00  0.00    -0.507 OA
ATOM     23  H   UNL     1      74.808  47.756   9.044  1.00  0.00     0.293 HD
ENDBRANCH   6  22
BRANCH   8  24
ATOM     24  O   UNL     1      73.107  47.850   3.705  1.00  0.00    -0.508 OA
ATOM     25  H   UNL     1      72.761  47.081   3.143  1.00  0.00     0.293 HD
ENDBRANCH   8  24
TORSDOF 5
ENDMDL
MODEL 2
REMARK VINA RESULT:    -6.429      1.215      2.638
REMARK INTER + INTRA:          -7.862
REMARK INTER:                  -7.591
REMARK INTRA:                  -0.271
REMARK UNBOUND:                -0.306
REMARK SMILES O=c1cc(-c2ccc(O)c(O)c2)oc2cc(O)cc(O)c12
REMARK SMILES IDX 4 1 3 2 2 3 1 4 21 5 19 6 18 7 16 8 15 9 14 10 13 11 5 12
REMARK SMILES IDX 6 13 7 14 8 15 12 16 10 17 9 18 11 20 20 22 17 24
REMARK H PARENT 9 19 11 21 20 23 17 25
REMARK Flexibility Score: inf
ROOT
ATOM      1  C   UNL     1      69.063  48.127   7.974  1.00  0.00     0.138 A 
ATOM      2  C   UNL     1      69.396  48.499   6.665  1.00  0.00     0.100 A 
ATOM      3  C   UNL     1      70.732  48.473   6.259  1.00  0.00     0.197 A 
ATOM      4  O   UNL     1      71.008  48.872   5.098  1.00  0.00    -0.289 OA
ATOM      5  C   UNL     1      71.733  48.041   7.161  1.00  0.00     0.107 A 
ATOM      6  C   UNL     1      73.120  47.934   6.845  1.00  0.00     0.134 A 
ATOM      7  C   UNL     1      74.035  47.606   7.854  1.00  0.00     0.093 A 
ATOM      8  C   UNL     1      73.607  47.323   9.151  1.00  0.00     0.123 A 
ATOM      9  C   UNL     1      72.247  47.372   9.458  1.00  0.00     0.094 A 
ATOM     10  C   UNL     1      71.313  47.730   8.482  1.00  0.00     0.146 A 
ATOM     11  O   UNL     1      70.028  47.778   8.818  1.00  0.00    -0.456 OA
ENDROOT
BRANCH   1  12
ATOM     12  C   UNL     1      67.659  48.136   8.458  1.00  0.00     0.021 A 
ATOM     13  C   UNL     1      67.284  48.819   9.630  1.00  0.00     0.016 A 
ATOM     14  C   UNL     1      65.953  48.818  10.055  1.00  0.00     0.051 A 
ATOM     15  C   UNL     1      64.974  48.144   9.316  1.00  0.00     0.157 A 
ATOM     16  C   UNL     1      66.667  47.472   7.713  1.00  0.00     0.062 A 
ATOM     17  C   UNL     1      65.333  47.470   8.138  1.00  0.00     0.158 A 
BRANCH  15  18
ATOM     18  O   UNL     1      63.647  48.144   9.744  1.00  0.00    -0.504 OA
ATOM     19  H   UNL     1      62.877  48.104   9.086  1.00  0.00     0.293 HD
ENDBRANCH  15  18
BRANCH  17  20
ATOM     20  O   UNL     1      64.382  46.793   7.376  1.00  0.00    -0.504 OA
ATOM     21  H   UNL     1      64.466  45.807   7.161  1.00  0.00     0.293 HD
ENDBRANCH  17  20
ENDBRANCH   1  12
BRANCH   6  22
ATOM     22  O   UNL     1      73.646  48.113   5.561  1.00  0.00    -0.507 OA
ATOM     23  H   UNL     1      74.029  47.378   4.988  1.00  0.00     0.293 HD
ENDBRANCH   6  22
BRANCH   8  24
ATOM     24  O   UNL     1      74.544  46.986  10.125  1.00  0.00    -0.508 OA
ATOM     25  H   UNL     1      74.427  46.169  10.713  1.00  0.00     0.293 HD
ENDBRANCH   8  24
TORSDOF 5
ENDMDL
MODEL 3
REMARK VINA RESULT:    -6.262      4.144      6.996
REMARK INTER + INTRA:          -7.666
REMARK INTER:                  -7.395
REMARK INTRA:                  -0.271
REMARK UNBOUND:                -0.306
REMARK SMILES O=c1cc(-c2ccc(O)c(O)c2)oc2cc(O)cc(O)c12
REMARK SMILES IDX 4 1 3 2 2 3 1 4 21 5 19 6 18 7 16 8 15 9 14 10 13 11 5 12
REMARK SMILES IDX 6 13 7 14 8 15 12 16 10 17 9 18 11 20 20 22 17 24
REMARK H PARENT 9 19 11 21 20 23 17 25
REMARK Flexibility Score: inf
ROOT
ATOM      1  C   UNL     1      72.387  46.395   5.230  1.00  0.00     0.138 A 
ATOM      2  C   UNL     1      72.042  47.144   6.363  1.00  0.00     0.100 A 
ATOM      3  C   UNL     1      71.353  48.349   6.210  1.00  0.00     0.197 A 
ATOM      4  O   UNL     1      71.112  49.031   7.240  1.00  0.00    -0.289 OA
ATOM      5  C   UNL     1      70.983  48.787   4.916  1.00  0.00     0.107 A 
ATOM      6  C   UNL     1      70.245  49.978   4.642  1.00  0.00     0.134 A 
ATOM      7  C   UNL     1      70.036  50.370   3.314  1.00  0.00     0.093 A 
ATOM      8  C   UNL     1      70.486  49.587   2.252  1.00  0.00     0.123 A 
ATOM      9  C   UNL     1      71.162  48.394   2.508  1.00  0.00     0.094 A 
ATOM     10  C   UNL     1      71.416  47.993   3.822  1.00  0.00     0.146 A 
ATOM     11  O   UNL     1      72.075  46.857   4.024  1.00  0.00    -0.456 OA
ENDROOT
BRANCH   1  12
ATOM     12  C   UNL     1      73.118  45.107   5.336  1.00  0.00     0.021 A 
ATOM     13  C   UNL     1      74.466  45.051   5.738  1.00  0.00     0.016 A 
ATOM     14  C   UNL     1      75.125  43.823   5.838  1.00  0.00     0.051 A 
ATOM     15  C   UNL     1      74.450  42.631   5.549  1.00  0.00     0.157 A 
ATOM     16  C   UNL     1      72.443  43.904   5.060  1.00  0.00     0.062 A 
ATOM     17  C   UNL     1      73.101  42.673   5.160  1.00  0.00     0.158 A 
BRANCH  15  18
ATOM     18  O   UNL     1      75.112  41.408   5.649  1.00  0.00    -0.504 OA
ATOM     19  H   UNL     1      74.675  40.602   6.082  1.00  0.00     0.293 HD
ENDBRANCH  15  18
BRANCH  17  20
ATOM     20  O   UNL     1      72.400  41.504   4.869  1.00  0.00    -0.504 OA
ATOM     21  H   UNL     1      72.785  40.585   5.051  1.00  0.00     0.293 HD
ENDBRANCH  17  20
ENDBRANCH   1  12
BRANCH   6  22
ATOM     22  O   UNL     1      69.677  50.790   5.629  1.00  0.00    -0.507 OA
ATOM     23  H   UNL     1      68.691  50.843   5.835  1.00  0.00     0.293 HD
ENDBRANCH   6  22
BRANCH   8  24
ATOM     24  O   UNL     1      70.248  50.002   0.943  1.00  0.00    -0.508 OA
ATOM     25  H   UNL     1      70.873  50.641   0.468  1.00  0.00     0.293 HD
ENDBRANCH   8  24
TORSDOF 5
ENDMDL
MODEL 4
REMARK VINA RESULT:    -6.103      1.968      6.962
REMARK INTER + INTRA:          -7.479
REMARK INTER:                  -7.168
REMARK INTRA:                  -0.312
REMARK UNBOUND:                -0.306
REMARK SMILES O=c1cc(-c2ccc(O)c(O)c2)oc2cc(O)cc(O)c12
REMARK SMILES IDX 4 1 3 2 2 3 1 4 21 5 19 6 18 7 16 8 15 9 14 10 13 11 5 12
REMARK SMILES IDX 6 13 7 14 8 15 12 16 10 17 9 18 11 20 20 22 17 24
REMARK H PARENT 9 19 11 21 20 23 17 25
REMARK Flexibility Score: inf
ROOT
ATOM      1  C   UNL     1      69.120  48.194   8.793  1.00  0.00     0.138 A 
ATOM      2  C   UNL     1      68.437  49.220   9.460  1.00  0.00     0.100 A 
ATOM      3  C   UNL     1      67.047  49.162   9.576  1.00  0.00     0.197 A 
ATOM      4  O   UNL     1      66.456  50.129  10.125  1.00  0.00    -0.289 OA
ATOM      5  C   UNL     1      66.343  48.055   9.048  1.00  0.00     0.107 A 
ATOM      6  C   UNL     1      64.931  47.869   9.143  1.00  0.00     0.134 A 
ATOM      7  C   UNL     1      64.330  46.791   8.482  1.00  0.00     0.093 A 
ATOM      8  C   UNL     1      65.095  45.860   7.779  1.00  0.00     0.123 A 
ATOM      9  C   UNL     1      66.482  46.002   7.725  1.00  0.00     0.094 A 
ATOM     10  C   UNL     1      67.107  47.086   8.345  1.00  0.00     0.146 A 
ATOM     11  O   UNL     1      68.429  47.193   8.259  1.00  0.00    -0.456 OA
ENDROOT
BRANCH   1  12
ATOM     12  C   UNL     1      70.597  48.205   8.642  1.00  0.00     0.021 A 
ATOM     13  C   UNL     1      71.346  49.389   8.776  1.00  0.00     0.016 A 
ATOM     14  C   UNL     1      72.736  49.367   8.638  1.00  0.00     0.051 A 
ATOM     15  C   UNL     1      73.403  48.165   8.374  1.00  0.00     0.157 A 
ATOM     16  C   UNL     1      71.275  46.999   8.389  1.00  0.00     0.062 A 
ATOM     17  C   UNL     1      72.668  46.975   8.250  1.00  0.00     0.158 A 
BRANCH  15  18
ATOM     18  O   UNL     1      74.790  48.148   8.236  1.00  0.00    -0.504 OA
ATOM     19  H   UNL     1      75.398  48.570   8.929  1.00  0.00     0.293 HD
ENDBRANCH  15  18
BRANCH  17  20
ATOM     20  O   UNL     1      73.302  45.761   7.991  1.00  0.00    -0.504 OA
ATOM     21  H   UNL     1      72.906  44.874   8.278  1.00  0.00     0.293 HD
ENDBRANCH  17  20
ENDBRANCH   1  12
BRANCH   6  22
ATOM     22  O   UNL     1      64.083  48.693   9.890  1.00  0.00    -0.507 OA
ATOM     23  H   UNL     1      63.674  48.446  10.778  1.00  0.00     0.293 HD
ENDBRANCH   6  22
BRANCH   8  24
ATOM     24  O   UNL     1      64.464  44.792   7.145  1.00  0.00    -0.508 OA
ATOM     25  H   UNL     1      63.506  44.858   6.823  1.00  0.00     0.293 HD
ENDBRANCH   8  24
TORSDOF 5
ENDMDL
MODEL 5
REMARK VINA RESULT:    -5.880      1.113      1.200
REMARK INTER + INTRA:          -7.217
REMARK INTER:                  -6.912
REMARK INTRA:                  -0.305
REMARK UNBOUND:                -0.306
REMARK SMILES O=c1cc(-c2ccc(O)c(O)c2)oc2cc(O)cc(O)c12
REMARK SMILES IDX 4 1 3 2 2 3 1 4 21 5 19 6 18 7 16 8 15 9 14 10 13 11 5 12
REMARK SMILES IDX 6 13 7 14 8 15 12 16 10 17 9 18 11 20 20 22 17 24
REMARK H PARENT 9 19 11 21 20 23 17 25
REMARK Flexibility Score: inf
ROOT
ATOM      1  C   UNL     1      68.892  47.868   8.255  1.00  0.00     0.138 A 
ATOM      2  C   UNL     1      69.595  48.508   9.284  1.00  0.00     0.100 A 
ATOM      3  C   UNL     1      70.971  48.711   9.158  1.00  0.00     0.197 A 
ATOM      4  O   UNL     1      71.586  49.232  10.124  1.00  0.00    -0.289 OA
ATOM      5  C   UNL     1      71.637  48.297   7.980  1.00  0.00     0.107 A 
ATOM      6  C   UNL     1      73.028  48.489   7.724  1.00  0.00     0.134 A 
ATOM      7  C   UNL     1      73.601  47.934   6.572  1.00  0.00     0.093 A 
ATOM      8  C   UNL     1      72.824  47.248   5.640  1.00  0.00     0.123 A 
ATOM      9  C   UNL     1      71.452  47.101   5.854  1.00  0.00     0.094 A 
ATOM     10  C   UNL     1      70.858  47.613   7.010  1.00  0.00     0.146 A 
ATOM     11  O   UNL     1      69.552  47.441   7.184  1.00  0.00    -0.456 OA
ENDROOT
BRANCH   1  12
ATOM     12  C   UNL     1      67.429  47.628   8.337  1.00  0.00     0.021 A 
ATOM     13  C   UNL     1      66.568  48.526   8.996  1.00  0.00     0.016 A 
ATOM     14  C   UNL     1      65.194  48.279   9.048  1.00  0.00     0.051 A 
ATOM     15  C   UNL     1      64.654  47.140   8.440  1.00  0.00     0.157 A 
ATOM     16  C   UNL     1      66.878  46.492   7.716  1.00  0.00     0.062 A 
ATOM     17  C   UNL     1      65.502  46.243   7.768  1.00  0.00     0.158 A 
BRANCH  15  18
ATOM     18  O   UNL     1      63.283  46.897   8.496  1.00  0.00    -0.504 OA
ATOM     19  H   UNL     1      62.609  47.655   8.504  1.00  0.00     0.293 HD
ENDBRANCH  15  18
BRANCH  17  20
ATOM     20  O   UNL     1      64.996  45.102   7.148  1.00  0.00    -0.504 OA
ATOM     21  H   UNL     1      64.679  44.297   7.676  1.00  0.00     0.293 HD
ENDBRANCH  17  20
ENDBRANCH   1  12
BRANCH   6  22
ATOM     22  O   UNL     1      73.880  49.232   8.548  1.00  0.00    -0.507 OA
ATOM     23  H   UNL     1      74.392  50.050   8.259  1.00  0.00     0.293 HD
ENDBRANCH   6  22
BRANCH   8  24
ATOM     24  O   UNL     1      73.425  46.721   4.499  1.00  0.00    -0.508 OA
ATOM     25  H   UNL     1      73.590  45.727   4.397  1.00  0.00     0.293 HD
ENDBRANCH   8  24
TORSDOF 5
ENDMDL
MODEL 6
REMARK VINA RESULT:    -5.755      1.716      6.889
REMARK INTER + INTRA:          -7.069
REMARK INTER:                  -6.790
REMARK INTRA:                  -0.279
REMARK UNBOUND:                -0.306
REMARK SMILES O=c1cc(-c2ccc(O)c(O)c2)oc2cc(O)cc(O)c12
REMARK SMILES IDX 4 1 3 2 2 3 1 4 21 5 19 6 18 7 16 8 15 9 14 10 13 11 5 12
REMARK SMILES IDX 6 13 7 14 8 15 12 16 10 17 9 18 11 20 20 22 17 24
REMARK H PARENT 9 19 11 21 20 23 17 25
REMARK Flexibility Score: inf
ROOT
ATOM      1  C   UNL     1      69.733  48.122   7.377  1.00  0.00     0.138 A 
ATOM      2  C   UNL     1      69.316  49.138   8.248  1.00  0.00     0.100 A 
ATOM      3  C   UNL     1      68.048  49.073   8.828  1.00  0.00     0.197 A 
ATOM      4  O   UNL     1      67.678  50.031   9.555  1.00  0.00    -0.289 OA
ATOM      5  C   UNL     1      67.208  47.967   8.558  1.00  0.00     0.107 A 
ATOM      6  C   UNL     1      65.912  47.774   9.125  1.00  0.00     0.134 A 
ATOM      7  C   UNL     1      65.124  46.699   8.696  1.00  0.00     0.093 A 
ATOM      8  C   UNL     1      65.606  45.779   7.765  1.00  0.00     0.123 A 
ATOM      9  C   UNL     1      66.892  45.928   7.245  1.00  0.00     0.094 A 
ATOM     10  C   UNL     1      67.689  47.009   7.628  1.00  0.00     0.146 A 
ATOM     11  O   UNL     1      68.903  47.123   7.099  1.00  0.00    -0.456 OA
ENDROOT
BRANCH   1  12
ATOM     12  C   UNL     1      71.071  48.142   6.734  1.00  0.00     0.021 A 
ATOM     13  C   UNL     1      72.257  48.122   7.492  1.00  0.00     0.016 A 
ATOM     14  C   UNL     1      73.503  48.131   6.858  1.00  0.00     0.051 A 
ATOM     15  C   UNL     1      73.587  48.152   5.461  1.00  0.00     0.157 A 
ATOM     16  C   UNL     1      71.164  48.149   5.330  1.00  0.00     0.062 A 
ATOM     17  C   UNL     1      72.410  48.159   4.694  1.00  0.00     0.158 A 
BRANCH  15  18
ATOM     18  O   UNL     1      74.832  48.162   4.833  1.00  0.00    -0.504 OA
ATOM     19  H   UNL     1      75.148  48.961   4.295  1.00  0.00     0.293 HD
ENDBRANCH  15  18
BRANCH  17  20
ATOM     20  O   UNL     1      72.460  48.175   3.301  1.00  0.00    -0.504 OA
ATOM     21  H   UNL     1      71.814  48.724   2.745  1.00  0.00     0.293 HD
ENDBRANCH  17  20
ENDBRANCH   1  12
BRANCH   6  22
ATOM     22  O   UNL     1      65.367  48.586  10.125  1.00  0.00    -0.507 OA
ATOM     23  H   UNL     1      65.253  48.316  11.089  1.00  0.00     0.293 HD
ENDBRANCH   6  22
BRANCH   8  24
ATOM     24  O   UNL     1      64.799  44.714   7.371  1.00  0.00    -0.508 OA
ATOM     25  H   UNL     1      64.015  44.405   7.935  1.00  0.00     0.293 HD
ENDBRANCH   8  24
TORSDOF 5
ENDMDL
MODEL 7
REMARK VINA RESULT:    -5.750      1.840      7.141
REMARK INTER + INTRA:          -7.064
REMARK INTER:                  -6.782
REMARK INTRA:                  -0.282
REMARK UNBOUND:                -0.306
REMARK SMILES O=c1cc(-c2ccc(O)c(O)c2)oc2cc(O)cc(O)c12
REMARK SMILES IDX 4 1 3 2 2 3 1 4 21 5 19 6 18 7 16 8 15 9 14 10 13 11 5 12
REMARK SMILES IDX 6 13 7 14 8 15 12 16 10 17 9 18 11 20 20 22 17 24
REMARK H PARENT 9 19 11 21 20 23 17 25
REMARK Flexibility Score: inf
ROOT
ATOM      1  C   UNL     1      67.998  47.932   9.022  1.00  0.00     0.138 A 
ATOM      2  C   UNL     1      67.067  48.798   9.612  1.00  0.00     0.100 A 
ATOM      3  C   UNL     1      65.717  48.442   9.644  1.00  0.00     0.197 A 
ATOM      4  O   UNL     1      64.896  49.267  10.122  1.00  0.00    -0.289 OA
ATOM      5  C   UNL     1      65.306  47.197   9.110  1.00  0.00     0.107 A 
ATOM      6  C   UNL     1      63.964  46.711   9.125  1.00  0.00     0.134 A 
ATOM      7  C   UNL     1      63.656  45.516   8.464  1.00  0.00     0.093 A 
ATOM      8  C   UNL     1      64.649  44.759   7.841  1.00  0.00     0.123 A 
ATOM      9  C   UNL     1      65.973  45.198   7.868  1.00  0.00     0.094 A 
ATOM     10  C   UNL     1      66.306  46.404   8.489  1.00  0.00     0.146 A 
ATOM     11  O   UNL     1      67.577  46.795   8.480  1.00  0.00    -0.456 OA
ENDROOT
BRANCH   1  12
ATOM     12  C   UNL     1      69.444  48.261   8.962  1.00  0.00     0.021 A 
ATOM     13  C   UNL     1      70.192  48.528  10.125  1.00  0.00     0.016 A 
ATOM     14  C   UNL     1      71.555  48.825  10.039  1.00  0.00     0.051 A 
ATOM     15  C   UNL     1      72.196  48.853   8.795  1.00  0.00     0.157 A 
ATOM     16  C   UNL     1      70.099  48.279   7.717  1.00  0.00     0.062 A 
ATOM     17  C   UNL     1      71.464  48.576   7.629  1.00  0.00     0.158 A 
BRANCH  15  18
ATOM     18  O   UNL     1      73.555  49.152   8.713  1.00  0.00    -0.504 OA
ATOM     19  H   UNL     1      73.881  50.073   8.444  1.00  0.00     0.293 HD
ENDBRANCH  15  18
BRANCH  17  20
ATOM     20  O   UNL     1      72.074  48.592   6.375  1.00  0.00    -0.504 OA
ATOM     21  H   UNL     1      73.042  48.862   6.250  1.00  0.00     0.293 HD
ENDBRANCH  17  20
ENDBRANCH   1  12
BRANCH   6  22
ATOM     22  O   UNL     1      62.910  47.345   9.790  1.00  0.00    -0.507 OA
ATOM     23  H   UNL     1      62.150  47.828   9.337  1.00  0.00     0.293 HD
ENDBRANCH   6  22
BRANCH   8  24
ATOM     24  O   UNL     1      64.308  43.568   7.206  1.00  0.00    -0.508 OA
ATOM     25  H   UNL     1      63.923  43.558   6.269  1.00  0.00     0.293 HD
ENDBRANCH   8  24
TORSDOF 5
ENDMDL
MODEL 8
REMARK VINA RESULT:    -5.661      1.426      1.426
REMARK INTER + INTRA:          -6.960
REMARK INTER:                  -6.688
REMARK INTRA:                  -0.272
REMARK UNBOUND:                -0.306
REMARK SMILES O=c1cc(-c2ccc(O)c(O)c2)oc2cc(O)cc(O)c12
REMARK SMILES IDX 4 1 3 2 2 3 1 4 21 5 19 6 18 7 16 8 15 9 14 10 13 11 5 12
REMARK SMILES IDX 6 13 7 14 8 15 12 16 10 17 9 18 11 20 20 22 17 24
REMARK H PARENT 9 19 11 21 20 23 17 25
REMARK Flexibility Score: inf
ROOT
ATOM      1  C   UNL     1      69.374  47.188   8.118  1.00  0.00     0.138 A 
ATOM      2  C   UNL     1      70.102  46.239   8.850  1.00  0.00     0.100 A 
ATOM      3  C   UNL     1      71.388  45.887   8.436  1.00  0.00     0.197 A 
ATOM      4  O   UNL     1      71.992  44.987   9.076  1.00  0.00    -0.289 OA
ATOM      5  C   UNL     1      71.958  46.513   7.303  1.00  0.00     0.107 A 
ATOM      6  C   UNL     1      73.276  46.264   6.814  1.00  0.00     0.134 A 
ATOM      7  C   UNL     1      73.691  46.857   5.615  1.00  0.00     0.093 A 
ATOM      8  C   UNL     1      72.860  47.736   4.920  1.00  0.00     0.123 A 
ATOM      9  C   UNL     1      71.590  48.028   5.418  1.00  0.00     0.094 A 
ATOM     10  C   UNL     1      71.134  47.426   6.593  1.00  0.00     0.146 A 
ATOM     11  O   UNL     1      69.912  47.720   7.026  1.00  0.00    -0.456 OA
ENDROOT
BRANCH   1  12
ATOM     12  C   UNL     1      68.004  47.599   8.514  1.00  0.00     0.021 A 
ATOM     13  C   UNL     1      67.769  48.400   9.647  1.00  0.00     0.016 A 
ATOM     14  C   UNL     1      66.469  48.780   9.989  1.00  0.00     0.051 A 
ATOM     15  C   UNL     1      65.383  48.375   9.205  1.00  0.00     0.157 A 
ATOM     16  C   UNL     1      66.908  47.207   7.723  1.00  0.00     0.062 A 
ATOM     17  C   UNL     1      65.605  47.586   8.064  1.00  0.00     0.158 A 
BRANCH  15  18
ATOM     18  O   UNL     1      64.087  48.755   9.551  1.00  0.00    -0.504 OA
ATOM     19  H   UNL     1      63.299  48.128   9.429  1.00  0.00     0.293 HD
ENDBRANCH  15  18
BRANCH  17  20
ATOM     20  O   UNL     1      64.545  47.170   7.259  1.00  0.00    -0.504 OA
ATOM     21  H   UNL     1      63.845  47.816   6.914  1.00  0.00     0.293 HD
ENDBRANCH  17  20
ENDBRANCH   1  12
BRANCH   6  22
ATOM     22  O   UNL     1      74.218  45.469   7.475  1.00  0.00    -0.507 OA
ATOM     23  H   UNL     1      75.123  45.221   7.107  1.00  0.00     0.293 HD
ENDBRANCH   6  22
BRANCH   8  24
ATOM     24  O   UNL     1      73.312  48.318   3.738  1.00  0.00    -0.508 OA
ATOM     25  H   UNL     1      72.668  48.713   3.062  1.00  0.00     0.293 HD
ENDBRANCH   8  24
TORSDOF 5
ENDMDL
MODEL 9
REMARK VINA RESULT:    -5.343      1.772      2.397
REMARK INTER + INTRA:          -6.586
REMARK INTER:                  -6.292
REMARK INTRA:                  -0.293
REMARK UNBOUND:                -0.306
REMARK SMILES O=c1cc(-c2ccc(O)c(O)c2)oc2cc(O)cc(O)c12
REMARK SMILES IDX 4 1 3 2 2 3 1 4 21 5 19 6 18 7 16 8 15 9 14 10 13 11 5 12
REMARK SMILES IDX 6 13 7 14 8 15 12 16 10 17 9 18 11 20 20 22 17 24
REMARK H PARENT 9 19 11 21 20 23 17 25
REMARK Flexibility Score: inf
ROOT
ATOM      1  C   UNL     1      68.428  47.504   8.208  1.00  0.00     0.138 A 
ATOM      2  C   UNL     1      68.720  48.692   8.892  1.00  0.00     0.100 A 
ATOM      3  C   UNL     1      70.007  49.229   8.825  1.00  0.00     0.197 A 
ATOM      4  O   UNL     1      70.255  50.261   9.500  1.00  0.00    -0.289 OA
ATOM      5  C   UNL     1      70.996  48.587   8.042  1.00  0.00     0.107 A 
ATOM      6  C   UNL     1      72.329  49.066   7.868  1.00  0.00     0.134 A 
ATOM      7  C   UNL     1      73.255  48.286   7.164  1.00  0.00     0.093 A 
ATOM      8  C   UNL     1      72.883  47.076   6.579  1.00  0.00     0.123 A 
ATOM      9  C   UNL     1      71.568  46.625   6.698  1.00  0.00     0.094 A 
ATOM     10  C   UNL     1      70.629  47.363   7.423  1.00  0.00     0.146 A 
ATOM     11  O   UNL     1      69.390  46.893   7.525  1.00  0.00    -0.456 OA
ENDROOT
BRANCH   1  12
ATOM     12  C   UNL     1      67.077  46.890   8.244  1.00  0.00     0.021 A 
ATOM     13  C   UNL     1      66.845  45.581   7.783  1.00  0.00     0.016 A 
ATOM     14  C   UNL     1      65.564  45.026   7.840  1.00  0.00     0.051 A 
ATOM     15  C   UNL     1      64.495  45.763   8.362  1.00  0.00     0.157 A 
ATOM     16  C   UNL     1      66.000  47.620   8.781  1.00  0.00     0.062 A 
ATOM     17  C   UNL     1      64.716  47.066   8.837  1.00  0.00     0.158 A 
BRANCH  15  18
ATOM     18  O   UNL     1      63.218  45.206   8.415  1.00  0.00    -0.504 OA
ATOM     19  H   UNL     1      62.967  44.400   7.853  1.00  0.00     0.293 HD
ENDBRANCH  15  18
BRANCH  17  20
ATOM     20  O   UNL     1      63.674  47.825   9.368  1.00  0.00    -0.504 OA
ATOM     21  H   UNL     1      62.714  47.500   9.364  1.00  0.00     0.293 HD
ENDBRANCH  17  20
ENDBRANCH   1  12
BRANCH   6  22
ATOM     22  O   UNL     1      72.785  50.302   8.338  1.00  0.00    -0.507 OA
ATOM     23  H   UNL     1      73.717  50.661   8.204  1.00  0.00     0.293 HD
ENDBRANCH   6  22
BRANCH   8  24
ATOM     24  O   UNL     1      73.827  46.334   5.874  1.00  0.00    -0.508 OA
ATOM     25  H   UNL     1      74.111  45.410   6.180  1.00  0.00     0.293 HD
ENDBRANCH   8  24
TORSDOF 5
ENDMDL
