MODEL 1
REMARK VINA RESULT:    -5.539      0.000      0.000
REMARK INTER + INTRA:          -7.016
REMARK INTER:                  -6.672
REMARK INTRA:                  -0.344
REMARK UNBOUND:                -0.344
REMARK SMILES O=c1c(O)c(-c2ccc(O)cc2O)oc2cc(O)cc(O)c12
REMARK SMILES IDX 5 1 3 2 2 3 1 4 22 5 20 6 19 7 17 8 16 9 15 10 14 11 6 12
REMARK SMILES IDX 8 13 7 14 9 15 11 16 12 17 10 18 13 20 4 22 21 24 18 26
REMARK H PARENT 10 19 13 21 4 23 21 25 18 27
REMARK Flexibility Score: inf
ROOT
ATOM      1  C   UNL     1      15.467  55.658  32.820  1.00  0.00     0.184 A 
ATOM      2  C   UNL     1      15.125  54.717  33.803  1.00  0.00     0.208 A 
ATOM      3  C   UNL     1      14.797  53.411  33.409  1.00  0.00     0.238 A 
ATOM      4  O   UNL     1      14.544  52.557  34.299  1.00  0.00    -0.285 OA
ATOM      5  C   UNL     1      14.800  53.068  32.036  1.00  0.00     0.111 A 
ATOM      6  C   UNL     1      14.446  51.785  31.519  1.00  0.00     0.134 A 
ATOM      7  C   UNL     1      14.610  51.520  30.154  1.00  0.00     0.093 A 
ATOM      8  C   UNL     1      15.053  52.512  29.277  1.00  0.00     0.123 A 
ATOM      9  C   UNL     1      15.345  53.785  29.761  1.00  0.00     0.094 A 
ATOM     10  C   UNL     1      15.226  54.069  31.124  1.00  0.00     0.146 A 
ATOM     11  O   UNL     1      15.525  55.292  31.545  1.00  0.00    -0.451 OA
ENDROOT
BRANCH   1  12
ATOM     12  C   UNL     1      15.806  57.055  33.165  1.00  0.00     0.063 A 
ATOM     13  C   UNL     1      15.138  59.170  34.159  1.00  0.00     0.047 A 
ATOM     14  C   UNL     1      14.848  57.847  33.815  1.00  0.00     0.020 A 
ATOM     15  C   UNL     1      16.393  59.712  33.873  1.00  0.00     0.119 A 
ATOM     16  C   UNL     1      17.364  58.923  33.246  1.00  0.00     0.093 A 
ATOM     17  C   UNL     1      17.083  57.592  32.902  1.00  0.00     0.130 A 
BRANCH  15  18
ATOM     18  O   UNL     1      16.667  61.034  34.219  1.00  0.00    -0.508 OA
ATOM     19  H   UNL     1      16.713  61.329  35.187  1.00  0.00     0.293 HD
ENDBRANCH  15  18
BRANCH  17  20
ATOM     20  O   UNL     1      18.076  56.800  32.322  1.00  0.00    -0.507 OA
ATOM     21  H   UNL     1      18.221  56.780  31.319  1.00  0.00     0.293 HD
ENDBRANCH  17  20
ENDBRANCH   1  12
BRANCH   2  22
ATOM     22  O   UNL     1      15.148  55.077  35.153  1.00  0.00    -0.502 OA
ATOM     23  H   UNL     1      15.470  55.984  35.468  1.00  0.00     0.293 HD
ENDBRANCH   2  22
BRANCH   6  24
ATOM     24  O   UNL     1      13.907  50.753  32.295  1.00  0.00    -0.507 OA
ATOM     25  H   UNL     1      13.207  50.101  31.976  1.00  0.00     0.293 HD
ENDBRANCH   6  24
BRANCH   8  26
ATOM     26  O   UNL     1      15.198  52.244  27.916  1.00  0.00    -0.508 OA
ATOM     27  H   UNL     1      15.480  52.964  27.261  1.00  0.00     0.293 HD
ENDBRANCH   8  26
TORSDOF 6
ENDMDL
MODEL 2
REMARK VINA RESULT:    -5.325      1.239      2.946
REMARK INTER + INTRA:          -6.758
REMARK INTER:                  -6.365
REMARK INTRA:                  -0.392
REMARK UNBOUND:                -0.344
REMARK SMILES O=c1c(O)c(-c2ccc(O)cc2O)oc2cc(O)cc(O)c12
REMARK SMILES IDX 5 1 3 2 2 3 1 4 22 5 20 6 19 7 17 8 16 9 15 10 14 11 6 12
REMARK SMILES IDX 8 13 7 14 9 15 11 16 12 17 10 18 13 20 4 22 21 24 18 26
REMARK H PARENT 10 19 13 21 4 23 21 25 18 27
REMARK Flexibility Score: inf
ROOT
ATOM      1  C   UNL     1      15.652  56.356  31.727  1.00  0.00     0.184 A 
ATOM      2  C   UNL     1      15.759  56.367  30.327  1.00  0.00     0.208 A 
ATOM      3  C   UNL     1      15.563  55.169  29.621  1.00  0.00     0.238 A 
ATOM      4  O   UNL     1      15.607  55.196  28.363  1.00  0.00    -0.285 OA
ATOM      5  C   UNL     1      15.281  53.974  30.325  1.00  0.00     0.111 A 
ATOM      6  C   UNL     1      15.103  52.696  29.715  1.00  0.00     0.134 A 
ATOM      7  C   UNL     1      14.698  51.607  30.497  1.00  0.00     0.093 A 
ATOM      8  C   UNL     1      14.528  51.736  31.877  1.00  0.00     0.123 A 
ATOM      9  C   UNL     1      14.756  52.965  32.491  1.00  0.00     0.094 A 
ATOM     10  C   UNL     1      15.125  54.079  31.732  1.00  0.00     0.146 A 
ATOM     11  O   UNL     1      15.321  55.234  32.356  1.00  0.00    -0.451 OA
ENDROOT
BRANCH   1  12
ATOM     12  C   UNL     1      15.863  57.577  32.532  1.00  0.00     0.063 A 
ATOM     13  C   UNL     1      14.909  59.445  33.760  1.00  0.00     0.047 A 
ATOM     14  C   UNL     1      14.745  58.289  32.992  1.00  0.00     0.020 A 
ATOM     15  C   UNL     1      16.190  59.895  34.090  1.00  0.00     0.119 A 
ATOM     16  C   UNL     1      17.311  59.178  33.656  1.00  0.00     0.093 A 
ATOM     17  C   UNL     1      17.155  58.013  32.889  1.00  0.00     0.130 A 
BRANCH  15  18
ATOM     18  O   UNL     1      16.337  61.051  34.853  1.00  0.00    -0.508 OA
ATOM     19  H   UNL     1      16.618  61.929  34.435  1.00  0.00     0.293 HD
ENDBRANCH  15  18
BRANCH  17  20
ATOM     20  O   UNL     1      18.279  57.280  32.504  1.00  0.00    -0.507 OA
ATOM     21  H   UNL     1      18.630  57.307  31.553  1.00  0.00     0.293 HD
ENDBRANCH  17  20
ENDBRANCH   1  12
BRANCH   2  22
ATOM     22  O   UNL     1      16.021  57.564  29.656  1.00  0.00    -0.502 OA
ATOM     23  H   UNL     1      16.825  57.683  29.053  1.00  0.00     0.293 HD
ENDBRANCH   2  22
BRANCH   6  24
ATOM     24  O   UNL     1      15.338  52.439  28.361  1.00  0.00    -0.507 OA
ATOM     25  H   UNL     1      14.909  51.692  27.836  1.00  0.00     0.293 HD
ENDBRANCH   6  24
BRANCH   8  26
ATOM     26  O   UNL     1      14.140  50.643  32.650  1.00  0.00    -0.508 OA
ATOM     27  H   UNL     1      13.234  50.609  33.103  1.00  0.00     0.293 HD
ENDBRANCH   8  26
TORSDOF 6
ENDMDL
MODEL 3
REMARK VINA RESULT:    -5.241      2.366      4.981
REMARK INTER + INTRA:          -6.657
REMARK INTER:                  -6.354
REMARK INTRA:                  -0.303
REMARK UNBOUND:                -0.344
REMARK SMILES O=c1c(O)c(-c2ccc(O)cc2O)oc2cc(O)cc(O)c12
REMARK SMILES IDX 5 1 3 2 2 3 1 4 22 5 20 6 19 7 17 8 16 9 15 10 14 11 6 12
REMARK SMILES IDX 8 13 7 14 9 15 11 16 12 17 10 18 13 20 4 22 21 24 18 26
REMARK H PARENT 10 19 13 21 4 23 21 25 18 27
REMARK Flexibility Score: inf
ROOT
ATOM      1  C   UNL     1      14.491  55.037  33.140  1.00  0.00     0.184 A 
ATOM      2  C   UNL     1      14.660  56.430  33.102  1.00  0.00     0.208 A 
ATOM      3  C   UNL     1      15.064  57.033  31.901  1.00  0.00     0.238 A 
ATOM      4  O   UNL     1      15.162  58.288  31.858  1.00  0.00    -0.285 OA
ATOM      5  C   UNL     1      15.310  56.234  30.759  1.00  0.00     0.111 A 
ATOM      6  C   UNL     1      15.761  56.735  29.500  1.00  0.00     0.134 A 
ATOM      7  C   UNL     1      15.846  55.870  28.403  1.00  0.00     0.093 A 
ATOM      8  C   UNL     1      15.558  54.509  28.535  1.00  0.00     0.123 A 
ATOM      9  C   UNL     1      15.174  54.000  29.772  1.00  0.00     0.094 A 
ATOM     10  C   UNL     1      15.044  54.844  30.878  1.00  0.00     0.146 A 
ATOM     11  O   UNL     1      14.665  54.320  32.036  1.00  0.00    -0.451 OA
ENDROOT
BRANCH   1  12
ATOM     12  C   UNL     1      14.084  54.336  34.376  1.00  0.00     0.063 A 
ATOM     13  C   UNL     1      12.445  54.026  36.144  1.00  0.00     0.047 A 
ATOM     14  C   UNL     1      12.862  54.673  34.977  1.00  0.00     0.020 A 
ATOM     15  C   UNL     1      13.236  53.026  36.714  1.00  0.00     0.119 A 
ATOM     16  C   UNL     1      14.445  52.666  36.109  1.00  0.00     0.093 A 
ATOM     17  C   UNL     1      14.869  53.307  34.935  1.00  0.00     0.130 A 
BRANCH  15  18
ATOM     18  O   UNL     1      12.808  52.393  37.880  1.00  0.00    -0.508 OA
ATOM     19  H   UNL     1      12.333  51.499  37.853  1.00  0.00     0.293 HD
ENDBRANCH  15  18
BRANCH  17  20
ATOM     20  O   UNL     1      16.052  52.905  34.313  1.00  0.00    -0.507 OA
ATOM     21  H   UNL     1      16.803  53.561  34.127  1.00  0.00     0.293 HD
ENDBRANCH  17  20
ENDBRANCH   1  12
BRANCH   2  22
ATOM     22  O   UNL     1      14.393  57.197  34.239  1.00  0.00    -0.502 OA
ATOM     23  H   UNL     1      15.119  57.688  34.745  1.00  0.00     0.293 HD
ENDBRANCH   2  22
BRANCH   6  24
ATOM     24  O   UNL     1      16.162  58.057  29.285  1.00  0.00    -0.507 OA
ATOM     25  H   UNL     1      15.533  58.836  29.167  1.00  0.00     0.293 HD
ENDBRANCH   6  24
BRANCH   8  26
ATOM     26  O   UNL     1      15.660  53.652  27.440  1.00  0.00    -0.508 OA
ATOM     27  H   UNL     1      16.282  53.853  26.665  1.00  0.00     0.293 HD
ENDBRANCH   8  26
TORSDOF 6
ENDMDL
MODEL 4
REMARK VINA RESULT:    -4.954      2.647      7.893
REMARK INTER + INTRA:          -6.311
REMARK INTER:                  -5.973
REMARK INTRA:                  -0.338
REMARK UNBOUND:                -0.344
REMARK SMILES O=c1c(O)c(-c2ccc(O)cc2O)oc2cc(O)cc(O)c12
REMARK SMILES IDX 5 1 3 2 2 3 1 4 22 5 20 6 19 7 17 8 16 9 15 10 14 11 6 12
REMARK SMILES IDX 8 13 7 14 9 15 11 16 12 17 10 18 13 20 4 22 21 24 18 26
REMARK H PARENT 10 19 13 21 4 23 21 25 18 27
REMARK Flexibility Score: inf
ROOT
ATOM      1  C   UNL     1      14.639  50.999  32.150  1.00  0.00     0.184 A 
ATOM      2  C   UNL     1      14.715  51.918  31.093  1.00  0.00     0.208 A 
ATOM      3  C   UNL     1      14.797  53.288  31.387  1.00  0.00     0.238 A 
ATOM      4  O   UNL     1      14.920  54.103  30.436  1.00  0.00    -0.285 OA
ATOM      5  C   UNL     1      14.785  53.721  32.735  1.00  0.00     0.111 A 
ATOM      6  C   UNL     1      14.824  55.087  33.148  1.00  0.00     0.134 A 
ATOM      7  C   UNL     1      14.939  55.394  34.509  1.00  0.00     0.093 A 
ATOM      8  C   UNL     1      14.950  54.385  35.476  1.00  0.00     0.123 A 
ATOM      9  C   UNL     1      14.854  53.052  35.087  1.00  0.00     0.094 A 
ATOM     10  C   UNL     1      14.775  52.712  33.734  1.00  0.00     0.146 A 
ATOM     11  O   UNL     1      14.696  51.429  33.405  1.00  0.00    -0.451 OA
ENDROOT
BRANCH   1  12
ATOM     12  C   UNL     1      14.533  49.544  31.910  1.00  0.00     0.063 A 
ATOM     13  C   UNL     1      13.168  47.533  31.907  1.00  0.00     0.047 A 
ATOM     14  C   UNL     1      13.303  48.906  32.128  1.00  0.00     0.020 A 
ATOM     15  C   UNL     1      14.256  46.784  31.450  1.00  0.00     0.119 A 
ATOM     16  C   UNL     1      15.481  47.416  31.207  1.00  0.00     0.093 A 
ATOM     17  C   UNL     1      15.623  48.795  31.422  1.00  0.00     0.130 A 
BRANCH  15  18
ATOM     18  O   UNL     1      14.107  45.415  31.237  1.00  0.00    -0.508 OA
ATOM     19  H   UNL     1      14.488  44.963  30.414  1.00  0.00     0.293 HD
ENDBRANCH  15  18
BRANCH  17  20
ATOM     20  O   UNL     1      16.836  49.422  31.128  1.00  0.00    -0.507 OA
ATOM     21  H   UNL     1      17.724  49.010  31.391  1.00  0.00     0.293 HD
ENDBRANCH  17  20
ENDBRANCH   1  12
BRANCH   2  22
ATOM     22  O   UNL     1      14.744  51.462  29.772  1.00  0.00    -0.502 OA
ATOM     23  H   UNL     1      14.922  52.078  28.989  1.00  0.00     0.293 HD
ENDBRANCH   2  22
BRANCH   6  24
ATOM     24  O   UNL     1      14.725  56.171  32.270  1.00  0.00    -0.507 OA
ATOM     25  H   UNL     1      13.925  56.368  31.689  1.00  0.00     0.293 HD
ENDBRANCH   6  24
BRANCH   8  26
ATOM     26  O   UNL     1      15.049  54.701  36.830  1.00  0.00    -0.508 OA
ATOM     27  H   UNL     1      15.924  55.004  37.241  1.00  0.00     0.293 HD
ENDBRANCH   8  26
TORSDOF 6
ENDMDL
MODEL 5
REMARK VINA RESULT:    -4.952      2.416      5.327
REMARK INTER + INTRA:          -6.308
REMARK INTER:                  -5.973
REMARK INTRA:                  -0.335
REMARK UNBOUND:                -0.344
REMARK SMILES O=c1c(O)c(-c2ccc(O)cc2O)oc2cc(O)cc(O)c12
REMARK SMILES IDX 5 1 3 2 2 3 1 4 22 5 20 6 19 7 17 8 16 9 15 10 14 11 6 12
REMARK SMILES IDX 8 13 7 14 9 15 11 16 12 17 10 18 13 20 4 22 21 24 18 26
REMARK H PARENT 10 19 13 21 4 23 21 25 18 27
REMARK Flexibility Score: inf
ROOT
ATOM      1  C   UNL     1      14.437  54.179  32.712  1.00  0.00     0.184 A 
ATOM      2  C   UNL     1      14.567  53.260  31.659  1.00  0.00     0.208 A 
ATOM      3  C   UNL     1      14.927  53.731  30.387  1.00  0.00     0.238 A 
ATOM      4  O   UNL     1      15.095  52.896  29.460  1.00  0.00    -0.285 OA
ATOM      5  C   UNL     1      15.137  55.115  30.181  1.00  0.00     0.111 A 
ATOM      6  C   UNL     1      15.467  55.708  28.925  1.00  0.00     0.134 A 
ATOM      7  C   UNL     1      15.780  57.071  28.865  1.00  0.00     0.093 A 
ATOM      8  C   UNL     1      15.710  57.877  30.004  1.00  0.00     0.123 A 
ATOM      9  C   UNL     1      15.332  57.320  31.223  1.00  0.00     0.094 A 
ATOM     10  C   UNL     1      15.050  55.955  31.323  1.00  0.00     0.146 A 
ATOM     11  O   UNL     1      14.703  55.463  32.506  1.00  0.00    -0.451 OA
ENDROOT
BRANCH   1  12
ATOM     12  C   UNL     1      14.043  53.753  34.072  1.00  0.00     0.063 A 
ATOM     13  C   UNL     1      12.346  53.659  35.809  1.00  0.00     0.047 A 
ATOM     14  C   UNL     1      12.751  54.051  34.531  1.00  0.00     0.020 A 
ATOM     15  C   UNL     1      13.221  52.951  36.638  1.00  0.00     0.119 A 
ATOM     16  C   UNL     1      14.504  52.628  36.180  1.00  0.00     0.093 A 
ATOM     17  C   UNL     1      14.916  53.014  34.896  1.00  0.00     0.130 A 
BRANCH  15  18
ATOM     18  O   UNL     1      12.804  52.570  37.912  1.00  0.00    -0.508 OA
ATOM     19  H   UNL     1      11.995  52.991  38.352  1.00  0.00     0.293 HD
ENDBRANCH  15  18
BRANCH  17  20
ATOM     20  O   UNL     1      16.180  52.644  34.432  1.00  0.00    -0.507 OA
ATOM     21  H   UNL     1      16.475  52.839  33.482  1.00  0.00     0.293 HD
ENDBRANCH  17  20
ENDBRANCH   1  12
BRANCH   2  22
ATOM     22  O   UNL     1      14.372  51.897  31.894  1.00  0.00    -0.502 OA
ATOM     23  H   UNL     1      14.259  51.517  32.825  1.00  0.00     0.293 HD
ENDBRANCH   2  22
BRANCH   6  24
ATOM     24  O   UNL     1      15.475  55.012  27.712  1.00  0.00    -0.507 OA
ATOM     25  H   UNL     1      15.284  54.027  27.614  1.00  0.00     0.293 HD
ENDBRANCH   6  24
BRANCH   8  26
ATOM     26  O   UNL     1      16.008  59.237  29.932  1.00  0.00    -0.508 OA
ATOM     27  H   UNL     1      15.286  59.930  29.776  1.00  0.00     0.293 HD
ENDBRANCH   8  26
TORSDOF 6
ENDMDL
MODEL 6
REMARK VINA RESULT:    -4.932      1.634      7.050
REMARK INTER + INTRA:          -6.284
REMARK INTER:                  -5.863
REMARK INTRA:                  -0.422
REMARK UNBOUND:                -0.344
REMARK SMILES O=c1c(O)c(-c2ccc(O)cc2O)oc2cc(O)cc(O)c12
REMARK SMILES IDX 5 1 3 2 2 3 1 4 22 5 20 6 19 7 17 8 16 9 15 10 14 11 6 12
REMARK SMILES IDX 8 13 7 14 9 15 11 16 12 17 10 18 13 20 4 22 21 24 18 26
REMARK H PARENT 10 19 13 21 4 23 21 25 18 27
REMARK Flexibility Score: inf
ROOT
ATOM      1  C   UNL     1      15.368  56.452  32.510  1.00  0.00     0.184 A 
ATOM      2  C   UNL     1      16.671  56.962  32.618  1.00  0.00     0.208 A 
ATOM      3  C   UNL     1      16.854  58.254  33.137  1.00  0.00     0.238 A 
ATOM      4  O   UNL     1      18.028  58.685  33.282  1.00  0.00    -0.285 OA
ATOM      5  C   UNL     1      15.731  59.023  33.526  1.00  0.00     0.111 A 
ATOM      6  C   UNL     1      15.796  60.358  34.027  1.00  0.00     0.134 A 
ATOM      7  C   UNL     1      14.633  60.975  34.503  1.00  0.00     0.093 A 
ATOM      8  C   UNL     1      13.396  60.330  34.433  1.00  0.00     0.123 A 
ATOM      9  C   UNL     1      13.312  59.050  33.891  1.00  0.00     0.094 A 
ATOM     10  C   UNL     1      14.461  58.393  33.443  1.00  0.00     0.146 A 
ATOM     11  O   UNL     1      14.339  57.170  32.943  1.00  0.00    -0.451 OA
ENDROOT
BRANCH   1  12
ATOM     12  C   UNL     1      15.104  55.107  31.956  1.00  0.00     0.063 A 
ATOM     13  C   UNL     1      14.900  53.665  30.010  1.00  0.00     0.047 A 
ATOM     14  C   UNL     1      15.140  54.925  30.566  1.00  0.00     0.020 A 
ATOM     15  C   UNL     1      14.635  52.571  30.838  1.00  0.00     0.119 A 
ATOM     16  C   UNL     1      14.620  52.738  32.227  1.00  0.00     0.093 A 
ATOM     17  C   UNL     1      14.866  53.998  32.793  1.00  0.00     0.130 A 
BRANCH  15  18
ATOM     18  O   UNL     1      14.393  51.322  30.269  1.00  0.00    -0.508 OA
ATOM     19  H   UNL     1      14.991  50.946  29.543  1.00  0.00     0.293 HD
ENDBRANCH  15  18
BRANCH  17  20
ATOM     20  O   UNL     1      14.897  54.141  34.181  1.00  0.00    -0.507 OA
ATOM     21  H   UNL     1      14.572  53.406  34.799  1.00  0.00     0.293 HD
ENDBRANCH  17  20
ENDBRANCH   1  12
BRANCH   2  22
ATOM     22  O   UNL     1      17.763  56.175  32.245  1.00  0.00    -0.502 OA
ATOM     23  H   UNL     1      18.109  56.143  31.294  1.00  0.00     0.293 HD
ENDBRANCH   2  22
BRANCH   6  24
ATOM     24  O   UNL     1      16.965  61.125  34.055  1.00  0.00    -0.507 OA
ATOM     25  H   UNL     1      17.595  61.239  33.276  1.00  0.00     0.293 HD
ENDBRANCH   6  24
BRANCH   8  26
ATOM     26  O   UNL     1      12.240  60.958  34.895  1.00  0.00    -0.508 OA
ATOM     27  H   UNL     1      11.532  61.300  34.256  1.00  0.00     0.293 HD
ENDBRANCH   8  26
TORSDOF 6
ENDMDL
MODEL 7
REMARK VINA RESULT:    -4.916      1.835      6.818
REMARK INTER + INTRA:          -6.265
REMARK INTER:                  -5.851
REMARK INTRA:                  -0.415
REMARK UNBOUND:                -0.344
REMARK SMILES O=c1c(O)c(-c2ccc(O)cc2O)oc2cc(O)cc(O)c12
REMARK SMILES IDX 5 1 3 2 2 3 1 4 22 5 20 6 19 7 17 8 16 9 15 10 14 11 6 12
REMARK SMILES IDX 8 13 7 14 9 15 11 16 12 17 10 18 13 20 4 22 21 24 18 26
REMARK H PARENT 10 19 13 21 4 23 21 25 18 27
REMARK Flexibility Score: inf
ROOT
ATOM      1  C   UNL     1      14.587  56.218  33.345  1.00  0.00     0.184 A 
ATOM      2  C   UNL     1      13.368  56.782  33.753  1.00  0.00     0.208 A 
ATOM      3  C   UNL     1      13.306  58.163  33.997  1.00  0.00     0.238 A 
ATOM      4  O   UNL     1      12.198  58.671  34.311  1.00  0.00    -0.285 OA
ATOM      5  C   UNL     1      14.468  58.958  33.846  1.00  0.00     0.111 A 
ATOM      6  C   UNL     1      14.530  60.360  34.105  1.00  0.00     0.134 A 
ATOM      7  C   UNL     1      15.697  61.069  33.797  1.00  0.00     0.093 A 
ATOM      8  C   UNL     1      16.827  60.414  33.300  1.00  0.00     0.123 A 
ATOM      9  C   UNL     1      16.796  59.036  33.100  1.00  0.00     0.094 A 
ATOM     10  C   UNL     1      15.633  58.307  33.363  1.00  0.00     0.146 A 
ATOM     11  O   UNL     1      15.643  56.998  33.148  1.00  0.00    -0.451 OA
ENDROOT
BRANCH   1  12
ATOM     12  C   UNL     1      14.726  54.769  33.088  1.00  0.00     0.063 A 
ATOM     13  C   UNL     1      14.655  52.924  31.507  1.00  0.00     0.047 A 
ATOM     14  C   UNL     1      14.527  54.288  31.785  1.00  0.00     0.020 A 
ATOM     15  C   UNL     1      14.998  52.028  32.522  1.00  0.00     0.119 A 
ATOM     16  C   UNL     1      15.222  52.502  33.820  1.00  0.00     0.093 A 
ATOM     17  C   UNL     1      15.101  53.870  34.107  1.00  0.00     0.130 A 
BRANCH  15  18
ATOM     18  O   UNL     1      15.119  50.671  32.230  1.00  0.00    -0.508 OA
ATOM     19  H   UNL     1      14.646  49.967  32.782  1.00  0.00     0.293 HD
ENDBRANCH  15  18
BRANCH  17  20
ATOM     20  O   UNL     1      15.375  54.336  35.394  1.00  0.00    -0.507 OA
ATOM     21  H   UNL     1      16.248  54.801  35.616  1.00  0.00     0.293 HD
ENDBRANCH  17  20
ENDBRANCH   1  12
BRANCH   2  22
ATOM     22  O   UNL     1      12.233  55.977  33.877  1.00  0.00    -0.502 OA
ATOM     23  H   UNL     1      11.710  55.904  34.741  1.00  0.00     0.293 HD
ENDBRANCH   2  22
BRANCH   6  24
ATOM     24  O   UNL     1      13.490  61.094  34.686  1.00  0.00    -0.507 OA
ATOM     25  H   UNL     1      12.731  61.517  34.174  1.00  0.00     0.293 HD
ENDBRANCH   6  24
BRANCH   8  26
ATOM     26  O   UNL     1      17.990  61.125  33.010  1.00  0.00    -0.508 OA
ATOM     27  H   UNL     1      18.666  61.351  33.730  1.00  0.00     0.293 HD
ENDBRANCH   8  26
TORSDOF 6
ENDMDL
MODEL 8
REMARK VINA RESULT:    -4.840      1.834      6.636
REMARK INTER + INTRA:          -6.174
REMARK INTER:                  -5.782
REMARK INTRA:                  -0.393
REMARK UNBOUND:                -0.344
REMARK SMILES O=c1c(O)c(-c2ccc(O)cc2O)oc2cc(O)cc(O)c12
REMARK SMILES IDX 5 1 3 2 2 3 1 4 22 5 20 6 19 7 17 8 16 9 15 10 14 11 6 12
REMARK SMILES IDX 8 13 7 14 9 15 11 16 12 17 10 18 13 20 4 22 21 24 18 26
REMARK H PARENT 10 19 13 21 4 23 21 25 18 27
REMARK Flexibility Score: inf
ROOT
ATOM      1  C   UNL     1      14.521  53.922  32.157  1.00  0.00     0.184 A 
ATOM      2  C   UNL     1      13.371  54.555  32.653  1.00  0.00     0.208 A 
ATOM      3  C   UNL     1      13.463  55.885  33.090  1.00  0.00     0.238 A 
ATOM      4  O   UNL     1      12.417  56.465  33.484  1.00  0.00    -0.285 OA
ATOM      5  C   UNL     1      14.707  56.559  33.039  1.00  0.00     0.111 A 
ATOM      6  C   UNL     1      14.924  57.896  33.492  1.00  0.00     0.134 A 
ATOM      7  C   UNL     1      16.165  58.506  33.273  1.00  0.00     0.093 A 
ATOM      8  C   UNL     1      17.217  57.805  32.677  1.00  0.00     0.123 A 
ATOM      9  C   UNL     1      17.033  56.482  32.285  1.00  0.00     0.094 A 
ATOM     10  C   UNL     1      15.795  55.857  32.457  1.00  0.00     0.146 A 
ATOM     11  O   UNL     1      15.659  54.598  32.059  1.00  0.00    -0.451 OA
ENDROOT
BRANCH   1  12
ATOM     12  C   UNL     1      14.497  52.517  31.696  1.00  0.00     0.063 A 
ATOM     13  C   UNL     1      14.225  50.161  32.229  1.00  0.00     0.047 A 
ATOM     14  C   UNL     1      14.258  51.499  32.631  1.00  0.00     0.020 A 
ATOM     15  C   UNL     1      14.415  49.826  30.886  1.00  0.00     0.119 A 
ATOM     16  C   UNL     1      14.630  50.836  29.941  1.00  0.00     0.093 A 
ATOM     17  C   UNL     1      14.660  52.182  30.336  1.00  0.00     0.130 A 
BRANCH  15  18
ATOM     18  O   UNL     1      14.382  48.487  30.500  1.00  0.00    -0.508 OA
ATOM     19  H   UNL     1      14.253  47.745  31.176  1.00  0.00     0.293 HD
ENDBRANCH  15  18
BRANCH  17  20
ATOM     20  O   UNL     1      14.826  53.184  29.378  1.00  0.00    -0.507 OA
ATOM     21  H   UNL     1      15.702  53.684  29.279  1.00  0.00     0.293 HD
ENDBRANCH  17  20
ENDBRANCH   1  12
BRANCH   2  22
ATOM     22  O   UNL     1      12.152  53.872  32.675  1.00  0.00    -0.502 OA
ATOM     23  H   UNL     1      11.994  53.062  33.261  1.00  0.00     0.293 HD
ENDBRANCH   2  22
BRANCH   6  24
ATOM     24  O   UNL     1      13.971  58.651  34.181  1.00  0.00    -0.507 OA
ATOM     25  H   UNL     1      13.559  58.389  35.064  1.00  0.00     0.293 HD
ENDBRANCH   6  24
BRANCH   8  26
ATOM     26  O   UNL     1      18.454  58.416  32.478  1.00  0.00    -0.508 OA
ATOM     27  H   UNL     1      18.801  58.620  31.547  1.00  0.00     0.293 HD
ENDBRANCH   8  26
TORSDOF 6
ENDMDL
