MODEL 1
REMARK VINA RESULT:    -6.538      0.000      0.000
REMARK INTER + INTRA:          -8.346
REMARK INTER:                  -7.876
REMARK INTRA:                  -0.470
REMARK UNBOUND:                -0.470
REMARK SMILES O=c1c(O)c(-c2ccc(O)cc2O)oc2cc(O)cc(O)c12
REMARK SMILES IDX 5 1 3 2 2 3 1 4 22 5 20 6 19 7 17 8 16 9 15 10 14 11 6 12
REMARK SMILES IDX 8 13 7 14 9 15 11 16 12 17 10 18 13 20 4 22 21 24 18 26
REMARK H PARENT 10 19 13 21 4 23 21 25 18 27
REMARK Flexibility Score: inf
ROOT
ATOM      1  C   UNL     1      -5.920 -22.020  34.949  1.00  0.00     0.184 A 
ATOM      2  C   UNL     1      -6.804 -21.111  35.552  1.00  0.00     0.208 A 
ATOM      3  C   UNL     1      -6.519 -19.737  35.487  1.00  0.00     0.238 A 
ATOM      4  O   UNL     1      -7.343 -18.924  35.980  1.00  0.00    -0.285 OA
ATOM      5  C   UNL     1      -5.341 -19.294  34.838  1.00  0.00     0.111 A 
ATOM      6  C   UNL     1      -4.932 -17.929  34.746  1.00  0.00     0.134 A 
ATOM      7  C   UNL     1      -3.816 -17.594  33.969  1.00  0.00     0.093 A 
ATOM      8  C   UNL     1      -3.057 -18.581  33.335  1.00  0.00     0.123 A 
ATOM      9  C   UNL     1      -3.414 -19.920  33.467  1.00  0.00     0.094 A 
ATOM     10  C   UNL     1      -4.544 -20.283  34.205  1.00  0.00     0.146 A 
ATOM     11  O   UNL     1      -4.856 -21.569  34.296  1.00  0.00    -0.451 OA
ENDROOT
BRANCH   1  12
ATOM     12  C   UNL     1      -6.148 -23.483  35.002  1.00  0.00     0.063 A 
ATOM     13  C   UNL     1      -6.177 -25.571  36.254  1.00  0.00     0.047 A 
ATOM     14  C   UNL     1      -5.989 -24.186  36.209  1.00  0.00     0.020 A 
ATOM     15  C   UNL     1      -6.516 -26.271  35.091  1.00  0.00     0.119 A 
ATOM     16  C   UNL     1      -6.663 -25.584  33.883  1.00  0.00     0.093 A 
ATOM     17  C   UNL     1      -6.478 -24.195  33.829  1.00  0.00     0.130 A 
BRANCH  15  18
ATOM     18  O   UNL     1      -6.705 -27.651  35.124  1.00  0.00    -0.508 OA
ATOM     19  H   UNL     1      -6.207 -28.239  35.782  1.00  0.00     0.293 HD
ENDBRANCH  15  18
BRANCH  17  20
ATOM     20  O   UNL     1      -6.634 -23.520  32.619  1.00  0.00    -0.507 OA
ATOM     21  H   UNL     1      -7.003 -23.982  31.796  1.00  0.00     0.293 HD
ENDBRANCH  17  20
ENDBRANCH   1  12
BRANCH   2  22
ATOM     22  O   UNL     1      -7.967 -21.571  36.176  1.00  0.00    -0.502 OA
ATOM     23  H   UNL     1      -8.046 -21.658  37.182  1.00  0.00     0.293 HD
ENDBRANCH   2  22
BRANCH   6  24
ATOM     24  O   UNL     1      -5.565 -16.877  35.414  1.00  0.00    -0.507 OA
ATOM     25  H   UNL     1      -5.584 -15.921  35.094  1.00  0.00     0.293 HD
ENDBRANCH   6  24
BRANCH   8  26
ATOM     26  O   UNL     1      -1.938 -18.239  32.578  1.00  0.00    -0.508 OA
ATOM     27  H   UNL     1      -1.013 -18.197  32.987  1.00  0.00     0.293 HD
ENDBRANCH   8  26
TORSDOF 6
ENDMDL
MODEL 2
REMARK VINA RESULT:    -6.132      2.254      3.132
REMARK INTER + INTRA:          -7.857
REMARK INTER:                  -7.481
REMARK INTRA:                  -0.377
REMARK UNBOUND:                -0.470
REMARK SMILES O=c1c(O)c(-c2ccc(O)cc2O)oc2cc(O)cc(O)c12
REMARK SMILES IDX 5 1 3 2 2 3 1 4 22 5 20 6 19 7 17 8 16 9 15 10 14 11 6 12
REMARK SMILES IDX 8 13 7 14 9 15 11 16 12 17 10 18 13 20 4 22 21 24 18 26
REMARK H PARENT 10 19 13 21 4 23 21 25 18 27
REMARK Flexibility Score: inf
ROOT
ATOM      1  C   UNL     1      -6.581 -23.742  35.086  1.00  0.00     0.184 A 
ATOM      2  C   UNL     1      -7.032 -22.713  34.243  1.00  0.00     0.208 A 
ATOM      3  C   UNL     1      -6.289 -21.524  34.161  1.00  0.00     0.238 A 
ATOM      4  O   UNL     1      -6.667 -20.628  33.361  1.00  0.00    -0.285 OA
ATOM      5  C   UNL     1      -5.116 -21.373  34.940  1.00  0.00     0.111 A 
ATOM      6  C   UNL     1      -4.307 -20.197  34.965  1.00  0.00     0.134 A 
ATOM      7  C   UNL     1      -3.099 -20.205  35.674  1.00  0.00     0.093 A 
ATOM      8  C   UNL     1      -2.704 -21.324  36.410  1.00  0.00     0.123 A 
ATOM      9  C   UNL     1      -3.515 -22.456  36.438  1.00  0.00     0.094 A 
ATOM     10  C   UNL     1      -4.708 -22.491  35.711  1.00  0.00     0.146 A 
ATOM     11  O   UNL     1      -5.446 -23.593  35.757  1.00  0.00    -0.451 OA
ENDROOT
BRANCH   1  12
ATOM     12  C   UNL     1      -7.330 -25.011  35.237  1.00  0.00     0.063 A 
ATOM     13  C   UNL     1      -7.713 -27.325  34.587  1.00  0.00     0.047 A 
ATOM     14  C   UNL     1      -6.990 -26.136  34.465  1.00  0.00     0.020 A 
ATOM     15  C   UNL     1      -8.793 -27.404  35.473  1.00  0.00     0.119 A 
ATOM     16  C   UNL     1      -9.149 -26.287  36.234  1.00  0.00     0.093 A 
ATOM     17  C   UNL     1      -8.427 -25.090  36.121  1.00  0.00     0.130 A 
BRANCH  15  18
ATOM     18  O   UNL     1      -9.521 -28.584  35.601  1.00  0.00    -0.508 OA
ATOM     19  H   UNL     1      -9.090 -29.441  35.927  1.00  0.00     0.293 HD
ENDBRANCH  15  18
BRANCH  17  20
ATOM     20  O   UNL     1      -8.788 -23.985  36.891  1.00  0.00    -0.507 OA
ATOM     21  H   UNL     1      -8.255 -23.124  36.868  1.00  0.00     0.293 HD
ENDBRANCH  17  20
ENDBRANCH   1  12
BRANCH   2  22
ATOM     22  O   UNL     1      -8.186 -22.890  33.474  1.00  0.00    -0.502 OA
ATOM     23  H   UNL     1      -8.947 -22.221  33.472  1.00  0.00     0.293 HD
ENDBRANCH   2  22
BRANCH   6  24
ATOM     24  O   UNL     1      -4.655 -18.995  34.341  1.00  0.00    -0.507 OA
ATOM     25  H   UNL     1      -4.337 -18.083  34.630  1.00  0.00     0.293 HD
ENDBRANCH   6  24
BRANCH   8  26
ATOM     26  O   UNL     1      -1.508 -21.318  37.125  1.00  0.00    -0.508 OA
ATOM     27  H   UNL     1      -1.426 -20.847  38.018  1.00  0.00     0.293 HD
ENDBRANCH   8  26
TORSDOF 6
ENDMDL
MODEL 3
REMARK VINA RESULT:    -6.097      0.782      1.457
REMARK INTER + INTRA:          -7.814
REMARK INTER:                  -7.411
REMARK INTRA:                  -0.404
REMARK UNBOUND:                -0.470
REMARK SMILES O=c1c(O)c(-c2ccc(O)cc2O)oc2cc(O)cc(O)c12
REMARK SMILES IDX 5 1 3 2 2 3 1 4 22 5 20 6 19 7 17 8 16 9 15 10 14 11 6 12
REMARK SMILES IDX 8 13 7 14 9 15 11 16 12 17 10 18 13 20 4 22 21 24 18 26
REMARK H PARENT 10 19 13 21 4 23 21 25 18 27
REMARK Flexibility Score: inf
ROOT
ATOM      1  C   UNL     1      -5.906 -22.101  34.991  1.00  0.00     0.184 A 
ATOM      2  C   UNL     1      -6.819 -21.222  35.596  1.00  0.00     0.208 A 
ATOM      3  C   UNL     1      -6.581 -19.839  35.530  1.00  0.00     0.238 A 
ATOM      4  O   UNL     1      -7.431 -19.055  36.024  1.00  0.00    -0.285 OA
ATOM      5  C   UNL     1      -5.421 -19.356  34.877  1.00  0.00     0.111 A 
ATOM      6  C   UNL     1      -5.059 -17.979  34.783  1.00  0.00     0.134 A 
ATOM      7  C   UNL     1      -3.957 -17.606  34.004  1.00  0.00     0.093 A 
ATOM      8  C   UNL     1      -3.166 -18.567  33.368  1.00  0.00     0.123 A 
ATOM      9  C   UNL     1      -3.477 -19.917  33.501  1.00  0.00     0.094 A 
ATOM     10  C   UNL     1      -4.593 -20.318  34.242  1.00  0.00     0.146 A 
ATOM     11  O   UNL     1      -4.860 -21.615  34.334  1.00  0.00    -0.451 OA
ENDROOT
BRANCH   1  12
ATOM     12  C   UNL     1      -6.084 -23.570  35.045  1.00  0.00     0.063 A 
ATOM     13  C   UNL     1      -7.017 -25.618  34.115  1.00  0.00     0.047 A 
ATOM     14  C   UNL     1      -6.824 -24.235  34.051  1.00  0.00     0.020 A 
ATOM     15  C   UNL     1      -6.483 -26.353  35.179  1.00  0.00     0.119 A 
ATOM     16  C   UNL     1      -5.760 -25.700  36.181  1.00  0.00     0.093 A 
ATOM     17  C   UNL     1      -5.559 -24.313  36.123  1.00  0.00     0.130 A 
BRANCH  15  18
ATOM     18  O   UNL     1      -6.671 -27.732  35.254  1.00  0.00    -0.508 OA
ATOM     19  H   UNL     1      -7.597 -28.142  35.248  1.00  0.00     0.293 HD
ENDBRANCH  15  18
BRANCH  17  20
ATOM     20  O   UNL     1      -4.828 -23.675  37.125  1.00  0.00    -0.507 OA
ATOM     21  H   UNL     1      -4.107 -24.158  37.647  1.00  0.00     0.293 HD
ENDBRANCH  17  20
ENDBRANCH   1  12
BRANCH   2  22
ATOM     22  O   UNL     1      -7.964 -21.722  36.224  1.00  0.00    -0.502 OA
ATOM     23  H   UNL     1      -8.116 -22.713  36.369  1.00  0.00     0.293 HD
ENDBRANCH   2  22
BRANCH   6  24
ATOM     24  O   UNL     1      -5.725 -16.949  35.453  1.00  0.00    -0.507 OA
ATOM     25  H   UNL     1      -6.718 -16.779  35.405  1.00  0.00     0.293 HD
ENDBRANCH   6  24
BRANCH   8  26
ATOM     26  O   UNL     1      -2.062 -18.188  32.607  1.00  0.00    -0.508 OA
ATOM     27  H   UNL     1      -1.970 -17.249  32.237  1.00  0.00     0.293 HD
ENDBRANCH   8  26
TORSDOF 6
ENDMDL
MODEL 4
REMARK VINA RESULT:    -5.904      1.678      6.347
REMARK INTER + INTRA:          -7.583
REMARK INTER:                  -7.295
REMARK INTRA:                  -0.288
REMARK UNBOUND:                -0.470
REMARK SMILES O=c1c(O)c(-c2ccc(O)cc2O)oc2cc(O)cc(O)c12
REMARK SMILES IDX 5 1 3 2 2 3 1 4 22 5 20 6 19 7 17 8 16 9 15 10 14 11 6 12
REMARK SMILES IDX 8 13 7 14 9 15 11 16 12 17 10 18 13 20 4 22 21 24 18 26
REMARK H PARENT 10 19 13 21 4 23 21 25 18 27
REMARK Flexibility Score: inf
ROOT
ATOM      1  C   UNL     1      -4.753 -20.733  34.999  1.00  0.00     0.184 A 
ATOM      2  C   UNL     1      -6.077 -20.264  35.017  1.00  0.00     0.208 A 
ATOM      3  C   UNL     1      -7.127 -21.193  35.098  1.00  0.00     0.238 A 
ATOM      4  O   UNL     1      -8.308 -20.765  35.170  1.00  0.00    -0.285 OA
ATOM      5  C   UNL     1      -6.839 -22.579  35.138  1.00  0.00     0.111 A 
ATOM      6  C   UNL     1      -7.825 -23.610  35.181  1.00  0.00     0.134 A 
ATOM      7  C   UNL     1      -7.425 -24.942  35.349  1.00  0.00     0.093 A 
ATOM      8  C   UNL     1      -6.072 -25.285  35.410  1.00  0.00     0.123 A 
ATOM      9  C   UNL     1      -5.101 -24.292  35.310  1.00  0.00     0.094 A 
ATOM     10  C   UNL     1      -5.470 -22.950  35.180  1.00  0.00     0.146 A 
ATOM     11  O   UNL     1      -4.513 -22.034  35.100  1.00  0.00    -0.451 OA
ENDROOT
BRANCH   1  12
ATOM     12  C   UNL     1      -3.600 -19.809  34.890  1.00  0.00     0.063 A 
ATOM     13  C   UNL     1      -1.701 -18.676  35.908  1.00  0.00     0.047 A 
ATOM     14  C   UNL     1      -2.772 -19.568  36.001  1.00  0.00     0.020 A 
ATOM     15  C   UNL     1      -1.449 -18.004  34.707  1.00  0.00     0.119 A 
ATOM     16  C   UNL     1      -2.274 -18.224  33.601  1.00  0.00     0.093 A 
ATOM     17  C   UNL     1      -3.350 -19.120  33.685  1.00  0.00     0.130 A 
BRANCH  15  18
ATOM     18  O   UNL     1      -0.384 -17.111  34.604  1.00  0.00    -0.508 OA
ATOM     19  H   UNL     1      -0.525 -16.146  34.328  1.00  0.00     0.293 HD
ENDBRANCH  15  18
BRANCH  17  20
ATOM     20  O   UNL     1      -4.162 -19.336  32.572  1.00  0.00    -0.507 OA
ATOM     21  H   UNL     1      -5.117 -19.000  32.537  1.00  0.00     0.293 HD
ENDBRANCH  17  20
ENDBRANCH   1  12
BRANCH   2  22
ATOM     22  O   UNL     1      -6.336 -18.891  34.988  1.00  0.00    -0.502 OA
ATOM     23  H   UNL     1      -5.645 -18.213  34.690  1.00  0.00     0.293 HD
ENDBRANCH   2  22
BRANCH   6  24
ATOM     24  O   UNL     1      -9.197 -23.385  35.037  1.00  0.00    -0.507 OA
ATOM     25  H   UNL     1      -9.678 -23.312  34.153  1.00  0.00     0.293 HD
ENDBRANCH   6  24
BRANCH   8  26
ATOM     26  O   UNL     1      -5.682 -26.614  35.561  1.00  0.00    -0.508 OA
ATOM     27  H   UNL     1      -6.260 -27.283  36.056  1.00  0.00     0.293 HD
ENDBRANCH   8  26
TORSDOF 6
ENDMDL
MODEL 5
REMARK VINA RESULT:    -5.626      2.418      3.705
REMARK INTER + INTRA:          -7.247
REMARK INTER:                  -7.012
REMARK INTRA:                  -0.235
REMARK UNBOUND:                -0.470
REMARK SMILES O=c1c(O)c(-c2ccc(O)cc2O)oc2cc(O)cc(O)c12
REMARK SMILES IDX 5 1 3 2 2 3 1 4 22 5 20 6 19 7 17 8 16 9 15 10 14 11 6 12
REMARK SMILES IDX 8 13 7 14 9 15 11 16 12 17 10 18 13 20 4 22 21 24 18 26
REMARK H PARENT 10 19 13 21 4 23 21 25 18 27
REMARK Flexibility Score: inf
ROOT
ATOM      1  C   UNL     1      -6.891 -23.758  36.184  1.00  0.00     0.184 A 
ATOM      2  C   UNL     1      -5.535 -23.800  36.550  1.00  0.00     0.208 A 
ATOM      3  C   UNL     1      -4.843 -22.593  36.742  1.00  0.00     0.238 A 
ATOM      4  O   UNL     1      -3.645 -22.638  37.125  1.00  0.00    -0.285 OA
ATOM      5  C   UNL     1      -5.511 -21.360  36.545  1.00  0.00     0.111 A 
ATOM      6  C   UNL     1      -4.898 -20.078  36.673  1.00  0.00     0.134 A 
ATOM      7  C   UNL     1      -5.685 -18.924  36.581  1.00  0.00     0.093 A 
ATOM      8  C   UNL     1      -7.052 -19.005  36.301  1.00  0.00     0.123 A 
ATOM      9  C   UNL     1      -7.648 -20.250  36.116  1.00  0.00     0.094 A 
ATOM     10  C   UNL     1      -6.895 -21.421  36.239  1.00  0.00     0.146 A 
ATOM     11  O   UNL     1      -7.504 -22.587  36.066  1.00  0.00    -0.451 OA
ENDROOT
BRANCH   1  12
ATOM     12  C   UNL     1      -7.672 -24.993  35.943  1.00  0.00     0.063 A 
ATOM     13  C   UNL     1      -9.452 -26.524  36.588  1.00  0.00     0.047 A 
ATOM     14  C   UNL     1      -8.732 -25.345  36.798  1.00  0.00     0.020 A 
ATOM     15  C   UNL     1      -9.117 -27.372  35.527  1.00  0.00     0.119 A 
ATOM     16  C   UNL     1      -8.056 -27.040  34.680  1.00  0.00     0.093 A 
ATOM     17  C   UNL     1      -7.330 -25.857  34.882  1.00  0.00     0.130 A 
BRANCH  15  18
ATOM     18  O   UNL     1      -9.828 -28.550  35.309  1.00  0.00    -0.508 OA
ATOM     19  H   UNL     1      -9.362 -29.409  35.042  1.00  0.00     0.293 HD
ENDBRANCH  15  18
BRANCH  17  20
ATOM     20  O   UNL     1      -6.278 -25.533  34.025  1.00  0.00    -0.507 OA
ATOM     21  H   UNL     1      -5.522 -24.925  34.317  1.00  0.00     0.293 HD
ENDBRANCH  17  20
ENDBRANCH   1  12
BRANCH   2  22
ATOM     22  O   UNL     1      -4.900 -25.030  36.752  1.00  0.00    -0.502 OA
ATOM     23  H   UNL     1      -4.455 -25.274  37.628  1.00  0.00     0.293 HD
ENDBRANCH   2  22
BRANCH   6  24
ATOM     24  O   UNL     1      -3.526 -19.883  36.862  1.00  0.00    -0.507 OA
ATOM     25  H   UNL     1      -2.812 -20.552  36.619  1.00  0.00     0.293 HD
ENDBRANCH   6  24
BRANCH   8  26
ATOM     26  O   UNL     1      -7.825 -17.851  36.195  1.00  0.00    -0.508 OA
ATOM     27  H   UNL     1      -8.797 -17.835  36.483  1.00  0.00     0.293 HD
ENDBRANCH   8  26
TORSDOF 6
ENDMDL
MODEL 6
REMARK VINA RESULT:    -5.567      1.787      3.177
REMARK INTER + INTRA:          -7.176
REMARK INTER:                  -6.942
REMARK INTRA:                  -0.234
REMARK UNBOUND:                -0.470
REMARK SMILES O=c1c(O)c(-c2ccc(O)cc2O)oc2cc(O)cc(O)c12
REMARK SMILES IDX 5 1 3 2 2 3 1 4 22 5 20 6 19 7 17 8 16 9 15 10 14 11 6 12
REMARK SMILES IDX 8 13 7 14 9 15 11 16 12 17 10 18 13 20 4 22 21 24 18 26
REMARK H PARENT 10 19 13 21 4 23 21 25 18 27
REMARK Flexibility Score: inf
ROOT
ATOM      1  C   UNL     1      -6.275 -22.599  35.618  1.00  0.00     0.184 A 
ATOM      2  C   UNL     1      -5.160 -22.439  34.779  1.00  0.00     0.208 A 
ATOM      3  C   UNL     1      -4.771 -21.142  34.402  1.00  0.00     0.238 A 
ATOM      4  O   UNL     1      -3.738 -21.002  33.697  1.00  0.00    -0.285 OA
ATOM      5  C   UNL     1      -5.517 -20.026  34.851  1.00  0.00     0.111 A 
ATOM      6  C   UNL     1      -5.238 -18.671  34.499  1.00  0.00     0.134 A 
ATOM      7  C   UNL     1      -5.963 -17.637  35.105  1.00  0.00     0.093 A 
ATOM      8  C   UNL     1      -7.000 -17.912  36.000  1.00  0.00     0.123 A 
ATOM      9  C   UNL     1      -7.318 -19.234  36.305  1.00  0.00     0.094 A 
ATOM     10  C   UNL     1      -6.588 -20.286  35.745  1.00  0.00     0.146 A 
ATOM     11  O   UNL     1      -6.917 -21.529  36.071  1.00  0.00    -0.451 OA
ENDROOT
BRANCH   1  12
ATOM     12  C   UNL     1      -6.753 -23.938  36.034  1.00  0.00     0.063 A 
ATOM     13  C   UNL     1      -6.306 -26.141  36.968  1.00  0.00     0.047 A 
ATOM     14  C   UNL     1      -5.863 -24.868  36.600  1.00  0.00     0.020 A 
ATOM     15  C   UNL     1      -7.641 -26.507  36.763  1.00  0.00     0.119 A 
ATOM     16  C   UNL     1      -8.530 -25.596  36.187  1.00  0.00     0.093 A 
ATOM     17  C   UNL     1      -8.095 -24.315  35.818  1.00  0.00     0.130 A 
BRANCH  15  18
ATOM     18  O   UNL     1      -8.093 -27.774  37.125  1.00  0.00    -0.508 OA
ATOM     19  H   UNL     1      -8.679 -28.324  36.508  1.00  0.00     0.293 HD
ENDBRANCH  15  18
BRANCH  17  20
ATOM     20  O   UNL     1      -8.994 -23.412  35.249  1.00  0.00    -0.507 OA
ATOM     21  H   UNL     1      -8.717 -22.782  34.506  1.00  0.00     0.293 HD
ENDBRANCH  17  20
ENDBRANCH   1  12
BRANCH   2  22
ATOM     22  O   UNL     1      -4.431 -23.555  34.359  1.00  0.00    -0.502 OA
ATOM     23  H   UNL     1      -4.762 -24.178  33.631  1.00  0.00     0.293 HD
ENDBRANCH   2  22
BRANCH   6  24
ATOM     24  O   UNL     1      -4.287 -18.291  33.548  1.00  0.00    -0.507 OA
ATOM     25  H   UNL     1      -3.808 -17.404  33.536  1.00  0.00     0.293 HD
ENDBRANCH   6  24
BRANCH   8  26
ATOM     26  O   UNL     1      -7.726 -16.878  36.586  1.00  0.00    -0.508 OA
ATOM     27  H   UNL     1      -7.625 -16.648  37.567  1.00  0.00     0.293 HD
ENDBRANCH   8  26
TORSDOF 6
ENDMDL
MODEL 7
REMARK VINA RESULT:    -5.411      1.881      7.136
REMARK INTER + INTRA:          -6.988
REMARK INTER:                  -6.703
REMARK INTRA:                  -0.285
REMARK UNBOUND:                -0.470
REMARK SMILES O=c1c(O)c(-c2ccc(O)cc2O)oc2cc(O)cc(O)c12
REMARK SMILES IDX 5 1 3 2 2 3 1 4 22 5 20 6 19 7 17 8 16 9 15 10 14 11 6 12
REMARK SMILES IDX 8 13 7 14 9 15 11 16 12 17 10 18 13 20 4 22 21 24 18 26
REMARK H PARENT 10 19 13 21 4 23 21 25 18 27
REMARK Flexibility Score: inf
ROOT
ATOM      1  C   UNL     1      -6.030 -22.544  35.082  1.00  0.00     0.184 A 
ATOM      2  C   UNL     1      -5.370 -23.406  34.190  1.00  0.00     0.208 A 
ATOM      3  C   UNL     1      -5.810 -24.736  34.077  1.00  0.00     0.238 A 
ATOM      4  O   UNL     1      -5.251 -25.487  33.235  1.00  0.00    -0.285 OA
ATOM      5  C   UNL     1      -6.889 -25.190  34.872  1.00  0.00     0.111 A 
ATOM      6  C   UNL     1      -7.392 -26.525  34.868  1.00  0.00     0.134 A 
ATOM      7  C   UNL     1      -8.546 -26.831  35.600  1.00  0.00     0.093 A 
ATOM      8  C   UNL     1      -9.177 -25.864  36.387  1.00  0.00     0.123 A 
ATOM      9  C   UNL     1      -8.659 -24.572  36.444  1.00  0.00     0.094 A 
ATOM     10  C   UNL     1      -7.531 -24.228  35.695  1.00  0.00     0.146 A 
ATOM     11  O   UNL     1      -7.077 -22.983  35.769  1.00  0.00    -0.451 OA
ENDROOT
BRANCH   1  12
ATOM     12  C   UNL     1      -5.602 -21.138  35.268  1.00  0.00     0.063 A 
ATOM     13  C   UNL     1      -4.694 -19.378  36.683  1.00  0.00     0.047 A 
ATOM     14  C   UNL     1      -5.072 -20.711  36.498  1.00  0.00     0.020 A 
ATOM     15  C   UNL     1      -4.852 -18.452  35.647  1.00  0.00     0.119 A 
ATOM     16  C   UNL     1      -5.393 -18.862  34.425  1.00  0.00     0.093 A 
ATOM     17  C   UNL     1      -5.772 -20.199  34.229  1.00  0.00     0.130 A 
BRANCH  15  18
ATOM     18  O   UNL     1      -4.480 -17.121  35.821  1.00  0.00    -0.508 OA
ATOM     19  H   UNL     1      -4.942 -16.371  35.321  1.00  0.00     0.293 HD
ENDBRANCH  15  18
BRANCH  17  20
ATOM     20  O   UNL     1      -6.303 -20.597  33.002  1.00  0.00    -0.507 OA
ATOM     21  H   UNL     1      -5.920 -20.266  32.125  1.00  0.00     0.293 HD
ENDBRANCH  17  20
ENDBRANCH   1  12
BRANCH   2  22
ATOM     22  O   UNL     1      -4.315 -22.931  33.406  1.00  0.00    -0.502 OA
ATOM     23  H   UNL     1      -4.299 -21.992  33.026  1.00  0.00     0.293 HD
ENDBRANCH   2  22
BRANCH   6  24
ATOM     24  O   UNL     1      -6.785 -27.586  34.190  1.00  0.00    -0.507 OA
ATOM     25  H   UNL     1      -6.880 -27.767  33.202  1.00  0.00     0.293 HD
ENDBRANCH   6  24
BRANCH   8  26
ATOM     26  O   UNL     1     -10.315 -26.181  37.125  1.00  0.00    -0.508 OA
ATOM     27  H   UNL     1     -11.047 -26.771  36.745  1.00  0.00     0.293 HD
ENDBRANCH   8  26
TORSDOF 6
ENDMDL
MODEL 8
REMARK VINA RESULT:    -5.152      2.003      3.032
REMARK INTER + INTRA:          -6.677
REMARK INTER:                  -6.266
REMARK INTRA:                  -0.410
REMARK UNBOUND:                -0.470
REMARK SMILES O=c1c(O)c(-c2ccc(O)cc2O)oc2cc(O)cc(O)c12
REMARK SMILES IDX 5 1 3 2 2 3 1 4 22 5 20 6 19 7 17 8 16 9 15 10 14 11 6 12
REMARK SMILES IDX 8 13 7 14 9 15 11 16 12 17 10 18 13 20 4 22 21 24 18 26
REMARK H PARENT 10 19 13 21 4 23 21 25 18 27
REMARK Flexibility Score: inf
ROOT
ATOM      1  C   UNL     1      -5.686 -22.413  35.757  1.00  0.00     0.184 A 
ATOM      2  C   UNL     1      -4.355 -22.185  36.145  1.00  0.00     0.208 A 
ATOM      3  C   UNL     1      -3.950 -20.877  36.457  1.00  0.00     0.238 A 
ATOM      4  O   UNL     1      -2.773 -20.688  36.858  1.00  0.00    -0.285 OA
ATOM      5  C   UNL     1      -4.877 -19.811  36.356  1.00  0.00     0.111 A 
ATOM      6  C   UNL     1      -4.567 -18.441  36.610  1.00  0.00     0.134 A 
ATOM      7  C   UNL     1      -5.593 -17.488  36.605  1.00  0.00     0.093 A 
ATOM      8  C   UNL     1      -6.907 -17.846  36.291  1.00  0.00     0.123 A 
ATOM      9  C   UNL     1      -7.209 -19.171  35.985  1.00  0.00     0.094 A 
ATOM     10  C   UNL     1      -6.213 -20.151  36.018  1.00  0.00     0.146 A 
ATOM     11  O   UNL     1      -6.546 -21.403  35.731  1.00  0.00    -0.451 OA
ENDROOT
BRANCH   1  12
ATOM     12  C   UNL     1      -6.171 -23.763  35.391  1.00  0.00     0.063 A 
ATOM     13  C   UNL     1      -6.976 -25.966  36.046  1.00  0.00     0.047 A 
ATOM     14  C   UNL     1      -6.544 -24.682  36.389  1.00  0.00     0.020 A 
ATOM     15  C   UNL     1      -7.031 -26.354  34.703  1.00  0.00     0.119 A 
ATOM     16  C   UNL     1      -6.649 -25.454  33.704  1.00  0.00     0.093 A 
ATOM     17  C   UNL     1      -6.217 -24.162  34.039  1.00  0.00     0.130 A 
BRANCH  15  18
ATOM     18  O   UNL     1      -7.459 -27.632  34.351  1.00  0.00    -0.508 OA
ATOM     19  H   UNL     1      -7.460 -27.944  33.387  1.00  0.00     0.293 HD
ENDBRANCH  15  18
BRANCH  17  20
ATOM     20  O   UNL     1      -5.845 -23.272  33.032  1.00  0.00    -0.507 OA
ATOM     21  H   UNL     1      -5.112 -23.495  32.369  1.00  0.00     0.293 HD
ENDBRANCH  17  20
ENDBRANCH   1  12
BRANCH   2  22
ATOM     22  O   UNL     1      -3.461 -23.255  36.250  1.00  0.00    -0.502 OA
ATOM     23  H   UNL     1      -2.525 -23.147  36.620  1.00  0.00     0.293 HD
ENDBRANCH   2  22
BRANCH   6  24
ATOM     24  O   UNL     1      -3.274 -17.964  36.843  1.00  0.00    -0.507 OA
ATOM     25  H   UNL     1      -2.698 -18.222  37.630  1.00  0.00     0.293 HD
ENDBRANCH   6  24
BRANCH   8  26
ATOM     26  O   UNL     1      -7.918 -16.889  36.273  1.00  0.00    -0.508 OA
ATOM     27  H   UNL     1      -8.883 -17.139  36.088  1.00  0.00     0.293 HD
ENDBRANCH   8  26
TORSDOF 6
ENDMDL
