MODEL 1
REMARK VINA RESULT:    -6.728      0.000      0.000
REMARK INTER + INTRA:          -8.682
REMARK INTER:                  -8.301
REMARK INTRA:                  -0.381
REMARK UNBOUND:                -0.381
REMARK SMILES Oc1cc(O)c2cc(O)c(-c3cc(O)c(O)c(O)c3)[o+]c2c1
REMARK SMILES IDX 10 1 20 2 21 3 22 4 2 5 3 6 4 7 6 8 7 9 8 10 11 11 12 12
REMARK SMILES IDX 13 13 19 14 15 15 17 16 14 17 16 19 18 21 9 23 1 25 5 27
REMARK H PARENT 14 18 16 20 18 22 9 24 1 26 5 28
REMARK Flexibility Score: inf
ROOT
ATOM      1  C   UNL     1      11.108 -17.589 -33.284  1.00  0.00     0.402 A 
ATOM      2  O   UNL     1      11.618 -16.427 -33.684  1.00  0.00    -0.202 OA
ATOM      3  C   UNL     1      11.379 -15.897 -34.879  1.00  0.00     0.368 A 
ATOM      4  C   UNL     1      11.959 -14.669 -35.207  1.00  0.00     0.162 A 
ATOM      5  C   UNL     1      11.723 -14.088 -36.453  1.00  0.00     0.128 A 
ATOM      6  C   UNL     1      10.899 -14.736 -37.379  1.00  0.00     0.093 A 
ATOM      7  C   UNL     1      10.305 -15.968 -37.076  1.00  0.00     0.136 A 
ATOM      8  C   UNL     1      10.545 -16.564 -35.810  1.00  0.00     0.125 A 
ATOM      9  C   UNL     1      10.004 -17.801 -35.424  1.00  0.00     0.078 A 
ATOM     10  C   UNL     1      10.290 -18.328 -34.160  1.00  0.00     0.223 A 
ENDROOT
BRANCH   1  11
ATOM     11  C   UNL     1      11.441 -18.070 -31.924  1.00  0.00     0.091 A 
ATOM     12  C   UNL     1      12.577 -18.869 -31.735  1.00  0.00     0.068 A 
ATOM     13  C   UNL     1      12.925 -19.321 -30.456  1.00  0.00     0.162 A 
ATOM     14  C   UNL     1      10.676 -17.695 -30.808  1.00  0.00     0.068 A 
ATOM     15  C   UNL     1      12.148 -18.967 -29.345  1.00  0.00     0.200 A 
ATOM     16  C   UNL     1      11.014 -18.138 -29.523  1.00  0.00     0.162 A 
BRANCH  13  17
ATOM     17  O   UNL     1      14.047 -20.130 -30.281  1.00  0.00    -0.504 OA
ATOM     18  H   UNL     1      14.332 -20.452 -29.364  1.00  0.00     0.293 HD
ENDBRANCH  13  17
BRANCH  15  19
ATOM     19  O   UNL     1      12.534 -19.451 -28.093  1.00  0.00    -0.502 OA
ATOM     20  H   UNL     1      12.400 -18.950 -27.226  1.00  0.00     0.293 HD
ENDBRANCH  15  19
BRANCH  16  21
ATOM     21  O   UNL     1      10.206 -17.727 -28.460  1.00  0.00    -0.504 OA
ATOM     22  H   UNL     1      10.082 -18.252 -27.607  1.00  0.00     0.293 HD
ENDBRANCH  16  21
ENDBRANCH   1  11
BRANCH  10  23
ATOM     23  O   UNL     1       9.793 -19.578 -33.794  1.00  0.00    -0.500 OA
ATOM     24  H   UNL     1       9.915 -20.393 -34.385  1.00  0.00     0.294 HD
ENDBRANCH  10  23
BRANCH   5  25
ATOM     25  O   UNL     1      12.311 -12.863 -36.761  1.00  0.00    -0.507 OA
ATOM     26  H   UNL     1      11.786 -11.997 -36.713  1.00  0.00     0.293 HD
ENDBRANCH   5  25
BRANCH   7  27
ATOM     27  O   UNL     1       9.493 -16.550 -38.053  1.00  0.00    -0.507 OA
ATOM     28  H   UNL     1       9.519 -16.311 -39.033  1.00  0.00     0.293 HD
ENDBRANCH   7  27
TORSDOF 7
ENDMDL
MODEL 2
REMARK VINA RESULT:    -6.685      0.181      1.807
REMARK INTER + INTRA:          -8.629
REMARK INTER:                  -8.250
REMARK INTRA:                  -0.379
REMARK UNBOUND:                -0.381
REMARK SMILES Oc1cc(O)c2cc(O)c(-c3cc(O)c(O)c(O)c3)[o+]c2c1
REMARK SMILES IDX 10 1 20 2 21 3 22 4 2 5 3 6 4 7 6 8 7 9 8 10 11 11 12 12
REMARK SMILES IDX 13 13 19 14 15 15 17 16 14 17 16 19 18 21 9 23 1 25 5 27
REMARK H PARENT 14 18 16 20 18 22 9 24 1 26 5 28
REMARK Flexibility Score: inf
ROOT
ATOM      1  C   UNL     1      11.091 -17.477 -33.315  1.00  0.00     0.402 A 
ATOM      2  O   UNL     1      11.573 -16.314 -33.746  1.00  0.00    -0.202 OA
ATOM      3  C   UNL     1      11.324 -15.824 -34.956  1.00  0.00     0.368 A 
ATOM      4  C   UNL     1      11.873 -14.591 -35.315  1.00  0.00     0.162 A 
ATOM      5  C   UNL     1      11.626 -14.051 -36.578  1.00  0.00     0.128 A 
ATOM      6  C   UNL     1      10.825 -14.747 -37.489  1.00  0.00     0.093 A 
ATOM      7  C   UNL     1      10.263 -15.985 -37.153  1.00  0.00     0.136 A 
ATOM      8  C   UNL     1      10.513 -16.539 -35.870  1.00  0.00     0.125 A 
ATOM      9  C   UNL     1      10.003 -17.779 -35.452  1.00  0.00     0.078 A 
ATOM     10  C   UNL     1      10.298 -18.262 -34.173  1.00  0.00     0.223 A 
ENDROOT
BRANCH   1  11
ATOM     11  C   UNL     1      11.431 -17.912 -31.941  1.00  0.00     0.091 A 
ATOM     12  C   UNL     1      10.579 -17.573 -30.881  1.00  0.00     0.068 A 
ATOM     13  C   UNL     1      10.867 -17.988 -29.575  1.00  0.00     0.162 A 
ATOM     14  C   UNL     1      12.559 -18.707 -31.682  1.00  0.00     0.068 A 
ATOM     15  C   UNL     1      12.005 -18.762 -29.314  1.00  0.00     0.200 A 
ATOM     16  C   UNL     1      12.858 -19.131 -30.381  1.00  0.00     0.162 A 
BRANCH  13  17
ATOM     17  O   UNL     1      10.021 -17.632 -28.525  1.00  0.00    -0.504 OA
ATOM     18  H   UNL     1       9.015 -17.729 -28.596  1.00  0.00     0.293 HD
ENDBRANCH  13  17
BRANCH  15  19
ATOM     19  O   UNL     1      12.251 -19.143 -27.992  1.00  0.00    -0.502 OA
ATOM     20  H   UNL     1      11.904 -19.994 -27.574  1.00  0.00     0.293 HD
ENDBRANCH  15  19
BRANCH  16  21
ATOM     21  O   UNL     1      13.997 -19.918 -30.200  1.00  0.00    -0.504 OA
ATOM     22  H   UNL     1      14.678 -19.768 -29.470  1.00  0.00     0.293 HD
ENDBRANCH  16  21
ENDBRANCH   1  11
BRANCH  10  23
ATOM     23  O   UNL     1       9.832 -19.515 -33.774  1.00  0.00    -0.500 OA
ATOM     24  H   UNL     1      10.103 -20.363 -34.260  1.00  0.00     0.294 HD
ENDBRANCH  10  23
BRANCH   5  25
ATOM     25  O   UNL     1      12.183 -12.820 -36.918  1.00  0.00    -0.507 OA
ATOM     26  H   UNL     1      12.827 -12.341 -36.299  1.00  0.00     0.293 HD
ENDBRANCH   5  25
BRANCH   7  27
ATOM     27  O   UNL     1       9.471 -16.615 -38.116  1.00  0.00    -0.507 OA
ATOM     28  H   UNL     1       9.169 -16.185 -38.978  1.00  0.00     0.293 HD
ENDBRANCH   7  27
TORSDOF 7
ENDMDL
MODEL 3
REMARK VINA RESULT:    -6.684      2.088      7.147
REMARK INTER + INTRA:          -8.627
REMARK INTER:                  -8.366
REMARK INTRA:                  -0.261
REMARK UNBOUND:                -0.381
REMARK SMILES Oc1cc(O)c2cc(O)c(-c3cc(O)c(O)c(O)c3)[o+]c2c1
REMARK SMILES IDX 10 1 20 2 21 3 22 4 2 5 3 6 4 7 6 8 7 9 8 10 11 11 12 12
REMARK SMILES IDX 13 13 19 14 15 15 17 16 14 17 16 19 18 21 9 23 1 25 5 27
REMARK H PARENT 14 18 16 20 18 22 9 24 1 26 5 28
REMARK Flexibility Score: inf
ROOT
ATOM      1  C   UNL     1      11.720 -17.352 -32.245  1.00  0.00     0.402 A 
ATOM      2  O   UNL     1      12.270 -16.630 -31.272  1.00  0.00    -0.202 OA
ATOM      3  C   UNL     1      12.702 -17.152 -30.129  1.00  0.00     0.368 A 
ATOM      4  C   UNL     1      13.269 -16.311 -29.168  1.00  0.00     0.162 A 
ATOM      5  C   UNL     1      13.734 -16.833 -27.961  1.00  0.00     0.128 A 
ATOM      6  C   UNL     1      13.634 -18.206 -27.710  1.00  0.00     0.093 A 
ATOM      7  C   UNL     1      13.071 -19.070 -28.657  1.00  0.00     0.136 A 
ATOM      8  C   UNL     1      12.594 -18.543 -29.886  1.00  0.00     0.125 A 
ATOM      9  C   UNL     1      12.003 -19.332 -30.887  1.00  0.00     0.078 A 
ATOM     10  C   UNL     1      11.552 -18.739 -32.071  1.00  0.00     0.223 A 
ENDROOT
BRANCH   1  11
ATOM     11  C   UNL     1      11.286 -16.655 -33.477  1.00  0.00     0.091 A 
ATOM     12  C   UNL     1      10.292 -15.671 -33.397  1.00  0.00     0.068 A 
ATOM     13  C   UNL     1       9.877 -14.983 -34.545  1.00  0.00     0.162 A 
ATOM     14  C   UNL     1      11.891 -16.917 -34.717  1.00  0.00     0.068 A 
ATOM     15  C   UNL     1      10.464 -15.261 -35.786  1.00  0.00     0.200 A 
ATOM     16  C   UNL     1      11.487 -16.235 -35.872  1.00  0.00     0.162 A 
BRANCH  13  17
ATOM     17  O   UNL     1       8.875 -14.017 -34.458  1.00  0.00    -0.504 OA
ATOM     18  H   UNL     1       7.914 -14.226 -34.699  1.00  0.00     0.293 HD
ENDBRANCH  13  17
BRANCH  15  19
ATOM     19  O   UNL     1      10.008 -14.552 -36.901  1.00  0.00    -0.502 OA
ATOM     20  H   UNL     1       9.231 -13.908 -36.883  1.00  0.00     0.293 HD
ENDBRANCH  15  19
BRANCH  16  21
ATOM     21  O   UNL     1      12.133 -16.549 -37.070  1.00  0.00    -0.504 OA
ATOM     22  H   UNL     1      12.540 -15.863 -37.689  1.00  0.00     0.293 HD
ENDBRANCH  16  21
ENDBRANCH   1  11
BRANCH  10  23
ATOM     23  O   UNL     1      10.921 -19.513 -33.044  1.00  0.00    -0.500 OA
ATOM     24  H   UNL     1      10.066 -19.208 -33.495  1.00  0.00     0.294 HD
ENDBRANCH  10  23
BRANCH   5  25
ATOM     25  O   UNL     1      14.295 -15.978 -27.015  1.00  0.00    -0.507 OA
ATOM     26  H   UNL     1      15.151 -15.469 -27.203  1.00  0.00     0.293 HD
ENDBRANCH   5  25
BRANCH   7  27
ATOM     27  O   UNL     1      13.010 -20.429 -28.334  1.00  0.00    -0.507 OA
ATOM     28  H   UNL     1      13.816 -21.006 -28.142  1.00  0.00     0.293 HD
ENDBRANCH   7  27
TORSDOF 7
ENDMDL
MODEL 4
REMARK VINA RESULT:    -6.658      1.649      7.185
REMARK INTER + INTRA:          -8.596
REMARK INTER:                  -8.232
REMARK INTRA:                  -0.363
REMARK UNBOUND:                -0.381
REMARK SMILES Oc1cc(O)c2cc(O)c(-c3cc(O)c(O)c(O)c3)[o+]c2c1
REMARK SMILES IDX 10 1 20 2 21 3 22 4 2 5 3 6 4 7 6 8 7 9 8 10 11 11 12 12
REMARK SMILES IDX 13 13 19 14 15 15 17 16 14 17 16 19 18 21 9 23 1 25 5 27
REMARK H PARENT 14 18 16 20 18 22 9 24 1 26 5 28
REMARK Flexibility Score: inf
ROOT
ATOM      1  C   UNL     1      11.056 -17.472 -32.504  1.00  0.00     0.402 A 
ATOM      2  O   UNL     1      11.969 -18.296 -31.996  1.00  0.00    -0.202 OA
ATOM      3  C   UNL     1      12.228 -18.385 -30.696  1.00  0.00     0.368 A 
ATOM      4  C   UNL     1      13.204 -19.284 -30.257  1.00  0.00     0.162 A 
ATOM      5  C   UNL     1      13.495 -19.401 -28.898  1.00  0.00     0.128 A 
ATOM      6  C   UNL     1      12.806 -18.615 -27.968  1.00  0.00     0.093 A 
ATOM      7  C   UNL     1      11.823 -17.707 -28.381  1.00  0.00     0.136 A 
ATOM      8  C   UNL     1      11.525 -17.584 -29.763  1.00  0.00     0.125 A 
ATOM      9  C   UNL     1      10.566 -16.691 -30.270  1.00  0.00     0.078 A 
ATOM     10  C   UNL     1      10.332 -16.622 -31.647  1.00  0.00     0.223 A 
ENDROOT
BRANCH   1  11
ATOM     11  C   UNL     1      10.851 -17.471 -33.971  1.00  0.00     0.091 A 
ATOM     12  C   UNL     1       9.969 -18.397 -34.544  1.00  0.00     0.068 A 
ATOM     13  C   UNL     1       9.742 -18.405 -35.925  1.00  0.00     0.162 A 
ATOM     14  C   UNL     1      11.476 -16.524 -34.796  1.00  0.00     0.068 A 
ATOM     15  C   UNL     1      10.385 -17.474 -36.752  1.00  0.00     0.200 A 
ATOM     16  C   UNL     1      11.257 -16.518 -36.180  1.00  0.00     0.162 A 
BRANCH  13  17
ATOM     17  O   UNL     1       8.875 -19.342 -36.487  1.00  0.00    -0.504 OA
ATOM     18  H   UNL     1       8.789 -19.451 -37.491  1.00  0.00     0.293 HD
ENDBRANCH  13  17
BRANCH  15  19
ATOM     19  O   UNL     1      10.130 -17.530 -38.125  1.00  0.00    -0.502 OA
ATOM     20  H   UNL     1       9.713 -16.778 -38.655  1.00  0.00     0.293 HD
ENDBRANCH  15  19
BRANCH  16  21
ATOM     21  O   UNL     1      11.915 -15.547 -36.938  1.00  0.00    -0.504 OA
ATOM     22  H   UNL     1      12.334 -15.721 -37.839  1.00  0.00     0.293 HD
ENDBRANCH  16  21
ENDBRANCH   1  11
BRANCH  10  23
ATOM     23  O   UNL     1       9.415 -15.702 -32.155  1.00  0.00    -0.500 OA
ATOM     24  H   UNL     1       8.801 -15.933 -32.928  1.00  0.00     0.294 HD
ENDBRANCH  10  23
BRANCH   5  25
ATOM     25  O   UNL     1      14.472 -20.302 -28.481  1.00  0.00    -0.507 OA
ATOM     26  H   UNL     1      14.247 -21.268 -28.273  1.00  0.00     0.293 HD
ENDBRANCH   5  25
BRANCH   7  27
ATOM     27  O   UNL     1      11.177 -16.962 -27.391  1.00  0.00    -0.507 OA
ATOM     28  H   UNL     1      11.089 -17.249 -26.427  1.00  0.00     0.293 HD
ENDBRANCH   7  27
TORSDOF 7
ENDMDL
MODEL 5
REMARK VINA RESULT:    -6.655      2.141      6.995
REMARK INTER + INTRA:          -8.592
REMARK INTER:                  -8.890
REMARK INTRA:                   0.298
REMARK UNBOUND:                -0.381
REMARK SMILES Oc1cc(O)c2cc(O)c(-c3cc(O)c(O)c(O)c3)[o+]c2c1
REMARK SMILES IDX 10 1 20 2 21 3 22 4 2 5 3 6 4 7 6 8 7 9 8 10 11 11 12 12
REMARK SMILES IDX 13 13 19 14 15 15 17 16 14 17 16 19 18 21 9 23 1 25 5 27
REMARK H PARENT 14 18 16 20 18 22 9 24 1 26 5 28
REMARK Flexibility Score: inf
ROOT
ATOM      1  C   UNL     1      10.977 -17.577 -31.449  1.00  0.00     0.402 A 
ATOM      2  O   UNL     1      11.948 -16.907 -30.834  1.00  0.00    -0.202 OA
ATOM      3  C   UNL     1      12.120 -16.915 -29.516  1.00  0.00     0.368 A 
ATOM      4  C   UNL     1      13.173 -16.182 -28.964  1.00  0.00     0.162 A 
ATOM      5  C   UNL     1      13.379 -16.175 -27.583  1.00  0.00     0.128 A 
ATOM      6  C   UNL     1      12.528 -16.906 -26.748  1.00  0.00     0.093 A 
ATOM      7  C   UNL     1      11.466 -17.650 -27.277  1.00  0.00     0.136 A 
ATOM      8  C   UNL     1      11.251 -17.659 -28.680  1.00  0.00     0.125 A 
ATOM      9  C   UNL     1      10.205 -18.363 -29.297  1.00  0.00     0.078 A 
ATOM     10  C   UNL     1      10.054 -18.319 -30.687  1.00  0.00     0.223 A 
ENDROOT
BRANCH   1  11
ATOM     11  C   UNL     1      10.895 -17.497 -32.925  1.00  0.00     0.091 A 
ATOM     12  C   UNL     1      11.609 -16.499 -33.602  1.00  0.00     0.068 A 
ATOM     13  C   UNL     1      11.565 -16.414 -34.999  1.00  0.00     0.162 A 
ATOM     14  C   UNL     1      10.163 -18.436 -33.669  1.00  0.00     0.068 A 
ATOM     15  C   UNL     1      10.815 -17.337 -35.740  1.00  0.00     0.200 A 
ATOM     16  C   UNL     1      10.112 -18.365 -35.067  1.00  0.00     0.162 A 
BRANCH  13  17
ATOM     17  O   UNL     1      12.266 -15.407 -35.661  1.00  0.00    -0.504 OA
ATOM     18  H   UNL     1      13.250 -15.501 -35.880  1.00  0.00     0.293 HD
ENDBRANCH  13  17
BRANCH  15  19
ATOM     19  O   UNL     1      10.797 -17.203 -37.130  1.00  0.00    -0.502 OA
ATOM     20  H   UNL     1      10.671 -16.325 -37.613  1.00  0.00     0.293 HD
ENDBRANCH  15  19
BRANCH  16  21
ATOM     21  O   UNL     1       9.362 -19.332 -35.740  1.00  0.00    -0.504 OA
ATOM     22  H   UNL     1       9.627 -20.304 -35.811  1.00  0.00     0.293 HD
ENDBRANCH  16  21
ENDBRANCH   1  11
BRANCH  10  23
ATOM     23  O   UNL     1       8.987 -18.979 -31.296  1.00  0.00    -0.500 OA
ATOM     24  H   UNL     1       9.036 -19.298 -32.257  1.00  0.00     0.294 HD
ENDBRANCH  10  23
BRANCH   5  25
ATOM     25  O   UNL     1      14.434 -15.436 -27.051  1.00  0.00    -0.507 OA
ATOM     26  H   UNL     1      14.295 -14.500 -26.688  1.00  0.00     0.293 HD
ENDBRANCH   5  25
BRANCH   7  27
ATOM     27  O   UNL     1      10.663 -18.357 -26.378  1.00  0.00    -0.507 OA
ATOM     28  H   UNL     1      10.727 -19.351 -26.215  1.00  0.00     0.293 HD
ENDBRANCH   7  27
TORSDOF 7
ENDMDL
MODEL 6
REMARK VINA RESULT:    -6.625      2.118      2.789
REMARK INTER + INTRA:          -8.555
REMARK INTER:                  -8.912
REMARK INTRA:                   0.357
REMARK UNBOUND:                -0.381
REMARK SMILES Oc1cc(O)c2cc(O)c(-c3cc(O)c(O)c(O)c3)[o+]c2c1
REMARK SMILES IDX 10 1 20 2 21 3 22 4 2 5 3 6 4 7 6 8 7 9 8 10 11 11 12 12
REMARK SMILES IDX 13 13 19 14 15 15 17 16 14 17 16 19 18 21 9 23 1 25 5 27
REMARK H PARENT 14 18 16 20 18 22 9 24 1 26 5 28
REMARK Flexibility Score: inf
ROOT
ATOM      1  C   UNL     1      11.308 -17.632 -31.351  1.00  0.00     0.402 A 
ATOM      2  O   UNL     1      11.712 -16.815 -32.321  1.00  0.00    -0.202 OA
ATOM      3  C   UNL     1      11.343 -16.951 -33.590  1.00  0.00     0.368 A 
ATOM      4  C   UNL     1      11.818 -16.040 -34.537  1.00  0.00     0.162 A 
ATOM      5  C   UNL     1      11.445 -16.156 -35.877  1.00  0.00     0.128 A 
ATOM      6  C   UNL     1      10.590 -17.189 -36.275  1.00  0.00     0.093 A 
ATOM      7  C   UNL     1      10.100 -18.115 -35.345  1.00  0.00     0.136 A 
ATOM      8  C   UNL     1      10.478 -18.002 -33.982  1.00  0.00     0.125 A 
ATOM      9  C   UNL     1      10.047 -18.891 -32.985  1.00  0.00     0.078 A 
ATOM     10  C   UNL     1      10.468 -18.718 -31.662  1.00  0.00     0.223 A 
ENDROOT
BRANCH   1  11
ATOM     11  C   UNL     1      11.780 -17.371 -29.972  1.00  0.00     0.091 A 
ATOM     12  C   UNL     1      12.736 -16.371 -29.749  1.00  0.00     0.068 A 
ATOM     13  C   UNL     1      13.185 -16.092 -28.452  1.00  0.00     0.162 A 
ATOM     14  C   UNL     1      11.247 -18.064 -28.873  1.00  0.00     0.068 A 
ATOM     15  C   UNL     1      12.670 -16.799 -27.358  1.00  0.00     0.200 A 
ATOM     16  C   UNL     1      11.685 -17.793 -27.571  1.00  0.00     0.162 A 
BRANCH  13  17
ATOM     17  O   UNL     1      14.149 -15.106 -28.243  1.00  0.00    -0.504 OA
ATOM     18  H   UNL     1      15.139 -15.317 -28.270  1.00  0.00     0.293 HD
ENDBRANCH  13  17
BRANCH  15  19
ATOM     19  O   UNL     1      13.158 -16.487 -26.087  1.00  0.00    -0.502 OA
ATOM     20  H   UNL     1      13.561 -15.595 -25.838  1.00  0.00     0.293 HD
ENDBRANCH  15  19
BRANCH  16  21
ATOM     21  O   UNL     1      11.111 -18.523 -26.527  1.00  0.00    -0.504 OA
ATOM     22  H   UNL     1      11.369 -19.470 -26.291  1.00  0.00     0.293 HD
ENDBRANCH  16  21
ENDBRANCH   1  11
BRANCH  10  23
ATOM     23  O   UNL     1      10.080 -19.629 -30.679  1.00  0.00    -0.500 OA
ATOM     24  H   UNL     1      10.731 -19.971 -29.983  1.00  0.00     0.294 HD
ENDBRANCH  10  23
BRANCH   5  25
ATOM     25  O   UNL     1      11.930 -15.238 -36.806  1.00  0.00    -0.507 OA
ATOM     26  H   UNL     1      12.589 -14.514 -36.541  1.00  0.00     0.293 HD
ENDBRANCH   5  25
BRANCH   7  27
ATOM     27  O   UNL     1       9.248 -19.115 -35.821  1.00  0.00    -0.507 OA
ATOM     28  H   UNL     1       8.241 -19.043 -35.847  1.00  0.00     0.293 HD
ENDBRANCH   7  27
TORSDOF 7
ENDMDL
MODEL 7
REMARK VINA RESULT:    -6.595      2.195      7.368
REMARK INTER + INTRA:          -8.518
REMARK INTER:                  -8.791
REMARK INTRA:                   0.273
REMARK UNBOUND:                -0.381
REMARK SMILES Oc1cc(O)c2cc(O)c(-c3cc(O)c(O)c(O)c3)[o+]c2c1
REMARK SMILES IDX 10 1 20 2 21 3 22 4 2 5 3 6 4 7 6 8 7 9 8 10 11 11 12 12
REMARK SMILES IDX 13 13 19 14 15 15 17 16 14 17 16 19 18 21 9 23 1 25 5 27
REMARK H PARENT 14 18 16 20 18 22 9 24 1 26 5 28
REMARK Flexibility Score: inf
ROOT
ATOM      1  C   UNL     1      12.135 -17.206 -31.686  1.00  0.00     0.402 A 
ATOM      2  O   UNL     1      11.426 -17.632 -30.643  1.00  0.00    -0.202 OA
ATOM      3  C   UNL     1      11.816 -17.476 -29.383  1.00  0.00     0.368 A 
ATOM      4  C   UNL     1      11.001 -17.955 -28.355  1.00  0.00     0.162 A 
ATOM      5  C   UNL     1      11.384 -17.802 -27.022  1.00  0.00     0.128 A 
ATOM      6  C   UNL     1      12.590 -17.165 -26.712  1.00  0.00     0.093 A 
ATOM      7  C   UNL     1      13.426 -16.676 -27.724  1.00  0.00     0.136 A 
ATOM      8  C   UNL     1      13.041 -16.831 -29.081  1.00  0.00     0.125 A 
ATOM      9  C   UNL     1      13.821 -16.385 -30.161  1.00  0.00     0.078 A 
ATOM     10  C   UNL     1      13.377 -16.579 -31.473  1.00  0.00     0.223 A 
ENDROOT
BRANCH   1  11
ATOM     11  C   UNL     1      11.589 -17.430 -33.044  1.00  0.00     0.091 A 
ATOM     12  C   UNL     1      10.565 -18.369 -33.229  1.00  0.00     0.068 A 
ATOM     13  C   UNL     1      10.017 -18.586 -34.499  1.00  0.00     0.162 A 
ATOM     14  C   UNL     1      12.034 -16.681 -34.144  1.00  0.00     0.068 A 
ATOM     15  C   UNL     1      10.478 -17.854 -35.602  1.00  0.00     0.200 A 
ATOM     16  C   UNL     1      11.494 -16.885 -35.421  1.00  0.00     0.162 A 
BRANCH  13  17
ATOM     17  O   UNL     1       9.010 -19.534 -34.675  1.00  0.00    -0.504 OA
ATOM     18  H   UNL     1       9.022 -20.419 -34.183  1.00  0.00     0.293 HD
ENDBRANCH  13  17
BRANCH  15  19
ATOM     19  O   UNL     1       9.905 -18.115 -36.848  1.00  0.00    -0.502 OA
ATOM     20  H   UNL     1      10.434 -18.277 -37.693  1.00  0.00     0.293 HD
ENDBRANCH  15  19
BRANCH  16  21
ATOM     21  O   UNL     1      11.988 -16.104 -36.468  1.00  0.00    -0.504 OA
ATOM     22  H   UNL     1      12.906 -15.685 -36.476  1.00  0.00     0.293 HD
ENDBRANCH  16  21
ENDBRANCH   1  11
BRANCH  10  23
ATOM     23  O   UNL     1      14.173 -16.180 -32.547  1.00  0.00    -0.500 OA
ATOM     24  H   UNL     1      13.970 -16.469 -33.497  1.00  0.00     0.294 HD
ENDBRANCH  10  23
BRANCH   5  25
ATOM     25  O   UNL     1      10.557 -18.287 -26.011  1.00  0.00    -0.507 OA
ATOM     26  H   UNL     1      10.810 -18.201 -25.033  1.00  0.00     0.293 HD
ENDBRANCH   5  25
BRANCH   7  27
ATOM     27  O   UNL     1      14.612 -16.049 -27.333  1.00  0.00    -0.507 OA
ATOM     28  H   UNL     1      14.677 -15.357 -26.601  1.00  0.00     0.293 HD
ENDBRANCH   7  27
TORSDOF 7
ENDMDL
MODEL 8
REMARK VINA RESULT:    -6.502      2.067      2.973
REMARK INTER + INTRA:          -8.403
REMARK INTER:                  -8.161
REMARK INTRA:                  -0.241
REMARK UNBOUND:                -0.381
REMARK SMILES Oc1cc(O)c2cc(O)c(-c3cc(O)c(O)c(O)c3)[o+]c2c1
REMARK SMILES IDX 10 1 20 2 21 3 22 4 2 5 3 6 4 7 6 8 7 9 8 10 11 11 12 12
REMARK SMILES IDX 13 13 19 14 15 15 17 16 14 17 16 19 18 21 9 23 1 25 5 27
REMARK H PARENT 14 18 16 20 18 22 9 24 1 26 5 28
REMARK Flexibility Score: inf
ROOT
ATOM      1  C   UNL     1      11.072 -17.534 -31.589  1.00  0.00     0.402 A 
ATOM      2  O   UNL     1      10.617 -16.502 -32.295  1.00  0.00    -0.202 OA
ATOM      3  C   UNL     1      10.226 -16.600 -33.561  1.00  0.00     0.368 A 
ATOM      4  C   UNL     1       9.759 -15.459 -34.218  1.00  0.00     0.162 A 
ATOM      5  C   UNL     1       9.339 -15.533 -35.547  1.00  0.00     0.128 A 
ATOM      6  C   UNL     1       9.384 -16.756 -36.225  1.00  0.00     0.093 A 
ATOM      7  C   UNL     1       9.847 -17.914 -35.589  1.00  0.00     0.136 A 
ATOM      8  C   UNL     1      10.278 -17.843 -34.238  1.00  0.00     0.125 A 
ATOM      9  C   UNL     1      10.770 -18.949 -33.525  1.00  0.00     0.078 A 
ATOM     10  C   UNL     1      11.180 -18.799 -32.196  1.00  0.00     0.223 A 
ENDROOT
BRANCH   1  11
ATOM     11  C   UNL     1      11.469 -17.301 -30.182  1.00  0.00     0.091 A 
ATOM     12  C   UNL     1      10.753 -17.926 -29.151  1.00  0.00     0.068 A 
ATOM     13  C   UNL     1      11.120 -17.737 -27.813  1.00  0.00     0.162 A 
ATOM     14  C   UNL     1      12.584 -16.512 -29.857  1.00  0.00     0.068 A 
ATOM     15  C   UNL     1      12.218 -16.931 -27.488  1.00  0.00     0.200 A 
ATOM     16  C   UNL     1      12.963 -16.317 -28.522  1.00  0.00     0.162 A 
BRANCH  13  17
ATOM     17  O   UNL     1      10.391 -18.351 -26.795  1.00  0.00    -0.504 OA
ATOM     18  H   UNL     1       9.679 -19.044 -26.994  1.00  0.00     0.293 HD
ENDBRANCH  13  17
BRANCH  15  19
ATOM     19  O   UNL     1      12.537 -16.769 -26.137  1.00  0.00    -0.502 OA
ATOM     20  H   UNL     1      13.263 -16.156 -25.796  1.00  0.00     0.293 HD
ENDBRANCH  15  19
BRANCH  16  21
ATOM     21  O   UNL     1      14.082 -15.518 -28.276  1.00  0.00    -0.504 OA
ATOM     22  H   UNL     1      14.122 -14.527 -28.463  1.00  0.00     0.293 HD
ENDBRANCH  16  21
ENDBRANCH   1  11
BRANCH  10  23
ATOM     23  O   UNL     1      11.715 -19.885 -31.503  1.00  0.00    -0.500 OA
ATOM     24  H   UNL     1      11.556 -20.840 -31.805  1.00  0.00     0.294 HD
ENDBRANCH  10  23
BRANCH   5  25
ATOM     25  O   UNL     1       8.877 -14.384 -36.185  1.00  0.00    -0.507 OA
ATOM     26  H   UNL     1       9.480 -13.583 -36.335  1.00  0.00     0.293 HD
ENDBRANCH   5  25
BRANCH   7  27
ATOM     27  O   UNL     1       9.858 -19.097 -36.333  1.00  0.00    -0.507 OA
ATOM     28  H   UNL     1       9.274 -19.271 -37.137  1.00  0.00     0.293 HD
ENDBRANCH   7  27
TORSDOF 7
ENDMDL
MODEL 9
REMARK VINA RESULT:    -6.396      1.793      2.399
REMARK INTER + INTRA:          -8.272
REMARK INTER:                  -8.212
REMARK INTRA:                  -0.059
REMARK UNBOUND:                -0.381
REMARK SMILES Oc1cc(O)c2cc(O)c(-c3cc(O)c(O)c(O)c3)[o+]c2c1
REMARK SMILES IDX 10 1 20 2 21 3 22 4 2 5 3 6 4 7 6 8 7 9 8 10 11 11 12 12
REMARK SMILES IDX 13 13 19 14 15 15 17 16 14 17 16 19 18 21 9 23 1 25 5 27
REMARK H PARENT 14 18 16 20 18 22 9 24 1 26 5 28
REMARK Flexibility Score: inf
ROOT
ATOM      1  C   UNL     1      11.128 -17.031 -32.032  1.00  0.00     0.402 A 
ATOM      2  O   UNL     1      11.641 -16.993 -33.259  1.00  0.00    -0.202 OA
ATOM      3  C   UNL     1      11.258 -16.118 -34.184  1.00  0.00     0.368 A 
ATOM      4  C   UNL     1      11.860 -16.155 -35.444  1.00  0.00     0.162 A 
ATOM      5  C   UNL     1      11.479 -15.247 -36.433  1.00  0.00     0.128 A 
ATOM      6  C   UNL     1      10.492 -14.294 -36.162  1.00  0.00     0.093 A 
ATOM      7  C   UNL     1       9.873 -14.236 -34.906  1.00  0.00     0.136 A 
ATOM      8  C   UNL     1      10.256 -15.159 -33.898  1.00  0.00     0.125 A 
ATOM      9  C   UNL     1       9.682 -15.185 -32.617  1.00  0.00     0.078 A 
ATOM     10  C   UNL     1      10.108 -16.129 -31.677  1.00  0.00     0.223 A 
ENDROOT
BRANCH   1  11
ATOM     11  C   UNL     1      11.645 -18.047 -31.087  1.00  0.00     0.091 A 
ATOM     12  C   UNL     1      11.837 -19.363 -31.527  1.00  0.00     0.068 A 
ATOM     13  C   UNL     1      12.343 -20.339 -30.659  1.00  0.00     0.162 A 
ATOM     14  C   UNL     1      12.004 -17.708 -29.773  1.00  0.00     0.068 A 
ATOM     15  C   UNL     1      12.679 -20.005 -29.340  1.00  0.00     0.200 A 
ATOM     16  C   UNL     1      12.514 -18.672 -28.894  1.00  0.00     0.162 A 
BRANCH  13  17
ATOM     17  O   UNL     1      12.514 -21.649 -31.102  1.00  0.00    -0.504 OA
ATOM     18  H   UNL     1      12.226 -22.442 -30.541  1.00  0.00     0.293 HD
ENDBRANCH  13  17
BRANCH  15  19
ATOM     19  O   UNL     1      13.172 -21.017 -28.513  1.00  0.00    -0.502 OA
ATOM     20  H   UNL     1      14.139 -21.309 -28.489  1.00  0.00     0.293 HD
ENDBRANCH  15  19
BRANCH  16  21
ATOM     21  O   UNL     1      12.848 -18.262 -27.602  1.00  0.00    -0.504 OA
ATOM     22  H   UNL     1      12.171 -18.051 -26.883  1.00  0.00     0.293 HD
ENDBRANCH  16  21
ENDBRANCH   1  11
BRANCH  10  23
ATOM     23  O   UNL     1       9.504 -16.186 -30.420  1.00  0.00    -0.500 OA
ATOM     24  H   UNL     1       8.548 -16.502 -30.303  1.00  0.00     0.294 HD
ENDBRANCH  10  23
BRANCH   5  25
ATOM     25  O   UNL     1      12.090 -15.300 -37.684  1.00  0.00    -0.507 OA
ATOM     26  H   UNL     1      13.097 -15.240 -37.785  1.00  0.00     0.293 HD
ENDBRANCH   5  25
BRANCH   7  27
ATOM     27  O   UNL     1       8.899 -13.254 -34.713  1.00  0.00    -0.507 OA
ATOM     28  H   UNL     1       8.634 -12.568 -35.405  1.00  0.00     0.293 HD
ENDBRANCH   7  27
TORSDOF 7
ENDMDL
