MODEL 1
REMARK VINA RESULT:    -7.059      0.000      0.000
REMARK INTER + INTRA:          -8.598
REMARK INTER:                  -8.503
REMARK INTRA:                  -0.095
REMARK UNBOUND:                -0.095
REMARK SMILES O=c1c(O)c(-c2ccc(O)c(O)c2)oc2cc(O)cc(O)c12
REMARK SMILES IDX 5 1 3 2 2 3 1 4 22 5 20 6 19 7 17 8 16 9 15 10 14 11 6 12
REMARK SMILES IDX 7 13 8 14 9 15 13 16 11 17 10 18 12 20 4 22 21 24 18 26
REMARK H PARENT 10 19 12 21 4 23 21 25 18 27
REMARK Flexibility Score: inf
ROOT
ATOM      1  C   UNL     1      27.691  13.123  65.538  1.00  0.00     0.180 A 
ATOM      2  C   UNL     1      27.243  13.283  66.863  1.00  0.00     0.208 A 
ATOM      3  C   UNL     1      26.150  14.127  67.114  1.00  0.00     0.238 A 
ATOM      4  O   UNL     1      25.734  14.270  68.294  1.00  0.00    -0.285 OA
ATOM      5  C   UNL     1      25.538  14.810  66.042  1.00  0.00     0.111 A 
ATOM      6  C   UNL     1      24.435  15.682  66.208  1.00  0.00     0.134 A 
ATOM      7  C   UNL     1      23.887  16.332  65.093  1.00  0.00     0.093 A 
ATOM      8  C   UNL     1      24.422  16.128  63.816  1.00  0.00     0.123 A 
ATOM      9  C   UNL     1      25.509  15.269  63.646  1.00  0.00     0.094 A 
ATOM     10  C   UNL     1      26.068  14.610  64.746  1.00  0.00     0.146 A 
ATOM     11  O   UNL     1      27.099  13.795  64.555  1.00  0.00    -0.452 OA
ENDROOT
BRANCH   1  12
ATOM     12  C   UNL     1      28.825  12.236  65.192  1.00  0.00     0.025 A 
ATOM     13  C   UNL     1      30.098  12.424  65.755  1.00  0.00     0.016 A 
ATOM     14  C   UNL     1      31.146  11.559  65.432  1.00  0.00     0.051 A 
ATOM     15  C   UNL     1      30.943  10.486  64.557  1.00  0.00     0.157 A 
ATOM     16  C   UNL     1      28.615  11.148  64.332  1.00  0.00     0.062 A 
ATOM     17  C   UNL     1      29.660  10.276  64.002  1.00  0.00     0.158 A 
BRANCH  15  18
ATOM     18  O   UNL     1      32.034   9.662  64.273  1.00  0.00    -0.504 OA
ATOM     19  H   UNL     1      32.341   9.435  63.338  1.00  0.00     0.293 HD
ENDBRANCH  15  18
BRANCH  17  20
ATOM     20  O   UNL     1      29.379   9.222  63.130  1.00  0.00    -0.504 OA
ATOM     21  H   UNL     1      28.683   8.511  63.310  1.00  0.00     0.293 HD
ENDBRANCH  17  20
ENDBRANCH   1  12
BRANCH   2  22
ATOM     22  O   UNL     1      27.898  12.634  67.913  1.00  0.00    -0.502 OA
ATOM     23  H   UNL     1      28.907  12.616  67.996  1.00  0.00     0.293 HD
ENDBRANCH   2  22
BRANCH   6  24
ATOM     24  O   UNL     1      23.881  15.906  67.470  1.00  0.00    -0.507 OA
ATOM     25  H   UNL     1      24.239  15.448  68.299  1.00  0.00     0.293 HD
ENDBRANCH   6  24
BRANCH   8  26
ATOM     26  O   UNL     1      23.879  16.774  62.707  1.00  0.00    -0.508 OA
ATOM     27  H   UNL     1      24.063  17.753  62.521  1.00  0.00     0.293 HD
ENDBRANCH   8  26
TORSDOF 6
ENDMDL
MODEL 2
REMARK VINA RESULT:    -6.950      2.928      8.041
REMARK INTER + INTRA:          -8.467
REMARK INTER:                  -8.138
REMARK INTRA:                  -0.329
REMARK UNBOUND:                -0.095
REMARK SMILES O=c1c(O)c(-c2ccc(O)c(O)c2)oc2cc(O)cc(O)c12
REMARK SMILES IDX 5 1 3 2 2 3 1 4 22 5 20 6 19 7 17 8 16 9 15 10 14 11 6 12
REMARK SMILES IDX 7 13 8 14 9 15 13 16 11 17 10 18 12 20 4 22 21 24 18 26
REMARK H PARENT 10 19 12 21 4 23 21 25 18 27
REMARK Flexibility Score: inf
ROOT
ATOM      1  C   UNL     1      30.508  10.850  64.076  1.00  0.00     0.180 A 
ATOM      2  C   UNL     1      30.108   9.821  63.200  1.00  0.00     0.208 A 
ATOM      3  C   UNL     1      30.981   9.428  62.172  1.00  0.00     0.238 A 
ATOM      4  O   UNL     1      30.639   8.502  61.389  1.00  0.00    -0.285 OA
ATOM      5  C   UNL     1      32.223  10.080  62.026  1.00  0.00     0.111 A 
ATOM      6  C   UNL     1      33.157   9.747  61.015  1.00  0.00     0.134 A 
ATOM      7  C   UNL     1      34.369  10.449  60.929  1.00  0.00     0.093 A 
ATOM      8  C   UNL     1      34.662  11.476  61.833  1.00  0.00     0.123 A 
ATOM      9  C   UNL     1      33.745  11.807  62.832  1.00  0.00     0.094 A 
ATOM     10  C   UNL     1      32.532  11.118  62.935  1.00  0.00     0.146 A 
ATOM     11  O   UNL     1      31.680  11.451  63.897  1.00  0.00    -0.452 OA
ENDROOT
BRANCH   1  12
ATOM     12  C   UNL     1      29.651  11.307  65.194  1.00  0.00     0.025 A 
ATOM     13  C   UNL     1      29.661  10.653  66.437  1.00  0.00     0.016 A 
ATOM     14  C   UNL     1      28.862  11.118  67.484  1.00  0.00     0.051 A 
ATOM     15  C   UNL     1      28.053  12.247  67.318  1.00  0.00     0.157 A 
ATOM     16  C   UNL     1      28.857  12.452  65.032  1.00  0.00     0.062 A 
ATOM     17  C   UNL     1      28.052  12.925  66.077  1.00  0.00     0.158 A 
BRANCH  15  18
ATOM     18  O   UNL     1      27.275  12.657  68.403  1.00  0.00    -0.504 OA
ATOM     19  H   UNL     1      26.818  13.555  68.463  1.00  0.00     0.293 HD
ENDBRANCH  15  18
BRANCH  17  20
ATOM     20  O   UNL     1      27.279  14.063  65.840  1.00  0.00    -0.504 OA
ATOM     21  H   UNL     1      26.787  14.241  64.975  1.00  0.00     0.293 HD
ENDBRANCH  17  20
ENDBRANCH   1  12
BRANCH   2  22
ATOM     22  O   UNL     1      28.852   9.226  63.336  1.00  0.00    -0.502 OA
ATOM     23  H   UNL     1      28.004   9.661  62.995  1.00  0.00     0.293 HD
ENDBRANCH   2  22
BRANCH   6  24
ATOM     24  O   UNL     1      32.892   8.728  60.099  1.00  0.00    -0.507 OA
ATOM     25  H   UNL     1      33.619   8.335  59.514  1.00  0.00     0.293 HD
ENDBRANCH   6  24
BRANCH   8  26
ATOM     26  O   UNL     1      35.865  12.174  61.748  1.00  0.00    -0.508 OA
ATOM     27  H   UNL     1      36.006  13.048  62.241  1.00  0.00     0.293 HD
ENDBRANCH   8  26
TORSDOF 6
ENDMDL
MODEL 3
REMARK VINA RESULT:    -6.719     10.669     12.305
REMARK INTER + INTRA:          -8.189
REMARK INTER:                  -7.864
REMARK INTRA:                  -0.325
REMARK UNBOUND:                -0.095
REMARK SMILES O=c1c(O)c(-c2ccc(O)c(O)c2)oc2cc(O)cc(O)c12
REMARK SMILES IDX 5 1 3 2 2 3 1 4 22 5 20 6 19 7 17 8 16 9 15 10 14 11 6 12
REMARK SMILES IDX 7 13 8 14 9 15 13 16 11 17 10 18 12 20 4 22 21 24 18 26
REMARK H PARENT 10 19 12 21 4 23 21 25 18 27
REMARK Flexibility Score: inf
ROOT
ATOM      1  C   UNL     1      38.013  14.822  62.734  1.00  0.00     0.180 A 
ATOM      2  C   UNL     1      38.515  13.795  61.912  1.00  0.00     0.208 A 
ATOM      3  C   UNL     1      38.434  13.941  60.518  1.00  0.00     0.238 A 
ATOM      4  O   UNL     1      38.889  13.032  59.772  1.00  0.00    -0.285 OA
ATOM      5  C   UNL     1      37.838  15.096  59.972  1.00  0.00     0.111 A 
ATOM      6  C   UNL     1      37.713  15.319  58.579  1.00  0.00     0.134 A 
ATOM      7  C   UNL     1      37.099  16.491  58.114  1.00  0.00     0.093 A 
ATOM      8  C   UNL     1      36.607  17.442  59.014  1.00  0.00     0.123 A 
ATOM      9  C   UNL     1      36.728  17.228  60.388  1.00  0.00     0.094 A 
ATOM     10  C   UNL     1      37.339  16.067  60.871  1.00  0.00     0.146 A 
ATOM     11  O   UNL     1      37.444  15.891  62.183  1.00  0.00    -0.452 OA
ENDROOT
BRANCH   1  12
ATOM     12  C   UNL     1      38.078  14.750  64.212  1.00  0.00     0.025 A 
ATOM     13  C   UNL     1      37.042  14.172  64.963  1.00  0.00     0.016 A 
ATOM     14  C   UNL     1      37.138  14.094  66.353  1.00  0.00     0.051 A 
ATOM     15  C   UNL     1      38.271  14.574  67.019  1.00  0.00     0.157 A 
ATOM     16  C   UNL     1      39.224  15.213  64.876  1.00  0.00     0.062 A 
ATOM     17  C   UNL     1      39.330  15.138  66.271  1.00  0.00     0.158 A 
BRANCH  15  18
ATOM     18  O   UNL     1      38.302  14.470  68.411  1.00  0.00    -0.504 OA
ATOM     19  H   UNL     1      37.531  14.719  69.014  1.00  0.00     0.293 HD
ENDBRANCH  15  18
BRANCH  17  20
ATOM     20  O   UNL     1      40.495  15.629  66.863  1.00  0.00    -0.504 OA
ATOM     21  H   UNL     1      41.107  15.078  67.448  1.00  0.00     0.293 HD
ENDBRANCH  17  20
ENDBRANCH   1  12
BRANCH   2  22
ATOM     22  O   UNL     1      39.055  12.638  62.478  1.00  0.00    -0.502 OA
ATOM     23  H   UNL     1      38.481  11.857  62.772  1.00  0.00     0.293 HD
ENDBRANCH   2  22
BRANCH   6  24
ATOM     24  O   UNL     1      38.194  14.387  57.657  1.00  0.00    -0.507 OA
ATOM     25  H   UNL     1      37.583  13.711  57.214  1.00  0.00     0.293 HD
ENDBRANCH   6  24
BRANCH   8  26
ATOM     26  O   UNL     1      35.996  18.607  58.553  1.00  0.00    -0.508 OA
ATOM     27  H   UNL     1      35.366  19.142  59.138  1.00  0.00     0.293 HD
ENDBRANCH   8  26
TORSDOF 6
ENDMDL
MODEL 4
REMARK VINA RESULT:    -6.714      3.956      5.990
REMARK INTER + INTRA:          -8.183
REMARK INTER:                  -8.357
REMARK INTRA:                   0.174
REMARK UNBOUND:                -0.095
REMARK SMILES O=c1c(O)c(-c2ccc(O)c(O)c2)oc2cc(O)cc(O)c12
REMARK SMILES IDX 5 1 3 2 2 3 1 4 22 5 20 6 19 7 17 8 16 9 15 10 14 11 6 12
REMARK SMILES IDX 7 13 8 14 9 15 13 16 11 17 10 18 12 20 4 22 21 24 18 26
REMARK H PARENT 10 19 12 21 4 23 21 25 18 27
REMARK Flexibility Score: inf
ROOT
ATOM      1  C   UNL     1      31.117  10.552  63.909  1.00  0.00     0.180 A 
ATOM      2  C   UNL     1      29.743  10.294  64.080  1.00  0.00     0.208 A 
ATOM      3  C   UNL     1      29.069  10.893  65.156  1.00  0.00     0.238 A 
ATOM      4  O   UNL     1      27.837  10.679  65.313  1.00  0.00    -0.285 OA
ATOM      5  C   UNL     1      29.781  11.719  66.050  1.00  0.00     0.111 A 
ATOM      6  C   UNL     1      29.178  12.357  67.162  1.00  0.00     0.134 A 
ATOM      7  C   UNL     1      29.957  13.157  68.012  1.00  0.00     0.093 A 
ATOM      8  C   UNL     1      31.324  13.330  67.772  1.00  0.00     0.123 A 
ATOM      9  C   UNL     1      31.923  12.704  66.677  1.00  0.00     0.094 A 
ATOM     10  C   UNL     1      31.164  11.904  65.817  1.00  0.00     0.146 A 
ATOM     11  O   UNL     1      31.759  11.324  64.781  1.00  0.00    -0.452 OA
ENDROOT
BRANCH   1  12
ATOM     12  C   UNL     1      31.892   9.972  62.788  1.00  0.00     0.025 A 
ATOM     13  C   UNL     1      31.318   9.788  61.520  1.00  0.00     0.016 A 
ATOM     14  C   UNL     1      32.077   9.262  60.472  1.00  0.00     0.051 A 
ATOM     15  C   UNL     1      33.421   8.924  60.663  1.00  0.00     0.157 A 
ATOM     16  C   UNL     1      33.246   9.653  62.976  1.00  0.00     0.062 A 
ATOM     17  C   UNL     1      34.015   9.125  61.930  1.00  0.00     0.158 A 
BRANCH  15  18
ATOM     18  O   UNL     1      34.122   8.398  59.576  1.00  0.00    -0.504 OA
ATOM     19  H   UNL     1      35.035   8.717  59.285  1.00  0.00     0.293 HD
ENDBRANCH  15  18
BRANCH  17  20
ATOM     20  O   UNL     1      35.352   8.821  62.195  1.00  0.00    -0.504 OA
ATOM     21  H   UNL     1      36.134   9.297  61.769  1.00  0.00     0.293 HD
ENDBRANCH  17  20
ENDBRANCH   1  12
BRANCH   2  22
ATOM     22  O   UNL     1      29.072   9.433  63.209  1.00  0.00    -0.502 OA
ATOM     23  H   UNL     1      29.393   8.490  63.022  1.00  0.00     0.293 HD
ENDBRANCH   2  22
BRANCH   6  24
ATOM     24  O   UNL     1      27.817  12.202  67.427  1.00  0.00    -0.507 OA
ATOM     25  H   UNL     1      27.108  12.504  66.770  1.00  0.00     0.293 HD
ENDBRANCH   6  24
BRANCH   8  26
ATOM     26  O   UNL     1      32.098  14.124  68.615  1.00  0.00    -0.508 OA
ATOM     27  H   UNL     1      32.779  14.780  68.249  1.00  0.00     0.293 HD
ENDBRANCH   8  26
TORSDOF 6
ENDMDL
MODEL 5
REMARK VINA RESULT:    -6.692      7.173      8.841
REMARK INTER + INTRA:          -8.156
REMARK INTER:                  -7.905
REMARK INTRA:                  -0.250
REMARK UNBOUND:                -0.095
REMARK SMILES O=c1c(O)c(-c2ccc(O)c(O)c2)oc2cc(O)cc(O)c12
REMARK SMILES IDX 5 1 3 2 2 3 1 4 22 5 20 6 19 7 17 8 16 9 15 10 14 11 6 12
REMARK SMILES IDX 7 13 8 14 9 15 13 16 11 17 10 18 12 20 4 22 21 24 18 26
REMARK H PARENT 10 19 12 21 4 23 21 25 18 27
REMARK Flexibility Score: inf
ROOT
ATOM      1  C   UNL     1      34.186  12.072  63.559  1.00  0.00     0.180 A 
ATOM      2  C   UNL     1      33.737  12.295  64.875  1.00  0.00     0.208 A 
ATOM      3  C   UNL     1      34.398  13.249  65.666  1.00  0.00     0.238 A 
ATOM      4  O   UNL     1      33.999  13.464  66.841  1.00  0.00    -0.285 OA
ATOM      5  C   UNL     1      35.504  13.946  65.136  1.00  0.00     0.111 A 
ATOM      6  C   UNL     1      36.228  14.919  65.867  1.00  0.00     0.134 A 
ATOM      7  C   UNL     1      37.324  15.562  65.273  1.00  0.00     0.093 A 
ATOM      8  C   UNL     1      37.709  15.251  63.964  1.00  0.00     0.123 A 
ATOM      9  C   UNL     1      36.998  14.293  63.239  1.00  0.00     0.094 A 
ATOM     10  C   UNL     1      35.902  13.642  63.813  1.00  0.00     0.146 A 
ATOM     11  O   UNL     1      35.241  12.738  63.099  1.00  0.00    -0.452 OA
ENDROOT
BRANCH   1  12
ATOM     12  C   UNL     1      33.529  11.097  62.659  1.00  0.00     0.025 A 
ATOM     13  C   UNL     1      32.747  11.518  61.571  1.00  0.00     0.016 A 
ATOM     14  C   UNL     1      32.157  10.579  60.722  1.00  0.00     0.051 A 
ATOM     15  C   UNL     1      32.346   9.209  60.931  1.00  0.00     0.157 A 
ATOM     16  C   UNL     1      33.737   9.724  62.858  1.00  0.00     0.062 A 
ATOM     17  C   UNL     1      33.149   8.775  62.011  1.00  0.00     0.158 A 
BRANCH  15  18
ATOM     18  O   UNL     1      31.725   8.323  60.048  1.00  0.00    -0.504 OA
ATOM     19  H   UNL     1      30.745   8.081  60.087  1.00  0.00     0.293 HD
ENDBRANCH  15  18
BRANCH  17  20
ATOM     20  O   UNL     1      33.392   7.426  62.277  1.00  0.00    -0.504 OA
ATOM     21  H   UNL     1      34.048   6.858  61.761  1.00  0.00     0.293 HD
ENDBRANCH  17  20
ENDBRANCH   1  12
BRANCH   2  22
ATOM     22  O   UNL     1      32.670  11.556  65.393  1.00  0.00    -0.502 OA
ATOM     23  H   UNL     1      32.402  11.599  66.368  1.00  0.00     0.293 HD
ENDBRANCH   2  22
BRANCH   6  24
ATOM     24  O   UNL     1      35.869  15.250  67.175  1.00  0.00    -0.507 OA
ATOM     25  H   UNL     1      36.189  16.103  67.616  1.00  0.00     0.293 HD
ENDBRANCH   6  24
BRANCH   8  26
ATOM     26  O   UNL     1      38.797  15.890  63.374  1.00  0.00    -0.508 OA
ATOM     27  H   UNL     1      38.701  16.408  62.508  1.00  0.00     0.293 HD
ENDBRANCH   8  26
TORSDOF 6
ENDMDL
MODEL 6
REMARK VINA RESULT:    -6.674      5.430      7.814
REMARK INTER + INTRA:          -8.134
REMARK INTER:                  -7.804
REMARK INTRA:                  -0.330
REMARK UNBOUND:                -0.095
REMARK SMILES O=c1c(O)c(-c2ccc(O)c(O)c2)oc2cc(O)cc(O)c12
REMARK SMILES IDX 5 1 3 2 2 3 1 4 22 5 20 6 19 7 17 8 16 9 15 10 14 11 6 12
REMARK SMILES IDX 7 13 8 14 9 15 13 16 11 17 10 18 12 20 4 22 21 24 18 26
REMARK H PARENT 10 19 12 21 4 23 21 25 18 27
REMARK Flexibility Score: inf
ROOT
ATOM      1  C   UNL     1      33.319  11.953  64.838  1.00  0.00     0.180 A 
ATOM      2  C   UNL     1      32.055  11.916  65.459  1.00  0.00     0.208 A 
ATOM      3  C   UNL     1      31.036  11.144  64.879  1.00  0.00     0.238 A 
ATOM      4  O   UNL     1      29.905  11.094  65.432  1.00  0.00    -0.285 OA
ATOM      5  C   UNL     1      31.291  10.441  63.683  1.00  0.00     0.111 A 
ATOM      6  C   UNL     1      30.318   9.644  63.032  1.00  0.00     0.134 A 
ATOM      7  C   UNL     1      30.646   8.982  61.839  1.00  0.00     0.093 A 
ATOM      8  C   UNL     1      31.925   9.104  61.286  1.00  0.00     0.123 A 
ATOM      9  C   UNL     1      32.887   9.888  61.924  1.00  0.00     0.094 A 
ATOM     10  C   UNL     1      32.581  10.554  63.115  1.00  0.00     0.146 A 
ATOM     11  O   UNL     1      33.517  11.289  63.703  1.00  0.00    -0.452 OA
ENDROOT
BRANCH   1  12
ATOM     12  C   UNL     1      34.448  12.730  65.399  1.00  0.00     0.025 A 
ATOM     13  C   UNL     1      35.372  12.145  66.281  1.00  0.00     0.016 A 
ATOM     14  C   UNL     1      36.442  12.891  66.777  1.00  0.00     0.051 A 
ATOM     15  C   UNL     1      36.621  14.225  66.396  1.00  0.00     0.157 A 
ATOM     16  C   UNL     1      34.638  14.061  64.999  1.00  0.00     0.062 A 
ATOM     17  C   UNL     1      35.709  14.817  65.492  1.00  0.00     0.158 A 
BRANCH  15  18
ATOM     18  O   UNL     1      37.709  14.916  66.932  1.00  0.00    -0.504 OA
ATOM     19  H   UNL     1      37.788  15.179  67.904  1.00  0.00     0.293 HD
ENDBRANCH  15  18
BRANCH  17  20
ATOM     20  O   UNL     1      35.828  16.139  65.058  1.00  0.00    -0.504 OA
ATOM     21  H   UNL     1      36.356  16.848  65.546  1.00  0.00     0.293 HD
ENDBRANCH  17  20
ENDBRANCH   1  12
BRANCH   2  22
ATOM     22  O   UNL     1      31.815  12.661  66.617  1.00  0.00    -0.502 OA
ATOM     23  H   UNL     1      32.507  13.284  67.015  1.00  0.00     0.293 HD
ENDBRANCH   2  22
BRANCH   6  24
ATOM     24  O   UNL     1      29.033   9.504  63.560  1.00  0.00    -0.507 OA
ATOM     25  H   UNL     1      28.765   8.692  64.103  1.00  0.00     0.293 HD
ENDBRANCH   6  24
BRANCH   8  26
ATOM     26  O   UNL     1      32.251   8.447  60.101  1.00  0.00    -0.508 OA
ATOM     27  H   UNL     1      33.185   8.493  59.710  1.00  0.00     0.293 HD
ENDBRANCH   8  26
TORSDOF 6
ENDMDL
MODEL 7
REMARK VINA RESULT:    -6.628      2.535      4.935
REMARK INTER + INTRA:          -8.079
REMARK INTER:                  -7.832
REMARK INTRA:                  -0.248
REMARK UNBOUND:                -0.095
REMARK SMILES O=c1c(O)c(-c2ccc(O)c(O)c2)oc2cc(O)cc(O)c12
REMARK SMILES IDX 5 1 3 2 2 3 1 4 22 5 20 6 19 7 17 8 16 9 15 10 14 11 6 12
REMARK SMILES IDX 7 13 8 14 9 15 13 16 11 17 10 18 12 20 4 22 21 24 18 26
REMARK H PARENT 10 19 12 21 4 23 21 25 18 27
REMARK Flexibility Score: inf
ROOT
ATOM      1  C   UNL     1      30.813  10.608  64.476  1.00  0.00     0.180 A 
ATOM      2  C   UNL     1      31.267  10.360  65.786  1.00  0.00     0.208 A 
ATOM      3  C   UNL     1      30.542  10.886  66.867  1.00  0.00     0.238 A 
ATOM      4  O   UNL     1      30.932  10.662  68.044  1.00  0.00    -0.285 OA
ATOM      5  C   UNL     1      29.392  11.665  66.621  1.00  0.00     0.111 A 
ATOM      6  C   UNL     1      28.608  12.235  67.652  1.00  0.00     0.134 A 
ATOM      7  C   UNL     1      27.482  13.006  67.325  1.00  0.00     0.093 A 
ATOM      8  C   UNL     1      27.128  13.218  65.988  1.00  0.00     0.123 A 
ATOM      9  C   UNL     1      27.897  12.657  64.968  1.00  0.00     0.094 A 
ATOM     10  C   UNL     1      29.022  11.884  65.273  1.00  0.00     0.146 A 
ATOM     11  O   UNL     1      29.733  11.359  64.282  1.00  0.00    -0.452 OA
ENDROOT
BRANCH   1  12
ATOM     12  C   UNL     1      31.514  10.072  63.287  1.00  0.00     0.025 A 
ATOM     13  C   UNL     1      30.962   9.032  62.521  1.00  0.00     0.016 A 
ATOM     14  C   UNL     1      31.630   8.559  61.389  1.00  0.00     0.051 A 
ATOM     15  C   UNL     1      32.849   9.121  60.992  1.00  0.00     0.157 A 
ATOM     16  C   UNL     1      32.724  10.651  62.878  1.00  0.00     0.062 A 
ATOM     17  C   UNL     1      33.401  10.183  61.744  1.00  0.00     0.158 A 
BRANCH  15  18
ATOM     18  O   UNL     1      33.467   8.600  59.854  1.00  0.00    -0.504 OA
ATOM     19  H   UNL     1      33.644   9.131  59.014  1.00  0.00     0.293 HD
ENDBRANCH  15  18
BRANCH  17  20
ATOM     20  O   UNL     1      34.607  10.801  61.405  1.00  0.00    -0.504 OA
ATOM     21  H   UNL     1      35.465  10.300  61.220  1.00  0.00     0.293 HD
ENDBRANCH  17  20
ENDBRANCH   1  12
BRANCH   2  22
ATOM     22  O   UNL     1      32.437   9.627  66.002  1.00  0.00    -0.502 OA
ATOM     23  H   UNL     1      32.951   9.189  65.247  1.00  0.00     0.293 HD
ENDBRANCH   2  22
BRANCH   6  24
ATOM     24  O   UNL     1      28.937  12.042  68.995  1.00  0.00    -0.507 OA
ATOM     25  H   UNL     1      29.056  12.821  69.632  1.00  0.00     0.293 HD
ENDBRANCH   6  24
BRANCH   8  26
ATOM     26  O   UNL     1      26.010  13.983  65.663  1.00  0.00    -0.508 OA
ATOM     27  H   UNL     1      25.103  13.799  66.075  1.00  0.00     0.293 HD
ENDBRANCH   8  26
TORSDOF 6
ENDMDL
MODEL 8
REMARK VINA RESULT:    -6.623      5.033      7.953
REMARK INTER + INTRA:          -8.073
REMARK INTER:                  -7.786
REMARK INTRA:                  -0.287
REMARK UNBOUND:                -0.095
REMARK SMILES O=c1c(O)c(-c2ccc(O)c(O)c2)oc2cc(O)cc(O)c12
REMARK SMILES IDX 5 1 3 2 2 3 1 4 22 5 20 6 19 7 17 8 16 9 15 10 14 11 6 12
REMARK SMILES IDX 7 13 8 14 9 15 13 16 11 17 10 18 12 20 4 22 21 24 18 26
REMARK H PARENT 10 19 12 21 4 23 21 25 18 27
REMARK Flexibility Score: inf
ROOT
ATOM      1  C   UNL     1      32.853  11.998  65.799  1.00  0.00     0.180 A 
ATOM      2  C   UNL     1      33.320  11.725  67.100  1.00  0.00     0.208 A 
ATOM      3  C   UNL     1      34.424  12.441  67.588  1.00  0.00     0.238 A 
ATOM      4  O   UNL     1      34.845  12.214  68.754  1.00  0.00    -0.285 OA
ATOM      5  C   UNL     1      35.052  13.400  66.765  1.00  0.00     0.111 A 
ATOM      6  C   UNL     1      36.172  14.161  67.179  1.00  0.00     0.134 A 
ATOM      7  C   UNL     1      36.746  15.089  66.298  1.00  0.00     0.093 A 
ATOM      8  C   UNL     1      36.223  15.269  65.013  1.00  0.00     0.123 A 
ATOM      9  C   UNL     1      35.119  14.521  64.600  1.00  0.00     0.094 A 
ATOM     10  C   UNL     1      34.531  13.592  65.464  1.00  0.00     0.146 A 
ATOM     11  O   UNL     1      33.479  12.898  65.047  1.00  0.00    -0.452 OA
ENDROOT
BRANCH   1  12
ATOM     12  C   UNL     1      31.683  11.297  65.222  1.00  0.00     0.025 A 
ATOM     13  C   UNL     1      30.372  11.625  65.603  1.00  0.00     0.016 A 
ATOM     14  C   UNL     1      29.284  10.967  65.026  1.00  0.00     0.051 A 
ATOM     15  C   UNL     1      29.480   9.983  64.051  1.00  0.00     0.157 A 
ATOM     16  C   UNL     1      31.881  10.326  64.228  1.00  0.00     0.062 A 
ATOM     17  C   UNL     1      30.795   9.661  63.643  1.00  0.00     0.158 A 
BRANCH  15  18
ATOM     18  O   UNL     1      28.350   9.360  63.517  1.00  0.00    -0.504 OA
ATOM     19  H   UNL     1      28.333   8.893  62.622  1.00  0.00     0.293 HD
ENDBRANCH  15  18
BRANCH  17  20
ATOM     20  O   UNL     1      31.069   8.698  62.670  1.00  0.00    -0.504 OA
ATOM     21  H   UNL     1      31.956   8.614  62.193  1.00  0.00     0.293 HD
ENDBRANCH  17  20
ENDBRANCH   1  12
BRANCH   2  22
ATOM     22  O   UNL     1      32.712  10.736  67.876  1.00  0.00    -0.502 OA
ATOM     23  H   UNL     1      32.301   9.903  67.471  1.00  0.00     0.293 HD
ENDBRANCH   2  22
BRANCH   6  24
ATOM     24  O   UNL     1      36.716  14.003  68.455  1.00  0.00    -0.507 OA
ATOM     25  H   UNL     1      37.396  14.655  68.828  1.00  0.00     0.293 HD
ENDBRANCH   6  24
BRANCH   8  26
ATOM     26  O   UNL     1      36.793  16.191  64.137  1.00  0.00    -0.508 OA
ATOM     27  H   UNL     1      37.009  15.946  63.177  1.00  0.00     0.293 HD
ENDBRANCH   8  26
TORSDOF 6
ENDMDL
MODEL 9
REMARK VINA RESULT:    -6.545      6.197      9.568
REMARK INTER + INTRA:          -7.978
REMARK INTER:                  -7.662
REMARK INTRA:                  -0.316
REMARK UNBOUND:                -0.095
REMARK SMILES O=c1c(O)c(-c2ccc(O)c(O)c2)oc2cc(O)cc(O)c12
REMARK SMILES IDX 5 1 3 2 2 3 1 4 22 5 20 6 19 7 17 8 16 9 15 10 14 11 6 12
REMARK SMILES IDX 7 13 8 14 9 15 13 16 11 17 10 18 12 20 4 22 21 24 18 26
REMARK H PARENT 10 19 12 21 4 23 21 25 18 27
REMARK Flexibility Score: inf
ROOT
ATOM      1  C   UNL     1      35.110  12.126  62.564  1.00  0.00     0.180 A 
ATOM      2  C   UNL     1      35.538  11.279  61.524  1.00  0.00     0.208 A 
ATOM      3  C   UNL     1      34.628  10.358  60.981  1.00  0.00     0.238 A 
ATOM      4  O   UNL     1      34.996   9.601  60.043  1.00  0.00    -0.285 OA
ATOM      5  C   UNL     1      33.318  10.286  61.498  1.00  0.00     0.111 A 
ATOM      6  C   UNL     1      32.341   9.384  61.011  1.00  0.00     0.134 A 
ATOM      7  C   UNL     1      31.061   9.367  61.585  1.00  0.00     0.093 A 
ATOM      8  C   UNL     1      30.741  10.233  62.636  1.00  0.00     0.123 A 
ATOM      9  C   UNL     1      31.700  11.125  63.119  1.00  0.00     0.094 A 
ATOM     10  C   UNL     1      32.980  11.159  62.559  1.00  0.00     0.146 A 
ATOM     11  O   UNL     1      33.871  12.020  63.036  1.00  0.00    -0.452 OA
ENDROOT
BRANCH   1  12
ATOM     12  C   UNL     1      36.006  13.135  63.174  1.00  0.00     0.025 A 
ATOM     13  C   UNL     1      36.752  12.848  64.329  1.00  0.00     0.016 A 
ATOM     14  C   UNL     1      37.608  13.808  64.872  1.00  0.00     0.051 A 
ATOM     15  C   UNL     1      37.748  15.063  64.269  1.00  0.00     0.157 A 
ATOM     16  C   UNL     1      36.160  14.386  62.557  1.00  0.00     0.062 A 
ATOM     17  C   UNL     1      37.017  15.355  63.095  1.00  0.00     0.158 A 
BRANCH  15  18
ATOM     18  O   UNL     1      38.617  15.980  64.866  1.00  0.00    -0.504 OA
ATOM     19  H   UNL     1      38.746  16.069  65.863  1.00  0.00     0.293 HD
ENDBRANCH  15  18
BRANCH  17  20
ATOM     20  O   UNL     1      37.111  16.581  62.432  1.00  0.00    -0.504 OA
ATOM     21  H   UNL     1      36.375  16.971  61.860  1.00  0.00     0.293 HD
ENDBRANCH  17  20
ENDBRANCH   1  12
BRANCH   2  22
ATOM     22  O   UNL     1      36.856  11.336  61.063  1.00  0.00    -0.502 OA
ATOM     23  H   UNL     1      37.621  10.882  61.547  1.00  0.00     0.293 HD
ENDBRANCH   2  22
BRANCH   6  24
ATOM     24  O   UNL     1      32.632   8.507  59.964  1.00  0.00    -0.507 OA
ATOM     25  H   UNL     1      33.295   7.749  60.072  1.00  0.00     0.293 HD
ENDBRANCH   6  24
BRANCH   8  26
ATOM     26  O   UNL     1      29.470  10.217  63.206  1.00  0.00    -0.508 OA
ATOM     27  H   UNL     1      28.822   9.457  63.034  1.00  0.00     0.293 HD
ENDBRANCH   8  26
TORSDOF 6
ENDMDL
