MODEL 1
REMARK VINA RESULT:    -7.082      0.000      0.000
REMARK INTER + INTRA:         -14.697
REMARK INTER:                 -11.636
REMARK INTRA:                  -3.060
REMARK UNBOUND:                -3.060
REMARK SMILES C[C@@H]1O[C@H](OC[C@H]2O[C@H](Oc3c(-c4ccc(O)c(O)c4)oc4cc(O)cc(O)c4c3=O)[C@@H](O)[C@H](O)[C@H]2O)[C@@H](O)[C@H](O)[C@@H]1O
REMARK SMILES IDX 7 1 36 2 34 3 32 4 9 5 8 6 6 7 5 8 4 9 1 10 2 11 42 12 3 13
REMARK SMILES IDX 40 14 38 15 43 16 41 18 39 20 37 22 35 24 10 26 11 27 12 28
REMARK SMILES IDX 30 29 21 30 29 31 31 32 22 33 27 34 23 35 26 36 24 37 13 38
REMARK SMILES IDX 20 39 14 40 18 41 15 42 16 43 19 44 17 46 28 48 25 50 33 52
REMARK H PARENT 43 17 41 19 39 21 37 23 35 25 19 45 17 47 28 49 25 51 33 53
REMARK Flexibility Score: inf
ROOT
ATOM      1  C   UNL     1     -15.827 -14.763  -6.027  1.00  0.00     0.180 C 
ATOM      2  C   UNL     1     -15.002 -15.430  -4.896  1.00  0.00     0.177 C 
ATOM      3  C   UNL     1     -15.100 -14.606  -3.579  1.00  0.00     0.180 C 
ATOM      4  C   UNL     1     -15.684 -13.194  -3.821  1.00  0.00     0.214 C 
ATOM      5  C   UNL     1     -16.996 -13.259  -4.659  1.00  0.00     0.339 C 
ATOM      6  O   UNL     1     -17.090 -14.406  -5.500  1.00  0.00    -0.332 OA
ENDROOT
BRANCH   1   7
ATOM      7  C   UNL     1     -16.011 -15.593  -7.326  1.00  0.00     0.198 C 
BRANCH   7   8
ATOM      8  O   UNL     1     -16.609 -16.860  -7.091  1.00  0.00    -0.347 OA
BRANCH   8   9
ATOM      9  C   UNL     1     -17.751 -17.094  -7.903  1.00  0.00     0.281 C 
ATOM     10  C   UNL     1     -21.294 -16.297  -7.388  1.00  0.00     0.041 C 
ATOM     11  C   UNL     1     -20.100 -17.098  -7.916  1.00  0.00     0.150 C 
ATOM     12  C   UNL     1     -20.016 -17.095  -9.480  1.00  0.00     0.174 C 
ATOM     13  O   UNL     1     -18.928 -16.578  -7.299  1.00  0.00    -0.344 OA
ATOM     14  C   UNL     1     -18.911 -16.134  -9.965  1.00  0.00     0.179 C 
ATOM     15  C   UNL     1     -17.554 -16.523  -9.334  1.00  0.00     0.202 C 
BRANCH  12  16
ATOM     16  O   UNL     1     -21.251 -16.771 -10.072  1.00  0.00    -0.388 OA
ATOM     17  H   UNL     1     -21.328 -17.318 -10.898  1.00  0.00     0.211 HD
ENDBRANCH  12  16
BRANCH  14  18
ATOM     18  O   UNL     1     -19.228 -14.812  -9.608  1.00  0.00    -0.387 OA
ATOM     19  H   UNL     1     -19.947 -14.511 -10.223  1.00  0.00     0.211 HD
ENDBRANCH  14  18
BRANCH  15  20
ATOM     20  O   UNL     1     -16.913 -17.491 -10.125  1.00  0.00    -0.385 OA
ATOM     21  H   UNL     1     -16.173 -17.032 -10.606  1.00  0.00     0.211 HD
ENDBRANCH  15  20
ENDBRANCH   8   9
ENDBRANCH   7   8
ENDBRANCH   1   7
BRANCH   2  22
ATOM     22  O   UNL     1     -15.484 -16.727  -4.645  1.00  0.00    -0.387 OA
ATOM     23  H   UNL     1     -16.156 -16.928  -5.348  1.00  0.00     0.211 HD
ENDBRANCH   2  22
BRANCH   3  24
ATOM     24  O   UNL     1     -13.824 -14.507  -3.000  1.00  0.00    -0.387 OA
ATOM     25  H   UNL     1     -13.262 -15.217  -3.410  1.00  0.00     0.211 HD
ENDBRANCH   3  24
BRANCH   5  26
ATOM     26  O   UNL     1     -17.104 -12.075  -5.449  1.00  0.00    -0.454 OA
BRANCH  26  27
ATOM     27  C   UNL     1     -18.320 -11.601  -5.958  1.00  0.00     0.214 A 
ATOM     28  C   UNL     1     -19.199 -10.893  -5.118  1.00  0.00     0.180 A 
ATOM     29  C   UNL     1     -18.683 -11.801  -7.300  1.00  0.00     0.239 A 
ATOM     30  O   UNL     1     -20.341 -10.415  -5.602  1.00  0.00    -0.452 OA
ATOM     31  C   UNL     1     -19.902 -11.277  -7.778  1.00  0.00     0.111 A 
ATOM     32  O   UNL     1     -17.924 -12.464  -8.058  1.00  0.00    -0.285 OA
ATOM     33  C   UNL     1     -20.722 -10.578  -6.862  1.00  0.00     0.146 A 
ATOM     34  C   UNL     1     -20.333 -11.416  -9.120  1.00  0.00     0.134 A 
ATOM     35  C   UNL     1     -21.949 -10.050  -7.274  1.00  0.00     0.094 A 
ATOM     36  C   UNL     1     -21.570 -10.886  -9.512  1.00  0.00     0.093 A 
ATOM     37  C   UNL     1     -22.377 -10.208  -8.595  1.00  0.00     0.123 A 
BRANCH  28  38
ATOM     38  C   UNL     1     -18.868 -10.619  -3.702  1.00  0.00     0.025 A 
ATOM     39  C   UNL     1     -19.337 -11.487  -2.705  1.00  0.00     0.062 A 
ATOM     40  C   UNL     1     -18.080  -9.515  -3.333  1.00  0.00     0.016 A 
ATOM     41  C   UNL     1     -19.053 -11.247  -1.355  1.00  0.00     0.158 A 
ATOM     42  C   UNL     1     -17.794  -9.273  -1.988  1.00  0.00     0.051 A 
ATOM     43  C   UNL     1     -18.278 -10.133  -0.993  1.00  0.00     0.157 A 
BRANCH  41  44
ATOM     44  O   UNL     1     -19.548 -12.124  -0.392  1.00  0.00    -0.504 OA
ATOM     45  H   UNL     1     -19.263 -13.094  -0.352  1.00  0.00     0.293 HD
ENDBRANCH  41  44
BRANCH  43  46
ATOM     46  O   UNL     1     -17.992  -9.884   0.346  1.00  0.00    -0.504 OA
ATOM     47  H   UNL     1     -17.461 -10.544   0.903  1.00  0.00     0.293 HD
ENDBRANCH  43  46
ENDBRANCH  28  38
BRANCH  34  48
ATOM     48  O   UNL     1     -19.534 -12.060 -10.067  1.00  0.00    -0.507 OA
ATOM     49  H   UNL     1     -19.347 -13.053 -10.023  1.00  0.00     0.293 HD
ENDBRANCH  34  48
BRANCH  37  50
ATOM     50  O   UNL     1     -23.606  -9.696  -9.009  1.00  0.00    -0.508 OA
ATOM     51  H   UNL     1     -24.459 -10.240  -8.934  1.00  0.00     0.293 HD
ENDBRANCH  37  50
ENDBRANCH  26  27
ENDBRANCH   5  26
BRANCH   4  52
ATOM     52  O   UNL     1     -15.893 -12.513  -2.609  1.00  0.00    -0.384 OA
ATOM     53  H   UNL     1     -15.084 -12.638  -2.046  1.00  0.00     0.211 HD
ENDBRANCH   4  52
TORSDOF 16
ENDMDL
MODEL 2
REMARK VINA RESULT:    -6.597     10.233     15.462
REMARK INTER + INTRA:         -13.899
REMARK INTER:                 -11.073
REMARK INTRA:                  -2.826
REMARK UNBOUND:                -3.060
REMARK SMILES C[C@@H]1O[C@H](OC[C@H]2O[C@H](Oc3c(-c4ccc(O)c(O)c4)oc4cc(O)cc(O)c4c3=O)[C@@H](O)[C@H](O)[C@H]2O)[C@@H](O)[C@H](O)[C@@H]1O
REMARK SMILES IDX 7 1 36 2 34 3 32 4 9 5 8 6 6 7 5 8 4 9 1 10 2 11 42 12 3 13
REMARK SMILES IDX 40 14 38 15 43 16 41 18 39 20 37 22 35 24 10 26 11 27 12 28
REMARK SMILES IDX 30 29 21 30 29 31 31 32 22 33 27 34 23 35 26 36 24 37 13 38
REMARK SMILES IDX 20 39 14 40 18 41 15 42 16 43 19 44 17 46 28 48 25 50 33 52
REMARK H PARENT 43 17 41 19 39 21 37 23 35 25 19 45 17 47 28 49 25 51 33 53
REMARK Flexibility Score: inf
ROOT
ATOM      1  C   UNL     1     -21.132 -10.723   7.513  1.00  0.00     0.180 C 
ATOM      2  C   UNL     1     -22.192 -10.445   8.609  1.00  0.00     0.177 C 
ATOM      3  C   UNL     1     -22.275 -11.633   9.613  1.00  0.00     0.180 C 
ATOM      4  C   UNL     1     -21.559 -12.895   9.078  1.00  0.00     0.214 C 
ATOM      5  C   UNL     1     -20.125 -12.560   8.568  1.00  0.00     0.339 C 
ATOM      6  O   UNL     1     -19.963 -11.209   8.142  1.00  0.00    -0.332 OA
ENDROOT
BRANCH   1   7
ATOM      7  C   UNL     1     -20.777  -9.532   6.582  1.00  0.00     0.198 C 
BRANCH   7   8
ATOM      8  O   UNL     1     -21.737  -8.487   6.632  1.00  0.00    -0.347 OA
BRANCH   8   9
ATOM      9  C   UNL     1     -21.291  -7.292   6.007  1.00  0.00     0.281 C 
ATOM     10  C   UNL     1     -18.611  -4.949   6.895  1.00  0.00     0.041 C 
ATOM     11  C   UNL     1     -19.957  -5.381   6.303  1.00  0.00     0.150 C 
ATOM     12  C   UNL     1     -20.023  -5.187   4.751  1.00  0.00     0.174 C 
ATOM     13  O   UNL     1     -20.188  -6.727   6.701  1.00  0.00    -0.344 OA
ATOM     14  C   UNL     1     -19.870  -6.539   4.025  1.00  0.00     0.179 C 
ATOM     15  C   UNL     1     -20.953  -7.529   4.510  1.00  0.00     0.202 C 
BRANCH  12  16
ATOM     16  O   UNL     1     -19.062  -4.265   4.295  1.00  0.00    -0.388 OA
ATOM     17  H   UNL     1     -19.418  -3.867   3.457  1.00  0.00     0.211 HD
ENDBRANCH  12  16
BRANCH  14  18
ATOM     18  O   UNL     1     -18.597  -7.081   4.276  1.00  0.00    -0.387 OA
ATOM     19  H   UNL     1     -18.506  -7.883   3.698  1.00  0.00     0.211 HD
ENDBRANCH  14  18
BRANCH  15  20
ATOM     20  O   UNL     1     -22.125  -7.374   3.750  1.00  0.00    -0.385 OA
ATOM     21  H   UNL     1     -21.895  -7.603   2.810  1.00  0.00     0.211 HD
ENDBRANCH  15  20
ENDBRANCH   8   9
ENDBRANCH   7   8
ENDBRANCH   1   7
BRANCH   2  22
ATOM     22  O   UNL     1     -21.857  -9.282   9.325  1.00  0.00    -0.387 OA
ATOM     23  H   UNL     1     -20.997  -9.465   9.787  1.00  0.00     0.211 HD
ENDBRANCH   2  22
BRANCH   3  24
ATOM     24  O   UNL     1     -23.624 -11.921   9.878  1.00  0.00    -0.387 OA
ATOM     25  H   UNL     1     -23.783 -12.860   9.595  1.00  0.00     0.211 HD
ENDBRANCH   3  24
BRANCH   5  26
ATOM     26  O   UNL     1     -19.793 -13.442   7.496  1.00  0.00    -0.454 OA
BRANCH  26  27
ATOM     27  C   UNL     1     -18.625 -14.216   7.473  1.00  0.00     0.214 A 
ATOM     28  C   UNL     1     -17.591 -13.891   6.576  1.00  0.00     0.180 A 
ATOM     29  C   UNL     1     -18.450 -15.308   8.339  1.00  0.00     0.239 A 
ATOM     30  O   UNL     1     -16.469 -14.604   6.569  1.00  0.00    -0.452 OA
ATOM     31  C   UNL     1     -17.245 -16.039   8.304  1.00  0.00     0.111 A 
ATOM     32  O   UNL     1     -19.381 -15.634   9.124  1.00  0.00    -0.285 OA
ATOM     33  C   UNL     1     -16.261 -15.640   7.370  1.00  0.00     0.146 A 
ATOM     34  C   UNL     1     -16.980 -17.138   9.156  1.00  0.00     0.134 A 
ATOM     35  C   UNL     1     -15.051 -16.337   7.279  1.00  0.00     0.094 A 
ATOM     36  C   UNL     1     -15.765 -17.829   9.044  1.00  0.00     0.093 A 
ATOM     37  C   UNL     1     -14.805 -17.433   8.109  1.00  0.00     0.123 A 
BRANCH  28  38
ATOM     38  C   UNL     1     -17.694 -12.736   5.657  1.00  0.00     0.025 A 
ATOM     39  C   UNL     1     -18.231 -12.924   4.374  1.00  0.00     0.062 A 
ATOM     40  C   UNL     1     -17.280 -11.451   6.044  1.00  0.00     0.016 A 
ATOM     41  C   UNL     1     -18.328 -11.853   3.476  1.00  0.00     0.158 A 
ATOM     42  C   UNL     1     -17.376 -10.381   5.152  1.00  0.00     0.051 A 
ATOM     43  C   UNL     1     -17.898 -10.575   3.866  1.00  0.00     0.157 A 
BRANCH  41  44
ATOM     44  O   UNL     1     -18.855 -12.081   2.206  1.00  0.00    -0.504 OA
ATOM     45  H   UNL     1     -18.502 -11.606   1.386  1.00  0.00     0.293 HD
ENDBRANCH  41  44
BRANCH  43  46
ATOM     46  O   UNL     1     -17.989  -9.505   2.979  1.00  0.00    -0.504 OA
ATOM     47  H   UNL     1     -18.876  -9.056   2.785  1.00  0.00     0.293 HD
ENDBRANCH  43  46
ENDBRANCH  28  38
BRANCH  34  48
ATOM     48  O   UNL     1     -17.906 -17.538  10.122  1.00  0.00    -0.507 OA
ATOM     49  H   UNL     1     -17.671 -17.576  11.105  1.00  0.00     0.293 HD
ENDBRANCH  34  48
BRANCH  37  50
ATOM     50  O   UNL     1     -13.607 -18.141   8.013  1.00  0.00    -0.508 OA
ATOM     51  H   UNL     1     -13.120 -18.241   7.129  1.00  0.00     0.293 HD
ENDBRANCH  37  50
ENDBRANCH  26  27
ENDBRANCH   5  26
BRANCH   4  52
ATOM     52  O   UNL     1     -21.524 -13.913  10.047  1.00  0.00    -0.384 OA
ATOM     53  H   UNL     1     -20.600 -13.955  10.410  1.00  0.00     0.211 HD
ENDBRANCH   4  52
TORSDOF 16
ENDMDL
MODEL 3
REMARK VINA RESULT:    -6.512      1.682      8.517
REMARK INTER + INTRA:         -13.760
REMARK INTER:                 -10.867
REMARK INTRA:                  -2.893
REMARK UNBOUND:                -3.060
REMARK SMILES C[C@@H]1O[C@H](OC[C@H]2O[C@H](Oc3c(-c4ccc(O)c(O)c4)oc4cc(O)cc(O)c4c3=O)[C@@H](O)[C@H](O)[C@H]2O)[C@@H](O)[C@H](O)[C@@H]1O
REMARK SMILES IDX 7 1 36 2 34 3 32 4 9 5 8 6 6 7 5 8 4 9 1 10 2 11 42 12 3 13
REMARK SMILES IDX 40 14 38 15 43 16 41 18 39 20 37 22 35 24 10 26 11 27 12 28
REMARK SMILES IDX 30 29 21 30 29 31 31 32 22 33 27 34 23 35 26 36 24 37 13 38
REMARK SMILES IDX 20 39 14 40 18 41 15 42 16 43 19 44 17 46 28 48 25 50 33 52
REMARK H PARENT 43 17 41 19 39 21 37 23 35 25 19 45 17 47 28 49 25 51 33 53
REMARK Flexibility Score: inf
ROOT
ATOM      1  C   UNL     1     -18.894 -10.119  -6.439  1.00  0.00     0.180 C 
ATOM      2  C   UNL     1     -20.183  -9.464  -6.998  1.00  0.00     0.177 C 
ATOM      3  C   UNL     1     -21.006 -10.488  -7.834  1.00  0.00     0.180 C 
ATOM      4  C   UNL     1     -20.182 -11.751  -8.179  1.00  0.00     0.214 C 
ATOM      5  C   UNL     1     -19.489 -12.337  -6.912  1.00  0.00     0.339 C 
ATOM      6  O   UNL     1     -19.239 -11.375  -5.890  1.00  0.00    -0.332 OA
ENDROOT
BRANCH   1   7
ATOM      7  C   UNL     1     -18.096  -9.288  -5.398  1.00  0.00     0.198 C 
BRANCH   7   8
ATOM      8  O   UNL     1     -18.892  -8.871  -4.298  1.00  0.00    -0.347 OA
BRANCH   8   9
ATOM      9  C   UNL     1     -18.402  -9.338  -3.049  1.00  0.00     0.281 C 
ATOM     10  C   UNL     1     -19.621 -11.963  -0.795  1.00  0.00     0.041 C 
ATOM     11  C   UNL     1     -18.933 -10.647  -1.172  1.00  0.00     0.150 C 
ATOM     12  C   UNL     1     -17.404 -10.647  -0.834  1.00  0.00     0.174 C 
ATOM     13  O   UNL     1     -19.194 -10.406  -2.550  1.00  0.00    -0.344 OA
ATOM     14  C   UNL     1     -16.563 -10.840  -2.112  1.00  0.00     0.179 C 
ATOM     15  C   UNL     1     -16.905  -9.742  -3.145  1.00  0.00     0.202 C 
BRANCH  12  16
ATOM     16  O   UNL     1     -17.079 -11.622   0.127  1.00  0.00    -0.388 OA
ATOM     17  H   UNL     1     -17.693 -12.389  -0.019  1.00  0.00     0.211 HD
ENDBRANCH  12  16
BRANCH  14  18
ATOM     18  O   UNL     1     -16.819 -12.104  -2.674  1.00  0.00    -0.387 OA
ATOM     19  H   UNL     1     -15.962 -12.429  -3.056  1.00  0.00     0.211 HD
ENDBRANCH  14  18
BRANCH  15  20
ATOM     20  O   UNL     1     -16.112  -8.604  -2.922  1.00  0.00    -0.385 OA
ATOM     21  H   UNL     1     -15.678  -8.720  -2.034  1.00  0.00     0.211 HD
ENDBRANCH  15  20
ENDBRANCH   8   9
ENDBRANCH   7   8
ENDBRANCH   1   7
BRANCH   2  22
ATOM     22  O   UNL     1     -20.990  -9.003  -5.943  1.00  0.00    -0.387 OA
ATOM     23  H   UNL     1     -20.380  -8.622  -5.257  1.00  0.00     0.211 HD
ENDBRANCH   2  22
BRANCH   3  24
ATOM     24  O   UNL     1     -21.453  -9.869  -9.013  1.00  0.00    -0.387 OA
ATOM     25  H   UNL     1     -22.354  -9.496  -8.823  1.00  0.00     0.211 HD
ENDBRANCH   3  24
BRANCH   5  26
ATOM     26  O   UNL     1     -18.261 -12.956  -7.297  1.00  0.00    -0.454 OA
BRANCH  26  27
ATOM     27  C   UNL     1     -17.597 -13.902  -6.504  1.00  0.00     0.214 A 
ATOM     28  C   UNL     1     -17.975 -15.255  -6.569  1.00  0.00     0.180 A 
ATOM     29  C   UNL     1     -16.545 -13.534  -5.649  1.00  0.00     0.239 A 
ATOM     30  O   UNL     1     -17.329 -16.161  -5.842  1.00  0.00    -0.452 OA
ATOM     31  C   UNL     1     -15.883 -14.524  -4.894  1.00  0.00     0.111 A 
ATOM     32  O   UNL     1     -16.217 -12.321  -5.552  1.00  0.00    -0.285 OA
ATOM     33  C   UNL     1     -16.330 -15.860  -5.024  1.00  0.00     0.146 A 
ATOM     34  C   UNL     1     -14.800 -14.242  -4.026  1.00  0.00     0.134 A 
ATOM     35  C   UNL     1     -15.722 -16.882  -4.289  1.00  0.00     0.094 A 
ATOM     36  C   UNL     1     -14.208 -15.280  -3.291  1.00  0.00     0.093 A 
ATOM     37  C   UNL     1     -14.667 -16.593  -3.419  1.00  0.00     0.123 A 
BRANCH  28  38
ATOM     38  C   UNL     1     -19.054 -15.718  -7.470  1.00  0.00     0.025 A 
ATOM     39  C   UNL     1     -20.373 -15.766  -6.995  1.00  0.00     0.062 A 
ATOM     40  C   UNL     1     -18.790 -16.097  -8.796  1.00  0.00     0.016 A 
ATOM     41  C   UNL     1     -21.414 -16.213  -7.818  1.00  0.00     0.158 A 
ATOM     42  C   UNL     1     -19.825 -16.543  -9.621  1.00  0.00     0.051 A 
ATOM     43  C   UNL     1     -21.140 -16.605  -9.138  1.00  0.00     0.157 A 
BRANCH  41  44
ATOM     44  O   UNL     1     -22.710 -16.259  -7.307  1.00  0.00    -0.504 OA
ATOM     45  H   UNL     1     -23.502 -16.526  -7.876  1.00  0.00     0.293 HD
ENDBRANCH  41  44
BRANCH  43  46
ATOM     46  O   UNL     1     -22.168 -17.053  -9.964  1.00  0.00    -0.504 OA
ATOM     47  H   UNL     1     -23.127 -16.760  -9.817  1.00  0.00     0.293 HD
ENDBRANCH  43  46
ENDBRANCH  28  38
BRANCH  34  48
ATOM     48  O   UNL     1     -14.298 -12.945  -3.902  1.00  0.00    -0.507 OA
ATOM     49  H   UNL     1     -14.315 -12.289  -4.672  1.00  0.00     0.293 HD
ENDBRANCH  34  48
BRANCH  37  50
ATOM     50  O   UNL     1     -14.066 -17.606  -2.672  1.00  0.00    -0.508 OA
ATOM     51  H   UNL     1     -13.721 -18.454  -3.109  1.00  0.00     0.293 HD
ENDBRANCH  37  50
ENDBRANCH  26  27
ENDBRANCH   5  26
BRANCH   4  52
ATOM     52  O   UNL     1     -20.976 -12.722  -8.814  1.00  0.00    -0.384 OA
ATOM     53  H   UNL     1     -20.698 -13.613  -8.471  1.00  0.00     0.211 HD
ENDBRANCH   4  52
TORSDOF 16
ENDMDL
MODEL 4
REMARK VINA RESULT:    -6.475      2.063      5.253
REMARK INTER + INTRA:         -13.699
REMARK INTER:                 -10.800
REMARK INTRA:                  -2.899
REMARK UNBOUND:                -3.060
REMARK SMILES C[C@@H]1O[C@H](OC[C@H]2O[C@H](Oc3c(-c4ccc(O)c(O)c4)oc4cc(O)cc(O)c4c3=O)[C@@H](O)[C@H](O)[C@H]2O)[C@@H](O)[C@H](O)[C@@H]1O
REMARK SMILES IDX 7 1 36 2 34 3 32 4 9 5 8 6 6 7 5 8 4 9 1 10 2 11 42 12 3 13
REMARK SMILES IDX 40 14 38 15 43 16 41 18 39 20 37 22 35 24 10 26 11 27 12 28
REMARK SMILES IDX 30 29 21 30 29 31 31 32 22 33 27 34 23 35 26 36 24 37 13 38
REMARK SMILES IDX 20 39 14 40 18 41 15 42 16 43 19 44 17 46 28 48 25 50 33 52
REMARK H PARENT 43 17 41 19 39 21 37 23 35 25 19 45 17 47 28 49 25 51 33 53
REMARK Flexibility Score: inf
ROOT
ATOM      1  C   UNL     1     -18.722 -14.649  -6.809  1.00  0.00     0.180 C 
ATOM      2  C   UNL     1     -18.879 -15.779  -7.859  1.00  0.00     0.177 C 
ATOM      3  C   UNL     1     -19.963 -15.407  -8.913  1.00  0.00     0.180 C 
ATOM      4  C   UNL     1     -20.826 -14.206  -8.460  1.00  0.00     0.214 C 
ATOM      5  C   UNL     1     -19.937 -13.020  -7.978  1.00  0.00     0.339 C 
ATOM      6  O   UNL     1     -18.655 -13.415  -7.495  1.00  0.00    -0.332 OA
ENDROOT
BRANCH   1   7
ATOM      7  C   UNL     1     -17.519 -14.778  -5.835  1.00  0.00     0.198 C 
BRANCH   7   8
ATOM      8  O   UNL     1     -17.090 -16.121  -5.663  1.00  0.00    -0.347 OA
BRANCH   8   9
ATOM      9  C   UNL     1     -15.731 -16.223  -5.262  1.00  0.00     0.281 C 
ATOM     10  C   UNL     1     -12.695 -14.627  -6.562  1.00  0.00     0.041 C 
ATOM     11  C   UNL     1     -13.523 -15.731  -5.898  1.00  0.00     0.150 C 
ATOM     12  C   UNL     1     -13.120 -15.972  -4.404  1.00  0.00     0.174 C 
ATOM     13  O   UNL     1     -14.896 -15.387  -6.050  1.00  0.00    -0.344 OA
ATOM     14  C   UNL     1     -14.159 -15.349  -3.450  1.00  0.00     0.179 C 
ATOM     15  C   UNL     1     -15.564 -15.921  -3.747  1.00  0.00     0.202 C 
BRANCH  12  16
ATOM     16  O   UNL     1     -11.831 -15.484  -4.122  1.00  0.00    -0.388 OA
ATOM     17  H   UNL     1     -11.570 -14.900  -4.882  1.00  0.00     0.211 HD
ENDBRANCH  12  16
BRANCH  14  18
ATOM     18  O   UNL     1     -14.183 -13.952  -3.606  1.00  0.00    -0.387 OA
ATOM     19  H   UNL     1     -13.993 -13.558  -2.715  1.00  0.00     0.211 HD
ENDBRANCH  14  18
BRANCH  15  20
ATOM     20  O   UNL     1     -15.767 -17.107  -3.023  1.00  0.00    -0.385 OA
ATOM     21  H   UNL     1     -15.218 -17.042  -2.196  1.00  0.00     0.211 HD
ENDBRANCH  15  20
ENDBRANCH   8   9
ENDBRANCH   7   8
ENDBRANCH   1   7
BRANCH   2  22
ATOM     22  O   UNL     1     -17.662 -15.992  -8.530  1.00  0.00    -0.387 OA
ATOM     23  H   UNL     1     -17.884 -16.390  -9.412  1.00  0.00     0.211 HD
ENDBRANCH   2  22
BRANCH   3  24
ATOM     24  O   UNL     1     -20.780 -16.525  -9.150  1.00  0.00    -0.387 OA
ATOM     25  H   UNL     1     -21.701 -16.276  -8.874  1.00  0.00     0.211 HD
ENDBRANCH   3  24
BRANCH   5  26
ATOM     26  O   UNL     1     -20.631 -12.300  -6.959  1.00  0.00    -0.454 OA
BRANCH  26  27
ATOM     27  C   UNL     1     -20.806 -10.910  -6.984  1.00  0.00     0.214 A 
ATOM     28  C   UNL     1     -20.052 -10.098  -6.117  1.00  0.00     0.180 A 
ATOM     29  C   UNL     1     -21.710 -10.299  -7.867  1.00  0.00     0.239 A 
ATOM     30  O   UNL     1     -20.192  -8.777  -6.156  1.00  0.00    -0.452 OA
ATOM     31  C   UNL     1     -21.829  -8.894  -7.881  1.00  0.00     0.111 A 
ATOM     32  O   UNL     1     -22.419 -11.015  -8.626  1.00  0.00    -0.285 OA
ATOM     33  C   UNL     1     -21.031  -8.158  -6.976  1.00  0.00     0.146 A 
ATOM     34  C   UNL     1     -22.700  -8.198  -8.755  1.00  0.00     0.134 A 
ATOM     35  C   UNL     1     -21.118  -6.762  -6.933  1.00  0.00     0.094 A 
ATOM     36  C   UNL     1     -22.779  -6.800  -8.691  1.00  0.00     0.093 A 
ATOM     37  C   UNL     1     -21.994  -6.084  -7.784  1.00  0.00     0.123 A 
BRANCH  28  38
ATOM     38  C   UNL     1     -19.060 -10.671  -5.182  1.00  0.00     0.025 A 
ATOM     39  C   UNL     1     -19.484 -11.130  -3.925  1.00  0.00     0.062 A 
ATOM     40  C   UNL     1     -17.703 -10.779  -5.528  1.00  0.00     0.016 A 
ATOM     41  C   UNL     1     -18.566 -11.665  -3.013  1.00  0.00     0.158 A 
ATOM     42  C   UNL     1     -16.785 -11.312  -4.620  1.00  0.00     0.051 A 
ATOM     43  C   UNL     1     -17.209 -11.755  -3.360  1.00  0.00     0.157 A 
BRANCH  41  44
ATOM     44  O   UNL     1     -19.023 -12.099  -1.769  1.00  0.00    -0.504 OA
ATOM     45  H   UNL     1     -18.663 -11.720  -0.903  1.00  0.00     0.293 HD
ENDBRANCH  41  44
BRANCH  43  46
ATOM     46  O   UNL     1     -16.289 -12.283  -2.458  1.00  0.00    -0.504 OA
ATOM     47  H   UNL     1     -15.299 -12.081  -2.536  1.00  0.00     0.293 HD
ENDBRANCH  43  46
ENDBRANCH  28  38
BRANCH  34  48
ATOM     48  O   UNL     1     -23.473  -8.884  -9.694  1.00  0.00    -0.507 OA
ATOM     49  H   UNL     1     -23.169  -9.005 -10.652  1.00  0.00     0.293 HD
ENDBRANCH  34  48
BRANCH  37  50
ATOM     50  O   UNL     1     -22.096  -4.694  -7.736  1.00  0.00    -0.508 OA
ATOM     51  H   UNL     1     -21.582  -4.102  -8.381  1.00  0.00     0.293 HD
ENDBRANCH  37  50
ENDBRANCH  26  27
ENDBRANCH   5  26
BRANCH   4  52
ATOM     52  O   UNL     1     -21.706 -13.796  -9.476  1.00  0.00    -0.384 OA
ATOM     53  H   UNL     1     -22.602 -13.664  -9.067  1.00  0.00     0.211 HD
ENDBRANCH   4  52
TORSDOF 16
ENDMDL
MODEL 5
REMARK VINA RESULT:    -6.302      1.112      1.653
REMARK INTER + INTRA:         -13.415
REMARK INTER:                 -10.609
REMARK INTRA:                  -2.806
REMARK UNBOUND:                -3.060
REMARK SMILES C[C@@H]1O[C@H](OC[C@H]2O[C@H](Oc3c(-c4ccc(O)c(O)c4)oc4cc(O)cc(O)c4c3=O)[C@@H](O)[C@H](O)[C@H]2O)[C@@H](O)[C@H](O)[C@@H]1O
REMARK SMILES IDX 7 1 36 2 34 3 32 4 9 5 8 6 6 7 5 8 4 9 1 10 2 11 42 12 3 13
REMARK SMILES IDX 40 14 38 15 43 16 41 18 39 20 37 22 35 24 10 26 11 27 12 28
REMARK SMILES IDX 30 29 21 30 29 31 31 32 22 33 27 34 23 35 26 36 24 37 13 38
REMARK SMILES IDX 20 39 14 40 18 41 15 42 16 43 19 44 17 46 28 48 25 50 33 52
REMARK H PARENT 43 17 41 19 39 21 37 23 35 25 19 45 17 47 28 49 25 51 33 53
REMARK Flexibility Score: inf
ROOT
ATOM      1  C   UNL     1     -15.445 -13.974  -5.669  1.00  0.00     0.180 C 
ATOM      2  C   UNL     1     -14.546 -14.724  -4.652  1.00  0.00     0.177 C 
ATOM      3  C   UNL     1     -14.622 -14.056  -3.248  1.00  0.00     0.180 C 
ATOM      4  C   UNL     1     -15.275 -12.655  -3.307  1.00  0.00     0.214 C 
ATOM      5  C   UNL     1     -16.617 -12.688  -4.097  1.00  0.00     0.339 C 
ATOM      6  O   UNL     1     -16.698 -13.737  -5.058  1.00  0.00    -0.332 OA
ENDROOT
BRANCH   1   7
ATOM      7  C   UNL     1     -15.649 -14.663  -7.045  1.00  0.00     0.198 C 
BRANCH   7   8
ATOM      8  O   UNL     1     -16.404 -15.862  -6.956  1.00  0.00    -0.347 OA
BRANCH   8   9
ATOM      9  C   UNL     1     -17.527 -15.878  -7.826  1.00  0.00     0.281 C 
ATOM     10  C   UNL     1     -18.827 -18.482 -10.058  1.00  0.00     0.041 C 
ATOM     11  C   UNL     1     -18.546 -17.052  -9.587  1.00  0.00     0.150 C 
ATOM     12  C   UNL     1     -19.854 -16.256  -9.260  1.00  0.00     0.174 C 
ATOM     13  O   UNL     1     -17.657 -17.132  -8.479  1.00  0.00    -0.344 OA
ATOM     14  C   UNL     1     -20.063 -16.153  -7.735  1.00  0.00     0.179 C 
ATOM     15  C   UNL     1     -18.830 -15.496  -7.073  1.00  0.00     0.202 C 
BRANCH  12  16
ATOM     16  O   UNL     1     -20.983 -16.824  -9.879  1.00  0.00    -0.388 OA
ATOM     17  H   UNL     1     -21.254 -17.605  -9.328  1.00  0.00     0.211 HD
ENDBRANCH  12  16
BRANCH  14  18
ATOM     18  O   UNL     1     -20.260 -17.433  -7.186  1.00  0.00    -0.387 OA
ATOM     19  H   UNL     1     -20.858 -17.322  -6.402  1.00  0.00     0.211 HD
ENDBRANCH  14  18
BRANCH  15  20
ATOM     20  O   UNL     1     -18.966 -14.098  -7.079  1.00  0.00    -0.385 OA
ATOM     21  H   UNL     1     -18.146 -13.723  -6.660  1.00  0.00     0.211 HD
ENDBRANCH  15  20
ENDBRANCH   8   9
ENDBRANCH   7   8
ENDBRANCH   1   7
BRANCH   2  22
ATOM     22  O   UNL     1     -14.962 -16.062  -4.530  1.00  0.00    -0.387 OA
ATOM     23  H   UNL     1     -15.944 -16.074  -4.677  1.00  0.00     0.211 HD
ENDBRANCH   2  22
BRANCH   3  24
ATOM     24  O   UNL     1     -13.329 -13.963  -2.709  1.00  0.00    -0.387 OA
ATOM     25  H   UNL     1     -13.106 -14.853  -2.329  1.00  0.00     0.211 HD
ENDBRANCH   3  24
BRANCH   5  26
ATOM     26  O   UNL     1     -16.808 -11.430  -4.745  1.00  0.00    -0.454 OA
BRANCH  26  27
ATOM     27  C   UNL     1     -18.059 -10.974  -5.182  1.00  0.00     0.214 A 
ATOM     28  C   UNL     1     -18.987 -10.482  -4.246  1.00  0.00     0.180 A 
ATOM     29  C   UNL     1     -18.409 -10.981  -6.542  1.00  0.00     0.239 A 
ATOM     30  O   UNL     1     -20.164 -10.021  -4.658  1.00  0.00    -0.452 OA
ATOM     31  C   UNL     1     -19.666 -10.482  -6.940  1.00  0.00     0.111 A 
ATOM     32  O   UNL     1     -17.603 -11.451  -7.390  1.00  0.00    -0.285 OA
ATOM     33  C   UNL     1     -20.535 -10.006  -5.931  1.00  0.00     0.146 A 
ATOM     34  C   UNL     1     -20.088 -10.433  -8.291  1.00  0.00     0.134 A 
ATOM     35  C   UNL     1     -21.801  -9.514  -6.264  1.00  0.00     0.094 A 
ATOM     36  C   UNL     1     -21.364  -9.943  -8.604  1.00  0.00     0.093 A 
ATOM     37  C   UNL     1     -22.219  -9.487  -7.597  1.00  0.00     0.123 A 
BRANCH  28  38
ATOM     38  C   UNL     1     -18.675 -10.416  -2.802  1.00  0.00     0.025 A 
ATOM     39  C   UNL     1     -19.167 -11.413  -1.945  1.00  0.00     0.062 A 
ATOM     40  C   UNL     1     -17.883  -9.386  -2.269  1.00  0.00     0.016 A 
ATOM     41  C   UNL     1     -18.900 -11.371  -0.572  1.00  0.00     0.158 A 
ATOM     42  C   UNL     1     -17.614  -9.341  -0.899  1.00  0.00     0.051 A 
ATOM     43  C   UNL     1     -18.121 -10.329  -0.044  1.00  0.00     0.157 A 
BRANCH  41  44
ATOM     44  O   UNL     1     -19.417 -12.372   0.250  1.00  0.00    -0.504 OA
ATOM     45  H   UNL     1     -20.190 -12.203   0.878  1.00  0.00     0.293 HD
ENDBRANCH  41  44
BRANCH  43  46
ATOM     46  O   UNL     1     -17.852 -10.278   1.321  1.00  0.00    -0.504 OA
ATOM     47  H   UNL     1     -16.998 -10.665   1.705  1.00  0.00     0.293 HD
ENDBRANCH  43  46
ENDBRANCH  28  38
BRANCH  34  48
ATOM     48  O   UNL     1     -19.245 -10.852  -9.322  1.00  0.00    -0.507 OA
ATOM     49  H   UNL     1     -19.486 -11.622  -9.931  1.00  0.00     0.293 HD
ENDBRANCH  34  48
BRANCH  37  50
ATOM     50  O   UNL     1     -23.485  -9.011  -7.935  1.00  0.00    -0.508 OA
ATOM     51  H   UNL     1     -24.257  -9.044  -7.277  1.00  0.00     0.293 HD
ENDBRANCH  37  50
ENDBRANCH  26  27
ENDBRANCH   5  26
BRANCH   4  52
ATOM     52  O   UNL     1     -15.461 -12.123  -2.018  1.00  0.00    -0.384 OA
ATOM     53  H   UNL     1     -14.991 -12.716  -1.374  1.00  0.00     0.211 HD
ENDBRANCH   4  52
TORSDOF 16
ENDMDL
MODEL 6
REMARK VINA RESULT:    -6.094      2.120      7.393
REMARK INTER + INTRA:         -13.073
REMARK INTER:                 -10.214
REMARK INTRA:                  -2.859
REMARK UNBOUND:                -3.060
REMARK SMILES C[C@@H]1O[C@H](OC[C@H]2O[C@H](Oc3c(-c4ccc(O)c(O)c4)oc4cc(O)cc(O)c4c3=O)[C@@H](O)[C@H](O)[C@H]2O)[C@@H](O)[C@H](O)[C@@H]1O
REMARK SMILES IDX 7 1 36 2 34 3 32 4 9 5 8 6 6 7 5 8 4 9 1 10 2 11 42 12 3 13
REMARK SMILES IDX 40 14 38 15 43 16 41 18 39 20 37 22 35 24 10 26 11 27 12 28
REMARK SMILES IDX 30 29 21 30 29 31 31 32 22 33 27 34 23 35 26 36 24 37 13 38
REMARK SMILES IDX 20 39 14 40 18 41 15 42 16 43 19 44 17 46 28 48 25 50 33 52
REMARK H PARENT 43 17 41 19 39 21 37 23 35 25 19 45 17 47 28 49 25 51 33 53
REMARK Flexibility Score: inf
ROOT
ATOM      1  C   UNL     1     -18.965 -13.642  -7.993  1.00  0.00     0.180 C 
ATOM      2  C   UNL     1     -19.544 -15.007  -8.447  1.00  0.00     0.177 C 
ATOM      3  C   UNL     1     -18.767 -16.184  -7.787  1.00  0.00     0.180 C 
ATOM      4  C   UNL     1     -17.438 -15.716  -7.149  1.00  0.00     0.214 C 
ATOM      5  C   UNL     1     -17.655 -14.473  -6.234  1.00  0.00     0.339 C 
ATOM      6  O   UNL     1     -18.787 -13.682  -6.591  1.00  0.00    -0.332 OA
ENDROOT
BRANCH   1   7
ATOM      7  C   UNL     1     -19.785 -12.383  -8.386  1.00  0.00     0.198 C 
BRANCH   7   8
ATOM      8  O   UNL     1     -20.808 -12.076  -7.449  1.00  0.00    -0.347 OA
BRANCH   8   9
ATOM      9  C   UNL     1     -21.019 -10.680  -7.294  1.00  0.00     0.281 C 
ATOM     10  C   UNL     1     -20.406  -7.869  -9.568  1.00  0.00     0.041 C 
ATOM     11  C   UNL     1     -20.534  -8.574  -8.215  1.00  0.00     0.150 C 
ATOM     12  C   UNL     1     -21.709  -8.009  -7.348  1.00  0.00     0.174 C 
ATOM     13  O   UNL     1     -20.657  -9.969  -8.468  1.00  0.00    -0.344 OA
ATOM     14  C   UNL     1     -22.914  -8.971  -7.368  1.00  0.00     0.179 C 
ATOM     15  C   UNL     1     -22.483 -10.372  -6.877  1.00  0.00     0.202 C 
BRANCH  12  16
ATOM     16  O   UNL     1     -22.095  -6.720  -7.763  1.00  0.00    -0.388 OA
ATOM     17  H   UNL     1     -22.986  -6.810  -8.193  1.00  0.00     0.211 HD
ENDBRANCH  12  16
BRANCH  14  18
ATOM     18  O   UNL     1     -23.431  -9.073  -8.672  1.00  0.00    -0.387 OA
ATOM     19  H   UNL     1     -23.701  -8.159  -8.948  1.00  0.00     0.211 HD
ENDBRANCH  14  18
BRANCH  15  20
ATOM     20  O   UNL     1     -22.582 -10.446  -5.477  1.00  0.00    -0.385 OA
ATOM     21  H   UNL     1     -23.136 -11.244  -5.265  1.00  0.00     0.211 HD
ENDBRANCH  15  20
ENDBRANCH   8   9
ENDBRANCH   7   8
ENDBRANCH   1   7
BRANCH   2  22
ATOM     22  O   UNL     1     -20.898 -15.107  -8.079  1.00  0.00    -0.387 OA
ATOM     23  H   UNL     1     -21.388 -15.450  -8.872  1.00  0.00     0.211 HD
ENDBRANCH   2  22
BRANCH   3  24
ATOM     24  O   UNL     1     -18.516 -17.171  -8.754  1.00  0.00    -0.387 OA
ATOM     25  H   UNL     1     -17.660 -16.933  -9.198  1.00  0.00     0.211 HD
ENDBRANCH   3  24
BRANCH   5  26
ATOM     26  O   UNL     1     -16.479 -13.664  -6.259  1.00  0.00    -0.454 OA
BRANCH  26  27
ATOM     27  C   UNL     1     -15.594 -13.564  -5.179  1.00  0.00     0.214 A 
ATOM     28  C   UNL     1     -15.803 -12.581  -4.194  1.00  0.00     0.180 A 
ATOM     29  C   UNL     1     -14.500 -14.435  -5.042  1.00  0.00     0.239 A 
ATOM     30  O   UNL     1     -14.983 -12.500  -3.152  1.00  0.00    -0.452 OA
ATOM     31  C   UNL     1     -13.653 -14.319  -3.921  1.00  0.00     0.111 A 
ATOM     32  O   UNL     1     -14.277 -15.298  -5.934  1.00  0.00    -0.285 OA
ATOM     33  C   UNL     1     -13.941 -13.302  -2.981  1.00  0.00     0.146 A 
ATOM     34  C   UNL     1     -12.543 -15.170  -3.697  1.00  0.00     0.134 A 
ATOM     35  C   UNL     1     -13.126 -13.129  -1.858  1.00  0.00     0.094 A 
ATOM     36  C   UNL     1     -11.734 -14.975  -2.568  1.00  0.00     0.093 A 
ATOM     37  C   UNL     1     -12.021 -13.959  -1.653  1.00  0.00     0.123 A 
BRANCH  28  38
ATOM     38  C   UNL     1     -16.951 -11.650  -4.258  1.00  0.00     0.025 A 
ATOM     39  C   UNL     1     -16.862 -10.502  -5.060  1.00  0.00     0.062 A 
ATOM     40  C   UNL     1     -18.136 -11.897  -3.545  1.00  0.00     0.016 A 
ATOM     41  C   UNL     1     -17.926  -9.595  -5.130  1.00  0.00     0.158 A 
ATOM     42  C   UNL     1     -19.200 -10.994  -3.613  1.00  0.00     0.051 A 
ATOM     43  C   UNL     1     -19.101  -9.840  -4.401  1.00  0.00     0.157 A 
BRANCH  41  44
ATOM     44  O   UNL     1     -17.796  -8.458  -5.926  1.00  0.00    -0.504 OA
ATOM     45  H   UNL     1     -16.931  -7.937  -5.981  1.00  0.00     0.293 HD
ENDBRANCH  41  44
BRANCH  43  46
ATOM     46  O   UNL     1     -20.164  -8.942  -4.463  1.00  0.00    -0.504 OA
ATOM     47  H   UNL     1     -20.879  -8.923  -3.746  1.00  0.00     0.293 HD
ENDBRANCH  43  46
ENDBRANCH  28  38
BRANCH  34  48
ATOM     48  O   UNL     1     -12.249 -16.214  -4.576  1.00  0.00    -0.507 OA
ATOM     49  H   UNL     1     -12.199 -16.072  -5.577  1.00  0.00     0.293 HD
ENDBRANCH  34  48
BRANCH  37  50
ATOM     50  O   UNL     1     -11.197 -13.783  -0.542  1.00  0.00    -0.508 OA
ATOM     51  H   UNL     1     -11.575 -13.518   0.362  1.00  0.00     0.293 HD
ENDBRANCH  37  50
ENDBRANCH  26  27
ENDBRANCH   5  26
BRANCH   4  52
ATOM     52  O   UNL     1     -16.816 -16.760  -6.441  1.00  0.00    -0.384 OA
ATOM     53  H   UNL     1     -17.527 -17.368  -6.109  1.00  0.00     0.211 HD
ENDBRANCH   4  52
TORSDOF 16
ENDMDL
MODEL 7
REMARK VINA RESULT:    -6.067      2.249      7.993
REMARK INTER + INTRA:         -13.029
REMARK INTER:                 -10.550
REMARK INTRA:                  -2.479
REMARK UNBOUND:                -3.060
REMARK SMILES C[C@@H]1O[C@H](OC[C@H]2O[C@H](Oc3c(-c4ccc(O)c(O)c4)oc4cc(O)cc(O)c4c3=O)[C@@H](O)[C@H](O)[C@H]2O)[C@@H](O)[C@H](O)[C@@H]1O
REMARK SMILES IDX 7 1 36 2 34 3 32 4 9 5 8 6 6 7 5 8 4 9 1 10 2 11 42 12 3 13
REMARK SMILES IDX 40 14 38 15 43 16 41 18 39 20 37 22 35 24 10 26 11 27 12 28
REMARK SMILES IDX 30 29 21 30 29 31 31 32 22 33 27 34 23 35 26 36 24 37 13 38
REMARK SMILES IDX 20 39 14 40 18 41 15 42 16 43 19 44 17 46 28 48 25 50 33 52
REMARK H PARENT 43 17 41 19 39 21 37 23 35 25 19 45 17 47 28 49 25 51 33 53
REMARK Flexibility Score: inf
ROOT
ATOM      1  C   UNL     1     -19.733 -11.719  -6.019  1.00  0.00     0.180 C 
ATOM      2  C   UNL     1     -19.924 -10.668  -4.896  1.00  0.00     0.177 C 
ATOM      3  C   UNL     1     -18.826 -10.820  -3.802  1.00  0.00     0.180 C 
ATOM      4  C   UNL     1     -18.062 -12.158  -3.930  1.00  0.00     0.214 C 
ATOM      5  C   UNL     1     -17.577 -12.397  -5.392  1.00  0.00     0.339 C 
ATOM      6  O   UNL     1     -18.365 -11.736  -6.379  1.00  0.00    -0.332 OA
ENDROOT
BRANCH   1   7
ATOM      7  C   UNL     1     -20.611 -11.538  -7.287  1.00  0.00     0.198 C 
BRANCH   7   8
ATOM      8  O   UNL     1     -21.929 -11.100  -6.987  1.00  0.00    -0.347 OA
BRANCH   8   9
ATOM      9  C   UNL     1     -22.347 -10.007  -7.793  1.00  0.00     0.281 C 
ATOM     10  C   UNL     1     -21.821  -6.395  -7.437  1.00  0.00     0.041 C 
ATOM     11  C   UNL     1     -22.563  -7.669  -7.853  1.00  0.00     0.150 C 
ATOM     12  C   UNL     1     -22.714  -7.799  -9.406  1.00  0.00     0.174 C 
ATOM     13  O   UNL     1     -21.878  -8.773  -7.271  1.00  0.00    -0.344 OA
ATOM     14  C   UNL     1     -21.714  -8.830  -9.968  1.00  0.00     0.179 C 
ATOM     15  C   UNL     1     -21.912 -10.197  -9.272  1.00  0.00     0.202 C 
BRANCH  12  16
ATOM     16  O   UNL     1     -22.565  -6.559 -10.055  1.00  0.00    -0.388 OA
ATOM     17  H   UNL     1     -22.983  -5.874  -9.469  1.00  0.00     0.211 HD
ENDBRANCH  12  16
BRANCH  14  18
ATOM     18  O   UNL     1     -20.395  -8.389  -9.760  1.00  0.00    -0.387 OA
ATOM     19  H   UNL     1     -19.814  -8.921 -10.363  1.00  0.00     0.211 HD
ENDBRANCH  14  18
BRANCH  15  20
ATOM     20  O   UNL     1     -22.896 -10.943  -9.942  1.00  0.00    -0.385 OA
ATOM     21  H   UNL     1     -22.952 -10.585 -10.869  1.00  0.00     0.211 HD
ENDBRANCH  15  20
ENDBRANCH   8   9
ENDBRANCH   7   8
ENDBRANCH   1   7
BRANCH   2  22
ATOM     22  O   UNL     1     -19.844  -9.368  -5.427  1.00  0.00    -0.387 OA
ATOM     23  H   UNL     1     -18.934  -9.268  -5.812  1.00  0.00     0.211 HD
ENDBRANCH   2  22
BRANCH   3  24
ATOM     24  O   UNL     1     -19.420 -10.723  -2.533  1.00  0.00    -0.387 OA
ATOM     25  H   UNL     1     -20.342 -10.379  -2.669  1.00  0.00     0.211 HD
ENDBRANCH   3  24
BRANCH   5  26
ATOM     26  O   UNL     1     -17.559 -13.800  -5.655  1.00  0.00    -0.454 OA
BRANCH  26  27
ATOM     27  C   UNL     1     -16.546 -14.431  -6.388  1.00  0.00     0.214 A 
ATOM     28  C   UNL     1     -16.882 -15.233  -7.494  1.00  0.00     0.180 A 
ATOM     29  C   UNL     1     -15.191 -14.273  -6.055  1.00  0.00     0.239 A 
ATOM     30  O   UNL     1     -15.923 -15.811  -8.211  1.00  0.00    -0.452 OA
ATOM     31  C   UNL     1     -14.202 -14.899  -6.841  1.00  0.00     0.111 A 
ATOM     32  O   UNL     1     -14.874 -13.586  -5.046  1.00  0.00    -0.285 OA
ATOM     33  C   UNL     1     -14.633 -15.686  -7.935  1.00  0.00     0.146 A 
ATOM     34  C   UNL     1     -12.815 -14.773  -6.587  1.00  0.00     0.134 A 
ATOM     35  C   UNL     1     -13.698 -16.345  -8.740  1.00  0.00     0.094 A 
ATOM     36  C   UNL     1     -11.894 -15.448  -7.402  1.00  0.00     0.093 A 
ATOM     37  C   UNL     1     -12.332 -16.232  -8.472  1.00  0.00     0.123 A 
BRANCH  28  38
ATOM     38  C   UNL     1     -18.287 -15.420  -7.920  1.00  0.00     0.025 A 
ATOM     39  C   UNL     1     -18.860 -14.508  -8.818  1.00  0.00     0.062 A 
ATOM     40  C   UNL     1     -19.056 -16.500  -7.457  1.00  0.00     0.016 A 
ATOM     41  C   UNL     1     -20.191 -14.650  -9.229  1.00  0.00     0.158 A 
ATOM     42  C   UNL     1     -20.383 -16.646  -7.865  1.00  0.00     0.051 A 
ATOM     43  C   UNL     1     -20.958 -15.723  -8.750  1.00  0.00     0.157 A 
BRANCH  41  44
ATOM     44  O   UNL     1     -20.731 -13.716 -10.113  1.00  0.00    -0.504 OA
ATOM     45  H   UNL     1     -20.941 -12.769  -9.829  1.00  0.00     0.293 HD
ENDBRANCH  41  44
BRANCH  43  46
ATOM     46  O   UNL     1     -22.283 -15.871  -9.151  1.00  0.00    -0.504 OA
ATOM     47  H   UNL     1     -22.534 -15.924 -10.131  1.00  0.00     0.293 HD
ENDBRANCH  43  46
ENDBRANCH  28  38
BRANCH  34  48
ATOM     48  O   UNL     1     -12.345 -13.971  -5.545  1.00  0.00    -0.507 OA
ATOM     49  H   UNL     1     -11.392 -13.634  -5.517  1.00  0.00     0.293 HD
ENDBRANCH  34  48
BRANCH  37  50
ATOM     50  O   UNL     1     -11.396 -16.898  -9.263  1.00  0.00    -0.508 OA
ATOM     51  H   UNL     1     -10.528 -16.454  -9.545  1.00  0.00     0.293 HD
ENDBRANCH  37  50
ENDBRANCH  26  27
ENDBRANCH   5  26
BRANCH   4  52
ATOM     52  O   UNL     1     -16.987 -12.222  -3.026  1.00  0.00    -0.384 OA
ATOM     53  H   UNL     1     -16.954 -11.360  -2.532  1.00  0.00     0.211 HD
ENDBRANCH   4  52
TORSDOF 16
ENDMDL
MODEL 8
REMARK VINA RESULT:    -6.047      1.647      2.845
REMARK INTER + INTRA:         -12.996
REMARK INTER:                 -10.609
REMARK INTRA:                  -2.387
REMARK UNBOUND:                -3.060
REMARK SMILES C[C@@H]1O[C@H](OC[C@H]2O[C@H](Oc3c(-c4ccc(O)c(O)c4)oc4cc(O)cc(O)c4c3=O)[C@@H](O)[C@H](O)[C@H]2O)[C@@H](O)[C@H](O)[C@@H]1O
REMARK SMILES IDX 7 1 36 2 34 3 32 4 9 5 8 6 6 7 5 8 4 9 1 10 2 11 42 12 3 13
REMARK SMILES IDX 40 14 38 15 43 16 41 18 39 20 37 22 35 24 10 26 11 27 12 28
REMARK SMILES IDX 30 29 21 30 29 31 31 32 22 33 27 34 23 35 26 36 24 37 13 38
REMARK SMILES IDX 20 39 14 40 18 41 15 42 16 43 19 44 17 46 28 48 25 50 33 52
REMARK H PARENT 43 17 41 19 39 21 37 23 35 25 19 45 17 47 28 49 25 51 33 53
REMARK Flexibility Score: inf
ROOT
ATOM      1  C   UNL     1     -14.805 -13.837  -4.707  1.00  0.00     0.180 C 
ATOM      2  C   UNL     1     -13.682 -12.922  -5.259  1.00  0.00     0.177 C 
ATOM      3  C   UNL     1     -14.228 -11.495  -5.559  1.00  0.00     0.180 C 
ATOM      4  C   UNL     1     -15.774 -11.455  -5.565  1.00  0.00     0.214 C 
ATOM      5  C   UNL     1     -16.363 -12.134  -4.292  1.00  0.00     0.339 C 
ATOM      6  O   UNL     1     -15.511 -13.120  -3.713  1.00  0.00    -0.332 OA
ENDROOT
BRANCH   1   7
ATOM      7  C   UNL     1     -14.357 -15.215  -4.147  1.00  0.00     0.198 C 
BRANCH   7   8
ATOM      8  O   UNL     1     -14.866 -16.308  -4.898  1.00  0.00    -0.347 OA
BRANCH   8   9
ATOM      9  C   UNL     1     -15.448 -15.911  -6.132  1.00  0.00     0.281 C 
ATOM     10  C   UNL     1     -14.339 -16.382  -9.596  1.00  0.00     0.041 C 
ATOM     11  C   UNL     1     -15.038 -15.672  -8.433  1.00  0.00     0.150 C 
ATOM     12  C   UNL     1     -16.590 -15.587  -8.623  1.00  0.00     0.174 C 
ATOM     13  O   UNL     1     -14.665 -16.344  -7.235  1.00  0.00    -0.344 OA
ATOM     14  C   UNL     1     -17.307 -16.620  -7.731  1.00  0.00     0.179 C 
ATOM     15  C   UNL     1     -16.915 -16.408  -6.251  1.00  0.00     0.202 C 
BRANCH  12  16
ATOM     16  O   UNL     1     -16.964 -15.748  -9.970  1.00  0.00    -0.388 OA
ATOM     17  H   UNL     1     -16.800 -16.700 -10.204  1.00  0.00     0.211 HD
ENDBRANCH  12  16
BRANCH  14  18
ATOM     18  O   UNL     1     -16.957 -17.924  -8.123  1.00  0.00    -0.387 OA
ATOM     19  H   UNL     1     -16.232 -18.224  -7.515  1.00  0.00     0.211 HD
ENDBRANCH  14  18
BRANCH  15  20
ATOM     20  O   UNL     1     -17.765 -15.462  -5.656  1.00  0.00    -0.385 OA
ATOM     21  H   UNL     1     -18.675 -15.861  -5.633  1.00  0.00     0.211 HD
ENDBRANCH  15  20
ENDBRANCH   8   9
ENDBRANCH   7   8
ENDBRANCH   1   7
BRANCH   2  22
ATOM     22  O   UNL     1     -12.641 -12.811  -4.321  1.00  0.00    -0.387 OA
ATOM     23  H   UNL     1     -12.264 -11.896  -4.414  1.00  0.00     0.211 HD
ENDBRANCH   2  22
BRANCH   3  24
ATOM     24  O   UNL     1     -13.731 -11.061  -6.799  1.00  0.00    -0.387 OA
ATOM     25  H   UNL     1     -14.515 -10.863  -7.375  1.00  0.00     0.211 HD
ENDBRANCH   3  24
BRANCH   5  26
ATOM     26  O   UNL     1     -17.623 -12.723  -4.617  1.00  0.00    -0.454 OA
BRANCH  26  27
ATOM     27  C   UNL     1     -18.696 -11.995  -5.147  1.00  0.00     0.214 A 
ATOM     28  C   UNL     1     -19.327 -11.012  -4.363  1.00  0.00     0.180 A 
ATOM     29  C   UNL     1     -19.156 -12.213  -6.456  1.00  0.00     0.239 A 
ATOM     30  O   UNL     1     -20.327 -10.299  -4.870  1.00  0.00    -0.452 OA
ATOM     31  C   UNL     1     -20.218 -11.434  -6.960  1.00  0.00     0.111 A 
ATOM     32  O   UNL     1     -18.625 -13.114  -7.161  1.00  0.00    -0.285 OA
ATOM     33  C   UNL     1     -20.791 -10.468  -6.101  1.00  0.00     0.146 A 
ATOM     34  C   UNL     1     -20.727 -11.574  -8.274  1.00  0.00     0.134 A 
ATOM     35  C   UNL     1     -21.858  -9.678  -6.540  1.00  0.00     0.094 A 
ATOM     36  C   UNL     1     -21.802 -10.777  -8.693  1.00  0.00     0.093 A 
ATOM     37  C   UNL     1     -22.368  -9.835  -7.831  1.00  0.00     0.123 A 
BRANCH  28  38
ATOM     38  C   UNL     1     -18.876 -10.709  -2.986  1.00  0.00     0.025 A 
ATOM     39  C   UNL     1     -19.211 -11.587  -1.944  1.00  0.00     0.062 A 
ATOM     40  C   UNL     1     -18.107  -9.569  -2.701  1.00  0.00     0.016 A 
ATOM     41  C   UNL     1     -18.811 -11.321  -0.629  1.00  0.00     0.158 A 
ATOM     42  C   UNL     1     -17.706  -9.300  -1.390  1.00  0.00     0.051 A 
ATOM     43  C   UNL     1     -18.056 -10.171  -0.349  1.00  0.00     0.157 A 
BRANCH  41  44
ATOM     44  O   UNL     1     -19.174 -12.209   0.382  1.00  0.00    -0.504 OA
ATOM     45  H   UNL     1     -19.040 -13.207   0.293  1.00  0.00     0.293 HD
ENDBRANCH  41  44
BRANCH  43  46
ATOM     46  O   UNL     1     -17.656  -9.896   0.956  1.00  0.00    -0.504 OA
ATOM     47  H   UNL     1     -16.829 -10.325   1.355  1.00  0.00     0.293 HD
ENDBRANCH  43  46
ENDBRANCH  28  38
BRANCH  34  48
ATOM     48  O   UNL     1     -20.162 -12.485  -9.170  1.00  0.00    -0.507 OA
ATOM     49  H   UNL     1     -19.272 -12.312  -9.619  1.00  0.00     0.293 HD
ENDBRANCH  34  48
BRANCH  37  50
ATOM     50  O   UNL     1     -23.440  -9.060  -8.270  1.00  0.00    -0.508 OA
ATOM     51  H   UNL     1     -23.681  -8.183  -7.819  1.00  0.00     0.293 HD
ENDBRANCH  37  50
ENDBRANCH  26  27
ENDBRANCH   5  26
BRANCH   4  52
ATOM     52  O   UNL     1     -16.251 -10.140  -5.701  1.00  0.00    -0.384 OA
ATOM     53  H   UNL     1     -15.669  -9.548  -5.156  1.00  0.00     0.211 HD
ENDBRANCH   4  52
TORSDOF 16
ENDMDL
MODEL 9
REMARK VINA RESULT:    -5.977      2.166      3.919
REMARK INTER + INTRA:         -12.881
REMARK INTER:                  -9.925
REMARK INTRA:                  -2.956
REMARK UNBOUND:                -3.060
REMARK SMILES C[C@@H]1O[C@H](OC[C@H]2O[C@H](Oc3c(-c4ccc(O)c(O)c4)oc4cc(O)cc(O)c4c3=O)[C@@H](O)[C@H](O)[C@H]2O)[C@@H](O)[C@H](O)[C@@H]1O
REMARK SMILES IDX 7 1 36 2 34 3 32 4 9 5 8 6 6 7 5 8 4 9 1 10 2 11 42 12 3 13
REMARK SMILES IDX 40 14 38 15 43 16 41 18 39 20 37 22 35 24 10 26 11 27 12 28
REMARK SMILES IDX 30 29 21 30 29 31 31 32 22 33 27 34 23 35 26 36 24 37 13 38
REMARK SMILES IDX 20 39 14 40 18 41 15 42 16 43 19 44 17 46 28 48 25 50 33 52
REMARK H PARENT 43 17 41 19 39 21 37 23 35 25 19 45 17 47 28 49 25 51 33 53
REMARK Flexibility Score: inf
ROOT
ATOM      1  C   UNL     1     -17.465 -13.265  -6.321  1.00  0.00     0.180 C 
ATOM      2  C   UNL     1     -16.920 -14.693  -6.061  1.00  0.00     0.177 C 
ATOM      3  C   UNL     1     -16.171 -14.759  -4.698  1.00  0.00     0.180 C 
ATOM      4  C   UNL     1     -15.866 -13.351  -4.135  1.00  0.00     0.214 C 
ATOM      5  C   UNL     1     -17.135 -12.448  -4.148  1.00  0.00     0.339 C 
ATOM      6  O   UNL     1     -18.094 -12.810  -5.139  1.00  0.00    -0.332 OA
ENDROOT
BRANCH   1   7
ATOM      7  C   UNL     1     -18.430 -13.106  -7.528  1.00  0.00     0.198 C 
BRANCH   7   8
ATOM      8  O   UNL     1     -19.745 -13.564  -7.247  1.00  0.00    -0.347 OA
BRANCH   8   9
ATOM      9  C   UNL     1     -20.753 -12.756  -7.836  1.00  0.00     0.281 C 
ATOM     10  C   UNL     1     -22.180  -9.534  -6.816  1.00  0.00     0.041 C 
ATOM     11  C   UNL     1     -22.174 -10.923  -7.463  1.00  0.00     0.150 C 
ATOM     12  C   UNL     1     -22.384 -10.867  -9.014  1.00  0.00     0.174 C 
ATOM     13  O   UNL     1     -20.958 -11.563  -7.094  1.00  0.00    -0.344 OA
ATOM     14  C   UNL     1     -21.051 -11.097  -9.754  1.00  0.00     0.179 C 
ATOM     15  C   UNL     1     -20.430 -12.446  -9.324  1.00  0.00     0.202 C 
BRANCH  12  16
ATOM     16  O   UNL     1     -22.976  -9.656  -9.420  1.00  0.00    -0.388 OA
ATOM     17  H   UNL     1     -23.707  -9.461  -8.777  1.00  0.00     0.211 HD
ENDBRANCH  12  16
BRANCH  14  18
ATOM     18  O   UNL     1     -20.151 -10.056  -9.464  1.00  0.00    -0.387 OA
ATOM     19  H   UNL     1     -19.238 -10.443  -9.510  1.00  0.00     0.211 HD
ENDBRANCH  14  18
BRANCH  15  20
ATOM     20  O   UNL     1     -20.932 -13.486 -10.124  1.00  0.00    -0.385 OA
ATOM     21  H   UNL     1     -20.755 -14.337  -9.641  1.00  0.00     0.211 HD
ENDBRANCH  15  20
ENDBRANCH   8   9
ENDBRANCH   7   8
ENDBRANCH   1   7
BRANCH   2  22
ATOM     22  O   UNL     1     -17.978 -15.619  -6.033  1.00  0.00    -0.387 OA
ATOM     23  H   UNL     1     -17.949 -16.118  -6.891  1.00  0.00     0.211 HD
ENDBRANCH   2  22
BRANCH   3  24
ATOM     24  O   UNL     1     -14.978 -15.482  -4.861  1.00  0.00    -0.387 OA
ATOM     25  H   UNL     1     -14.775 -15.911  -3.988  1.00  0.00     0.211 HD
ENDBRANCH   3  24
BRANCH   5  26
ATOM     26  O   UNL     1     -16.740 -11.090  -4.339  1.00  0.00    -0.454 OA
BRANCH  26  27
ATOM     27  C   UNL     1     -17.653 -10.043  -4.522  1.00  0.00     0.214 A 
ATOM     28  C   UNL     1     -18.421  -9.590  -3.434  1.00  0.00     0.180 A 
ATOM     29  C   UNL     1     -17.814  -9.418  -5.769  1.00  0.00     0.239 A 
ATOM     30  O   UNL     1     -19.268  -8.578  -3.594  1.00  0.00    -0.452 OA
ATOM     31  C   UNL     1     -18.720  -8.346  -5.900  1.00  0.00     0.111 A 
ATOM     32  O   UNL     1     -17.159  -9.835  -6.763  1.00  0.00    -0.285 OA
ATOM     33  C   UNL     1     -19.449  -7.958  -4.752  1.00  0.00     0.146 A 
ATOM     34  C   UNL     1     -18.926  -7.648  -7.115  1.00  0.00     0.134 A 
ATOM     35  C   UNL     1     -20.374  -6.911  -4.825  1.00  0.00     0.094 A 
ATOM     36  C   UNL     1     -19.864  -6.607  -7.169  1.00  0.00     0.093 A 
ATOM     37  C   UNL     1     -20.587  -6.241  -6.032  1.00  0.00     0.123 A 
BRANCH  28  38
ATOM     38  C   UNL     1     -18.282 -10.182  -2.085  1.00  0.00     0.025 A 
ATOM     39  C   UNL     1     -19.214 -11.138  -1.654  1.00  0.00     0.062 A 
ATOM     40  C   UNL     1     -17.229  -9.818  -1.229  1.00  0.00     0.016 A 
ATOM     41  C   UNL     1     -19.117 -11.706  -0.377  1.00  0.00     0.158 A 
ATOM     42  C   UNL     1     -17.129 -10.382   0.044  1.00  0.00     0.051 A 
ATOM     43  C   UNL     1     -18.070 -11.325   0.478  1.00  0.00     0.157 A 
BRANCH  41  44
ATOM     44  O   UNL     1     -20.069 -12.643   0.021  1.00  0.00    -0.504 OA
ATOM     45  H   UNL     1     -19.875 -13.636   0.025  1.00  0.00     0.293 HD
ENDBRANCH  41  44
BRANCH  43  46
ATOM     46  O   UNL     1     -17.968 -11.882   1.750  1.00  0.00    -0.504 OA
ATOM     47  H   UNL     1     -17.225 -12.532   1.982  1.00  0.00     0.293 HD
ENDBRANCH  43  46
ENDBRANCH  28  38
BRANCH  34  48
ATOM     48  O   UNL     1     -18.195  -7.970  -8.260  1.00  0.00    -0.507 OA
ATOM     49  H   UNL     1     -18.628  -8.401  -9.067  1.00  0.00     0.293 HD
ENDBRANCH  34  48
BRANCH  37  50
ATOM     50  O   UNL     1     -21.518  -5.206  -6.114  1.00  0.00    -0.508 OA
ATOM     51  H   UNL     1     -22.508  -5.369  -5.956  1.00  0.00     0.293 HD
ENDBRANCH  37  50
ENDBRANCH  26  27
ENDBRANCH   5  26
BRANCH   4  52
ATOM     52  O   UNL     1     -15.314 -13.426  -2.844  1.00  0.00    -0.384 OA
ATOM     53  H   UNL     1     -15.821 -14.113  -2.336  1.00  0.00     0.211 HD
ENDBRANCH   4  52
TORSDOF 16
ENDMDL
