MODEL 1
REMARK VINA RESULT:    -6.116      0.000      0.000
REMARK INTER + INTRA:          -6.626
REMARK INTER:                  -6.652
REMARK INTRA:                   0.026
REMARK UNBOUND:                 0.026
REMARK SMILES COc1cc2ccc(=O)oc2cc1O
REMARK SMILES IDX 3 1 13 2 12 3 11 4 5 5 4 6 6 7 7 8 8 9 9 10 10 11 2 12 1 13
REMARK SMILES IDX 14 14
REMARK H PARENT 14 15
REMARK Flexibility Score: inf
ROOT
ATOM      1  C   UNL     1     -40.145  38.302  47.983  1.00  0.00     0.161 A 
ATOM      2  C   UNL     1     -38.791  38.258  48.356  1.00  0.00     0.161 A 
ATOM      3  C   UNL     1     -37.794  38.628  47.442  1.00  0.00     0.098 A 
ATOM      4  C   UNL     1     -38.138  39.040  46.152  1.00  0.00     0.142 A 
ATOM      5  C   UNL     1     -39.495  39.087  45.771  1.00  0.00     0.022 A 
ATOM      6  C   UNL     1     -40.493  38.718  46.682  1.00  0.00     0.062 A 
ATOM      7  C   UNL     1     -39.808  39.504  44.473  1.00  0.00     0.019 A 
ATOM      8  C   UNL     1     -38.780  39.861  43.601  1.00  0.00     0.094 A 
ATOM      9  C   UNL     1     -37.457  39.789  44.050  1.00  0.00     0.336 A 
ATOM     10  O   UNL     1     -36.514  40.107  43.278  1.00  0.00    -0.246 OA
ATOM     11  O   UNL     1     -37.186  39.388  45.289  1.00  0.00    -0.423 OA
ENDROOT
BRANCH   1  12
ATOM     12  O   UNL     1     -41.109  37.924  48.931  1.00  0.00    -0.493 OA
ATOM     13  C   UNL     1     -41.455  36.577  49.237  1.00  0.00     0.278 C 
ENDBRANCH   1  12
BRANCH   2  14
ATOM     14  O   UNL     1     -38.446  37.847  49.642  1.00  0.00    -0.504 OA
ATOM     15  H   UNL     1     -38.946  38.182  50.458  1.00  0.00     0.293 HD
ENDBRANCH   2  14
TORSDOF 2
ENDMDL
MODEL 2
REMARK VINA RESULT:    -5.858      6.227     10.057
REMARK INTER + INTRA:          -6.346
REMARK INTER:                  -6.516
REMARK INTRA:                   0.170
REMARK UNBOUND:                 0.026
REMARK SMILES COc1cc2ccc(=O)oc2cc1O
REMARK SMILES IDX 3 1 13 2 12 3 11 4 5 5 4 6 6 7 7 8 8 9 9 10 10 11 2 12 1 13
REMARK SMILES IDX 14 14
REMARK H PARENT 14 15
REMARK Flexibility Score: inf
ROOT
ATOM      1  C   UNL     1     -34.771  44.859  39.081  1.00  0.00     0.161 A 
ATOM      2  C   UNL     1     -34.490  43.536  38.701  1.00  0.00     0.161 A 
ATOM      3  C   UNL     1     -34.579  42.497  39.639  1.00  0.00     0.098 A 
ATOM      4  C   UNL     1     -34.946  42.769  40.960  1.00  0.00     0.142 A 
ATOM      5  C   UNL     1     -35.230  44.095  41.348  1.00  0.00     0.022 A 
ATOM      6  C   UNL     1     -35.141  45.135  40.413  1.00  0.00     0.062 A 
ATOM      7  C   UNL     1     -35.595  44.335  42.677  1.00  0.00     0.019 A 
ATOM      8  C   UNL     1     -35.669  43.267  43.571  1.00  0.00     0.094 A 
ATOM      9  C   UNL     1     -35.373  41.979  43.113  1.00  0.00     0.336 A 
ATOM     10  O   UNL     1     -35.434  41.002  43.904  1.00  0.00    -0.246 OA
ATOM     11  O   UNL     1     -35.028  41.778  41.844  1.00  0.00    -0.423 OA
ENDROOT
BRANCH   1  12
ATOM     12  O   UNL     1     -34.670  45.867  38.110  1.00  0.00    -0.493 OA
ATOM     13  C   UNL     1     -33.451  46.281  37.501  1.00  0.00     0.278 C 
ENDBRANCH   1  12
BRANCH   2  14
ATOM     14  O   UNL     1     -34.124  43.263  37.385  1.00  0.00    -0.504 OA
ATOM     15  H   UNL     1     -34.629  42.587  36.823  1.00  0.00     0.293 HD
ENDBRANCH   2  14
TORSDOF 2
ENDMDL
MODEL 3
REMARK VINA RESULT:    -5.833      6.748      9.462
REMARK INTER + INTRA:          -6.319
REMARK INTER:                  -6.272
REMARK INTRA:                  -0.047
REMARK UNBOUND:                 0.026
REMARK SMILES COc1cc2ccc(=O)oc2cc1O
REMARK SMILES IDX 3 1 13 2 12 3 11 4 5 5 4 6 6 7 7 8 8 9 9 10 10 11 2 12 1 13
REMARK SMILES IDX 14 14
REMARK H PARENT 14 15
REMARK Flexibility Score: inf
ROOT
ATOM      1  C   UNL     1     -35.402  43.174  41.688  1.00  0.00     0.161 A 
ATOM      2  C   UNL     1     -35.527  44.543  41.976  1.00  0.00     0.161 A 
ATOM      3  C   UNL     1     -35.218  45.502  41.000  1.00  0.00     0.098 A 
ATOM      4  C   UNL     1     -34.781  45.102  39.734  1.00  0.00     0.142 A 
ATOM      5  C   UNL     1     -34.653  43.729  39.438  1.00  0.00     0.022 A 
ATOM      6  C   UNL     1     -34.961  42.770  40.411  1.00  0.00     0.062 A 
ATOM      7  C   UNL     1     -34.214  43.361  38.162  1.00  0.00     0.019 A 
ATOM      8  C   UNL     1     -33.919  44.353  37.226  1.00  0.00     0.094 A 
ATOM      9  C   UNL     1     -34.070  45.695  37.592  1.00  0.00     0.336 A 
ATOM     10  O   UNL     1     -33.809  46.605  36.762  1.00  0.00    -0.246 OA
ATOM     11  O   UNL     1     -34.489  46.018  38.813  1.00  0.00    -0.423 OA
ENDROOT
BRANCH   1  12
ATOM     12  O   UNL     1     -35.722  42.250  42.695  1.00  0.00    -0.493 OA
ATOM     13  C   UNL     1     -36.161  40.916  42.456  1.00  0.00     0.278 C 
ENDBRANCH   1  12
BRANCH   2  14
ATOM     14  O   UNL     1     -35.962  44.943  43.237  1.00  0.00    -0.504 OA
ATOM     15  H   UNL     1     -35.649  45.812  43.655  1.00  0.00     0.293 HD
ENDBRANCH   2  14
TORSDOF 2
ENDMDL
MODEL 4
REMARK VINA RESULT:    -5.830      6.161      8.575
REMARK INTER + INTRA:          -6.315
REMARK INTER:                  -6.250
REMARK INTRA:                  -0.065
REMARK UNBOUND:                 0.026
REMARK SMILES COc1cc2ccc(=O)oc2cc1O
REMARK SMILES IDX 3 1 13 2 12 3 11 4 5 5 4 6 6 7 7 8 8 9 9 10 10 11 2 12 1 13
REMARK SMILES IDX 14 14
REMARK H PARENT 14 15
REMARK Flexibility Score: inf
ROOT
ATOM      1  C   UNL     1     -35.414  42.451  42.397  1.00  0.00     0.161 A 
ATOM      2  C   UNL     1     -35.017  41.423  41.526  1.00  0.00     0.161 A 
ATOM      3  C   UNL     1     -34.630  41.721  40.211  1.00  0.00     0.098 A 
ATOM      4  C   UNL     1     -34.637  43.042  39.757  1.00  0.00     0.142 A 
ATOM      5  C   UNL     1     -35.034  44.079  40.626  1.00  0.00     0.022 A 
ATOM      6  C   UNL     1     -35.422  43.784  41.940  1.00  0.00     0.062 A 
ATOM      7  C   UNL     1     -35.031  45.392  40.142  1.00  0.00     0.019 A 
ATOM      8  C   UNL     1     -34.637  45.636  38.826  1.00  0.00     0.094 A 
ATOM      9  C   UNL     1     -34.256  44.556  38.023  1.00  0.00     0.336 A 
ATOM     10  O   UNL     1     -33.898  44.755  36.832  1.00  0.00    -0.246 OA
ATOM     11  O   UNL     1     -34.269  43.317  38.507  1.00  0.00    -0.423 OA
ENDROOT
BRANCH   1  12
ATOM     12  O   UNL     1     -35.793  42.107  43.704  1.00  0.00    -0.493 OA
ATOM     13  C   UNL     1     -34.986  42.313  44.859  1.00  0.00     0.278 C 
ENDBRANCH   1  12
BRANCH   2  14
ATOM     14  O   UNL     1     -35.009  40.105  41.977  1.00  0.00    -0.504 OA
ATOM     15  H   UNL     1     -34.169  39.677  42.348  1.00  0.00     0.293 HD
ENDBRANCH   2  14
TORSDOF 2
ENDMDL
MODEL 5
REMARK VINA RESULT:    -5.828      1.416      2.722
REMARK INTER + INTRA:          -6.313
REMARK INTER:                  -6.253
REMARK INTRA:                  -0.060
REMARK UNBOUND:                 0.026
REMARK SMILES COc1cc2ccc(=O)oc2cc1O
REMARK SMILES IDX 3 1 13 2 12 3 11 4 5 5 4 6 6 7 7 8 8 9 9 10 10 11 2 12 1 13
REMARK SMILES IDX 14 14
REMARK H PARENT 14 15
REMARK Flexibility Score: inf
ROOT
ATOM      1  C   UNL     1     -40.098  38.241  48.161  1.00  0.00     0.161 A 
ATOM      2  C   UNL     1     -40.483  38.655  46.876  1.00  0.00     0.161 A 
ATOM      3  C   UNL     1     -39.518  38.857  45.879  1.00  0.00     0.098 A 
ATOM      4  C   UNL     1     -38.164  38.651  46.157  1.00  0.00     0.142 A 
ATOM      5  C   UNL     1     -37.770  38.235  47.446  1.00  0.00     0.022 A 
ATOM      6  C   UNL     1     -38.732  38.032  48.443  1.00  0.00     0.062 A 
ATOM      7  C   UNL     1     -36.407  38.037  47.693  1.00  0.00     0.019 A 
ATOM      8  C   UNL     1     -35.486  38.252  46.668  1.00  0.00     0.094 A 
ATOM      9  C   UNL     1     -35.952  38.664  45.415  1.00  0.00     0.336 A 
ATOM     10  O   UNL     1     -35.137  38.864  44.477  1.00  0.00    -0.246 OA
ATOM     11  O   UNL     1     -37.253  38.846  45.206  1.00  0.00    -0.423 OA
ENDROOT
BRANCH   1  12
ATOM     12  O   UNL     1     -41.098  38.050  49.128  1.00  0.00    -0.493 OA
ATOM     13  C   UNL     1     -41.355  36.816  49.790  1.00  0.00     0.278 C 
ENDBRANCH   1  12
BRANCH   2  14
ATOM     14  O   UNL     1     -41.833  38.861  46.596  1.00  0.00    -0.504 OA
ATOM     15  H   UNL     1     -42.535  38.169  46.833  1.00  0.00     0.293 HD
ENDBRANCH   2  14
TORSDOF 2
ENDMDL
MODEL 6
REMARK VINA RESULT:    -5.741      3.199      4.940
REMARK INTER + INTRA:          -6.218
REMARK INTER:                  -6.162
REMARK INTRA:                  -0.056
REMARK UNBOUND:                 0.026
REMARK SMILES COc1cc2ccc(=O)oc2cc1O
REMARK SMILES IDX 3 1 13 2 12 3 11 4 5 5 4 6 6 7 7 8 8 9 9 10 10 11 2 12 1 13
REMARK SMILES IDX 14 14
REMARK H PARENT 14 15
REMARK Flexibility Score: inf
ROOT
ATOM      1  C   UNL     1     -37.163  39.373  45.141  1.00  0.00     0.161 A 
ATOM      2  C   UNL     1     -37.469  39.091  46.483  1.00  0.00     0.161 A 
ATOM      3  C   UNL     1     -37.481  37.766  46.943  1.00  0.00     0.098 A 
ATOM      4  C   UNL     1     -37.191  36.715  46.069  1.00  0.00     0.142 A 
ATOM      5  C   UNL     1     -36.883  36.990  44.721  1.00  0.00     0.022 A 
ATOM      6  C   UNL     1     -36.870  38.313  44.259  1.00  0.00     0.062 A 
ATOM      7  C   UNL     1     -36.596  35.916  43.871  1.00  0.00     0.019 A 
ATOM      8  C   UNL     1     -36.622  34.616  44.377  1.00  0.00     0.094 A 
ATOM      9  C   UNL     1     -36.936  34.421  45.726  1.00  0.00     0.336 A 
ATOM     10  O   UNL     1     -36.964  33.256  46.201  1.00  0.00    -0.246 OA
ATOM     11  O   UNL     1     -37.205  35.460  46.512  1.00  0.00    -0.423 OA
ENDROOT
BRANCH   1  12
ATOM     12  O   UNL     1     -37.162  40.713  44.725  1.00  0.00    -0.493 OA
ATOM     13  C   UNL     1     -37.894  41.212  43.610  1.00  0.00     0.278 C 
ENDBRANCH   1  12
BRANCH   2  14
ATOM     14  O   UNL     1     -37.758  40.138  47.355  1.00  0.00    -0.504 OA
ATOM     15  H   UNL     1     -37.081  40.867  47.552  1.00  0.00     0.293 HD
ENDBRANCH   2  14
TORSDOF 2
ENDMDL
MODEL 7
REMARK VINA RESULT:    -5.716      5.356      8.399
REMARK INTER + INTRA:          -6.191
REMARK INTER:                  -6.146
REMARK INTRA:                  -0.045
REMARK UNBOUND:                 0.026
REMARK SMILES COc1cc2ccc(=O)oc2cc1O
REMARK SMILES IDX 3 1 13 2 12 3 11 4 5 5 4 6 6 7 7 8 8 9 9 10 10 11 2 12 1 13
REMARK SMILES IDX 14 14
REMARK H PARENT 14 15
REMARK Flexibility Score: inf
ROOT
ATOM      1  C   UNL     1     -35.384  41.683  42.135  1.00  0.00     0.161 A 
ATOM      2  C   UNL     1     -35.146  41.811  40.757  1.00  0.00     0.161 A 
ATOM      3  C   UNL     1     -33.834  41.796  40.261  1.00  0.00     0.098 A 
ATOM      4  C   UNL     1     -32.753  41.657  41.135  1.00  0.00     0.142 A 
ATOM      5  C   UNL     1     -32.984  41.528  42.520  1.00  0.00     0.022 A 
ATOM      6  C   UNL     1     -34.294  41.542  43.018  1.00  0.00     0.062 A 
ATOM      7  C   UNL     1     -31.881  41.390  43.369  1.00  0.00     0.019 A 
ATOM      8  C   UNL     1     -30.595  41.382  42.827  1.00  0.00     0.094 A 
ATOM      9  C   UNL     1     -30.444  41.515  41.443  1.00  0.00     0.336 A 
ATOM     10  O   UNL     1     -29.293  41.510  40.934  1.00  0.00    -0.246 OA
ATOM     11  O   UNL     1     -31.510  41.645  40.657  1.00  0.00    -0.423 OA
ENDROOT
BRANCH   1  12
ATOM     12  O   UNL     1     -36.713  41.702  42.587  1.00  0.00    -0.493 OA
ATOM     13  C   UNL     1     -37.100  41.677  43.957  1.00  0.00     0.278 C 
ENDBRANCH   1  12
BRANCH   2  14
ATOM     14  O   UNL     1     -36.224  41.950  39.884  1.00  0.00    -0.504 OA
ATOM     15  H   UNL     1     -36.319  42.762  39.285  1.00  0.00     0.293 HD
ENDBRANCH   2  14
TORSDOF 2
ENDMDL
MODEL 8
REMARK VINA RESULT:    -5.708      7.052     10.002
REMARK INTER + INTRA:          -6.182
REMARK INTER:                  -6.133
REMARK INTRA:                  -0.049
REMARK UNBOUND:                 0.026
REMARK SMILES COc1cc2ccc(=O)oc2cc1O
REMARK SMILES IDX 3 1 13 2 12 3 11 4 5 5 4 6 6 7 7 8 8 9 9 10 10 11 2 12 1 13
REMARK SMILES IDX 14 14
REMARK H PARENT 14 15
REMARK Flexibility Score: inf
ROOT
ATOM      1  C   UNL     1     -34.669  44.752  39.136  1.00  0.00     0.161 A 
ATOM      2  C   UNL     1     -35.115  45.054  40.433  1.00  0.00     0.161 A 
ATOM      3  C   UNL     1     -35.156  44.056  41.418  1.00  0.00     0.098 A 
ATOM      4  C   UNL     1     -34.754  42.752  41.116  1.00  0.00     0.142 A 
ATOM      5  C   UNL     1     -34.304  42.442  39.816  1.00  0.00     0.022 A 
ATOM      6  C   UNL     1     -34.263  43.437  38.831  1.00  0.00     0.062 A 
ATOM      7  C   UNL     1     -33.909  41.128  39.545  1.00  0.00     0.019 A 
ATOM      8  C   UNL     1     -33.968  40.171  40.559  1.00  0.00     0.094 A 
ATOM      9  C   UNL     1     -34.425  40.554  41.824  1.00  0.00     0.336 A 
ATOM     10  O   UNL     1     -34.486  39.706  42.752  1.00  0.00    -0.246 OA
ATOM     11  O   UNL     1     -34.796  41.810  42.055  1.00  0.00    -0.423 OA
ENDROOT
BRANCH   1  12
ATOM     12  O   UNL     1     -34.645  45.782  38.183  1.00  0.00    -0.493 OA
ATOM     13  C   UNL     1     -33.662  45.912  37.160  1.00  0.00     0.278 C 
ENDBRANCH   1  12
BRANCH   2  14
ATOM     14  O   UNL     1     -35.517  46.354  40.736  1.00  0.00    -0.504 OA
ATOM     15  H   UNL     1     -34.986  47.159  40.422  1.00  0.00     0.293 HD
ENDBRANCH   2  14
TORSDOF 2
ENDMDL
MODEL 9
REMARK VINA RESULT:    -5.657      3.275      3.970
REMARK INTER + INTRA:          -6.127
REMARK INTER:                  -6.071
REMARK INTRA:                  -0.056
REMARK UNBOUND:                 0.026
REMARK SMILES COc1cc2ccc(=O)oc2cc1O
REMARK SMILES IDX 3 1 13 2 12 3 11 4 5 5 4 6 6 7 7 8 8 9 9 10 10 11 2 12 1 13
REMARK SMILES IDX 14 14
REMARK H PARENT 14 15
REMARK Flexibility Score: inf
ROOT
ATOM      1  C   UNL     1     -38.748  37.843  47.336  1.00  0.00     0.161 A 
ATOM      2  C   UNL     1     -37.643  38.665  47.062  1.00  0.00     0.161 A 
ATOM      3  C   UNL     1     -36.468  38.116  46.529  1.00  0.00     0.098 A 
ATOM      4  C   UNL     1     -36.386  36.746  46.268  1.00  0.00     0.142 A 
ATOM      5  C   UNL     1     -37.492  35.914  46.541  1.00  0.00     0.022 A 
ATOM      6  C   UNL     1     -38.667  36.461  47.074  1.00  0.00     0.062 A 
ATOM      7  C   UNL     1     -37.379  34.547  46.269  1.00  0.00     0.019 A 
ATOM      8  C   UNL     1     -36.188  34.049  45.739  1.00  0.00     0.094 A 
ATOM      9  C   UNL     1     -35.134  34.935  45.495  1.00  0.00     0.336 A 
ATOM     10  O   UNL     1     -34.051  34.506  45.017  1.00  0.00    -0.246 OA
ATOM     11  O   UNL     1     -35.267  36.232  45.763  1.00  0.00    -0.423 OA
ENDROOT
BRANCH   1  12
ATOM     12  O   UNL     1     -39.904  38.436  47.869  1.00  0.00    -0.493 OA
ATOM     13  C   UNL     1     -40.574  37.986  49.042  1.00  0.00     0.278 C 
ENDBRANCH   1  12
BRANCH   2  14
ATOM     14  O   UNL     1     -37.723  40.032  47.322  1.00  0.00    -0.504 OA
ATOM     15  H   UNL     1     -38.605  40.530  47.273  1.00  0.00     0.293 HD
ENDBRANCH   2  14
TORSDOF 2
ENDMDL
