MODEL 1
REMARK VINA RESULT:    -8.461      0.000      0.000
REMARK INTER + INTRA:         -10.297
REMARK INTER:                 -10.193
REMARK INTRA:                  -0.105
REMARK UNBOUND:                -0.105
REMARK SMILES Oc1cc(O)c2cc(O)c(-c3ccc(O)c(O)c3)[o+]c2c1
REMARK SMILES IDX 10 1 19 2 20 3 21 4 2 5 3 6 4 7 6 8 7 9 8 10 11 11 12 12
REMARK SMILES IDX 13 13 14 14 18 15 16 16 15 17 17 19 9 21 1 23 5 25
REMARK H PARENT 15 18 17 20 9 22 1 24 5 26
REMARK Flexibility Score: inf
ROOT
ATOM      1  C   UNL     1     -34.390  44.265  40.024  1.00  0.00     0.402 A 
ATOM      2  O   UNL     1     -33.979  43.011  40.186  1.00  0.00    -0.202 OA
ATOM      3  C   UNL     1     -34.267  42.281  41.260  1.00  0.00     0.368 A 
ATOM      4  C   UNL     1     -33.792  40.970  41.338  1.00  0.00     0.162 A 
ATOM      5  C   UNL     1     -34.084  40.180  42.454  1.00  0.00     0.128 A 
ATOM      6  C   UNL     1     -34.855  40.703  43.495  1.00  0.00     0.093 A 
ATOM      7  C   UNL     1     -35.343  42.015  43.439  1.00  0.00     0.136 A 
ATOM      8  C   UNL     1     -35.048  42.822  42.310  1.00  0.00     0.125 A 
ATOM      9  C   UNL     1     -35.483  44.150  42.175  1.00  0.00     0.078 A 
ATOM     10  C   UNL     1     -35.148  44.885  41.034  1.00  0.00     0.223 A 
ENDROOT
BRANCH   1  11
ATOM     11  C   UNL     1     -34.011  44.971  38.777  1.00  0.00     0.087 A 
ATOM     12  C   UNL     1     -35.014  45.533  37.970  1.00  0.00     0.022 A 
ATOM     13  C   UNL     1     -34.679  46.219  36.801  1.00  0.00     0.051 A 
ATOM     14  C   UNL     1     -33.337  46.368  36.429  1.00  0.00     0.157 A 
ATOM     15  C   UNL     1     -32.664  45.140  38.412  1.00  0.00     0.068 A 
ATOM     16  C   UNL     1     -32.327  45.831  37.238  1.00  0.00     0.158 A 
BRANCH  14  17
ATOM     17  O   UNL     1     -32.997  47.050  35.263  1.00  0.00    -0.504 OA
ATOM     18  H   UNL     1     -33.630  47.718  34.837  1.00  0.00     0.293 HD
ENDBRANCH  14  17
BRANCH  16  19
ATOM     19  O   UNL     1     -30.991  45.993  36.874  1.00  0.00    -0.504 OA
ATOM     20  H   UNL     1     -30.582  46.912  36.753  1.00  0.00     0.293 HD
ENDBRANCH  16  19
ENDBRANCH   1  11
BRANCH  10  21
ATOM     21  O   UNL     1     -35.538  46.220  40.922  1.00  0.00    -0.500 OA
ATOM     22  H   UNL     1     -36.161  46.533  40.187  1.00  0.00     0.294 HD
ENDBRANCH  10  21
BRANCH   5  23
ATOM     23  O   UNL     1     -33.613  38.872  42.540  1.00  0.00    -0.507 OA
ATOM     24  H   UNL     1     -34.085  38.107  42.070  1.00  0.00     0.293 HD
ENDBRANCH   5  23
BRANCH   7  25
ATOM     25  O   UNL     1     -36.109  42.463  44.520  1.00  0.00    -0.507 OA
ATOM     26  H   UNL     1     -36.314  41.913  45.341  1.00  0.00     0.293 HD
ENDBRANCH   7  25
TORSDOF 6
ENDMDL
MODEL 2
REMARK VINA RESULT:    -7.891      4.730      6.597
REMARK INTER + INTRA:          -9.610
REMARK INTER:                  -9.346
REMARK INTRA:                  -0.263
REMARK UNBOUND:                -0.105
REMARK SMILES Oc1cc(O)c2cc(O)c(-c3ccc(O)c(O)c3)[o+]c2c1
REMARK SMILES IDX 10 1 19 2 20 3 21 4 2 5 3 6 4 7 6 8 7 9 8 10 11 11 12 12
REMARK SMILES IDX 13 13 14 14 18 15 16 16 15 17 17 19 9 21 1 23 5 25
REMARK H PARENT 15 18 17 20 9 22 1 24 5 26
REMARK Flexibility Score: inf
ROOT
ATOM      1  C   UNL     1     -36.322  39.832  43.296  1.00  0.00     0.402 A 
ATOM      2  O   UNL     1     -36.160  39.416  44.549  1.00  0.00    -0.202 OA
ATOM      3  C   UNL     1     -37.174  39.160  45.370  1.00  0.00     0.368 A 
ATOM      4  C   UNL     1     -36.903  38.723  46.669  1.00  0.00     0.162 A 
ATOM      5  C   UNL     1     -37.950  38.444  47.552  1.00  0.00     0.128 A 
ATOM      6  C   UNL     1     -39.274  38.601  47.133  1.00  0.00     0.093 A 
ATOM      7  C   UNL     1     -39.571  39.037  45.835  1.00  0.00     0.136 A 
ATOM      8  C   UNL     1     -38.511  39.324  44.936  1.00  0.00     0.125 A 
ATOM      9  C   UNL     1     -38.715  39.778  43.623  1.00  0.00     0.078 A 
ATOM     10  C   UNL     1     -37.620  40.045  42.796  1.00  0.00     0.223 A 
ENDROOT
BRANCH   1  11
ATOM     11  C   UNL     1     -35.111  40.073  42.477  1.00  0.00     0.087 A 
ATOM     12  C   UNL     1     -34.233  41.111  42.832  1.00  0.00     0.022 A 
ATOM     13  C   UNL     1     -33.076  41.344  42.085  1.00  0.00     0.051 A 
ATOM     14  C   UNL     1     -32.771  40.535  40.983  1.00  0.00     0.157 A 
ATOM     15  C   UNL     1     -34.791  39.251  41.382  1.00  0.00     0.068 A 
ATOM     16  C   UNL     1     -33.628  39.484  40.633  1.00  0.00     0.158 A 
BRANCH  14  17
ATOM     17  O   UNL     1     -31.619  40.765  40.234  1.00  0.00    -0.504 OA
ATOM     18  H   UNL     1     -30.747  40.293  40.446  1.00  0.00     0.293 HD
ENDBRANCH  14  17
BRANCH  16  19
ATOM     19  O   UNL     1     -33.315  38.671  39.545  1.00  0.00    -0.504 OA
ATOM     20  H   UNL     1     -32.767  37.826  39.655  1.00  0.00     0.293 HD
ENDBRANCH  16  19
ENDBRANCH   1  11
BRANCH  10  21
ATOM     21  O   UNL     1     -37.820  40.544  41.509  1.00  0.00    -0.500 OA
ATOM     22  H   UNL     1     -37.077  41.004  40.995  1.00  0.00     0.294 HD
ENDBRANCH  10  21
BRANCH   5  23
ATOM     23  O   UNL     1     -37.689  38.009  48.849  1.00  0.00    -0.507 OA
ATOM     24  H   UNL     1     -37.266  38.621  49.538  1.00  0.00     0.293 HD
ENDBRANCH   5  23
BRANCH   7  25
ATOM     25  O   UNL     1     -40.920  39.166  45.493  1.00  0.00    -0.507 OA
ATOM     26  H   UNL     1     -41.606  38.432  45.591  1.00  0.00     0.293 HD
ENDBRANCH   7  25
TORSDOF 6
ENDMDL
MODEL 3
REMARK VINA RESULT:    -7.798      5.529      7.823
REMARK INTER + INTRA:          -9.498
REMARK INTER:                  -9.191
REMARK INTRA:                  -0.307
REMARK UNBOUND:                -0.105
REMARK SMILES Oc1cc(O)c2cc(O)c(-c3ccc(O)c(O)c3)[o+]c2c1
REMARK SMILES IDX 10 1 19 2 20 3 21 4 2 5 3 6 4 7 6 8 7 9 8 10 11 11 12 12
REMARK SMILES IDX 13 13 14 14 18 15 16 16 15 17 17 19 9 21 1 23 5 25
REMARK H PARENT 15 18 17 20 9 22 1 24 5 26
REMARK Flexibility Score: inf
ROOT
ATOM      1  C   UNL     1     -36.972  39.880  44.847  1.00  0.00     0.402 A 
ATOM      2  O   UNL     1     -37.026  39.339  46.060  1.00  0.00    -0.202 OA
ATOM      3  C   UNL     1     -38.159  38.947  46.635  1.00  0.00     0.368 A 
ATOM      4  C   UNL     1     -38.114  38.385  47.914  1.00  0.00     0.162 A 
ATOM      5  C   UNL     1     -39.290  37.962  48.540  1.00  0.00     0.128 A 
ATOM      6  C   UNL     1     -40.516  38.100  47.883  1.00  0.00     0.093 A 
ATOM      7  C   UNL     1     -40.587  38.659  46.601  1.00  0.00     0.136 A 
ATOM      8  C   UNL     1     -39.396  39.093  45.963  1.00  0.00     0.125 A 
ATOM      9  C   UNL     1     -39.374  39.676  44.686  1.00  0.00     0.078 A 
ATOM     10  C   UNL     1     -38.161  40.084  44.123  1.00  0.00     0.223 A 
ENDROOT
BRANCH   1  11
ATOM     11  C   UNL     1     -35.646  40.267  44.311  1.00  0.00     0.087 A 
ATOM     12  C   UNL     1     -34.984  41.383  44.849  1.00  0.00     0.022 A 
ATOM     13  C   UNL     1     -33.724  41.755  44.373  1.00  0.00     0.051 A 
ATOM     14  C   UNL     1     -33.102  41.009  43.364  1.00  0.00     0.157 A 
ATOM     15  C   UNL     1     -35.009  39.509  43.314  1.00  0.00     0.068 A 
ATOM     16  C   UNL     1     -33.743  39.881  42.836  1.00  0.00     0.158 A 
BRANCH  14  17
ATOM     17  O   UNL     1     -31.846  41.377  42.885  1.00  0.00    -0.504 OA
ATOM     18  H   UNL     1     -31.573  41.200  41.925  1.00  0.00     0.293 HD
ENDBRANCH  14  17
BRANCH  16  19
ATOM     19  O   UNL     1     -33.115  39.131  41.843  1.00  0.00    -0.504 OA
ATOM     20  H   UNL     1     -32.487  38.370  42.071  1.00  0.00     0.293 HD
ENDBRANCH  16  19
ENDBRANCH   1  11
BRANCH  10  21
ATOM     21  O   UNL     1     -38.144  40.710  42.876  1.00  0.00    -0.500 OA
ATOM     22  H   UNL     1     -38.040  40.182  42.017  1.00  0.00     0.294 HD
ENDBRANCH  10  21
BRANCH   5  23
ATOM     23  O   UNL     1     -39.254  37.401  49.814  1.00  0.00    -0.507 OA
ATOM     24  H   UNL     1     -38.759  36.535  49.998  1.00  0.00     0.293 HD
ENDBRANCH   5  23
BRANCH   7  25
ATOM     25  O   UNL     1     -41.851  38.759  46.012  1.00  0.00    -0.507 OA
ATOM     26  H   UNL     1     -42.143  38.240  45.197  1.00  0.00     0.293 HD
ENDBRANCH   7  25
TORSDOF 6
ENDMDL
MODEL 4
REMARK VINA RESULT:    -7.769      4.121      9.252
REMARK INTER + INTRA:          -9.463
REMARK INTER:                  -9.277
REMARK INTRA:                  -0.187
REMARK UNBOUND:                -0.105
REMARK SMILES Oc1cc(O)c2cc(O)c(-c3ccc(O)c(O)c3)[o+]c2c1
REMARK SMILES IDX 10 1 19 2 20 3 21 4 2 5 3 6 4 7 6 8 7 9 8 10 11 11 12 12
REMARK SMILES IDX 13 13 14 14 18 15 16 16 15 17 17 19 9 21 1 23 5 25
REMARK H PARENT 15 18 17 20 9 22 1 24 5 26
REMARK Flexibility Score: inf
ROOT
ATOM      1  C   UNL     1     -37.114  39.467  44.096  1.00  0.00     0.402 A 
ATOM      2  O   UNL     1     -35.818  39.768  44.124  1.00  0.00    -0.202 OA
ATOM      3  C   UNL     1     -35.206  40.451  43.162  1.00  0.00     0.368 A 
ATOM      4  C   UNL     1     -33.841  40.721  43.282  1.00  0.00     0.162 A 
ATOM      5  C   UNL     1     -33.174  41.441  42.287  1.00  0.00     0.128 A 
ATOM      6  C   UNL     1     -33.876  41.893  41.166  1.00  0.00     0.093 A 
ATOM      7  C   UNL     1     -35.245  41.636  41.023  1.00  0.00     0.136 A 
ATOM      8  C   UNL     1     -35.927  40.903  42.030  1.00  0.00     0.125 A 
ATOM      9  C   UNL     1     -37.293  40.587  41.963  1.00  0.00     0.078 A 
ATOM     10  C   UNL     1     -37.894  39.857  42.993  1.00  0.00     0.223 A 
ENDROOT
BRANCH   1  11
ATOM     11  C   UNL     1     -37.681  38.708  45.235  1.00  0.00     0.087 A 
ATOM     12  C   UNL     1     -38.686  39.294  46.022  1.00  0.00     0.022 A 
ATOM     13  C   UNL     1     -39.250  38.590  47.089  1.00  0.00     0.051 A 
ATOM     14  C   UNL     1     -38.829  37.285  47.375  1.00  0.00     0.157 A 
ATOM     15  C   UNL     1     -37.276  37.391  45.513  1.00  0.00     0.068 A 
ATOM     16  C   UNL     1     -37.843  36.682  46.583  1.00  0.00     0.158 A 
BRANCH  14  17
ATOM     17  O   UNL     1     -39.387  36.579  48.439  1.00  0.00    -0.504 OA
ATOM     18  H   UNL     1     -38.859  35.875  48.942  1.00  0.00     0.293 HD
ENDBRANCH  14  17
BRANCH  16  19
ATOM     19  O   UNL     1     -37.436  35.379  46.860  1.00  0.00    -0.504 OA
ATOM     20  H   UNL     1     -38.074  34.595  46.779  1.00  0.00     0.293 HD
ENDBRANCH  16  19
ENDBRANCH   1  11
BRANCH  10  21
ATOM     21  O   UNL     1     -39.240  39.500  42.904  1.00  0.00    -0.500 OA
ATOM     22  H   UNL     1     -39.561  38.790  42.256  1.00  0.00     0.294 HD
ENDBRANCH  10  21
BRANCH   5  23
ATOM     23  O   UNL     1     -31.813  41.714  42.399  1.00  0.00    -0.507 OA
ATOM     24  H   UNL     1     -31.412  42.570  42.031  1.00  0.00     0.293 HD
ENDBRANCH   5  23
BRANCH   7  25
ATOM     25  O   UNL     1     -35.876  42.125  39.875  1.00  0.00    -0.507 OA
ATOM     26  H   UNL     1     -35.733  43.050  39.496  1.00  0.00     0.293 HD
ENDBRANCH   7  25
TORSDOF 6
ENDMDL
MODEL 5
REMARK VINA RESULT:    -7.761      1.881      7.267
REMARK INTER + INTRA:          -9.454
REMARK INTER:                  -9.105
REMARK INTRA:                  -0.349
REMARK UNBOUND:                -0.105
REMARK SMILES Oc1cc(O)c2cc(O)c(-c3ccc(O)c(O)c3)[o+]c2c1
REMARK SMILES IDX 10 1 19 2 20 3 21 4 2 5 3 6 4 7 6 8 7 9 8 10 11 11 12 12
REMARK SMILES IDX 13 13 14 14 18 15 16 16 15 17 17 19 9 21 1 23 5 25
REMARK H PARENT 15 18 17 20 9 22 1 24 5 26
REMARK Flexibility Score: inf
ROOT
ATOM      1  C   UNL     1     -35.058  41.592  41.938  1.00  0.00     0.402 A 
ATOM      2  O   UNL     1     -34.683  41.805  40.679  1.00  0.00    -0.202 OA
ATOM      3  C   UNL     1     -34.701  43.004  40.105  1.00  0.00     0.368 A 
ATOM      4  C   UNL     1     -34.285  43.129  38.778  1.00  0.00     0.162 A 
ATOM      5  C   UNL     1     -34.291  44.378  38.151  1.00  0.00     0.128 A 
ATOM      6  C   UNL     1     -34.713  45.509  38.857  1.00  0.00     0.093 A 
ATOM      7  C   UNL     1     -35.134  45.409  40.189  1.00  0.00     0.136 A 
ATOM      8  C   UNL     1     -35.133  44.143  40.828  1.00  0.00     0.125 A 
ATOM      9  C   UNL     1     -35.550  43.947  42.154  1.00  0.00     0.078 A 
ATOM     10  C   UNL     1     -35.525  42.667  42.716  1.00  0.00     0.223 A 
ENDROOT
BRANCH   1  11
ATOM     11  C   UNL     1     -34.983  40.210  42.466  1.00  0.00     0.087 A 
ATOM     12  C   UNL     1     -33.821  39.789  43.134  1.00  0.00     0.022 A 
ATOM     13  C   UNL     1     -33.735  38.497  43.658  1.00  0.00     0.051 A 
ATOM     14  C   UNL     1     -34.814  37.612  43.536  1.00  0.00     0.157 A 
ATOM     15  C   UNL     1     -36.072  39.326  42.364  1.00  0.00     0.068 A 
ATOM     16  C   UNL     1     -35.987  38.029  42.892  1.00  0.00     0.158 A 
BRANCH  14  17
ATOM     17  O   UNL     1     -34.733  36.322  44.055  1.00  0.00    -0.504 OA
ATOM     18  H   UNL     1     -35.098  35.523  43.549  1.00  0.00     0.293 HD
ENDBRANCH  14  17
BRANCH  16  19
ATOM     19  O   UNL     1     -37.064  37.152  42.785  1.00  0.00    -0.504 OA
ATOM     20  H   UNL     1     -36.989  36.279  42.276  1.00  0.00     0.293 HD
ENDBRANCH  16  19
ENDBRANCH   1  11
BRANCH  10  21
ATOM     21  O   UNL     1     -35.987  42.464  44.017  1.00  0.00    -0.500 OA
ATOM     22  H   UNL     1     -36.128  41.533  44.392  1.00  0.00     0.294 HD
ENDBRANCH  10  21
BRANCH   5  23
ATOM     23  O   UNL     1     -33.878  44.511  36.828  1.00  0.00    -0.507 OA
ATOM     24  H   UNL     1     -34.459  44.198  36.058  1.00  0.00     0.293 HD
ENDBRANCH   5  23
BRANCH   7  25
ATOM     25  O   UNL     1     -35.539  46.587  40.825  1.00  0.00    -0.507 OA
ATOM     26  H   UNL     1     -36.039  47.337  40.372  1.00  0.00     0.293 HD
ENDBRANCH   7  25
TORSDOF 6
ENDMDL
MODEL 6
REMARK VINA RESULT:    -7.746      3.857      6.683
REMARK INTER + INTRA:          -9.436
REMARK INTER:                  -9.108
REMARK INTRA:                  -0.328
REMARK UNBOUND:                -0.105
REMARK SMILES Oc1cc(O)c2cc(O)c(-c3ccc(O)c(O)c3)[o+]c2c1
REMARK SMILES IDX 10 1 19 2 20 3 21 4 2 5 3 6 4 7 6 8 7 9 8 10 11 11 12 12
REMARK SMILES IDX 13 13 14 14 18 15 16 16 15 17 17 19 9 21 1 23 5 25
REMARK H PARENT 15 18 17 20 9 22 1 24 5 26
REMARK Flexibility Score: inf
ROOT
ATOM      1  C   UNL     1     -36.251  39.943  43.851  1.00  0.00     0.402 A 
ATOM      2  O   UNL     1     -37.570  39.864  44.002  1.00  0.00    -0.202 OA
ATOM      3  C   UNL     1     -38.153  39.400  45.104  1.00  0.00     0.368 A 
ATOM      4  C   UNL     1     -39.548  39.359  45.169  1.00  0.00     0.162 A 
ATOM      5  C   UNL     1     -40.186  38.880  46.317  1.00  0.00     0.128 A 
ATOM      6  C   UNL     1     -39.425  38.441  47.404  1.00  0.00     0.093 A 
ATOM      7  C   UNL     1     -38.025  38.474  47.363  1.00  0.00     0.136 A 
ATOM      8  C   UNL     1     -37.373  38.957  46.199  1.00  0.00     0.125 A 
ATOM      9  C   UNL     1     -35.976  39.013  46.064  1.00  0.00     0.078 A 
ATOM     10  C   UNL     1     -35.405  39.498  44.884  1.00  0.00     0.223 A 
ENDROOT
BRANCH   1  11
ATOM     11  C   UNL     1     -35.723  40.488  42.579  1.00  0.00     0.087 A 
ATOM     12  C   UNL     1     -35.285  41.821  42.528  1.00  0.00     0.022 A 
ATOM     13  C   UNL     1     -34.765  42.351  41.345  1.00  0.00     0.051 A 
ATOM     14  C   UNL     1     -34.661  41.551  40.199  1.00  0.00     0.157 A 
ATOM     15  C   UNL     1     -35.598  39.683  41.433  1.00  0.00     0.068 A 
ATOM     16  C   UNL     1     -35.074  40.213  40.244  1.00  0.00     0.158 A 
BRANCH  14  17
ATOM     17  O   UNL     1     -34.145  42.075  39.016  1.00  0.00    -0.504 OA
ATOM     18  H   UNL     1     -33.256  41.762  38.641  1.00  0.00     0.293 HD
ENDBRANCH  14  17
BRANCH  16  19
ATOM     19  O   UNL     1     -34.956  39.415  39.108  1.00  0.00    -0.504 OA
ATOM     20  H   UNL     1     -34.166  39.502  38.478  1.00  0.00     0.293 HD
ENDBRANCH  16  19
ENDBRANCH   1  11
BRANCH  10  21
ATOM     21  O   UNL     1     -34.019  39.507  44.730  1.00  0.00    -0.500 OA
ATOM     22  H   UNL     1     -33.506  40.367  44.574  1.00  0.00     0.294 HD
ENDBRANCH  10  21
BRANCH   5  23
ATOM     23  O   UNL     1     -41.576  38.834  46.390  1.00  0.00    -0.507 OA
ATOM     24  H   UNL     1     -42.058  38.057  46.829  1.00  0.00     0.293 HD
ENDBRANCH   5  23
BRANCH   7  25
ATOM     25  O   UNL     1     -37.337  38.020  48.492  1.00  0.00    -0.507 OA
ATOM     26  H   UNL     1     -36.357  37.783  48.506  1.00  0.00     0.293 HD
ENDBRANCH   7  25
TORSDOF 6
ENDMDL
MODEL 7
REMARK VINA RESULT:    -7.682      4.530      9.960
REMARK INTER + INTRA:          -9.358
REMARK INTER:                  -9.054
REMARK INTRA:                  -0.304
REMARK UNBOUND:                -0.105
REMARK SMILES Oc1cc(O)c2cc(O)c(-c3ccc(O)c(O)c3)[o+]c2c1
REMARK SMILES IDX 10 1 19 2 20 3 21 4 2 5 3 6 4 7 6 8 7 9 8 10 11 11 12 12
REMARK SMILES IDX 13 13 14 14 18 15 16 16 15 17 17 19 9 21 1 23 5 25
REMARK H PARENT 15 18 17 20 9 22 1 24 5 26
REMARK Flexibility Score: inf
ROOT
ATOM      1  C   UNL     1     -37.586  39.220  44.920  1.00  0.00     0.402 A 
ATOM      2  O   UNL     1     -37.404  40.492  44.577  1.00  0.00    -0.202 OA
ATOM      3  C   UNL     1     -36.594  40.875  43.595  1.00  0.00     0.368 A 
ATOM      4  C   UNL     1     -36.471  42.236  43.306  1.00  0.00     0.162 A 
ATOM      5  C   UNL     1     -35.629  42.665  42.276  1.00  0.00     0.128 A 
ATOM      6  C   UNL     1     -34.909  41.728  41.530  1.00  0.00     0.093 A 
ATOM      7  C   UNL     1     -35.016  40.358  41.800  1.00  0.00     0.136 A 
ATOM      8  C   UNL     1     -35.867  39.917  42.846  1.00  0.00     0.125 A 
ATOM      9  C   UNL     1     -36.026  38.567  43.195  1.00  0.00     0.078 A 
ATOM     10  C   UNL     1     -36.880  38.209  44.243  1.00  0.00     0.223 A 
ENDROOT
BRANCH   1  11
ATOM     11  C   UNL     1     -38.523  38.921  46.028  1.00  0.00     0.087 A 
ATOM     12  C   UNL     1     -39.905  38.893  45.774  1.00  0.00     0.022 A 
ATOM     13  C   UNL     1     -40.806  38.594  46.798  1.00  0.00     0.051 A 
ATOM     14  C   UNL     1     -40.340  38.303  48.087  1.00  0.00     0.157 A 
ATOM     15  C   UNL     1     -38.058  38.607  47.317  1.00  0.00     0.068 A 
ATOM     16  C   UNL     1     -38.963  38.305  48.346  1.00  0.00     0.158 A 
BRANCH  14  17
ATOM     17  O   UNL     1     -41.235  38.005  49.112  1.00  0.00    -0.504 OA
ATOM     18  H   UNL     1     -41.087  38.338  50.058  1.00  0.00     0.293 HD
ENDBRANCH  14  17
BRANCH  16  19
ATOM     19  O   UNL     1     -38.501  38.000  49.625  1.00  0.00    -0.504 OA
ATOM     20  H   UNL     1     -37.611  38.346  49.964  1.00  0.00     0.293 HD
ENDBRANCH  16  19
ENDBRANCH   1  11
BRANCH  10  21
ATOM     21  O   UNL     1     -37.000  36.872  44.622  1.00  0.00    -0.500 OA
ATOM     22  H   UNL     1     -36.719  36.553  45.542  1.00  0.00     0.294 HD
ENDBRANCH  10  21
BRANCH   5  23
ATOM     23  O   UNL     1     -35.500  44.021  41.983  1.00  0.00    -0.507 OA
ATOM     24  H   UNL     1     -35.671  44.733  42.684  1.00  0.00     0.293 HD
ENDBRANCH   5  23
BRANCH   7  25
ATOM     25  O   UNL     1     -34.265  39.486  41.006  1.00  0.00    -0.507 OA
ATOM     26  H   UNL     1     -34.505  39.224  40.062  1.00  0.00     0.293 HD
ENDBRANCH   7  25
TORSDOF 6
ENDMDL
MODEL 8
REMARK VINA RESULT:    -7.647      2.673      4.516
REMARK INTER + INTRA:          -9.316
REMARK INTER:                  -9.126
REMARK INTRA:                  -0.190
REMARK UNBOUND:                -0.105
REMARK SMILES Oc1cc(O)c2cc(O)c(-c3ccc(O)c(O)c3)[o+]c2c1
REMARK SMILES IDX 10 1 19 2 20 3 21 4 2 5 3 6 4 7 6 8 7 9 8 10 11 11 12 12
REMARK SMILES IDX 13 13 14 14 18 15 16 16 15 17 17 19 9 21 1 23 5 25
REMARK H PARENT 15 18 17 20 9 22 1 24 5 26
REMARK Flexibility Score: inf
ROOT
ATOM      1  C   UNL     1     -35.320  41.369  43.128  1.00  0.00     0.402 A 
ATOM      2  O   UNL     1     -35.503  40.053  43.067  1.00  0.00    -0.202 OA
ATOM      3  C   UNL     1     -36.093  39.353  44.031  1.00  0.00     0.368 A 
ATOM      4  C   UNL     1     -36.243  37.973  43.874  1.00  0.00     0.162 A 
ATOM      5  C   UNL     1     -36.862  37.213  44.871  1.00  0.00     0.128 A 
ATOM      6  C   UNL     1     -37.335  37.837  46.029  1.00  0.00     0.093 A 
ATOM      7  C   UNL     1     -37.198  39.219  46.208  1.00  0.00     0.136 A 
ATOM      8  C   UNL     1     -36.567  39.994  45.201  1.00  0.00     0.125 A 
ATOM      9  C   UNL     1     -36.374  41.381  45.302  1.00  0.00     0.078 A 
ATOM     10  C   UNL     1     -35.740  42.078  44.270  1.00  0.00     0.223 A 
ENDROOT
BRANCH   1  11
ATOM     11  C   UNL     1     -34.658  42.038  41.984  1.00  0.00     0.087 A 
ATOM     12  C   UNL     1     -35.364  43.003  41.246  1.00  0.00     0.022 A 
ATOM     13  C   UNL     1     -34.753  43.661  40.176  1.00  0.00     0.051 A 
ATOM     14  C   UNL     1     -33.424  43.375  39.837  1.00  0.00     0.157 A 
ATOM     15  C   UNL     1     -33.318  41.770  41.654  1.00  0.00     0.068 A 
ATOM     16  C   UNL     1     -32.703  42.431  40.580  1.00  0.00     0.158 A 
BRANCH  14  17
ATOM     17  O   UNL     1     -32.811  44.027  38.769  1.00  0.00    -0.504 OA
ATOM     18  H   UNL     1     -33.312  44.702  38.203  1.00  0.00     0.293 HD
ENDBRANCH  14  17
BRANCH  16  19
ATOM     19  O   UNL     1     -31.377  42.160  40.251  1.00  0.00    -0.504 OA
ATOM     20  H   UNL     1     -30.976  41.239  40.382  1.00  0.00     0.293 HD
ENDBRANCH  16  19
ENDBRANCH   1  11
BRANCH  10  21
ATOM     21  O   UNL     1     -35.503  43.447  44.391  1.00  0.00    -0.500 OA
ATOM     22  H   UNL     1     -36.080  44.132  43.917  1.00  0.00     0.294 HD
ENDBRANCH  10  21
BRANCH   5  23
ATOM     23  O   UNL     1     -37.015  35.836  44.723  1.00  0.00    -0.507 OA
ATOM     24  H   UNL     1     -37.337  35.430  43.852  1.00  0.00     0.293 HD
ENDBRANCH   5  23
BRANCH   7  25
ATOM     25  O   UNL     1     -37.700  39.767  47.393  1.00  0.00    -0.507 OA
ATOM     26  H   UNL     1     -37.213  40.445  47.959  1.00  0.00     0.293 HD
ENDBRANCH   7  25
TORSDOF 6
ENDMDL
MODEL 9
REMARK VINA RESULT:    -7.635      3.380      5.810
REMARK INTER + INTRA:          -9.302
REMARK INTER:                  -8.952
REMARK INTRA:                  -0.350
REMARK UNBOUND:                -0.105
REMARK SMILES Oc1cc(O)c2cc(O)c(-c3ccc(O)c(O)c3)[o+]c2c1
REMARK SMILES IDX 10 1 19 2 20 3 21 4 2 5 3 6 4 7 6 8 7 9 8 10 11 11 12 12
REMARK SMILES IDX 13 13 14 14 18 15 16 16 15 17 17 19 9 21 1 23 5 25
REMARK H PARENT 15 18 17 20 9 22 1 24 5 26
REMARK Flexibility Score: inf
ROOT
ATOM      1  C   UNL     1     -35.556  40.471  43.921  1.00  0.00     0.402 A 
ATOM      2  O   UNL     1     -35.668  39.146  43.899  1.00  0.00    -0.202 OA
ATOM      3  C   UNL     1     -36.323  38.453  44.826  1.00  0.00     0.368 A 
ATOM      4  C   UNL     1     -36.388  37.062  44.716  1.00  0.00     0.162 A 
ATOM      5  C   UNL     1     -37.073  36.310  45.674  1.00  0.00     0.128 A 
ATOM      6  C   UNL     1     -37.696  36.952  46.748  1.00  0.00     0.093 A 
ATOM      7  C   UNL     1     -37.645  38.346  46.880  1.00  0.00     0.136 A 
ATOM      8  C   UNL     1     -36.949  39.114  45.911  1.00  0.00     0.125 A 
ATOM      9  C   UNL     1     -36.835  40.512  45.970  1.00  0.00     0.078 A 
ATOM     10  C   UNL     1     -36.128  41.200  44.980  1.00  0.00     0.223 A 
ENDROOT
BRANCH   1  11
ATOM     11  C   UNL     1     -34.808  41.128  42.824  1.00  0.00     0.087 A 
ATOM     12  C   UNL     1     -33.405  41.167  42.872  1.00  0.00     0.022 A 
ATOM     13  C   UNL     1     -32.679  41.764  41.839  1.00  0.00     0.051 A 
ATOM     14  C   UNL     1     -33.343  42.318  40.737  1.00  0.00     0.157 A 
ATOM     15  C   UNL     1     -35.470  41.666  41.706  1.00  0.00     0.068 A 
ATOM     16  C   UNL     1     -34.741  42.265  40.667  1.00  0.00     0.158 A 
BRANCH  14  17
ATOM     17  O   UNL     1     -32.622  42.916  39.704  1.00  0.00    -0.504 OA
ATOM     18  H   UNL     1     -32.145  42.363  39.002  1.00  0.00     0.293 HD
ENDBRANCH  14  17
BRANCH  16  19
ATOM     19  O   UNL     1     -35.398  42.802  39.562  1.00  0.00    -0.504 OA
ATOM     20  H   UNL     1     -35.365  43.794  39.356  1.00  0.00     0.293 HD
ENDBRANCH  16  19
ENDBRANCH   1  11
BRANCH  10  21
ATOM     21  O   UNL     1     -35.971  42.583  45.065  1.00  0.00    -0.500 OA
ATOM     22  H   UNL     1     -35.461  43.016  45.827  1.00  0.00     0.294 HD
ENDBRANCH  10  21
BRANCH   5  23
ATOM     23  O   UNL     1     -37.143  34.923  45.572  1.00  0.00    -0.507 OA
ATOM     24  H   UNL     1     -38.029  34.431  45.621  1.00  0.00     0.293 HD
ENDBRANCH   5  23
BRANCH   7  25
ATOM     25  O   UNL     1     -38.297  38.912  47.980  1.00  0.00    -0.507 OA
ATOM     26  H   UNL     1     -38.144  38.634  48.938  1.00  0.00     0.293 HD
ENDBRANCH   7  25
TORSDOF 6
ENDMDL
