MODEL 1
REMARK VINA RESULT:    -4.657      0.000      0.000
REMARK INTER + INTRA:         -11.294
REMARK INTER:                  -8.741
REMARK INTRA:                  -2.553
REMARK UNBOUND:                -2.553
REMARK SMILES CCCCCCCCC=CCCCCCCCC(=O)[O-]
REMARK SMILES IDX 10 1 9 2 11 3 12 4 13 5 14 6 15 7 16 8 17 9 18 10 19 11
REMARK SMILES IDX 20 12 8 13 7 14 6 15 5 16 4 17 3 18 2 19 1 20
REMARK H PARENT
REMARK Flexibility Score: inf
ROOT
ATOM      1  C   UNL     1      -4.786  -5.973   8.275  1.00  0.00    -0.031 C 
ATOM      2  C   UNL     1      -4.454  -4.683   8.129  1.00  0.00    -0.031 C 
ENDROOT
BRANCH   1   3
ATOM      3  C   UNL     1      -4.507  -6.964   7.180  1.00  0.00     0.027 C 
BRANCH   3   4
ATOM      4  C   UNL     1      -4.432  -6.275   5.813  1.00  0.00     0.004 C 
BRANCH   4   5
ATOM      5  C   UNL     1      -5.196  -7.073   4.750  1.00  0.00     0.000 C 
BRANCH   5   6
ATOM      6  C   UNL     1      -5.644  -8.435   5.302  1.00  0.00     0.000 C 
BRANCH   6   7
ATOM      7  C   UNL     1      -5.043  -9.617   4.526  1.00  0.00     0.000 C 
BRANCH   7   8
ATOM      8  C   UNL     1      -4.043  -9.170   3.446  1.00  0.00     0.006 C 
BRANCH   8   9
ATOM      9  C   UNL     1      -2.701  -9.908   3.558  1.00  0.00     0.053 C 
BRANCH   9  10
ATOM     10  C   UNL     1      -1.603  -8.998   4.018  1.00  0.00     0.041 C 
ATOM     11  O   UNL     1      -0.531  -8.917   3.363  1.00  0.00    -0.550 OA
ATOM     12  O   UNL     1      -1.777  -8.218   5.154  1.00  0.00    -0.550 OA
ENDBRANCH   9  10
ENDBRANCH   8   9
ENDBRANCH   7   8
ENDBRANCH   6   7
ENDBRANCH   5   6
ENDBRANCH   4   5
ENDBRANCH   3   4
ENDBRANCH   1   3
BRANCH   2  13
ATOM     13  C   UNL     1      -4.727  -3.669   9.209  1.00  0.00     0.027 C 
BRANCH  13  14
ATOM     14  C   UNL     1      -5.966  -2.805   8.910  1.00  0.00     0.004 C 
BRANCH  14  15
ATOM     15  C   UNL     1      -6.052  -2.305   7.456  1.00  0.00     0.000 C 
BRANCH  15  16
ATOM     16  C   UNL     1      -7.360  -2.723   6.762  1.00  0.00     0.000 C 
BRANCH  16  17
ATOM     17  C   UNL     1      -7.136  -3.795   5.683  1.00  0.00    -0.000 C 
BRANCH  17  18
ATOM     18  C   UNL     1      -8.017  -5.039   5.896  1.00  0.00    -0.000 C 
BRANCH  18  19
ATOM     19  C   UNL     1      -8.266  -5.336   7.382  1.00  0.00    -0.003 C 
ATOM     20  C   UNL     1      -9.752  -5.359   7.739  1.00  0.00     0.004 C 
ENDBRANCH  18  19
ENDBRANCH  17  18
ENDBRANCH  16  17
ENDBRANCH  15  16
ENDBRANCH  14  15
ENDBRANCH  13  14
ENDBRANCH   2  13
TORSDOF 15
ENDMDL
MODEL 2
REMARK VINA RESULT:    -4.462      3.711      7.022
REMARK INTER + INTRA:         -10.927
REMARK INTER:                  -8.671
REMARK INTRA:                  -2.256
REMARK UNBOUND:                -2.553
REMARK SMILES CCCCCCCCC=CCCCCCCCC(=O)[O-]
REMARK SMILES IDX 10 1 9 2 11 3 12 4 13 5 14 6 15 7 16 8 17 9 18 10 19 11
REMARK SMILES IDX 20 12 8 13 7 14 6 15 5 16 4 17 3 18 2 19 1 20
REMARK H PARENT
REMARK Flexibility Score: inf
ROOT
ATOM      1  C   UNL     1      -4.487  -6.733   7.766  1.00  0.00    -0.031 C 
ATOM      2  C   UNL     1      -3.702  -6.349   6.750  1.00  0.00    -0.031 C 
ENDROOT
BRANCH   1   3
ATOM      3  C   UNL     1      -5.092  -5.716   8.693  1.00  0.00     0.027 C 
BRANCH   3   4
ATOM      4  C   UNL     1      -4.520  -4.318   8.434  1.00  0.00     0.004 C 
BRANCH   4   5
ATOM      5  C   UNL     1      -5.142  -3.284   9.379  1.00  0.00     0.000 C 
BRANCH   5   6
ATOM      6  C   UNL     1      -6.631  -3.076   9.062  1.00  0.00     0.000 C 
BRANCH   6   7
ATOM      7  C   UNL     1      -6.915  -1.714   8.409  1.00  0.00     0.000 C 
BRANCH   7   8
ATOM      8  C   UNL     1      -6.661  -1.721   6.892  1.00  0.00     0.006 C 
BRANCH   8   9
ATOM      9  C   UNL     1      -7.964  -1.605   6.087  1.00  0.00     0.053 C 
BRANCH   9  10
ATOM     10  C   UNL     1      -8.055  -0.298   5.362  1.00  0.00     0.041 C 
ATOM     11  O   UNL     1      -7.469  -0.143   4.258  1.00  0.00    -0.550 OA
ATOM     12  O   UNL     1      -8.810   0.740   5.892  1.00  0.00    -0.550 OA
ENDBRANCH   9  10
ENDBRANCH   8   9
ENDBRANCH   7   8
ENDBRANCH   6   7
ENDBRANCH   5   6
ENDBRANCH   4   5
ENDBRANCH   3   4
ENDBRANCH   1   3
BRANCH   2  13
ATOM     13  C   UNL     1      -3.079  -7.348   5.810  1.00  0.00     0.027 C 
BRANCH  13  14
ATOM     14  C   UNL     1      -3.300  -8.803   6.260  1.00  0.00     0.004 C 
BRANCH  14  15
ATOM     15  C   UNL     1      -4.135  -9.647   5.280  1.00  0.00     0.000 C 
BRANCH  15  16
ATOM     16  C   UNL     1      -4.937  -8.785   4.289  1.00  0.00     0.000 C 
BRANCH  16  17
ATOM     17  C   UNL     1      -6.450  -8.847   4.548  1.00  0.00    -0.000 C 
BRANCH  17  18
ATOM     18  C   UNL     1      -6.992  -7.558   5.192  1.00  0.00    -0.000 C 
BRANCH  18  19
ATOM     19  C   UNL     1      -6.533  -6.293   4.452  1.00  0.00    -0.003 C 
ATOM     20  C   UNL     1      -6.745  -5.020   5.271  1.00  0.00     0.004 C 
ENDBRANCH  18  19
ENDBRANCH  17  18
ENDBRANCH  16  17
ENDBRANCH  15  16
ENDBRANCH  14  15
ENDBRANCH  13  14
ENDBRANCH   2  13
TORSDOF 15
ENDMDL
MODEL 3
REMARK VINA RESULT:    -4.245      1.422      3.310
REMARK INTER + INTRA:         -10.521
REMARK INTER:                  -8.579
REMARK INTRA:                  -1.941
REMARK UNBOUND:                -2.553
REMARK SMILES CCCCCCCCC=CCCCCCCCC(=O)[O-]
REMARK SMILES IDX 10 1 9 2 11 3 12 4 13 5 14 6 15 7 16 8 17 9 18 10 19 11
REMARK SMILES IDX 20 12 8 13 7 14 6 15 5 16 4 17 3 18 2 19 1 20
REMARK H PARENT
REMARK Flexibility Score: inf
ROOT
ATOM      1  C   UNL     1      -7.847  -3.658   4.747  1.00  0.00    -0.031 C 
ATOM      2  C   UNL     1      -7.253  -3.633   5.947  1.00  0.00    -0.031 C 
ENDROOT
BRANCH   1   3
ATOM      3  C   UNL     1      -8.229  -4.965   4.108  1.00  0.00     0.027 C 
BRANCH   3   4
ATOM      4  C   UNL     1      -7.198  -6.056   4.416  1.00  0.00     0.004 C 
BRANCH   4   5
ATOM      5  C   UNL     1      -7.852  -7.442   4.439  1.00  0.00     0.000 C 
BRANCH   5   6
ATOM      6  C   UNL     1      -6.794  -8.547   4.583  1.00  0.00     0.000 C 
BRANCH   6   7
ATOM      7  C   UNL     1      -5.362  -7.993   4.648  1.00  0.00     0.000 C 
BRANCH   7   8
ATOM      8  C   UNL     1      -4.430  -8.861   5.510  1.00  0.00     0.006 C 
BRANCH   8   9
ATOM      9  C   UNL     1      -3.301  -9.494   4.685  1.00  0.00     0.053 C 
BRANCH   9  10
ATOM     10  C   UNL     1      -2.049  -8.671   4.732  1.00  0.00     0.041 C 
ATOM     11  O   UNL     1      -1.846  -7.880   5.690  1.00  0.00    -0.550 OA
ATOM     12  O   UNL     1      -1.095  -8.799   3.731  1.00  0.00    -0.550 OA
ENDBRANCH   9  10
ENDBRANCH   8   9
ENDBRANCH   7   8
ENDBRANCH   6   7
ENDBRANCH   5   6
ENDBRANCH   4   5
ENDBRANCH   3   4
ENDBRANCH   1   3
BRANCH   2  13
ATOM     13  C   UNL     1      -6.855  -2.339   6.607  1.00  0.00     0.027 C 
BRANCH  13  14
ATOM     14  C   UNL     1      -7.679  -2.041   7.872  1.00  0.00     0.004 C 
BRANCH  14  15
ATOM     15  C   UNL     1      -6.912  -2.249   9.190  1.00  0.00     0.000 C 
BRANCH  15  16
ATOM     16  C   UNL     1      -7.180  -3.626   9.821  1.00  0.00     0.000 C 
BRANCH  16  17
ATOM     17  C   UNL     1      -5.907  -4.481   9.929  1.00  0.00    -0.000 C 
BRANCH  17  18
ATOM     18  C   UNL     1      -4.752  -3.929   9.073  1.00  0.00    -0.000 C 
BRANCH  18  19
ATOM     19  C   UNL     1      -4.272  -4.934   8.016  1.00  0.00    -0.003 C 
ATOM     20  C   UNL     1      -5.224  -6.119   7.852  1.00  0.00     0.004 C 
ENDBRANCH  18  19
ENDBRANCH  17  18
ENDBRANCH  16  17
ENDBRANCH  15  16
ENDBRANCH  14  15
ENDBRANCH  13  14
ENDBRANCH   2  13
TORSDOF 15
ENDMDL
MODEL 4
REMARK VINA RESULT:    -4.229      3.831      6.532
REMARK INTER + INTRA:         -10.491
REMARK INTER:                  -7.792
REMARK INTRA:                  -2.699
REMARK UNBOUND:                -2.553
REMARK SMILES CCCCCCCCC=CCCCCCCCC(=O)[O-]
REMARK SMILES IDX 10 1 9 2 11 3 12 4 13 5 14 6 15 7 16 8 17 9 18 10 19 11
REMARK SMILES IDX 20 12 8 13 7 14 6 15 5 16 4 17 3 18 2 19 1 20
REMARK H PARENT
REMARK Flexibility Score: inf
ROOT
ATOM      1  C   UNL     1      -6.100  -5.901   4.785  1.00  0.00    -0.031 C 
ATOM      2  C   UNL     1      -5.330  -6.965   5.047  1.00  0.00    -0.031 C 
ENDROOT
BRANCH   1   3
ATOM      3  C   UNL     1      -7.439  -6.069   4.121  1.00  0.00     0.027 C 
BRANCH   3   4
ATOM      4  C   UNL     1      -8.402  -6.864   5.009  1.00  0.00     0.004 C 
BRANCH   4   5
ATOM      5  C   UNL     1      -9.455  -5.945   5.641  1.00  0.00     0.000 C 
BRANCH   5   6
ATOM      6  C   UNL     1      -9.510  -4.592   4.916  1.00  0.00     0.000 C 
BRANCH   6   7
ATOM      7  C   UNL     1      -9.348  -3.400   5.871  1.00  0.00     0.000 C 
BRANCH   7   8
ATOM      8  C   UNL     1      -8.051  -2.612   5.621  1.00  0.00     0.006 C 
BRANCH   8   9
ATOM      9  C   UNL     1      -8.052  -1.253   6.335  1.00  0.00     0.053 C 
BRANCH   9  10
ATOM     10  C   UNL     1      -7.988  -0.115   5.363  1.00  0.00     0.041 C 
ATOM     11  O   UNL     1      -7.557  -0.302   4.195  1.00  0.00    -0.550 OA
ATOM     12  O   UNL     1      -8.430   1.147   5.740  1.00  0.00    -0.550 OA
ENDBRANCH   9  10
ENDBRANCH   8   9
ENDBRANCH   7   8
ENDBRANCH   6   7
ENDBRANCH   5   6
ENDBRANCH   4   5
ENDBRANCH   3   4
ENDBRANCH   1   3
BRANCH   2  13
ATOM     13  C   UNL     1      -3.982  -6.824   5.705  1.00  0.00     0.027 C 
BRANCH  13  14
ATOM     14  C   UNL     1      -3.971  -7.353   7.151  1.00  0.00     0.004 C 
BRANCH  14  15
ATOM     15  C   UNL     1      -4.476  -6.343   8.197  1.00  0.00     0.000 C 
BRANCH  15  16
ATOM     16  C   UNL     1      -4.162  -4.886   7.814  1.00  0.00     0.000 C 
BRANCH  16  17
ATOM     17  C   UNL     1      -5.416  -3.998   7.800  1.00  0.00    -0.000 C 
BRANCH  17  18
ATOM     18  C   UNL     1      -6.676  -4.750   8.265  1.00  0.00    -0.000 C 
BRANCH  18  19
ATOM     19  C   UNL     1      -7.584  -3.886   9.152  1.00  0.00    -0.003 C 
ATOM     20  C   UNL     1      -6.851  -2.687   9.755  1.00  0.00     0.004 C 
ENDBRANCH  18  19
ENDBRANCH  17  18
ENDBRANCH  16  17
ENDBRANCH  15  16
ENDBRANCH  14  15
ENDBRANCH  13  14
ENDBRANCH   2  13
TORSDOF 15
ENDMDL
MODEL 5
REMARK VINA RESULT:    -4.203      1.930      3.268
REMARK INTER + INTRA:         -10.442
REMARK INTER:                  -7.411
REMARK INTRA:                  -3.031
REMARK UNBOUND:                -2.553
REMARK SMILES CCCCCCCCC=CCCCCCCCC(=O)[O-]
REMARK SMILES IDX 10 1 9 2 11 3 12 4 13 5 14 6 15 7 16 8 17 9 18 10 19 11
REMARK SMILES IDX 20 12 8 13 7 14 6 15 5 16 4 17 3 18 2 19 1 20
REMARK H PARENT
REMARK Flexibility Score: inf
ROOT
ATOM      1  C   UNL     1      -6.153  -4.622   6.286  1.00  0.00    -0.031 C 
ATOM      2  C   UNL     1      -6.424  -5.385   7.354  1.00  0.00    -0.031 C 
ENDROOT
BRANCH   1   3
ATOM      3  C   UNL     1      -7.173  -4.439   5.196  1.00  0.00     0.027 C 
BRANCH   3   4
ATOM      4  C   UNL     1      -8.277  -5.499   5.285  1.00  0.00     0.004 C 
BRANCH   4   5
ATOM      5  C   UNL     1      -8.308  -6.370   4.024  1.00  0.00     0.000 C 
BRANCH   5   6
ATOM      6  C   UNL     1      -8.234  -7.861   4.384  1.00  0.00     0.000 C 
BRANCH   6   7
ATOM      7  C   UNL     1      -7.248  -8.148   5.528  1.00  0.00     0.000 C 
BRANCH   7   8
ATOM      8  C   UNL     1      -5.930  -8.765   5.032  1.00  0.00     0.006 C 
BRANCH   8   9
ATOM      9  C   UNL     1      -4.910  -7.696   4.617  1.00  0.00     0.053 C 
BRANCH   9  10
ATOM     10  C   UNL     1      -3.869  -7.479   5.673  1.00  0.00     0.041 C 
ATOM     11  O   UNL     1      -3.143  -6.450   5.646  1.00  0.00    -0.550 OA
ATOM     12  O   UNL     1      -3.721  -8.400   6.702  1.00  0.00    -0.550 OA
ENDBRANCH   9  10
ENDBRANCH   8   9
ENDBRANCH   7   8
ENDBRANCH   6   7
ENDBRANCH   5   6
ENDBRANCH   4   5
ENDBRANCH   3   4
ENDBRANCH   1   3
BRANCH   2  13
ATOM     13  C   UNL     1      -5.419  -5.589   8.457  1.00  0.00     0.027 C 
BRANCH  13  14
ATOM     14  C   UNL     1      -4.334  -4.498   8.478  1.00  0.00     0.004 C 
BRANCH  14  15
ATOM     15  C   UNL     1      -4.680  -3.280   9.354  1.00  0.00     0.000 C 
BRANCH  15  16
ATOM     16  C   UNL     1      -5.829  -3.564  10.338  1.00  0.00     0.000 C 
BRANCH  16  17
ATOM     17  C   UNL     1      -7.072  -2.707  10.052  1.00  0.00    -0.000 C 
BRANCH  17  18
ATOM     18  C   UNL     1      -6.944  -1.898   8.749  1.00  0.00    -0.000 C 
BRANCH  18  19
ATOM     19  C   UNL     1      -8.217  -1.959   7.892  1.00  0.00    -0.003 C 
ATOM     20  C   UNL     1      -9.159  -3.087   8.313  1.00  0.00     0.004 C 
ENDBRANCH  18  19
ENDBRANCH  17  18
ENDBRANCH  16  17
ENDBRANCH  15  16
ENDBRANCH  14  15
ENDBRANCH  13  14
ENDBRANCH   2  13
TORSDOF 15
ENDMDL
MODEL 6
REMARK VINA RESULT:    -4.162      2.503      4.241
REMARK INTER + INTRA:         -10.365
REMARK INTER:                  -8.071
REMARK INTRA:                  -2.295
REMARK UNBOUND:                -2.553
REMARK SMILES CCCCCCCCC=CCCCCCCCC(=O)[O-]
REMARK SMILES IDX 10 1 9 2 11 3 12 4 13 5 14 6 15 7 16 8 17 9 18 10 19 11
REMARK SMILES IDX 20 12 8 13 7 14 6 15 5 16 4 17 3 18 2 19 1 20
REMARK H PARENT
REMARK Flexibility Score: inf
ROOT
ATOM      1  C   UNL     1      -4.135  -7.030   7.423  1.00  0.00    -0.031 C 
ATOM      2  C   UNL     1      -4.404  -5.825   7.943  1.00  0.00    -0.031 C 
ENDROOT
BRANCH   1   3
ATOM      3  C   UNL     1      -3.348  -7.156   6.148  1.00  0.00     0.027 C 
BRANCH   3   4
ATOM      4  C   UNL     1      -3.859  -8.320   5.292  1.00  0.00     0.004 C 
BRANCH   4   5
ATOM      5  C   UNL     1      -4.946  -7.851   4.317  1.00  0.00     0.000 C 
BRANCH   5   6
ATOM      6  C   UNL     1      -6.322  -8.403   4.722  1.00  0.00     0.000 C 
BRANCH   6   7
ATOM      7  C   UNL     1      -7.395  -7.307   4.819  1.00  0.00     0.000 C 
BRANCH   7   8
ATOM      8  C   UNL     1      -7.431  -6.634   6.201  1.00  0.00     0.006 C 
BRANCH   8   9
ATOM      9  C   UNL     1      -7.897  -5.173   6.121  1.00  0.00     0.053 C 
BRANCH   9  10
ATOM     10  C   UNL     1      -7.030  -4.362   5.208  1.00  0.00     0.041 C 
ATOM     11  O   UNL     1      -7.550  -3.621   4.332  1.00  0.00    -0.550 OA
ATOM     12  O   UNL     1      -5.649  -4.403   5.343  1.00  0.00    -0.550 OA
ENDBRANCH   9  10
ENDBRANCH   8   9
ENDBRANCH   7   8
ENDBRANCH   6   7
ENDBRANCH   5   6
ENDBRANCH   4   5
ENDBRANCH   3   4
ENDBRANCH   1   3
BRANCH   2  13
ATOM     13  C   UNL     1      -5.196  -5.671   9.216  1.00  0.00     0.027 C 
BRANCH  13  14
ATOM     14  C   UNL     1      -5.992  -4.355   9.262  1.00  0.00     0.004 C 
BRANCH  14  15
ATOM     15  C   UNL     1      -5.201  -3.121   8.790  1.00  0.00     0.000 C 
BRANCH  15  16
ATOM     16  C   UNL     1      -6.065  -2.135   7.984  1.00  0.00     0.000 C 
BRANCH  16  17
ATOM     17  C   UNL     1      -7.560  -2.255   8.320  1.00  0.00    -0.000 C 
BRANCH  17  18
ATOM     18  C   UNL     1      -8.366  -1.021   7.874  1.00  0.00    -0.000 C 
BRANCH  18  19
ATOM     19  C   UNL     1      -8.937  -1.173   6.456  1.00  0.00    -0.003 C 
ATOM     20  C   UNL     1      -8.155  -0.371   5.416  1.00  0.00     0.004 C 
ENDBRANCH  18  19
ENDBRANCH  17  18
ENDBRANCH  16  17
ENDBRANCH  15  16
ENDBRANCH  14  15
ENDBRANCH  13  14
ENDBRANCH   2  13
TORSDOF 15
ENDMDL
MODEL 7
REMARK VINA RESULT:    -3.988      3.928      7.711
REMARK INTER + INTRA:         -10.039
REMARK INTER:                  -7.482
REMARK INTRA:                  -2.557
REMARK UNBOUND:                -2.553
REMARK SMILES CCCCCCCCC=CCCCCCCCC(=O)[O-]
REMARK SMILES IDX 10 1 9 2 11 3 12 4 13 5 14 6 15 7 16 8 17 9 18 10 19 11
REMARK SMILES IDX 20 12 8 13 7 14 6 15 5 16 4 17 3 18 2 19 1 20
REMARK H PARENT
REMARK Flexibility Score: inf
ROOT
ATOM      1  C   UNL     1      -6.413  -3.030   6.451  1.00  0.00    -0.031 C 
ATOM      2  C   UNL     1      -7.568  -3.709   6.431  1.00  0.00    -0.031 C 
ENDROOT
BRANCH   1   3
ATOM      3  C   UNL     1      -5.966  -2.315   7.696  1.00  0.00     0.027 C 
BRANCH   3   4
ATOM      4  C   UNL     1      -6.602  -2.930   8.947  1.00  0.00     0.004 C 
BRANCH   4   5
ATOM      5  C   UNL     1      -7.304  -1.860   9.791  1.00  0.00     0.000 C 
BRANCH   5   6
ATOM      6  C   UNL     1      -8.614  -1.408   9.128  1.00  0.00     0.000 C 
BRANCH   6   7
ATOM      7  C   UNL     1      -8.554   0.041   8.621  1.00  0.00     0.000 C 
BRANCH   7   8
ATOM      8  C   UNL     1      -9.539   0.308   7.471  1.00  0.00     0.006 C 
BRANCH   8   9
ATOM      9  C   UNL     1      -9.172  -0.475   6.202  1.00  0.00     0.053 C 
BRANCH   9  10
ATOM     10  C   UNL     1      -8.234   0.296   5.325  1.00  0.00     0.041 C 
ATOM     11  O   UNL     1      -7.557  -0.297   4.443  1.00  0.00    -0.550 OA
ATOM     12  O   UNL     1      -8.128   1.674   5.463  1.00  0.00    -0.550 OA
ENDBRANCH   9  10
ENDBRANCH   8   9
ENDBRANCH   7   8
ENDBRANCH   6   7
ENDBRANCH   5   6
ENDBRANCH   4   5
ENDBRANCH   3   4
ENDBRANCH   1   3
BRANCH   2  13
ATOM     13  C   UNL     1      -8.042  -4.428   5.195  1.00  0.00     0.027 C 
BRANCH  13  14
ATOM     14  C   UNL     1      -6.917  -5.217   4.501  1.00  0.00     0.004 C 
BRANCH  14  15
ATOM     15  C   UNL     1      -6.960  -6.735   4.757  1.00  0.00     0.000 C 
BRANCH  15  16
ATOM     16  C   UNL     1      -5.601  -7.416   4.513  1.00  0.00     0.000 C 
BRANCH  16  17
ATOM     17  C   UNL     1      -4.801  -7.611   5.810  1.00  0.00    -0.000 C 
BRANCH  17  18
ATOM     18  C   UNL     1      -3.815  -6.459   6.075  1.00  0.00    -0.000 C 
BRANCH  18  19
ATOM     19  C   UNL     1      -4.031  -5.804   7.447  1.00  0.00    -0.003 C 
ATOM     20  C   UNL     1      -5.348  -6.221   8.100  1.00  0.00     0.004 C 
ENDBRANCH  18  19
ENDBRANCH  17  18
ENDBRANCH  16  17
ENDBRANCH  15  16
ENDBRANCH  14  15
ENDBRANCH  13  14
ENDBRANCH   2  13
TORSDOF 15
ENDMDL
MODEL 8
REMARK VINA RESULT:    -3.960      3.153      6.553
REMARK INTER + INTRA:          -9.986
REMARK INTER:                  -7.501
REMARK INTRA:                  -2.485
REMARK UNBOUND:                -2.553
REMARK SMILES CCCCCCCCC=CCCCCCCCC(=O)[O-]
REMARK SMILES IDX 10 1 9 2 11 3 12 4 13 5 14 6 15 7 16 8 17 9 18 10 19 11
REMARK SMILES IDX 20 12 8 13 7 14 6 15 5 16 4 17 3 18 2 19 1 20
REMARK H PARENT
REMARK Flexibility Score: inf
ROOT
ATOM      1  C   UNL     1      -5.180  -5.179   8.247  1.00  0.00    -0.031 C 
ATOM      2  C   UNL     1      -4.345  -6.224   8.177  1.00  0.00    -0.031 C 
ENDROOT
BRANCH   1   3
ATOM      3  C   UNL     1      -5.765  -4.753   9.565  1.00  0.00     0.027 C 
BRANCH   3   4
ATOM      4  C   UNL     1      -7.168  -4.162   9.384  1.00  0.00     0.004 C 
BRANCH   4   5
ATOM      5  C   UNL     1      -7.869  -4.769   8.163  1.00  0.00     0.000 C 
BRANCH   5   6
ATOM      6  C   UNL     1      -9.249  -4.129   7.947  1.00  0.00     0.000 C 
BRANCH   6   7
ATOM      7  C   UNL     1      -9.370  -2.744   8.600  1.00  0.00     0.000 C 
BRANCH   7   8
ATOM      8  C   UNL     1      -9.368  -1.602   7.570  1.00  0.00     0.006 C 
BRANCH   8   9
ATOM      9  C   UNL     1      -8.029  -0.850   7.541  1.00  0.00     0.053 C 
BRANCH   9  10
ATOM     10  C   UNL     1      -7.150  -1.324   6.424  1.00  0.00     0.041 C 
ATOM     11  O   UNL     1      -7.461  -1.086   5.227  1.00  0.00    -0.550 OA
ATOM     12  O   UNL     1      -5.973  -2.005   6.707  1.00  0.00    -0.550 OA
ENDBRANCH   9  10
ENDBRANCH   8   9
ENDBRANCH   7   8
ENDBRANCH   6   7
ENDBRANCH   5   6
ENDBRANCH   4   5
ENDBRANCH   3   4
ENDBRANCH   1   3
BRANCH   2  13
ATOM     13  C   UNL     1      -3.749  -6.675   6.870  1.00  0.00     0.027 C 
BRANCH  13  14
ATOM     14  C   UNL     1      -4.114  -8.130   6.523  1.00  0.00     0.004 C 
BRANCH  14  15
ATOM     15  C   UNL     1      -4.746  -8.308   5.131  1.00  0.00     0.000 C 
BRANCH  15  16
ATOM     16  C   UNL     1      -6.255  -8.605   5.197  1.00  0.00     0.000 C 
BRANCH  16  17
ATOM     17  C   UNL     1      -7.111  -7.342   5.015  1.00  0.00    -0.000 C 
BRANCH  17  18
ATOM     18  C   UNL     1      -6.333  -6.194   4.347  1.00  0.00    -0.000 C 
BRANCH  18  19
ATOM     19  C   UNL     1      -6.778  -4.812   4.849  1.00  0.00    -0.003 C 
ATOM     20  C   UNL     1      -8.171  -4.425   4.354  1.00  0.00     0.004 C 
ENDBRANCH  18  19
ENDBRANCH  17  18
ENDBRANCH  16  17
ENDBRANCH  15  16
ENDBRANCH  14  15
ENDBRANCH  13  14
ENDBRANCH   2  13
TORSDOF 15
ENDMDL
MODEL 9
REMARK VINA RESULT:    -3.926      2.734      6.819
REMARK INTER + INTRA:          -9.922
REMARK INTER:                  -7.755
REMARK INTRA:                  -2.166
REMARK UNBOUND:                -2.553
REMARK SMILES CCCCCCCCC=CCCCCCCCC(=O)[O-]
REMARK SMILES IDX 10 1 9 2 11 3 12 4 13 5 14 6 15 7 16 8 17 9 18 10 19 11
REMARK SMILES IDX 20 12 8 13 7 14 6 15 5 16 4 17 3 18 2 19 1 20
REMARK H PARENT
REMARK Flexibility Score: inf
ROOT
ATOM      1  C   UNL     1      -8.213  -1.937   4.991  1.00  0.00    -0.031 C 
ATOM      2  C   UNL     1      -9.187  -2.761   5.400  1.00  0.00    -0.031 C 
ENDROOT
BRANCH   1   3
ATOM      3  C   UNL     1      -8.250  -0.475   5.341  1.00  0.00     0.027 C 
BRANCH   3   4
ATOM      4  C   UNL     1      -8.950  -0.243   6.685  1.00  0.00     0.004 C 
BRANCH   4   5
ATOM      5  C   UNL     1      -7.964   0.274   7.739  1.00  0.00     0.000 C 
BRANCH   5   6
ATOM      6  C   UNL     1      -7.965  -0.629   8.982  1.00  0.00     0.000 C 
BRANCH   6   7
ATOM      7  C   UNL     1      -7.625  -2.091   8.654  1.00  0.00     0.000 C 
BRANCH   7   8
ATOM      8  C   UNL     1      -6.161  -2.276   8.222  1.00  0.00     0.006 C 
BRANCH   8   9
ATOM      9  C   UNL     1      -5.973  -3.512   7.330  1.00  0.00     0.053 C 
BRANCH   9  10
ATOM     10  C   UNL     1      -5.161  -4.571   8.011  1.00  0.00     0.041 C 
ATOM     11  O   UNL     1      -5.725  -5.585   8.500  1.00  0.00    -0.550 OA
ATOM     12  O   UNL     1      -3.780  -4.451   8.081  1.00  0.00    -0.550 OA
ENDBRANCH   9  10
ENDBRANCH   8   9
ENDBRANCH   7   8
ENDBRANCH   6   7
ENDBRANCH   5   6
ENDBRANCH   4   5
ENDBRANCH   3   4
ENDBRANCH   1   3
BRANCH   2  13
ATOM     13  C   UNL     1      -9.178  -4.228   5.059  1.00  0.00     0.027 C 
BRANCH  13  14
ATOM     14  C   UNL     1      -8.031  -4.607   4.105  1.00  0.00     0.004 C 
BRANCH  14  15
ATOM     15  C   UNL     1      -7.323  -5.927   4.460  1.00  0.00     0.000 C 
BRANCH  15  16
ATOM     16  C   UNL     1      -5.792  -5.782   4.518  1.00  0.00     0.000 C 
BRANCH  16  17
ATOM     17  C   UNL     1      -5.096  -7.074   4.973  1.00  0.00    -0.000 C 
BRANCH  17  18
ATOM     18  C   UNL     1      -3.705  -6.814   5.578  1.00  0.00    -0.000 C 
BRANCH  18  19
ATOM     19  C   UNL     1      -3.342  -7.827   6.675  1.00  0.00    -0.003 C 
ATOM     20  C   UNL     1      -3.768  -9.253   6.325  1.00  0.00     0.004 C 
ENDBRANCH  18  19
ENDBRANCH  17  18
ENDBRANCH  16  17
ENDBRANCH  15  16
ENDBRANCH  14  15
ENDBRANCH  13  14
ENDBRANCH   2  13
TORSDOF 15
ENDMDL
