MODEL 1
REMARK VINA RESULT:    -6.801      0.000      0.000
REMARK INTER + INTRA:         -12.610
REMARK INTER:                 -11.174
REMARK INTRA:                  -1.436
REMARK UNBOUND:                -1.436
REMARK SMILES C[C@@H]1O[C@@H](OC[C@H]2O[C@@H](Oc3c(-c4ccc(O)c(O)c4)oc4cc(O)cc(O)c4c3=O)[C@@H](O)[C@@H](O)[C@@H]2O)[C@@H](O)[C@H](O)[C@@H]1O
REMARK SMILES IDX 7 1 36 2 34 3 32 4 9 5 8 6 6 7 5 8 4 9 1 10 2 11 42 12 3 13
REMARK SMILES IDX 40 14 38 15 43 16 41 18 39 20 37 22 35 24 10 26 11 27 12 28
REMARK SMILES IDX 30 29 21 30 29 31 31 32 22 33 27 34 23 35 26 36 24 37 13 38
REMARK SMILES IDX 20 39 14 40 18 41 15 42 16 43 19 44 17 46 28 48 25 50 33 52
REMARK H PARENT 43 17 41 19 39 21 37 23 35 25 19 45 17 47 28 49 25 51 33 53
REMARK Flexibility Score: inf
ROOT
ATOM      1  C   UNL     1     -38.112   8.118  77.167  1.00  0.00     0.180 C 
ATOM      2  C   UNL     1     -39.288   8.715  76.371  1.00  0.00     0.177 C 
ATOM      3  C   UNL     1     -40.477   8.949  77.311  1.00  0.00     0.180 C 
ATOM      4  C   UNL     1     -40.800   7.681  78.141  1.00  0.00     0.214 C 
ATOM      5  C   UNL     1     -39.560   6.828  78.570  1.00  0.00     0.339 C 
ATOM      6  O   UNL     1     -38.448   6.843  77.683  1.00  0.00    -0.332 OA
ENDROOT
BRANCH   1   7
ATOM      7  C   UNL     1     -37.507   9.058  78.248  1.00  0.00     0.198 C 
BRANCH   7   8
ATOM      8  O   UNL     1     -36.354   8.456  78.797  1.00  0.00    -0.347 OA
BRANCH   8   9
ATOM      9  C   UNL     1     -35.330   8.190  77.847  1.00  0.00     0.281 C 
ATOM     10  C   UNL     1     -34.987   4.569  78.479  1.00  0.00     0.041 C 
ATOM     11  C   UNL     1     -34.944   6.067  78.793  1.00  0.00     0.150 C 
ATOM     12  C   UNL     1     -33.572   6.476  79.380  1.00  0.00     0.174 C 
ATOM     13  O   UNL     1     -35.236   6.795  77.605  1.00  0.00    -0.344 OA
ATOM     14  C   UNL     1     -33.527   8.006  79.604  1.00  0.00     0.179 C 
ATOM     15  C   UNL     1     -33.986   8.754  78.343  1.00  0.00     0.202 C 
BRANCH  12  16
ATOM     16  O   UNL     1     -32.495   6.052  78.571  1.00  0.00    -0.388 OA
ATOM     17  H   UNL     1     -32.493   5.063  78.547  1.00  0.00     0.211 HD
ENDBRANCH  12  16
BRANCH  14  18
ATOM     18  O   UNL     1     -32.231   8.415  79.953  1.00  0.00    -0.387 OA
ATOM     19  H   UNL     1     -32.082   8.109  80.889  1.00  0.00     0.211 HD
ENDBRANCH  14  18
BRANCH  15  20
ATOM     20  O   UNL     1     -34.096  10.125  78.626  1.00  0.00    -0.385 OA
ATOM     21  H   UNL     1     -33.651  10.612  77.881  1.00  0.00     0.211 HD
ENDBRANCH  15  20
ENDBRANCH   8   9
ENDBRANCH   7   8
ENDBRANCH   1   7
BRANCH   2  22
ATOM     22  O   UNL     1     -39.635   7.880  75.285  1.00  0.00    -0.387 OA
ATOM     23  H   UNL     1     -38.911   7.217  75.165  1.00  0.00     0.211 HD
ENDBRANCH   2  22
BRANCH   3  24
ATOM     24  O   UNL     1     -40.170  10.037  78.147  1.00  0.00    -0.387 OA
ATOM     25  H   UNL     1     -40.876  10.087  78.847  1.00  0.00     0.211 HD
ENDBRANCH   3  24
BRANCH   5  26
ATOM     26  O   UNL     1     -39.152   7.113  79.913  1.00  0.00    -0.454 OA
BRANCH  26  27
ATOM     27  C   UNL     1     -38.196   6.338  80.595  1.00  0.00     0.214 A 
ATOM     28  C   UNL     1     -38.228   4.927  80.587  1.00  0.00     0.180 A 
ATOM     29  C   UNL     1     -37.189   6.980  81.325  1.00  0.00     0.239 A 
ATOM     30  O   UNL     1     -37.333   4.230  81.278  1.00  0.00    -0.452 OA
ATOM     31  C   UNL     1     -36.240   6.208  82.033  1.00  0.00     0.111 A 
ATOM     32  O   UNL     1     -37.159   8.240  81.354  1.00  0.00    -0.285 OA
ATOM     33  C   UNL     1     -36.364   4.798  81.983  1.00  0.00     0.146 A 
ATOM     34  C   UNL     1     -35.179   6.780  82.774  1.00  0.00     0.134 A 
ATOM     35  C   UNL     1     -35.461   3.985  82.670  1.00  0.00     0.094 A 
ATOM     36  C   UNL     1     -34.280   5.945  83.457  1.00  0.00     0.093 A 
ATOM     37  C   UNL     1     -34.420   4.553  83.408  1.00  0.00     0.123 A 
BRANCH  28  38
ATOM     38  C   UNL     1     -39.227   4.180  79.814  1.00  0.00     0.025 A 
ATOM     39  C   UNL     1     -40.534   4.044  80.307  1.00  0.00     0.062 A 
ATOM     40  C   UNL     1     -38.884   3.605  78.584  1.00  0.00     0.016 A 
ATOM     41  C   UNL     1     -41.519   3.419  79.527  1.00  0.00     0.158 A 
ATOM     42  C   UNL     1     -39.854   2.933  77.831  1.00  0.00     0.051 A 
ATOM     43  C   UNL     1     -41.174   2.860  78.284  1.00  0.00     0.157 A 
BRANCH  41  44
ATOM     44  O   UNL     1     -42.833   3.375  79.980  1.00  0.00    -0.504 OA
ATOM     45  H   UNL     1     -43.419   4.201  79.974  1.00  0.00     0.293 HD
ENDBRANCH  41  44
BRANCH  43  46
ATOM     46  O   UNL     1     -42.136   2.243  77.483  1.00  0.00    -0.504 OA
ATOM     47  H   UNL     1     -43.103   2.174  77.780  1.00  0.00     0.293 HD
ENDBRANCH  43  46
ENDBRANCH  28  38
BRANCH  34  48
ATOM     48  O   UNL     1     -35.019   8.166  82.842  1.00  0.00    -0.507 OA
ATOM     49  H   UNL     1     -35.594   8.797  82.291  1.00  0.00     0.293 HD
ENDBRANCH  34  48
BRANCH  37  50
ATOM     50  O   UNL     1     -33.532   3.721  84.084  1.00  0.00    -0.508 OA
ATOM     51  H   UNL     1     -32.848   4.093  84.733  1.00  0.00     0.293 HD
ENDBRANCH  37  50
ENDBRANCH  26  27
ENDBRANCH   5  26
BRANCH   4  52
ATOM     52  O   UNL     1     -41.568   8.041  79.263  1.00  0.00    -0.384 OA
ATOM     53  H   UNL     1     -40.937   8.206  80.012  1.00  0.00     0.211 HD
ENDBRANCH   4  52
TORSDOF 16
ENDMDL
MODEL 2
REMARK VINA RESULT:    -6.601      2.231      6.225
REMARK INTER + INTRA:         -12.282
REMARK INTER:                  -9.821
REMARK INTRA:                  -2.461
REMARK UNBOUND:                -1.436
REMARK SMILES C[C@@H]1O[C@@H](OC[C@H]2O[C@@H](Oc3c(-c4ccc(O)c(O)c4)oc4cc(O)cc(O)c4c3=O)[C@@H](O)[C@@H](O)[C@@H]2O)[C@@H](O)[C@H](O)[C@@H]1O
REMARK SMILES IDX 7 1 36 2 34 3 32 4 9 5 8 6 6 7 5 8 4 9 1 10 2 11 42 12 3 13
REMARK SMILES IDX 40 14 38 15 43 16 41 18 39 20 37 22 35 24 10 26 11 27 12 28
REMARK SMILES IDX 30 29 21 30 29 31 31 32 22 33 27 34 23 35 26 36 24 37 13 38
REMARK SMILES IDX 20 39 14 40 18 41 15 42 16 43 19 44 17 46 28 48 25 50 33 52
REMARK H PARENT 43 17 41 19 39 21 37 23 35 25 19 45 17 47 28 49 25 51 33 53
REMARK Flexibility Score: inf
ROOT
ATOM      1  C   UNL     1     -37.341   8.769  81.771  1.00  0.00     0.180 C 
ATOM      2  C   UNL     1     -37.508   9.117  83.262  1.00  0.00     0.177 C 
ATOM      3  C   UNL     1     -37.796   7.839  84.058  1.00  0.00     0.180 C 
ATOM      4  C   UNL     1     -38.953   7.025  83.423  1.00  0.00     0.214 C 
ATOM      5  C   UNL     1     -39.015   7.060  81.859  1.00  0.00     0.339 C 
ATOM      6  O   UNL     1     -38.546   8.250  81.237  1.00  0.00    -0.332 OA
ENDROOT
BRANCH   1   7
ATOM      7  C   UNL     1     -36.110   7.880  81.438  1.00  0.00     0.198 C 
BRANCH   7   8
ATOM      8  O   UNL     1     -34.960   8.428  82.047  1.00  0.00    -0.347 OA
BRANCH   8   9
ATOM      9  C   UNL     1     -33.736   7.882  81.572  1.00  0.00     0.281 C 
ATOM     10  C   UNL     1     -33.338   5.244  84.125  1.00  0.00     0.041 C 
ATOM     11  C   UNL     1     -33.452   6.667  83.571  1.00  0.00     0.150 C 
ATOM     12  C   UNL     1     -32.271   7.547  84.046  1.00  0.00     0.174 C 
ATOM     13  O   UNL     1     -33.511   6.605  82.150  1.00  0.00    -0.344 OA
ATOM     14  C   UNL     1     -32.365   8.950  83.402  1.00  0.00     0.179 C 
ATOM     15  C   UNL     1     -32.572   8.839  81.884  1.00  0.00     0.202 C 
BRANCH  12  16
ATOM     16  O   UNL     1     -31.019   6.953  83.782  1.00  0.00    -0.388 OA
ATOM     17  H   UNL     1     -30.491   7.573  83.220  1.00  0.00     0.211 HD
ENDBRANCH  12  16
BRANCH  14  18
ATOM     18  O   UNL     1     -31.205   9.694  83.669  1.00  0.00    -0.387 OA
ATOM     19  H   UNL     1     -30.795   9.293  84.484  1.00  0.00     0.211 HD
ENDBRANCH  14  18
BRANCH  15  20
ATOM     20  O   UNL     1     -32.820  10.114  81.350  1.00  0.00    -0.385 OA
ATOM     21  H   UNL     1     -33.439  10.576  81.977  1.00  0.00     0.211 HD
ENDBRANCH  15  20
ENDBRANCH   8   9
ENDBRANCH   7   8
ENDBRANCH   1   7
BRANCH   2  22
ATOM     22  O   UNL     1     -38.521  10.086  83.442  1.00  0.00    -0.387 OA
ATOM     23  H   UNL     1     -39.086   9.801  84.202  1.00  0.00     0.211 HD
ENDBRANCH   2  22
BRANCH   3  24
ATOM     24  O   UNL     1     -36.614   7.079  84.114  1.00  0.00    -0.387 OA
ATOM     25  H   UNL     1     -36.660   6.510  84.931  1.00  0.00     0.211 HD
ENDBRANCH   3  24
BRANCH   5  26
ATOM     26  O   UNL     1     -38.414   5.900  81.273  1.00  0.00    -0.454 OA
BRANCH  26  27
ATOM     27  C   UNL     1     -39.041   5.152  80.260  1.00  0.00     0.214 A 
ATOM     28  C   UNL     1     -38.432   4.925  79.007  1.00  0.00     0.180 A 
ATOM     29  C   UNL     1     -40.321   4.631  80.486  1.00  0.00     0.239 A 
ATOM     30  O   UNL     1     -39.074   4.249  78.060  1.00  0.00    -0.452 OA
ATOM     31  C   UNL     1     -40.967   3.899  79.464  1.00  0.00     0.111 A 
ATOM     32  O   UNL     1     -40.883   4.841  81.595  1.00  0.00    -0.285 OA
ATOM     33  C   UNL     1     -40.286   3.740  78.232  1.00  0.00     0.146 A 
ATOM     34  C   UNL     1     -42.248   3.320  79.622  1.00  0.00     0.134 A 
ATOM     35  C   UNL     1     -40.879   3.034  77.184  1.00  0.00     0.094 A 
ATOM     36  C   UNL     1     -42.827   2.613  78.556  1.00  0.00     0.093 A 
ATOM     37  C   UNL     1     -42.148   2.472  77.340  1.00  0.00     0.123 A 
BRANCH  28  38
ATOM     38  C   UNL     1     -37.078   5.403  78.707  1.00  0.00     0.025 A 
ATOM     39  C   UNL     1     -36.899   6.653  78.094  1.00  0.00     0.062 A 
ATOM     40  C   UNL     1     -35.963   4.621  79.031  1.00  0.00     0.016 A 
ATOM     41  C   UNL     1     -35.605   7.161  77.896  1.00  0.00     0.158 A 
ATOM     42  C   UNL     1     -34.673   5.104  78.782  1.00  0.00     0.051 A 
ATOM     43  C   UNL     1     -34.489   6.379  78.241  1.00  0.00     0.157 A 
BRANCH  41  44
ATOM     44  O   UNL     1     -35.437   8.440  77.379  1.00  0.00    -0.504 OA
ATOM     45  H   UNL     1     -35.573   8.632  76.394  1.00  0.00     0.293 HD
ENDBRANCH  41  44
BRANCH  43  46
ATOM     46  O   UNL     1     -33.191   6.864  78.067  1.00  0.00    -0.504 OA
ATOM     47  H   UNL     1     -32.739   6.842  77.160  1.00  0.00     0.293 HD
ENDBRANCH  43  46
ENDBRANCH  28  38
BRANCH  34  48
ATOM     48  O   UNL     1     -42.949   3.450  80.824  1.00  0.00    -0.507 OA
ATOM     49  H   UNL     1     -42.673   4.125  81.532  1.00  0.00     0.293 HD
ENDBRANCH  34  48
BRANCH  37  50
ATOM     50  O   UNL     1     -42.718   1.772  76.280  1.00  0.00    -0.508 OA
ATOM     51  H   UNL     1     -42.191   1.563  75.439  1.00  0.00     0.293 HD
ENDBRANCH  37  50
ENDBRANCH  26  27
ENDBRANCH   5  26
BRANCH   4  52
ATOM     52  O   UNL     1     -38.901   5.699  83.889  1.00  0.00    -0.384 OA
ATOM     53  H   UNL     1     -38.122   5.632  84.502  1.00  0.00     0.211 HD
ENDBRANCH   4  52
TORSDOF 16
ENDMDL
MODEL 3
REMARK VINA RESULT:    -6.383      1.999      5.480
REMARK INTER + INTRA:         -11.925
REMARK INTER:                  -9.842
REMARK INTRA:                  -2.083
REMARK UNBOUND:                -1.436
REMARK SMILES C[C@@H]1O[C@@H](OC[C@H]2O[C@@H](Oc3c(-c4ccc(O)c(O)c4)oc4cc(O)cc(O)c4c3=O)[C@@H](O)[C@@H](O)[C@@H]2O)[C@@H](O)[C@H](O)[C@@H]1O
REMARK SMILES IDX 7 1 36 2 34 3 32 4 9 5 8 6 6 7 5 8 4 9 1 10 2 11 42 12 3 13
REMARK SMILES IDX 40 14 38 15 43 16 41 18 39 20 37 22 35 24 10 26 11 27 12 28
REMARK SMILES IDX 30 29 21 30 29 31 31 32 22 33 27 34 23 35 26 36 24 37 13 38
REMARK SMILES IDX 20 39 14 40 18 41 15 42 16 43 19 44 17 46 28 48 25 50 33 52
REMARK H PARENT 43 17 41 19 39 21 37 23 35 25 19 45 17 47 28 49 25 51 33 53
REMARK Flexibility Score: inf
ROOT
ATOM      1  C   UNL     1     -40.167   7.380  80.120  1.00  0.00     0.180 C 
ATOM      2  C   UNL     1     -40.686   7.891  78.763  1.00  0.00     0.177 C 
ATOM      3  C   UNL     1     -39.587   7.743  77.704  1.00  0.00     0.180 C 
ATOM      4  C   UNL     1     -38.249   8.357  78.188  1.00  0.00     0.214 C 
ATOM      5  C   UNL     1     -37.954   8.198  79.717  1.00  0.00     0.339 C 
ATOM      6  O   UNL     1     -39.087   8.174  80.577  1.00  0.00    -0.332 OA
ENDROOT
BRANCH   1   7
ATOM      7  C   UNL     1     -39.854   5.859  80.172  1.00  0.00     0.198 C 
BRANCH   7   8
ATOM      8  O   UNL     1     -41.040   5.129  79.943  1.00  0.00    -0.347 OA
BRANCH   8   9
ATOM      9  C   UNL     1     -40.915   3.731  80.175  1.00  0.00     0.281 C 
ATOM     10  C   UNL     1     -37.515   3.296  78.802  1.00  0.00     0.041 C 
ATOM     11  C   UNL     1     -39.010   3.628  78.792  1.00  0.00     0.150 C 
ATOM     12  C   UNL     1     -39.747   2.849  77.677  1.00  0.00     0.174 C 
ATOM     13  O   UNL     1     -39.555   3.337  80.074  1.00  0.00    -0.344 OA
ATOM     14  C   UNL     1     -41.266   3.136  77.747  1.00  0.00     0.179 C 
ATOM     15  C   UNL     1     -41.789   2.948  79.178  1.00  0.00     0.202 C 
BRANCH  12  16
ATOM     16  O   UNL     1     -39.493   1.462  77.733  1.00  0.00    -0.388 OA
ATOM     17  H   UNL     1     -40.324   0.982  77.495  1.00  0.00     0.211 HD
ENDBRANCH  12  16
BRANCH  14  18
ATOM     18  O   UNL     1     -41.968   2.294  76.870  1.00  0.00    -0.387 OA
ATOM     19  H   UNL     1     -41.306   1.637  76.521  1.00  0.00     0.211 HD
ENDBRANCH  14  18
BRANCH  15  20
ATOM     20  O   UNL     1     -43.126   3.375  79.248  1.00  0.00    -0.385 OA
ATOM     21  H   UNL     1     -43.597   2.754  79.867  1.00  0.00     0.211 HD
ENDBRANCH  15  20
ENDBRANCH   8   9
ENDBRANCH   7   8
ENDBRANCH   1   7
BRANCH   2  22
ATOM     22  O   UNL     1     -41.136   9.227  78.867  1.00  0.00    -0.387 OA
ATOM     23  H   UNL     1     -41.412   9.528  77.967  1.00  0.00     0.211 HD
ENDBRANCH   2  22
BRANCH   3  24
ATOM     24  O   UNL     1     -39.440   6.375  77.411  1.00  0.00    -0.387 OA
ATOM     25  H   UNL     1     -39.974   5.865  78.080  1.00  0.00     0.211 HD
ENDBRANCH   3  24
BRANCH   5  26
ATOM     26  O   UNL     1     -37.080   7.096  79.984  1.00  0.00    -0.454 OA
BRANCH  26  27
ATOM     27  C   UNL     1     -35.979   7.196  80.853  1.00  0.00     0.214 A 
ATOM     28  C   UNL     1     -35.961   6.568  82.118  1.00  0.00     0.180 A 
ATOM     29  C   UNL     1     -34.869   7.957  80.469  1.00  0.00     0.239 A 
ATOM     30  O   UNL     1     -34.920   6.720  82.929  1.00  0.00    -0.452 OA
ATOM     31  C   UNL     1     -33.770   8.081  81.348  1.00  0.00     0.111 A 
ATOM     32  O   UNL     1     -34.880   8.536  79.349  1.00  0.00    -0.285 OA
ATOM     33  C   UNL     1     -33.851   7.433  82.605  1.00  0.00     0.146 A 
ATOM     34  C   UNL     1     -32.602   8.812  81.024  1.00  0.00     0.134 A 
ATOM     35  C   UNL     1     -32.799   7.528  83.517  1.00  0.00     0.094 A 
ATOM     36  C   UNL     1     -31.554   8.895  81.955  1.00  0.00     0.093 A 
ATOM     37  C   UNL     1     -31.651   8.258  83.198  1.00  0.00     0.123 A 
BRANCH  28  38
ATOM     38  C   UNL     1     -37.068   5.721  82.577  1.00  0.00     0.025 A 
ATOM     39  C   UNL     1     -37.068   4.350  82.278  1.00  0.00     0.062 A 
ATOM     40  C   UNL     1     -38.123   6.272  83.313  1.00  0.00     0.016 A 
ATOM     41  C   UNL     1     -38.070   3.516  82.798  1.00  0.00     0.158 A 
ATOM     42  C   UNL     1     -39.153   5.449  83.785  1.00  0.00     0.051 A 
ATOM     43  C   UNL     1     -39.117   4.072  83.554  1.00  0.00     0.157 A 
BRANCH  41  44
ATOM     44  O   UNL     1     -38.009   2.144  82.581  1.00  0.00    -0.504 OA
ATOM     45  H   UNL     1     -37.159   1.701  82.255  1.00  0.00     0.293 HD
ENDBRANCH  41  44
BRANCH  43  46
ATOM     46  O   UNL     1     -40.120   3.265  84.093  1.00  0.00    -0.504 OA
ATOM     47  H   UNL     1     -41.084   3.577  84.131  1.00  0.00     0.293 HD
ENDBRANCH  43  46
ENDBRANCH  28  38
BRANCH  34  48
ATOM     48  O   UNL     1     -32.482   9.461  79.793  1.00  0.00    -0.507 OA
ATOM     49  H   UNL     1     -33.260   9.967  79.378  1.00  0.00     0.293 HD
ENDBRANCH  34  48
BRANCH  37  50
ATOM     50  O   UNL     1     -30.615   8.338  84.125  1.00  0.00    -0.508 OA
ATOM     51  H   UNL     1     -29.905   7.616  84.189  1.00  0.00     0.293 HD
ENDBRANCH  37  50
ENDBRANCH  26  27
ENDBRANCH   5  26
BRANCH   4  52
ATOM     52  O   UNL     1     -37.192   7.835  77.421  1.00  0.00    -0.384 OA
ATOM     53  H   UNL     1     -37.036   8.463  76.667  1.00  0.00     0.211 HD
ENDBRANCH   4  52
TORSDOF 16
ENDMDL
MODEL 4
REMARK VINA RESULT:    -6.381     10.017     14.523
REMARK INTER + INTRA:         -11.921
REMARK INTER:                 -11.517
REMARK INTRA:                  -0.404
REMARK UNBOUND:                -1.436
REMARK SMILES C[C@@H]1O[C@@H](OC[C@H]2O[C@@H](Oc3c(-c4ccc(O)c(O)c4)oc4cc(O)cc(O)c4c3=O)[C@@H](O)[C@@H](O)[C@@H]2O)[C@@H](O)[C@H](O)[C@@H]1O
REMARK SMILES IDX 7 1 36 2 34 3 32 4 9 5 8 6 6 7 5 8 4 9 1 10 2 11 42 12 3 13
REMARK SMILES IDX 40 14 38 15 43 16 41 18 39 20 37 22 35 24 10 26 11 27 12 28
REMARK SMILES IDX 30 29 21 30 29 31 31 32 22 33 27 34 23 35 26 36 24 37 13 38
REMARK SMILES IDX 20 39 14 40 18 41 15 42 16 43 19 44 17 46 28 48 25 50 33 52
REMARK H PARENT 43 17 41 19 39 21 37 23 35 25 19 45 17 47 28 49 25 51 33 53
REMARK Flexibility Score: inf
ROOT
ATOM      1  C   UNL     1     -42.818  -7.840  80.201  1.00  0.00     0.180 C 
ATOM      2  C   UNL     1     -44.102  -7.806  81.051  1.00  0.00     0.177 C 
ATOM      3  C   UNL     1     -43.915  -6.835  82.223  1.00  0.00     0.180 C 
ATOM      4  C   UNL     1     -42.603  -7.126  82.995  1.00  0.00     0.214 C 
ATOM      5  C   UNL     1     -41.400  -7.604  82.114  1.00  0.00     0.339 C 
ATOM      6  O   UNL     1     -41.731  -8.351  80.950  1.00  0.00    -0.332 OA
ENDROOT
BRANCH   1   7
ATOM      7  C   UNL     1     -42.472  -6.507  79.481  1.00  0.00     0.198 C 
BRANCH   7   8
ATOM      8  O   UNL     1     -43.262  -6.386  78.317  1.00  0.00    -0.347 OA
BRANCH   8   9
ATOM      9  C   UNL     1     -43.923  -5.133  78.193  1.00  0.00     0.281 C 
ATOM     10  C   UNL     1     -47.288  -6.235  79.241  1.00  0.00     0.041 C 
ATOM     11  C   UNL     1     -46.028  -6.177  78.373  1.00  0.00     0.150 C 
ATOM     12  C   UNL     1     -46.384  -5.923  76.888  1.00  0.00     0.174 C 
ATOM     13  O   UNL     1     -45.165  -5.164  78.878  1.00  0.00    -0.344 OA
ATOM     14  C   UNL     1     -45.091  -5.782  76.051  1.00  0.00     0.179 C 
ATOM     15  C   UNL     1     -44.124  -4.784  76.707  1.00  0.00     0.202 C 
BRANCH  12  16
ATOM     16  O   UNL     1     -47.218  -4.797  76.723  1.00  0.00    -0.388 OA
ATOM     17  H   UNL     1     -48.097  -5.105  76.389  1.00  0.00     0.211 HD
ENDBRANCH  12  16
BRANCH  14  18
ATOM     18  O   UNL     1     -45.392  -5.363  74.746  1.00  0.00    -0.387 OA
ATOM     19  H   UNL     1     -45.204  -4.385  74.714  1.00  0.00     0.211 HD
ENDBRANCH  14  18
BRANCH  15  20
ATOM     20  O   UNL     1     -42.898  -4.801  76.022  1.00  0.00    -0.385 OA
ATOM     21  H   UNL     1     -42.703  -5.751  75.798  1.00  0.00     0.211 HD
ENDBRANCH  15  20
ENDBRANCH   8   9
ENDBRANCH   7   8
ENDBRANCH   1   7
BRANCH   2  22
ATOM     22  O   UNL     1     -44.446  -9.103  81.495  1.00  0.00    -0.387 OA
ATOM     23  H   UNL     1     -45.247  -9.027  82.070  1.00  0.00     0.211 HD
ENDBRANCH   2  22
BRANCH   3  24
ATOM     24  O   UNL     1     -43.923  -5.524  81.714  1.00  0.00    -0.387 OA
ATOM     25  H   UNL     1     -44.859  -5.187  81.765  1.00  0.00     0.211 HD
ENDBRANCH   3  24
BRANCH   5  26
ATOM     26  O   UNL     1     -40.505  -6.531  81.802  1.00  0.00    -0.454 OA
BRANCH  26  27
ATOM     27  C   UNL     1     -39.146  -6.549  82.164  1.00  0.00     0.214 A 
ATOM     28  C   UNL     1     -38.483  -5.401  82.651  1.00  0.00     0.180 A 
ATOM     29  C   UNL     1     -38.414  -7.733  82.019  1.00  0.00     0.239 A 
ATOM     30  O   UNL     1     -37.188  -5.446  82.943  1.00  0.00    -0.452 OA
ATOM     31  C   UNL     1     -37.042  -7.751  82.358  1.00  0.00     0.111 A 
ATOM     32  O   UNL     1     -38.990  -8.760  81.569  1.00  0.00    -0.285 OA
ATOM     33  C   UNL     1     -36.458  -6.546  82.819  1.00  0.00     0.146 A 
ATOM     34  C   UNL     1     -36.239  -8.913  82.263  1.00  0.00     0.134 A 
ATOM     35  C   UNL     1     -35.105  -6.502  83.160  1.00  0.00     0.094 A 
ATOM     36  C   UNL     1     -34.881  -8.849  82.612  1.00  0.00     0.093 A 
ATOM     37  C   UNL     1     -34.313  -7.648  83.056  1.00  0.00     0.123 A 
BRANCH  28  38
ATOM     38  C   UNL     1     -39.190  -4.134  82.869  1.00  0.00     0.025 A 
ATOM     39  C   UNL     1     -38.526  -3.061  83.484  1.00  0.00     0.062 A 
ATOM     40  C   UNL     1     -40.522  -3.988  82.465  1.00  0.00     0.016 A 
ATOM     41  C   UNL     1     -39.163  -1.816  83.605  1.00  0.00     0.158 A 
ATOM     42  C   UNL     1     -41.176  -2.762  82.636  1.00  0.00     0.051 A 
ATOM     43  C   UNL     1     -40.495  -1.669  83.179  1.00  0.00     0.157 A 
BRANCH  41  44
ATOM     44  O   UNL     1     -38.465  -0.731  84.125  1.00  0.00    -0.504 OA
ATOM     45  H   UNL     1     -37.545  -0.485  83.782  1.00  0.00     0.293 HD
ENDBRANCH  41  44
BRANCH  43  46
ATOM     46  O   UNL     1     -41.148  -0.439  83.276  1.00  0.00    -0.504 OA
ATOM     47  H   UNL     1     -41.369   0.106  82.450  1.00  0.00     0.293 HD
ENDBRANCH  43  46
ENDBRANCH  28  38
BRANCH  34  48
ATOM     48  O   UNL     1     -36.780 -10.122  81.818  1.00  0.00    -0.507 OA
ATOM     49  H   UNL     1     -37.702 -10.433  82.110  1.00  0.00     0.293 HD
ENDBRANCH  34  48
BRANCH  37  50
ATOM     50  O   UNL     1     -32.967  -7.579  83.402  1.00  0.00    -0.508 OA
ATOM     51  H   UNL     1     -32.557  -6.727  83.770  1.00  0.00     0.293 HD
ENDBRANCH  37  50
ENDBRANCH  26  27
ENDBRANCH   5  26
BRANCH   4  52
ATOM     52  O   UNL     1     -42.247  -5.995  83.752  1.00  0.00    -0.384 OA
ATOM     53  H   UNL     1     -41.455  -6.243  84.298  1.00  0.00     0.211 HD
ENDBRANCH   4  52
TORSDOF 16
ENDMDL
MODEL 5
REMARK VINA RESULT:    -6.254      9.723     14.318
REMARK INTER + INTRA:         -11.713
REMARK INTER:                 -11.643
REMARK INTRA:                  -0.070
REMARK UNBOUND:                -1.436
REMARK SMILES C[C@@H]1O[C@@H](OC[C@H]2O[C@@H](Oc3c(-c4ccc(O)c(O)c4)oc4cc(O)cc(O)c4c3=O)[C@@H](O)[C@@H](O)[C@@H]2O)[C@@H](O)[C@H](O)[C@@H]1O
REMARK SMILES IDX 7 1 36 2 34 3 32 4 9 5 8 6 6 7 5 8 4 9 1 10 2 11 42 12 3 13
REMARK SMILES IDX 40 14 38 15 43 16 41 18 39 20 37 22 35 24 10 26 11 27 12 28
REMARK SMILES IDX 30 29 21 30 29 31 31 32 22 33 27 34 23 35 26 36 24 37 13 38
REMARK SMILES IDX 20 39 14 40 18 41 15 42 16 43 19 44 17 46 28 48 25 50 33 52
REMARK H PARENT 43 17 41 19 39 21 37 23 35 25 19 45 17 47 28 49 25 51 33 53
REMARK Flexibility Score: inf
ROOT
ATOM      1  C   UNL     1     -43.533  -7.064  79.472  1.00  0.00     0.180 C 
ATOM      2  C   UNL     1     -44.808  -7.057  80.336  1.00  0.00     0.177 C 
ATOM      3  C   UNL     1     -44.533  -6.315  81.649  1.00  0.00     0.180 C 
ATOM      4  C   UNL     1     -43.253  -6.846  82.342  1.00  0.00     0.214 C 
ATOM      5  C   UNL     1     -42.099  -7.277  81.376  1.00  0.00     0.339 C 
ATOM      6  O   UNL     1     -42.496  -7.788  80.109  1.00  0.00    -0.332 OA
ENDROOT
BRANCH   1   7
ATOM      7  C   UNL     1     -43.067  -5.666  78.977  1.00  0.00     0.198 C 
BRANCH   7   8
ATOM      8  O   UNL     1     -44.025  -5.145  78.081  1.00  0.00    -0.347 OA
BRANCH   8   9
ATOM      9  C   UNL     1     -44.236  -5.947  76.926  1.00  0.00     0.281 C 
ATOM     10  C   UNL     1     -42.649  -3.705  74.458  1.00  0.00     0.041 C 
ATOM     11  C   UNL     1     -43.663  -4.147  75.517  1.00  0.00     0.150 C 
ATOM     12  C   UNL     1     -45.114  -3.960  75.013  1.00  0.00     0.174 C 
ATOM     13  O   UNL     1     -43.407  -5.505  75.862  1.00  0.00    -0.344 OA
ATOM     14  C   UNL     1     -46.113  -4.496  76.065  1.00  0.00     0.179 C 
ATOM     15  C   UNL     1     -45.720  -5.910  76.518  1.00  0.00     0.202 C 
BRANCH  12  16
ATOM     16  O   UNL     1     -45.328  -4.569  73.758  1.00  0.00    -0.388 OA
ATOM     17  H   UNL     1     -45.472  -5.538  73.900  1.00  0.00     0.211 HD
ENDBRANCH  12  16
BRANCH  14  18
ATOM     18  O   UNL     1     -47.417  -4.510  75.545  1.00  0.00    -0.387 OA
ATOM     19  H   UNL     1     -47.901  -3.757  75.982  1.00  0.00     0.211 HD
ENDBRANCH  14  18
BRANCH  15  20
ATOM     20  O   UNL     1     -46.539  -6.304  77.588  1.00  0.00    -0.385 OA
ATOM     21  H   UNL     1     -47.133  -7.027  77.250  1.00  0.00     0.211 HD
ENDBRANCH  15  20
ENDBRANCH   8   9
ENDBRANCH   7   8
ENDBRANCH   1   7
BRANCH   2  22
ATOM     22  O   UNL     1     -45.268  -8.373  80.565  1.00  0.00    -0.387 OA
ATOM     23  H   UNL     1     -45.742  -8.385  81.433  1.00  0.00     0.211 HD
ENDBRANCH   2  22
BRANCH   3  24
ATOM     24  O   UNL     1     -44.421  -4.942  81.365  1.00  0.00    -0.387 OA
ATOM     25  H   UNL     1     -43.605  -4.604  81.824  1.00  0.00     0.211 HD
ENDBRANCH   3  24
BRANCH   5  26
ATOM     26  O   UNL     1     -41.110  -6.253  81.231  1.00  0.00    -0.454 OA
BRANCH  26  27
ATOM     27  C   UNL     1     -39.776  -6.423  81.644  1.00  0.00     0.214 A 
ATOM     28  C   UNL     1     -39.049  -5.395  82.282  1.00  0.00     0.180 A 
ATOM     29  C   UNL     1     -39.133  -7.643  81.398  1.00  0.00     0.239 A 
ATOM     30  O   UNL     1     -37.777  -5.580  82.619  1.00  0.00    -0.452 OA
ATOM     31  C   UNL     1     -37.786  -7.812  81.787  1.00  0.00     0.111 A 
ATOM     32  O   UNL     1     -39.766  -8.563  80.813  1.00  0.00    -0.285 OA
ATOM     33  C   UNL     1     -37.131  -6.718  82.403  1.00  0.00     0.146 A 
ATOM     34  C   UNL     1     -37.074  -9.021  81.595  1.00  0.00     0.134 A 
ATOM     35  C   UNL     1     -35.798  -6.825  82.801  1.00  0.00     0.094 A 
ATOM     36  C   UNL     1     -35.733  -9.109  82.004  1.00  0.00     0.093 A 
ATOM     37  C   UNL     1     -35.095  -8.015  82.602  1.00  0.00     0.123 A 
BRANCH  28  38
ATOM     38  C   UNL     1     -39.663  -4.104  82.611  1.00  0.00     0.025 A 
ATOM     39  C   UNL     1     -38.893  -3.099  83.219  1.00  0.00     0.062 A 
ATOM     40  C   UNL     1     -41.011  -3.867  82.321  1.00  0.00     0.016 A 
ATOM     41  C   UNL     1     -39.446  -1.829  83.445  1.00  0.00     0.158 A 
ATOM     42  C   UNL     1     -41.578  -2.617  82.597  1.00  0.00     0.051 A 
ATOM     43  C   UNL     1     -40.796  -1.590  83.132  1.00  0.00     0.157 A 
BRANCH  41  44
ATOM     44  O   UNL     1     -38.650  -0.810  83.955  1.00  0.00    -0.504 OA
ATOM     45  H   UNL     1     -38.547  -0.673  84.953  1.00  0.00     0.293 HD
ENDBRANCH  41  44
BRANCH  43  46
ATOM     46  O   UNL     1     -41.368  -0.333  83.335  1.00  0.00    -0.504 OA
ATOM     47  H   UNL     1     -41.727   0.213  82.560  1.00  0.00     0.293 HD
ENDBRANCH  43  46
ENDBRANCH  28  38
BRANCH  34  48
ATOM     48  O   UNL     1     -37.686 -10.125  80.997  1.00  0.00    -0.507 OA
ATOM     49  H   UNL     1     -37.220 -10.666  80.274  1.00  0.00     0.293 HD
ENDBRANCH  34  48
BRANCH  37  50
ATOM     50  O   UNL     1     -33.766  -8.098  83.008  1.00  0.00    -0.508 OA
ATOM     51  H   UNL     1     -33.351  -7.394  83.608  1.00  0.00     0.293 HD
ENDBRANCH  37  50
ENDBRANCH  26  27
ENDBRANCH   5  26
BRANCH   4  52
ATOM     52  O   UNL     1     -42.794  -5.894  83.270  1.00  0.00    -0.384 OA
ATOM     53  H   UNL     1     -42.051  -6.312  83.780  1.00  0.00     0.211 HD
ENDBRANCH   4  52
TORSDOF 16
ENDMDL
MODEL 6
REMARK VINA RESULT:    -5.472      2.036      5.929
REMARK INTER + INTRA:         -10.427
REMARK INTER:                  -8.687
REMARK INTRA:                  -1.741
REMARK UNBOUND:                -1.436
REMARK SMILES C[C@@H]1O[C@@H](OC[C@H]2O[C@@H](Oc3c(-c4ccc(O)c(O)c4)oc4cc(O)cc(O)c4c3=O)[C@@H](O)[C@@H](O)[C@@H]2O)[C@@H](O)[C@H](O)[C@@H]1O
REMARK SMILES IDX 7 1 36 2 34 3 32 4 9 5 8 6 6 7 5 8 4 9 1 10 2 11 42 12 3 13
REMARK SMILES IDX 40 14 38 15 43 16 41 18 39 20 37 22 35 24 10 26 11 27 12 28
REMARK SMILES IDX 30 29 21 30 29 31 31 32 22 33 27 34 23 35 26 36 24 37 13 38
REMARK SMILES IDX 20 39 14 40 18 41 15 42 16 43 19 44 17 46 28 48 25 50 33 52
REMARK H PARENT 43 17 41 19 39 21 37 23 35 25 19 45 17 47 28 49 25 51 33 53
REMARK Flexibility Score: inf
ROOT
ATOM      1  C   UNL     1     -39.321   6.955  79.604  1.00  0.00     0.180 C 
ATOM      2  C   UNL     1     -39.752   7.564  78.257  1.00  0.00     0.177 C 
ATOM      3  C   UNL     1     -38.527   7.710  77.345  1.00  0.00     0.180 C 
ATOM      4  C   UNL     1     -37.365   8.434  78.071  1.00  0.00     0.214 C 
ATOM      5  C   UNL     1     -37.229   8.118  79.598  1.00  0.00     0.339 C 
ATOM      6  O   UNL     1     -38.437   7.823  80.290  1.00  0.00    -0.332 OA
ENDROOT
BRANCH   1   7
ATOM      7  C   UNL     1     -38.785   5.498  79.525  1.00  0.00     0.198 C 
BRANCH   7   8
ATOM      8  O   UNL     1     -39.656   4.722  78.731  1.00  0.00    -0.347 OA
BRANCH   8   9
ATOM      9  C   UNL     1     -39.850   3.396  79.208  1.00  0.00     0.281 C 
ATOM     10  C   UNL     1     -42.165   2.247  76.571  1.00  0.00     0.041 C 
ATOM     11  C   UNL     1     -41.677   3.093  77.751  1.00  0.00     0.150 C 
ATOM     12  C   UNL     1     -42.713   3.102  78.899  1.00  0.00     0.174 C 
ATOM     13  O   UNL     1     -40.421   2.587  78.191  1.00  0.00    -0.344 OA
ATOM     14  C   UNL     1     -42.156   3.889  80.109  1.00  0.00     0.179 C 
ATOM     15  C   UNL     1     -40.740   3.410  80.464  1.00  0.00     0.202 C 
BRANCH  12  16
ATOM     16  O   UNL     1     -43.102   1.799  79.280  1.00  0.00    -0.388 OA
ATOM     17  H   UNL     1     -43.845   1.511  78.695  1.00  0.00     0.211 HD
ENDBRANCH  12  16
BRANCH  14  18
ATOM     18  O   UNL     1     -42.998   3.744  81.222  1.00  0.00    -0.387 OA
ATOM     19  H   UNL     1     -42.516   3.155  81.865  1.00  0.00     0.211 HD
ENDBRANCH  14  18
BRANCH  15  20
ATOM     20  O   UNL     1     -40.195   4.249  81.450  1.00  0.00    -0.385 OA
ATOM     21  H   UNL     1     -39.302   4.541  81.123  1.00  0.00     0.211 HD
ENDBRANCH  15  20
ENDBRANCH   8   9
ENDBRANCH   7   8
ENDBRANCH   1   7
BRANCH   2  22
ATOM     22  O   UNL     1     -40.411   8.798  78.450  1.00  0.00    -0.387 OA
ATOM     23  H   UNL     1     -41.166   8.846  77.813  1.00  0.00     0.211 HD
ENDBRANCH   2  22
BRANCH   3  24
ATOM     24  O   UNL     1     -38.138   6.426  76.922  1.00  0.00    -0.387 OA
ATOM     25  H   UNL     1     -37.934   5.890  77.735  1.00  0.00     0.211 HD
ENDBRANCH   3  24
BRANCH   5  26
ATOM     26  O   UNL     1     -36.233   7.122  79.852  1.00  0.00    -0.454 OA
BRANCH  26  27
ATOM     27  C   UNL     1     -35.132   7.351  80.699  1.00  0.00     0.214 A 
ATOM     28  C   UNL     1     -34.990   6.693  81.940  1.00  0.00     0.180 A 
ATOM     29  C   UNL     1     -34.153   8.275  80.315  1.00  0.00     0.239 A 
ATOM     30  O   UNL     1     -33.958   6.966  82.731  1.00  0.00    -0.452 OA
ATOM     31  C   UNL     1     -33.059   8.527  81.172  1.00  0.00     0.111 A 
ATOM     32  O   UNL     1     -34.278   8.882  79.217  1.00  0.00    -0.285 OA
ATOM     33  C   UNL     1     -33.010   7.835  82.407  1.00  0.00     0.146 A 
ATOM     34  C   UNL     1     -32.016   9.428  80.847  1.00  0.00     0.134 A 
ATOM     35  C   UNL     1     -31.957   8.050  83.296  1.00  0.00     0.094 A 
ATOM     36  C   UNL     1     -30.965   9.630  81.755  1.00  0.00     0.093 A 
ATOM     37  C   UNL     1     -30.935   8.946  82.977  1.00  0.00     0.123 A 
BRANCH  28  38
ATOM     38  C   UNL     1     -35.951   5.682  82.394  1.00  0.00     0.025 A 
ATOM     39  C   UNL     1     -37.091   6.075  83.112  1.00  0.00     0.062 A 
ATOM     40  C   UNL     1     -35.739   4.327  82.114  1.00  0.00     0.016 A 
ATOM     41  C   UNL     1     -38.064   5.126  83.463  1.00  0.00     0.158 A 
ATOM     42  C   UNL     1     -36.683   3.373  82.512  1.00  0.00     0.051 A 
ATOM     43  C   UNL     1     -37.855   3.768  83.161  1.00  0.00     0.157 A 
BRANCH  41  44
ATOM     44  O   UNL     1     -39.237   5.537  84.086  1.00  0.00    -0.504 OA
ATOM     45  H   UNL     1     -39.585   5.068  84.913  1.00  0.00     0.293 HD
ENDBRANCH  41  44
BRANCH  43  46
ATOM     46  O   UNL     1     -38.812   2.806  83.486  1.00  0.00    -0.504 OA
ATOM     47  H   UNL     1     -39.728   2.805  83.051  1.00  0.00     0.293 HD
ENDBRANCH  43  46
ENDBRANCH  28  38
BRANCH  34  48
ATOM     48  O   UNL     1     -32.024  10.125  79.636  1.00  0.00    -0.507 OA
ATOM     49  H   UNL     1     -31.240  10.704  79.349  1.00  0.00     0.293 HD
ENDBRANCH  34  48
BRANCH  37  50
ATOM     50  O   UNL     1     -29.895   9.144  83.881  1.00  0.00    -0.508 OA
ATOM     51  H   UNL     1     -29.817   8.592  84.728  1.00  0.00     0.293 HD
ENDBRANCH  37  50
ENDBRANCH  26  27
ENDBRANCH   5  26
BRANCH   4  52
ATOM     52  O   UNL     1     -36.158   8.170  77.398  1.00  0.00    -0.384 OA
ATOM     53  H   UNL     1     -35.990   8.932  76.784  1.00  0.00     0.211 HD
ENDBRANCH   4  52
TORSDOF 16
ENDMDL
MODEL 7
REMARK VINA RESULT:    -5.385      1.567      7.854
REMARK INTER + INTRA:         -10.284
REMARK INTER:                  -9.104
REMARK INTRA:                  -1.180
REMARK UNBOUND:                -1.436
REMARK SMILES C[C@@H]1O[C@@H](OC[C@H]2O[C@@H](Oc3c(-c4ccc(O)c(O)c4)oc4cc(O)cc(O)c4c3=O)[C@@H](O)[C@@H](O)[C@@H]2O)[C@@H](O)[C@H](O)[C@@H]1O
REMARK SMILES IDX 7 1 36 2 34 3 32 4 9 5 8 6 6 7 5 8 4 9 1 10 2 11 42 12 3 13
REMARK SMILES IDX 40 14 38 15 43 16 41 18 39 20 37 22 35 24 10 26 11 27 12 28
REMARK SMILES IDX 30 29 21 30 29 31 31 32 22 33 27 34 23 35 26 36 24 37 13 38
REMARK SMILES IDX 20 39 14 40 18 41 15 42 16 43 19 44 17 46 28 48 25 50 33 52
REMARK H PARENT 43 17 41 19 39 21 37 23 35 25 19 45 17 47 28 49 25 51 33 53
REMARK Flexibility Score: inf
ROOT
ATOM      1  C   UNL     1     -37.557   4.802  81.481  1.00  0.00     0.180 C 
ATOM      2  C   UNL     1     -36.804   4.430  82.772  1.00  0.00     0.177 C 
ATOM      3  C   UNL     1     -36.507   5.700  83.577  1.00  0.00     0.180 C 
ATOM      4  C   UNL     1     -35.837   6.785  82.696  1.00  0.00     0.214 C 
ATOM      5  C   UNL     1     -36.333   6.841  81.212  1.00  0.00     0.339 C 
ATOM      6  O   UNL     1     -36.750   5.607  80.641  1.00  0.00    -0.332 OA
ENDROOT
BRANCH   1   7
ATOM      7  C   UNL     1     -38.975   5.402  81.699  1.00  0.00     0.198 C 
BRANCH   7   8
ATOM      8  O   UNL     1     -39.834   4.953  80.673  1.00  0.00    -0.347 OA
BRANCH   8   9
ATOM      9  C   UNL     1     -40.125   3.562  80.728  1.00  0.00     0.281 C 
ATOM     10  C   UNL     1     -37.759   2.450  78.121  1.00  0.00     0.041 C 
ATOM     11  C   UNL     1     -38.958   3.194  78.714  1.00  0.00     0.150 C 
ATOM     12  C   UNL     1     -40.249   2.902  77.912  1.00  0.00     0.174 C 
ATOM     13  O   UNL     1     -39.103   2.821  80.080  1.00  0.00    -0.344 OA
ATOM     14  C   UNL     1     -41.458   3.594  78.584  1.00  0.00     0.179 C 
ATOM     15  C   UNL     1     -41.497   3.282  80.087  1.00  0.00     0.202 C 
BRANCH  12  16
ATOM     16  O   UNL     1     -40.482   1.519  77.756  1.00  0.00    -0.388 OA
ATOM     17  H   UNL     1     -39.618   1.076  77.562  1.00  0.00     0.211 HD
ENDBRANCH  12  16
BRANCH  14  18
ATOM     18  O   UNL     1     -42.658   3.185  77.983  1.00  0.00    -0.387 OA
ATOM     19  H   UNL     1     -43.387   3.685  78.441  1.00  0.00     0.211 HD
ENDBRANCH  14  18
BRANCH  15  20
ATOM     20  O   UNL     1     -42.498   4.052  80.700  1.00  0.00    -0.385 OA
ATOM     21  H   UNL     1     -42.771   4.750  80.045  1.00  0.00     0.211 HD
ENDBRANCH  15  20
ENDBRANCH   8   9
ENDBRANCH   7   8
ENDBRANCH   1   7
BRANCH   2  22
ATOM     22  O   UNL     1     -35.624   3.710  82.476  1.00  0.00    -0.387 OA
ATOM     23  H   UNL     1     -35.200   4.129  81.687  1.00  0.00     0.211 HD
ENDBRANCH   2  22
BRANCH   3  24
ATOM     24  O   UNL     1     -37.715   6.167  84.125  1.00  0.00    -0.387 OA
ATOM     25  H   UNL     1     -38.167   6.718  83.430  1.00  0.00     0.211 HD
ENDBRANCH   3  24
BRANCH   5  26
ATOM     26  O   UNL     1     -37.318   7.861  81.014  1.00  0.00    -0.454 OA
BRANCH  26  27
ATOM     27  C   UNL     1     -37.751   8.258  79.735  1.00  0.00     0.214 A 
ATOM     28  C   UNL     1     -36.845   8.531  78.687  1.00  0.00     0.180 A 
ATOM     29  C   UNL     1     -39.121   8.411  79.493  1.00  0.00     0.239 A 
ATOM     30  O   UNL     1     -37.290   8.945  77.506  1.00  0.00    -0.452 OA
ATOM     31  C   UNL     1     -39.561   8.834  78.218  1.00  0.00     0.111 A 
ATOM     32  O   UNL     1     -39.939   8.186  80.426  1.00  0.00    -0.285 OA
ATOM     33  C   UNL     1     -38.578   9.104  77.234  1.00  0.00     0.146 A 
ATOM     34  C   UNL     1     -40.928   8.989  77.886  1.00  0.00     0.134 A 
ATOM     35  C   UNL     1     -38.954   9.533  75.961  1.00  0.00     0.094 A 
ATOM     36  C   UNL     1     -41.285   9.420  76.599  1.00  0.00     0.093 A 
ATOM     37  C   UNL     1     -40.303   9.694  75.639  1.00  0.00     0.123 A 
BRANCH  28  38
ATOM     38  C   UNL     1     -35.398   8.356  78.850  1.00  0.00     0.025 A 
ATOM     39  C   UNL     1     -34.667   9.267  79.629  1.00  0.00     0.062 A 
ATOM     40  C   UNL     1     -34.741   7.284  78.234  1.00  0.00     0.016 A 
ATOM     41  C   UNL     1     -33.302   9.049  79.871  1.00  0.00     0.158 A 
ATOM     42  C   UNL     1     -33.367   7.098  78.431  1.00  0.00     0.051 A 
ATOM     43  C   UNL     1     -32.651   7.960  79.266  1.00  0.00     0.157 A 
BRANCH  41  44
ATOM     44  O   UNL     1     -32.608   9.901  80.723  1.00  0.00    -0.504 OA
ATOM     45  H   UNL     1     -32.508   9.692  81.709  1.00  0.00     0.293 HD
ENDBRANCH  41  44
BRANCH  43  46
ATOM     46  O   UNL     1     -31.297   7.713  79.500  1.00  0.00    -0.504 OA
ATOM     47  H   UNL     1     -30.838   8.050  80.338  1.00  0.00     0.293 HD
ENDBRANCH  43  46
ENDBRANCH  28  38
BRANCH  34  48
ATOM     48  O   UNL     1     -41.927   8.726  78.827  1.00  0.00    -0.507 OA
ATOM     49  H   UNL     1     -41.757   8.816  79.825  1.00  0.00     0.293 HD
ENDBRANCH  34  48
BRANCH  37  50
ATOM     50  O   UNL     1     -40.653  10.123  74.362  1.00  0.00    -0.508 OA
ATOM     51  H   UNL     1     -40.526   9.528  73.550  1.00  0.00     0.293 HD
ENDBRANCH  37  50
ENDBRANCH  26  27
ENDBRANCH   5  26
BRANCH   4  52
ATOM     52  O   UNL     1     -35.978   8.041  83.315  1.00  0.00    -0.384 OA
ATOM     53  H   UNL     1     -35.170   8.185  83.875  1.00  0.00     0.211 HD
ENDBRANCH   4  52
TORSDOF 16
ENDMDL
MODEL 8
REMARK VINA RESULT:    -5.106      2.028      6.191
REMARK INTER + INTRA:          -9.826
REMARK INTER:                 -10.508
REMARK INTRA:                   0.682
REMARK UNBOUND:                -1.436
REMARK SMILES C[C@@H]1O[C@@H](OC[C@H]2O[C@@H](Oc3c(-c4ccc(O)c(O)c4)oc4cc(O)cc(O)c4c3=O)[C@@H](O)[C@@H](O)[C@@H]2O)[C@@H](O)[C@H](O)[C@@H]1O
REMARK SMILES IDX 7 1 36 2 34 3 32 4 9 5 8 6 6 7 5 8 4 9 1 10 2 11 42 12 3 13
REMARK SMILES IDX 40 14 38 15 43 16 41 18 39 20 37 22 35 24 10 26 11 27 12 28
REMARK SMILES IDX 30 29 21 30 29 31 31 32 22 33 27 34 23 35 26 36 24 37 13 38
REMARK SMILES IDX 20 39 14 40 18 41 15 42 16 43 19 44 17 46 28 48 25 50 33 52
REMARK H PARENT 43 17 41 19 39 21 37 23 35 25 19 45 17 47 28 49 25 51 33 53
REMARK Flexibility Score: inf
ROOT
ATOM      1  C   UNL     1     -41.237   4.353  78.848  1.00  0.00     0.180 C 
ATOM      2  C   UNL     1     -40.898   2.946  78.321  1.00  0.00     0.177 C 
ATOM      3  C   UNL     1     -39.415   2.647  78.572  1.00  0.00     0.180 C 
ATOM      4  C   UNL     1     -38.512   3.796  78.055  1.00  0.00     0.214 C 
ATOM      5  C   UNL     1     -39.106   5.236  78.210  1.00  0.00     0.339 C 
ATOM      6  O   UNL     1     -40.522   5.344  78.132  1.00  0.00    -0.332 OA
ENDROOT
BRANCH   1   7
ATOM      7  C   UNL     1     -41.115   4.524  80.388  1.00  0.00     0.198 C 
BRANCH   7   8
ATOM      8  O   UNL     1     -41.269   3.267  81.011  1.00  0.00    -0.347 OA
BRANCH   8   9
ATOM      9  C   UNL     1     -41.156   3.305  82.429  1.00  0.00     0.281 C 
ATOM     10  C   UNL     1     -39.034   6.316  82.683  1.00  0.00     0.041 C 
ATOM     11  C   UNL     1     -39.413   4.885  82.291  1.00  0.00     0.150 C 
ATOM     12  C   UNL     1     -38.337   3.875  82.753  1.00  0.00     0.174 C 
ATOM     13  O   UNL     1     -40.686   4.576  82.849  1.00  0.00    -0.344 OA
ATOM     14  C   UNL     1     -38.788   2.432  82.422  1.00  0.00     0.179 C 
ATOM     15  C   UNL     1     -40.221   2.184  82.916  1.00  0.00     0.202 C 
BRANCH  12  16
ATOM     16  O   UNL     1     -38.032   4.006  84.125  1.00  0.00    -0.388 OA
ATOM     17  H   UNL     1     -37.048   4.042  84.225  1.00  0.00     0.211 HD
ENDBRANCH  12  16
BRANCH  14  18
ATOM     18  O   UNL     1     -37.917   1.498  83.004  1.00  0.00    -0.387 OA
ATOM     19  H   UNL     1     -38.232   0.599  82.710  1.00  0.00     0.211 HD
ENDBRANCH  14  18
BRANCH  15  20
ATOM     20  O   UNL     1     -40.664   0.933  82.458  1.00  0.00    -0.385 OA
ATOM     21  H   UNL     1     -41.173   0.514  83.204  1.00  0.00     0.211 HD
ENDBRANCH  15  20
ENDBRANCH   8   9
ENDBRANCH   7   8
ENDBRANCH   1   7
BRANCH   2  22
ATOM     22  O   UNL     1     -41.232   2.827  76.953  1.00  0.00    -0.387 OA
ATOM     23  H   UNL     1     -40.493   3.215  76.422  1.00  0.00     0.211 HD
ENDBRANCH   2  22
BRANCH   3  24
ATOM     24  O   UNL     1     -39.234   2.443  79.952  1.00  0.00    -0.387 OA
ATOM     25  H   UNL     1     -38.330   2.784  80.190  1.00  0.00     0.211 HD
ENDBRANCH   3  24
BRANCH   5  26
ATOM     26  O   UNL     1     -38.600   5.902  79.372  1.00  0.00    -0.454 OA
BRANCH  26  27
ATOM     27  C   UNL     1     -37.516   6.797  79.320  1.00  0.00     0.214 A 
ATOM     28  C   UNL     1     -37.565   7.994  78.573  1.00  0.00     0.180 A 
ATOM     29  C   UNL     1     -36.339   6.488  80.012  1.00  0.00     0.239 A 
ATOM     30  O   UNL     1     -36.505   8.793  78.514  1.00  0.00    -0.452 OA
ATOM     31  C   UNL     1     -35.238   7.371  79.944  1.00  0.00     0.111 A 
ATOM     32  O   UNL     1     -36.277   5.414  80.669  1.00  0.00    -0.285 OA
ATOM     33  C   UNL     1     -35.372   8.538  79.153  1.00  0.00     0.146 A 
ATOM     34  C   UNL     1     -34.023   7.142  80.633  1.00  0.00     0.134 A 
ATOM     35  C   UNL     1     -34.314   9.441  79.042  1.00  0.00     0.094 A 
ATOM     36  C   UNL     1     -32.971   8.064  80.510  1.00  0.00     0.093 A 
ATOM     37  C   UNL     1     -33.113   9.209  79.716  1.00  0.00     0.123 A 
BRANCH  28  38
ATOM     38  C   UNL     1     -38.774   8.408  77.854  1.00  0.00     0.025 A 
ATOM     39  C   UNL     1     -39.895   8.856  78.571  1.00  0.00     0.062 A 
ATOM     40  C   UNL     1     -38.817   8.362  76.455  1.00  0.00     0.016 A 
ATOM     41  C   UNL     1     -41.018   9.347  77.887  1.00  0.00     0.158 A 
ATOM     42  C   UNL     1     -39.959   8.801  75.774  1.00  0.00     0.051 A 
ATOM     43  C   UNL     1     -41.048   9.317  76.482  1.00  0.00     0.157 A 
BRANCH  41  44
ATOM     44  O   UNL     1     -42.083   9.880  78.604  1.00  0.00    -0.504 OA
ATOM     45  H   UNL     1     -42.849   9.298  78.920  1.00  0.00     0.293 HD
ENDBRANCH  41  44
BRANCH  43  46
ATOM     46  O   UNL     1     -42.146   9.811  75.777  1.00  0.00    -0.504 OA
ATOM     47  H   UNL     1     -42.261   9.629  74.786  1.00  0.00     0.293 HD
ENDBRANCH  43  46
ENDBRANCH  28  38
BRANCH  34  48
ATOM     48  O   UNL     1     -33.853   6.006  81.429  1.00  0.00    -0.507 OA
ATOM     49  H   UNL     1     -34.458   5.817  82.224  1.00  0.00     0.293 HD
ENDBRANCH  34  48
BRANCH  37  50
ATOM     50  O   UNL     1     -32.072  10.125  79.590  1.00  0.00    -0.508 OA
ATOM     51  H   UNL     1     -32.244  11.124  79.584  1.00  0.00     0.293 HD
ENDBRANCH  37  50
ENDBRANCH  26  27
ENDBRANCH   5  26
BRANCH   4  52
ATOM     52  O   UNL     1     -37.250   3.709  78.670  1.00  0.00    -0.384 OA
ATOM     53  H   UNL     1     -36.567   3.758  77.950  1.00  0.00     0.211 HD
ENDBRANCH   4  52
TORSDOF 16
ENDMDL
