MODEL 1
REMARK VINA RESULT:    18.973      0.000      0.000
REMARK INTER + INTRA:          48.760
REMARK INTER:                  50.030
REMARK INTRA:                  -1.270
REMARK UNBOUND:                -1.270
REMARK SMILES CCCCCCCCCCCCCCCCCCCCCCCCCCCCCC(=O)[O-]
REMARK SMILES IDX 16 1 17 2 18 3 19 4 20 5 21 6 22 7 23 8 24 9 25 10 26 11
REMARK SMILES IDX 27 12 28 13 29 14 30 15 31 16 32 17 15 18 14 19 13 20 12 21
REMARK SMILES IDX 11 22 10 23 9 24 8 25 7 26 6 27 5 28 4 29 3 30 2 31 1 32
REMARK H PARENT
REMARK Flexibility Score: inf
ROOT
ATOM      1  C   UNL     1      11.122 -11.304   6.072  1.00  0.00     0.000 C 
ENDROOT
BRANCH   1   2
ATOM      2  C   UNL     1      11.130 -12.729   5.485  1.00  0.00     0.000 C 
BRANCH   2   3
ATOM      3  C   UNL     1       9.744 -13.369   5.281  1.00  0.00     0.000 C 
BRANCH   3   4
ATOM      4  C   UNL     1       9.785 -14.885   4.992  1.00  0.00     0.000 C 
BRANCH   4   5
ATOM      5  C   UNL     1      11.217 -15.429   4.834  1.00  0.00     0.000 C 
BRANCH   5   6
ATOM      6  C   UNL     1      11.254 -16.870   4.301  1.00  0.00     0.000 C 
BRANCH   6   7
ATOM      7  C   UNL     1      11.345 -17.917   5.425  1.00  0.00     0.000 C 
BRANCH   7   8
ATOM      8  C   UNL     1      12.013 -19.224   4.963  1.00  0.00     0.000 C 
BRANCH   8   9
ATOM      9  C   UNL     1      12.176 -20.299   6.058  1.00  0.00     0.000 C 
BRANCH   9  10
ATOM     10  C   UNL     1      12.745 -19.792   7.399  1.00  0.00     0.000 C 
BRANCH  10  11
ATOM     11  C   UNL     1      14.268 -19.563   7.409  1.00  0.00     0.000 C 
BRANCH  11  12
ATOM     12  C   UNL     1      14.651 -18.110   7.730  1.00  0.00     0.000 C 
BRANCH  12  13
ATOM     13  C   UNL     1      16.073 -17.797   7.245  1.00  0.00     0.006 C 
BRANCH  13  14
ATOM     14  C   UNL     1      16.355 -16.288   7.206  1.00  0.00     0.053 C 
BRANCH  14  15
ATOM     15  C   UNL     1      17.670 -15.988   6.555  1.00  0.00     0.041 C 
ATOM     16  O   UNL     1      17.800 -14.968   5.826  1.00  0.00    -0.550 OA
ATOM     17  O   UNL     1      18.747 -16.851   6.731  1.00  0.00    -0.550 OA
ENDBRANCH  14  15
ENDBRANCH  13  14
ENDBRANCH  12  13
ENDBRANCH  11  12
ENDBRANCH  10  11
ENDBRANCH   9  10
ENDBRANCH   8   9
ENDBRANCH   7   8
ENDBRANCH   6   7
ENDBRANCH   5   6
ENDBRANCH   4   5
ENDBRANCH   3   4
ENDBRANCH   2   3
ENDBRANCH   1   2
BRANCH   1  18
ATOM     18  C   UNL     1      11.821 -10.236   5.211  1.00  0.00     0.000 C 
BRANCH  18  19
ATOM     19  C   UNL     1      12.714 -10.839   4.116  1.00  0.00     0.000 C 
BRANCH  19  20
ATOM     20  C   UNL     1      13.867  -9.888   3.763  1.00  0.00     0.000 C 
BRANCH  20  21
ATOM     21  C   UNL     1      14.570 -10.270   2.449  1.00  0.00     0.000 C 
BRANCH  21  22
ATOM     22  C   UNL     1      16.075  -9.940   2.403  1.00  0.00     0.000 C 
BRANCH  22  23
ATOM     23  C   UNL     1      16.421  -8.533   1.875  1.00  0.00     0.000 C 
BRANCH  23  24
ATOM     24  C   UNL     1      15.369  -7.445   2.163  1.00  0.00    -0.000 C 
BRANCH  24  25
ATOM     25  C   UNL     1      15.280  -7.081   3.654  1.00  0.00    -0.000 C 
BRANCH  25  26
ATOM     26  C   UNL     1      16.589  -6.487   4.204  1.00  0.00    -0.000 C 
BRANCH  26  27
ATOM     27  C   UNL     1      16.721  -6.499   5.740  1.00  0.00    -0.000 C 
BRANCH  27  28
ATOM     28  C   UNL     1      16.767  -5.109   6.404  1.00  0.00    -0.000 C 
BRANCH  28  29
ATOM     29  C   UNL     1      15.442  -4.649   7.045  1.00  0.00    -0.000 C 
BRANCH  29  30
ATOM     30  C   UNL     1      14.609  -3.676   6.190  1.00  0.00    -0.000 C 
BRANCH  30  31
ATOM     31  C   UNL     1      14.963  -2.204   6.447  1.00  0.00    -0.003 C 
ATOM     32  C   UNL     1      13.707  -1.339   6.499  1.00  0.00     0.004 C 
ENDBRANCH  30  31
ENDBRANCH  29  30
ENDBRANCH  28  29
ENDBRANCH  27  28
ENDBRANCH  26  27
ENDBRANCH  25  26
ENDBRANCH  24  25
ENDBRANCH  23  24
ENDBRANCH  22  23
ENDBRANCH  21  22
ENDBRANCH  20  21
ENDBRANCH  19  20
ENDBRANCH  18  19
ENDBRANCH   1  18
TORSDOF 28
ENDMDL
MODEL 2
REMARK VINA RESULT:    21.458      5.185      8.418
REMARK INTER + INTRA:          55.313
REMARK INTER:                  55.470
REMARK INTRA:                  -0.158
REMARK UNBOUND:                -1.270
REMARK SMILES CCCCCCCCCCCCCCCCCCCCCCCCCCCCCC(=O)[O-]
REMARK SMILES IDX 16 1 17 2 18 3 19 4 20 5 21 6 22 7 23 8 24 9 25 10 26 11
REMARK SMILES IDX 27 12 28 13 29 14 30 15 31 16 32 17 15 18 14 19 13 20 12 21
REMARK SMILES IDX 11 22 10 23 9 24 8 25 7 26 6 27 5 28 4 29 3 30 2 31 1 32
REMARK H PARENT
REMARK Flexibility Score: inf
ROOT
ATOM      1  C   UNL     1      10.105 -15.460   5.128  1.00  0.00     0.000 C 
ENDROOT
BRANCH   1   2
ATOM      2  C   UNL     1      11.461 -15.938   4.573  1.00  0.00     0.000 C 
BRANCH   2   3
ATOM      3  C   UNL     1      11.537 -17.432   4.205  1.00  0.00     0.000 C 
BRANCH   3   4
ATOM      4  C   UNL     1      11.251 -18.388   5.382  1.00  0.00     0.000 C 
BRANCH   4   5
ATOM      5  C   UNL     1      12.210 -19.593   5.425  1.00  0.00     0.000 C 
BRANCH   5   6
ATOM      6  C   UNL     1      12.106 -20.393   6.733  1.00  0.00     0.000 C 
BRANCH   6   7
ATOM      7  C   UNL     1      13.067 -19.882   7.820  1.00  0.00     0.000 C 
BRANCH   7   8
ATOM      8  C   UNL     1      14.424 -19.434   7.247  1.00  0.00     0.000 C 
BRANCH   8   9
ATOM      9  C   UNL     1      14.529 -17.932   6.911  1.00  0.00     0.000 C 
BRANCH   9  10
ATOM     10  C   UNL     1      15.724 -17.196   7.552  1.00  0.00     0.000 C 
BRANCH  10  11
ATOM     11  C   UNL     1      16.146 -15.901   6.835  1.00  0.00     0.000 C 
BRANCH  11  12
ATOM     12  C   UNL     1      17.548 -15.422   7.243  1.00  0.00     0.000 C 
BRANCH  12  13
ATOM     13  C   UNL     1      18.626 -16.403   6.760  1.00  0.00     0.006 C 
BRANCH  13  14
ATOM     14  C   UNL     1      18.935 -16.237   5.266  1.00  0.00     0.053 C 
BRANCH  14  15
ATOM     15  C   UNL     1      18.969 -17.557   4.558  1.00  0.00     0.041 C 
ATOM     16  O   UNL     1      19.125 -17.604   3.309  1.00  0.00    -0.550 OA
ATOM     17  O   UNL     1      18.803 -18.736   5.278  1.00  0.00    -0.550 OA
ENDBRANCH  14  15
ENDBRANCH  13  14
ENDBRANCH  12  13
ENDBRANCH  11  12
ENDBRANCH  10  11
ENDBRANCH   9  10
ENDBRANCH   8   9
ENDBRANCH   7   8
ENDBRANCH   6   7
ENDBRANCH   5   6
ENDBRANCH   4   5
ENDBRANCH   3   4
ENDBRANCH   2   3
ENDBRANCH   1   2
BRANCH   1  18
ATOM     18  C   UNL     1       9.926 -13.933   5.195  1.00  0.00     0.000 C 
BRANCH  18  19
ATOM     19  C   UNL     1      11.225 -13.191   5.546  1.00  0.00     0.000 C 
BRANCH  19  20
ATOM     20  C   UNL     1      10.923 -11.803   6.130  1.00  0.00     0.000 C 
BRANCH  20  21
ATOM     21  C   UNL     1       9.862 -11.037   5.321  1.00  0.00     0.000 C 
BRANCH  21  22
ATOM     22  C   UNL     1       8.539 -11.798   5.110  1.00  0.00     0.000 C 
BRANCH  22  23
ATOM     23  C   UNL     1       7.446 -11.519   6.162  1.00  0.00     0.000 C 
BRANCH  23  24
ATOM     24  C   UNL     1       6.237 -10.710   5.655  1.00  0.00    -0.000 C 
BRANCH  24  25
ATOM     25  C   UNL     1       5.447 -10.042   6.793  1.00  0.00    -0.000 C 
BRANCH  25  26
ATOM     26  C   UNL     1       5.046 -11.030   7.903  1.00  0.00    -0.000 C 
BRANCH  26  27
ATOM     27  C   UNL     1       3.535 -11.098   8.206  1.00  0.00    -0.000 C 
BRANCH  27  28
ATOM     28  C   UNL     1       3.171 -11.146   9.703  1.00  0.00    -0.000 C 
BRANCH  28  29
ATOM     29  C   UNL     1       1.676 -10.934  10.017  1.00  0.00    -0.000 C 
BRANCH  29  30
ATOM     30  C   UNL     1       1.362  -9.701  10.885  1.00  0.00    -0.000 C 
BRANCH  30  31
ATOM     31  C   UNL     1       1.916  -9.819  12.311  1.00  0.00    -0.003 C 
ATOM     32  C   UNL     1       2.209  -8.443  12.902  1.00  0.00     0.004 C 
ENDBRANCH  30  31
ENDBRANCH  29  30
ENDBRANCH  28  29
ENDBRANCH  27  28
ENDBRANCH  26  27
ENDBRANCH  25  26
ENDBRANCH  24  25
ENDBRANCH  23  24
ENDBRANCH  22  23
ENDBRANCH  21  22
ENDBRANCH  20  21
ENDBRANCH  19  20
ENDBRANCH  18  19
ENDBRANCH   1  18
TORSDOF 28
ENDMDL
MODEL 3
REMARK VINA RESULT:    21.669      2.207      3.315
REMARK INTER + INTRA:          55.868
REMARK INTER:                  54.594
REMARK INTRA:                   1.274
REMARK UNBOUND:                -1.270
REMARK SMILES CCCCCCCCCCCCCCCCCCCCCCCCCCCCCC(=O)[O-]
REMARK SMILES IDX 16 1 17 2 18 3 19 4 20 5 21 6 22 7 23 8 24 9 25 10 26 11
REMARK SMILES IDX 27 12 28 13 29 14 30 15 31 16 32 17 15 18 14 19 13 20 12 21
REMARK SMILES IDX 11 22 10 23 9 24 8 25 7 26 6 27 5 28 4 29 3 30 2 31 1 32
REMARK H PARENT
REMARK Flexibility Score: inf
ROOT
ATOM      1  C   UNL     1      10.664 -10.850   5.980  1.00  0.00     0.000 C 
ENDROOT
BRANCH   1   2
ATOM      2  C   UNL     1      10.740 -12.352   5.646  1.00  0.00     0.000 C 
BRANCH   2   3
ATOM      3  C   UNL     1       9.407 -13.007   5.234  1.00  0.00     0.000 C 
BRANCH   3   4
ATOM      4  C   UNL     1       9.563 -14.393   4.571  1.00  0.00     0.000 C 
BRANCH   4   5
ATOM      5  C   UNL     1      10.798 -15.164   5.073  1.00  0.00     0.000 C 
BRANCH   5   6
ATOM      6  C   UNL     1      11.952 -14.238   5.490  1.00  0.00     0.000 C 
BRANCH   6   7
ATOM      7  C   UNL     1      13.273 -14.996   5.711  1.00  0.00     0.000 C 
BRANCH   7   8
ATOM      8  C   UNL     1      14.106 -14.409   6.864  1.00  0.00     0.000 C 
BRANCH   8   9
ATOM      9  C   UNL     1      15.575 -14.878   6.916  1.00  0.00     0.000 C 
BRANCH   9  10
ATOM     10  C   UNL     1      15.858 -16.232   6.235  1.00  0.00     0.000 C 
BRANCH  10  11
ATOM     11  C   UNL     1      16.648 -17.236   7.095  1.00  0.00     0.000 C 
BRANCH  11  12
ATOM     12  C   UNL     1      15.741 -18.189   7.888  1.00  0.00     0.000 C 
BRANCH  12  13
ATOM     13  C   UNL     1      14.413 -18.421   7.152  1.00  0.00     0.006 C 
BRANCH  13  14
ATOM     14  C   UNL     1      13.765 -19.759   7.533  1.00  0.00     0.053 C 
BRANCH  14  15
ATOM     15  C   UNL     1      12.544 -20.036   6.710  1.00  0.00     0.041 C 
ATOM     16  O   UNL     1      11.524 -19.305   6.820  1.00  0.00    -0.550 OA
ATOM     17  O   UNL     1      12.524 -21.121   5.839  1.00  0.00    -0.550 OA
ENDBRANCH  14  15
ENDBRANCH  13  14
ENDBRANCH  12  13
ENDBRANCH  11  12
ENDBRANCH  10  11
ENDBRANCH   9  10
ENDBRANCH   8   9
ENDBRANCH   7   8
ENDBRANCH   6   7
ENDBRANCH   5   6
ENDBRANCH   4   5
ENDBRANCH   3   4
ENDBRANCH   2   3
ENDBRANCH   1   2
BRANCH   1  18
ATOM     18  C   UNL     1      11.580  -9.944   5.138  1.00  0.00     0.000 C 
BRANCH  18  19
ATOM     19  C   UNL     1      12.676 -10.723   4.395  1.00  0.00     0.000 C 
BRANCH  19  20
ATOM     20  C   UNL     1      13.829  -9.795   3.987  1.00  0.00     0.000 C 
BRANCH  20  21
ATOM     21  C   UNL     1      14.430 -10.161   2.619  1.00  0.00     0.000 C 
BRANCH  21  22
ATOM     22  C   UNL     1      15.686  -9.356   2.231  1.00  0.00     0.000 C 
BRANCH  22  23
ATOM     23  C   UNL     1      15.774  -7.942   2.842  1.00  0.00     0.000 C 
BRANCH  23  24
ATOM     24  C   UNL     1      15.152  -7.792   4.242  1.00  0.00    -0.000 C 
BRANCH  24  25
ATOM     25  C   UNL     1      15.866  -6.737   5.103  1.00  0.00    -0.000 C 
BRANCH  25  26
ATOM     26  C   UNL     1      14.943  -5.577   5.516  1.00  0.00    -0.000 C 
BRANCH  26  27
ATOM     27  C   UNL     1      15.198  -5.005   6.925  1.00  0.00    -0.000 C 
BRANCH  27  28
ATOM     28  C   UNL     1      16.248  -3.878   6.993  1.00  0.00    -0.000 C 
BRANCH  28  29
ATOM     29  C   UNL     1      15.771  -2.584   7.685  1.00  0.00    -0.000 C 
BRANCH  29  30
ATOM     30  C   UNL     1      16.061  -1.287   6.908  1.00  0.00    -0.000 C 
BRANCH  30  31
ATOM     31  C   UNL     1      15.006  -0.985   5.835  1.00  0.00    -0.003 C 
ATOM     32  C   UNL     1      13.609  -1.366   6.316  1.00  0.00     0.004 C 
ENDBRANCH  30  31
ENDBRANCH  29  30
ENDBRANCH  28  29
ENDBRANCH  27  28
ENDBRANCH  26  27
ENDBRANCH  25  26
ENDBRANCH  24  25
ENDBRANCH  23  24
ENDBRANCH  22  23
ENDBRANCH  21  22
ENDBRANCH  20  21
ENDBRANCH  19  20
ENDBRANCH  18  19
ENDBRANCH   1  18
TORSDOF 28
ENDMDL
MODEL 4
REMARK VINA RESULT:    21.837      1.300      2.018
REMARK INTER + INTRA:          56.313
REMARK INTER:                  57.663
REMARK INTRA:                  -1.351
REMARK UNBOUND:                -1.270
REMARK SMILES CCCCCCCCCCCCCCCCCCCCCCCCCCCCCC(=O)[O-]
REMARK SMILES IDX 16 1 17 2 18 3 19 4 20 5 21 6 22 7 23 8 24 9 25 10 26 11
REMARK SMILES IDX 27 12 28 13 29 14 30 15 31 16 32 17 15 18 14 19 13 20 12 21
REMARK SMILES IDX 11 22 10 23 9 24 8 25 7 26 6 27 5 28 4 29 3 30 2 31 1 32
REMARK H PARENT
REMARK Flexibility Score: inf
ROOT
ATOM      1  C   UNL     1      11.270 -12.157   6.357  1.00  0.00     0.000 C 
ENDROOT
BRANCH   1   2
ATOM      2  C   UNL     1      11.195 -13.529   5.660  1.00  0.00     0.000 C 
BRANCH   2   3
ATOM      3  C   UNL     1       9.805 -13.928   5.129  1.00  0.00     0.000 C 
BRANCH   3   4
ATOM      4  C   UNL     1       9.510 -15.441   5.206  1.00  0.00     0.000 C 
BRANCH   4   5
ATOM      5  C   UNL     1      10.707 -16.310   4.776  1.00  0.00     0.000 C 
BRANCH   5   6
ATOM      6  C   UNL     1      10.454 -17.814   4.972  1.00  0.00     0.000 C 
BRANCH   6   7
ATOM      7  C   UNL     1      11.746 -18.647   4.901  1.00  0.00     0.000 C 
BRANCH   7   8
ATOM      8  C   UNL     1      11.609 -20.010   5.604  1.00  0.00     0.000 C 
BRANCH   8   9
ATOM      9  C   UNL     1      12.138 -20.056   7.053  1.00  0.00     0.000 C 
BRANCH   9  10
ATOM     10  C   UNL     1      13.673 -20.012   7.195  1.00  0.00     0.000 C 
BRANCH  10  11
ATOM     11  C   UNL     1      14.219 -18.785   7.947  1.00  0.00     0.000 C 
BRANCH  11  12
ATOM     12  C   UNL     1      15.676 -18.461   7.583  1.00  0.00     0.000 C 
BRANCH  12  13
ATOM     13  C   UNL     1      15.761 -17.171   6.754  1.00  0.00     0.006 C 
BRANCH  13  14
ATOM     14  C   UNL     1      16.797 -16.187   7.316  1.00  0.00     0.053 C 
BRANCH  14  15
ATOM     15  C   UNL     1      16.407 -14.764   7.052  1.00  0.00     0.041 C 
ATOM     16  O   UNL     1      17.287 -13.905   6.781  1.00  0.00    -0.550 OA
ATOM     17  O   UNL     1      15.072 -14.383   7.134  1.00  0.00    -0.550 OA
ENDBRANCH  14  15
ENDBRANCH  13  14
ENDBRANCH  12  13
ENDBRANCH  11  12
ENDBRANCH  10  11
ENDBRANCH   9  10
ENDBRANCH   8   9
ENDBRANCH   7   8
ENDBRANCH   6   7
ENDBRANCH   5   6
ENDBRANCH   4   5
ENDBRANCH   3   4
ENDBRANCH   2   3
ENDBRANCH   1   2
BRANCH   1  18
ATOM     18  C   UNL     1      10.739 -10.972   5.529  1.00  0.00     0.000 C 
BRANCH  18  19
ATOM     19  C   UNL     1      11.852 -10.020   5.064  1.00  0.00     0.000 C 
BRANCH  19  20
ATOM     20  C   UNL     1      13.080 -10.805   4.583  1.00  0.00     0.000 C 
BRANCH  20  21
ATOM     21  C   UNL     1      13.644 -10.269   3.255  1.00  0.00     0.000 C 
BRANCH  21  22
ATOM     22  C   UNL     1      14.707 -11.170   2.596  1.00  0.00     0.000 C 
BRANCH  22  23
ATOM     23  C   UNL     1      15.943 -10.430   2.045  1.00  0.00     0.000 C 
BRANCH  23  24
ATOM     24  C   UNL     1      15.777  -8.908   1.876  1.00  0.00    -0.000 C 
BRANCH  24  25
ATOM     25  C   UNL     1      17.115  -8.153   1.923  1.00  0.00    -0.000 C 
BRANCH  25  26
ATOM     26  C   UNL     1      17.008  -6.788   2.626  1.00  0.00    -0.000 C 
BRANCH  26  27
ATOM     27  C   UNL     1      15.578  -6.366   3.024  1.00  0.00    -0.000 C 
BRANCH  27  28
ATOM     28  C   UNL     1      15.009  -7.078   4.267  1.00  0.00    -0.000 C 
BRANCH  28  29
ATOM     29  C   UNL     1      15.874  -6.960   5.538  1.00  0.00    -0.000 C 
BRANCH  29  30
ATOM     30  C   UNL     1      17.007  -5.920   5.460  1.00  0.00    -0.000 C 
BRANCH  30  31
ATOM     31  C   UNL     1      16.935  -4.874   6.581  1.00  0.00    -0.003 C 
ATOM     32  C   UNL     1      15.493  -4.633   7.016  1.00  0.00     0.004 C 
ENDBRANCH  30  31
ENDBRANCH  29  30
ENDBRANCH  28  29
ENDBRANCH  27  28
ENDBRANCH  26  27
ENDBRANCH  25  26
ENDBRANCH  24  25
ENDBRANCH  23  24
ENDBRANCH  22  23
ENDBRANCH  21  22
ENDBRANCH  20  21
ENDBRANCH  19  20
ENDBRANCH  18  19
ENDBRANCH   1  18
TORSDOF 28
ENDMDL
MODEL 5
REMARK VINA RESULT:    21.869      3.043     10.419
REMARK INTER + INTRA:          56.397
REMARK INTER:                  55.316
REMARK INTRA:                   1.081
REMARK UNBOUND:                -1.270
REMARK SMILES CCCCCCCCCCCCCCCCCCCCCCCCCCCCCC(=O)[O-]
REMARK SMILES IDX 16 1 17 2 18 3 19 4 20 5 21 6 22 7 23 8 24 9 25 10 26 11
REMARK SMILES IDX 27 12 28 13 29 14 30 15 31 16 32 17 15 18 14 19 13 20 12 21
REMARK SMILES IDX 11 22 10 23 9 24 8 25 7 26 6 27 5 28 4 29 3 30 2 31 1 32
REMARK H PARENT
REMARK Flexibility Score: inf
ROOT
ATOM      1  C   UNL     1      11.240 -13.838   5.292  1.00  0.00     0.000 C 
ENDROOT
BRANCH   1   2
ATOM      2  C   UNL     1       9.700 -13.823   5.242  1.00  0.00     0.000 C 
BRANCH   2   3
ATOM      3  C   UNL     1       9.045 -12.435   5.378  1.00  0.00     0.000 C 
BRANCH   3   4
ATOM      4  C   UNL     1       9.992 -11.256   5.066  1.00  0.00     0.000 C 
BRANCH   4   5
ATOM      5  C   UNL     1      11.218 -11.207   5.997  1.00  0.00     0.000 C 
BRANCH   5   6
ATOM      6  C   UNL     1      12.546 -11.406   5.247  1.00  0.00     0.000 C 
BRANCH   6   7
ATOM      7  C   UNL     1      12.645 -10.546   3.975  1.00  0.00     0.000 C 
BRANCH   7   8
ATOM      8  C   UNL     1      14.051 -10.575   3.350  1.00  0.00     0.000 C 
BRANCH   8   9
ATOM      9  C   UNL     1      14.422  -9.331   2.516  1.00  0.00     0.000 C 
BRANCH   9  10
ATOM     10  C   UNL     1      15.867  -9.308   1.977  1.00  0.00     0.000 C 
BRANCH  10  11
ATOM     11  C   UNL     1      16.497  -7.907   1.875  1.00  0.00     0.000 C 
BRANCH  11  12
ATOM     12  C   UNL     1      16.712  -7.248   3.247  1.00  0.00     0.000 C 
BRANCH  12  13
ATOM     13  C   UNL     1      15.375  -6.808   3.860  1.00  0.00     0.006 C 
BRANCH  13  14
ATOM     14  C   UNL     1      15.410  -6.811   5.394  1.00  0.00     0.053 C 
BRANCH  14  15
ATOM     15  C   UNL     1      16.369  -5.790   5.927  1.00  0.00     0.041 C 
ATOM     16  O   UNL     1      17.567  -5.779   5.536  1.00  0.00    -0.550 OA
ATOM     17  O   UNL     1      15.944  -4.867   6.877  1.00  0.00    -0.550 OA
ENDBRANCH  14  15
ENDBRANCH  13  14
ENDBRANCH  12  13
ENDBRANCH  11  12
ENDBRANCH  10  11
ENDBRANCH   9  10
ENDBRANCH   8   9
ENDBRANCH   7   8
ENDBRANCH   6   7
ENDBRANCH   5   6
ENDBRANCH   4   5
ENDBRANCH   3   4
ENDBRANCH   2   3
ENDBRANCH   1   2
BRANCH   1  18
ATOM     18  C   UNL     1      11.891 -15.207   5.024  1.00  0.00     0.000 C 
BRANCH  18  19
ATOM     19  C   UNL     1      13.332 -15.298   5.548  1.00  0.00     0.000 C 
BRANCH  19  20
ATOM     20  C   UNL     1      13.596 -14.227   6.618  1.00  0.00     0.000 C 
BRANCH  20  21
ATOM     21  C   UNL     1      15.020 -14.304   7.196  1.00  0.00     0.000 C 
BRANCH  21  22
ATOM     22  C   UNL     1      16.037 -15.047   6.307  1.00  0.00     0.000 C 
BRANCH  22  23
ATOM     23  C   UNL     1      17.518 -14.739   6.608  1.00  0.00     0.000 C 
BRANCH  23  24
ATOM     24  C   UNL     1      18.530 -15.736   6.012  1.00  0.00    -0.000 C 
BRANCH  24  25
ATOM     25  C   UNL     1      18.676 -17.013   6.856  1.00  0.00    -0.000 C 
BRANCH  25  26
ATOM     26  C   UNL     1      17.427 -17.318   7.702  1.00  0.00    -0.000 C 
BRANCH  26  27
ATOM     27  C   UNL     1      16.334 -18.138   6.986  1.00  0.00    -0.000 C 
BRANCH  27  28
ATOM     28  C   UNL     1      14.922 -18.011   7.589  1.00  0.00    -0.000 C 
BRANCH  28  29
ATOM     29  C   UNL     1      14.124 -19.329   7.664  1.00  0.00    -0.000 C 
BRANCH  29  30
ATOM     30  C   UNL     1      13.137 -19.558   6.504  1.00  0.00    -0.000 C 
BRANCH  30  31
ATOM     31  C   UNL     1      12.455 -20.932   6.563  1.00  0.00    -0.003 C 
ATOM     32  C   UNL     1      11.071 -20.886   5.922  1.00  0.00     0.004 C 
ENDBRANCH  30  31
ENDBRANCH  29  30
ENDBRANCH  28  29
ENDBRANCH  27  28
ENDBRANCH  26  27
ENDBRANCH  25  26
ENDBRANCH  24  25
ENDBRANCH  23  24
ENDBRANCH  22  23
ENDBRANCH  21  22
ENDBRANCH  20  21
ENDBRANCH  19  20
ENDBRANCH  18  19
ENDBRANCH   1  18
TORSDOF 28
ENDMDL
