MODEL 1
REMARK VINA RESULT:    -4.435      0.000      0.000
REMARK INTER + INTRA:          -7.473
REMARK INTER:                  -6.380
REMARK INTRA:                  -1.093
REMARK UNBOUND:                -1.093
REMARK SMILES O=c1cc(-c2ccc(O)c(O)c2)oc2cc(O[C@@H]3O[C@@H](CO)[C@@H](O)[C@@H](O)[C@H]3O)cc(O)c12
REMARK SMILES IDX 17 1 16 2 4 3 3 4 13 5 2 6 14 7 1 8 32 9 15 10 30 11 29 12
REMARK SMILES IDX 5 13 6 14 7 15 8 16 12 17 10 18 9 19 11 21 31 23 18 25 27 26
REMARK SMILES IDX 19 27 25 28 20 29 23 30 28 31 26 33 21 35 22 36 24 38
REMARK H PARENT 9 20 11 22 31 24 28 32 26 34 22 37 24 39
REMARK Flexibility Score: inf
ROOT
ATOM      1  O   UNL     1       9.296   2.756   0.466  1.00  0.00    -0.462 OA
ENDROOT
BRANCH   1   2
ATOM      2  C   UNL     1       8.594   2.138  -0.582  1.00  0.00     0.130 A 
ATOM      3  C   UNL     1       7.557  -1.980  -2.742  1.00  0.00     0.138 A 
ATOM      4  C   UNL     1       6.720  -1.359  -3.681  1.00  0.00     0.100 A 
ATOM      5  O   UNL     1       8.167  -1.236  -1.825  1.00  0.00    -0.456 OA
ATOM      6  C   UNL     1       6.534   0.023  -3.634  1.00  0.00     0.197 A 
ATOM      7  C   UNL     1       8.033   0.083  -1.743  1.00  0.00     0.146 A 
ATOM      8  O   UNL     1       5.734   0.541  -4.455  1.00  0.00    -0.289 OA
ATOM      9  C   UNL     1       7.220   0.794  -2.664  1.00  0.00     0.107 A 
ATOM     10  C   UNL     1       8.708   0.757  -0.723  1.00  0.00     0.094 A 
ATOM     11  C   UNL     1       7.134   2.213  -2.539  1.00  0.00     0.134 A 
ATOM     12  C   UNL     1       7.797   2.856  -1.487  1.00  0.00     0.093 A 
BRANCH   3  13
ATOM     13  C   UNL     1       7.790  -3.450  -2.736  1.00  0.00     0.021 A 
ATOM     14  C   UNL     1       7.157  -4.308  -3.656  1.00  0.00     0.016 A 
ATOM     15  C   UNL     1       7.386  -5.685  -3.614  1.00  0.00     0.051 A 
ATOM     16  C   UNL     1       8.241  -6.232  -2.651  1.00  0.00     0.157 A 
ATOM     17  C   UNL     1       8.638  -4.009  -1.764  1.00  0.00     0.062 A 
ATOM     18  C   UNL     1       8.868  -5.388  -1.719  1.00  0.00     0.158 A 
BRANCH  16  19
ATOM     19  O   UNL     1       8.468  -7.606  -2.613  1.00  0.00    -0.504 OA
ATOM     20  H   UNL     1       8.326  -8.145  -1.768  1.00  0.00     0.293 HD
ENDBRANCH  16  19
BRANCH  18  21
ATOM     21  O   UNL     1       9.718  -5.901  -0.741  1.00  0.00    -0.504 OA
ATOM     22  H   UNL     1       9.377  -6.471   0.023  1.00  0.00     0.293 HD
ENDBRANCH  18  21
ENDBRANCH   3  13
BRANCH  11  23
ATOM     23  O   UNL     1       6.434   3.039  -3.427  1.00  0.00    -0.507 OA
ATOM     24  H   UNL     1       5.584   2.790  -3.909  1.00  0.00     0.293 HD
ENDBRANCH  11  23
ENDBRANCH   1   2
BRANCH   1  25
ATOM     25  C   UNL     1       8.705   3.568   1.486  1.00  0.00     0.339 C 
ATOM     26  C   UNL     1       7.584   2.793   2.203  1.00  0.00     0.214 C 
ATOM     27  O   UNL     1       9.681   4.041   2.406  1.00  0.00    -0.332 OA
ATOM     28  C   UNL     1       8.187   1.654   3.055  1.00  0.00     0.180 C 
ATOM     29  C   UNL     1      10.327   2.970   3.076  1.00  0.00     0.179 C 
ATOM     30  C   UNL     1       9.320   2.183   3.949  1.00  0.00     0.177 C 
BRANCH  26  31
ATOM     31  O   UNL     1       6.854   3.683   3.008  1.00  0.00    -0.384 OA
ATOM     32  H   UNL     1       6.887   4.569   2.564  1.00  0.00     0.211 HD
ENDBRANCH  26  31
BRANCH  28  33
ATOM     33  O   UNL     1       7.201   1.048   3.849  1.00  0.00    -0.387 OA
ATOM     34  H   UNL     1       6.639   1.778   4.215  1.00  0.00     0.211 HD
ENDBRANCH  28  33
BRANCH  29  35
ATOM     35  C   UNL     1      11.482   3.541   3.905  1.00  0.00     0.191 C 
BRANCH  35  36
ATOM     36  O   UNL     1      11.108   4.760   4.485  1.00  0.00    -0.394 OA
ATOM     37  H   UNL     1      10.183   4.939   4.174  1.00  0.00     0.210 HD
ENDBRANCH  35  36
ENDBRANCH  29  35
BRANCH  30  38
ATOM     38  O   UNL     1       8.785   3.012   4.952  1.00  0.00    -0.387 OA
ATOM     39  H   UNL     1       8.929   3.951   4.664  1.00  0.00     0.211 HD
ENDBRANCH  30  38
ENDBRANCH   1  25
TORSDOF 11
ENDMDL
MODEL 2
REMARK VINA RESULT:    -4.409      1.978      3.150
REMARK INTER + INTRA:          -7.435
REMARK INTER:                  -6.423
REMARK INTRA:                  -1.012
REMARK UNBOUND:                -1.093
REMARK SMILES O=c1cc(-c2ccc(O)c(O)c2)oc2cc(O[C@@H]3O[C@@H](CO)[C@@H](O)[C@@H](O)[C@H]3O)cc(O)c12
REMARK SMILES IDX 17 1 16 2 4 3 3 4 13 5 2 6 14 7 1 8 32 9 15 10 30 11 29 12
REMARK SMILES IDX 5 13 6 14 7 15 8 16 12 17 10 18 9 19 11 21 31 23 18 25 27 26
REMARK SMILES IDX 19 27 25 28 20 29 23 30 28 31 26 33 21 35 22 36 24 38
REMARK H PARENT 9 20 11 22 31 24 28 32 26 34 22 37 24 39
REMARK Flexibility Score: inf
ROOT
ATOM      1  O   UNL     1       8.010   3.379  -0.353  1.00  0.00    -0.462 OA
ENDROOT
BRANCH   1   2
ATOM      2  C   UNL     1       7.625   2.446  -1.329  1.00  0.00     0.130 A 
ATOM      3  C   UNL     1       7.670  -2.136  -2.638  1.00  0.00     0.138 A 
ATOM      4  C   UNL     1       6.943  -1.882  -3.810  1.00  0.00     0.100 A 
ATOM      5  O   UNL     1       7.972  -1.124  -1.830  1.00  0.00    -0.456 OA
ATOM      6  C   UNL     1       6.539  -0.579  -4.105  1.00  0.00     0.197 A 
ATOM      7  C   UNL     1       7.622   0.135  -2.069  1.00  0.00     0.146 A 
ATOM      8  O   UNL     1       5.840  -0.395  -5.135  1.00  0.00    -0.289 OA
ATOM      9  C   UNL     1       6.900   0.483  -3.240  1.00  0.00     0.107 A 
ATOM     10  C   UNL     1       7.976   1.112  -1.136  1.00  0.00     0.094 A 
ATOM     11  C   UNL     1       6.573   1.856  -3.454  1.00  0.00     0.134 A 
ATOM     12  C   UNL     1       6.914   2.807  -2.485  1.00  0.00     0.093 A 
BRANCH   3  13
ATOM     13  C   UNL     1       8.123  -3.503  -2.265  1.00  0.00     0.021 A 
ATOM     14  C   UNL     1       7.791  -4.634  -3.037  1.00  0.00     0.016 A 
ATOM     15  C   UNL     1       8.220  -5.906  -2.650  1.00  0.00     0.051 A 
ATOM     16  C   UNL     1       8.977  -6.075  -1.486  1.00  0.00     0.157 A 
ATOM     17  C   UNL     1       8.874  -3.684  -1.091  1.00  0.00     0.062 A 
ATOM     18  C   UNL     1       9.303  -4.957  -0.701  1.00  0.00     0.158 A 
BRANCH  16  19
ATOM     19  O   UNL     1       9.403  -7.346  -1.105  1.00  0.00    -0.504 OA
ATOM     20  H   UNL     1       9.292  -8.148  -1.713  1.00  0.00     0.293 HD
ENDBRANCH  16  19
BRANCH  18  21
ATOM     21  O   UNL     1      10.047  -5.092   0.469  1.00  0.00    -0.504 OA
ATOM     22  H   UNL     1       9.618  -5.073   1.386  1.00  0.00     0.293 HD
ENDBRANCH  18  21
ENDBRANCH   3  13
BRANCH  11  23
ATOM     23  O   UNL     1       5.936   2.343  -4.601  1.00  0.00    -0.507 OA
ATOM     24  H   UNL     1       5.871   3.314  -4.864  1.00  0.00     0.293 HD
ENDBRANCH  11  23
ENDBRANCH   1   2
BRANCH   1  25
ATOM     25  C   UNL     1       7.152   3.907   0.664  1.00  0.00     0.339 C 
ATOM     26  C   UNL     1       7.977   4.314   1.899  1.00  0.00     0.214 C 
ATOM     27  O   UNL     1       6.375   4.994   0.177  1.00  0.00    -0.332 OA
ATOM     28  C   UNL     1       8.839   5.555   1.577  1.00  0.00     0.180 C 
ATOM     29  C   UNL     1       7.194   6.071  -0.250  1.00  0.00     0.179 C 
ATOM     30  C   UNL     1       7.985   6.663   0.941  1.00  0.00     0.177 C 
BRANCH  26  31
ATOM     31  O   UNL     1       7.103   4.580   2.966  1.00  0.00    -0.384 OA
ATOM     32  H   UNL     1       6.860   5.540   2.910  1.00  0.00     0.211 HD
ENDBRANCH  26  31
BRANCH  28  33
ATOM     33  O   UNL     1       9.464   6.044   2.735  1.00  0.00    -0.387 OA
ATOM     34  H   UNL     1       9.986   6.842   2.462  1.00  0.00     0.211 HD
ENDBRANCH  28  33
BRANCH  29  35
ATOM     35  C   UNL     1       6.306   7.119  -0.928  1.00  0.00     0.191 C 
BRANCH  35  36
ATOM     36  O   UNL     1       5.066   7.197  -0.280  1.00  0.00    -0.394 OA
ATOM     37  H   UNL     1       4.942   6.327   0.180  1.00  0.00     0.210 HD
ENDBRANCH  35  36
ENDBRANCH  29  35
BRANCH  30  38
ATOM     38  O   UNL     1       7.105   7.193   1.902  1.00  0.00    -0.387 OA
ATOM     39  H   UNL     1       7.382   8.132   2.068  1.00  0.00     0.211 HD
ENDBRANCH  30  38
ENDBRANCH   1  25
TORSDOF 11
ENDMDL
MODEL 3
REMARK VINA RESULT:    -4.407      1.955      3.111
REMARK INTER + INTRA:          -7.432
REMARK INTER:                  -6.472
REMARK INTRA:                  -0.960
REMARK UNBOUND:                -1.093
REMARK SMILES O=c1cc(-c2ccc(O)c(O)c2)oc2cc(O[C@@H]3O[C@@H](CO)[C@@H](O)[C@@H](O)[C@H]3O)cc(O)c12
REMARK SMILES IDX 17 1 16 2 4 3 3 4 13 5 2 6 14 7 1 8 32 9 15 10 30 11 29 12
REMARK SMILES IDX 5 13 6 14 7 15 8 16 12 17 10 18 9 19 11 21 31 23 18 25 27 26
REMARK SMILES IDX 19 27 25 28 20 29 23 30 28 31 26 33 21 35 22 36 24 38
REMARK H PARENT 9 20 11 22 31 24 28 32 26 34 22 37 24 39
REMARK Flexibility Score: inf
ROOT
ATOM      1  O   UNL     1       7.609   3.677  -0.988  1.00  0.00    -0.462 OA
ENDROOT
BRANCH   1   2
ATOM      2  C   UNL     1       7.240   2.674  -1.899  1.00  0.00     0.130 A 
ATOM      3  C   UNL     1       7.412  -1.976  -2.926  1.00  0.00     0.138 A 
ATOM      4  C   UNL     1       6.660  -1.817  -4.099  1.00  0.00     0.100 A 
ATOM      5  O   UNL     1       7.693  -0.908  -2.186  1.00  0.00    -0.456 OA
ATOM      6  C   UNL     1       6.210  -0.548  -4.466  1.00  0.00     0.197 A 
ATOM      7  C   UNL     1       7.300   0.323  -2.496  1.00  0.00     0.146 A 
ATOM      8  O   UNL     1       5.491  -0.449  -5.493  1.00  0.00    -0.289 OA
ATOM      9  C   UNL     1       6.550   0.576  -3.674  1.00  0.00     0.107 A 
ATOM     10  C   UNL     1       7.637   1.366  -1.631  1.00  0.00     0.094 A 
ATOM     11  C   UNL     1       6.176   1.922  -3.965  1.00  0.00     0.134 A 
ATOM     12  C   UNL     1       6.501   2.941  -3.062  1.00  0.00     0.093 A 
BRANCH   3  13
ATOM     13  C   UNL     1       7.913  -3.303  -2.478  1.00  0.00     0.021 A 
ATOM     14  C   UNL     1       8.724  -3.447  -1.335  1.00  0.00     0.016 A 
ATOM     15  C   UNL     1       9.190  -4.706  -0.950  1.00  0.00     0.051 A 
ATOM     16  C   UNL     1       8.865  -5.841  -1.701  1.00  0.00     0.157 A 
ATOM     17  C   UNL     1       7.602  -4.448  -3.233  1.00  0.00     0.062 A 
ATOM     18  C   UNL     1       8.069  -5.710  -2.850  1.00  0.00     0.158 A 
BRANCH  16  19
ATOM     19  O   UNL     1       9.331  -7.096  -1.312  1.00  0.00    -0.504 OA
ATOM     20  H   UNL     1       9.983  -7.620  -1.883  1.00  0.00     0.293 HD
ENDBRANCH  16  19
BRANCH  18  21
ATOM     21  O   UNL     1       7.736  -6.819  -3.626  1.00  0.00    -0.504 OA
ATOM     22  H   UNL     1       8.290  -7.666  -3.621  1.00  0.00     0.293 HD
ENDBRANCH  18  21
ENDBRANCH   3  13
BRANCH  11  23
ATOM     23  O   UNL     1       5.507   2.318  -5.129  1.00  0.00    -0.507 OA
ATOM     24  H   UNL     1       4.602   2.760  -5.160  1.00  0.00     0.293 HD
ENDBRANCH  11  23
ENDBRANCH   1   2
BRANCH   1  25
ATOM     25  C   UNL     1       6.866   4.042   0.180  1.00  0.00     0.339 C 
ATOM     26  C   UNL     1       7.695   3.767   1.448  1.00  0.00     0.214 C 
ATOM     27  O   UNL     1       6.438   5.397   0.123  1.00  0.00    -0.332 OA
ATOM     28  C   UNL     1       8.876   4.760   1.536  1.00  0.00     0.180 C 
ATOM     29  C   UNL     1       7.540   6.289   0.057  1.00  0.00     0.179 C 
ATOM     30  C   UNL     1       8.389   6.205   1.349  1.00  0.00     0.177 C 
BRANCH  26  31
ATOM     31  O   UNL     1       6.864   3.884   2.574  1.00  0.00    -0.384 OA
ATOM     32  H   UNL     1       6.568   2.967   2.811  1.00  0.00     0.211 HD
ENDBRANCH  26  31
BRANCH  28  33
ATOM     33  O   UNL     1       9.540   4.639   2.767  1.00  0.00    -0.387 OA
ATOM     34  H   UNL     1       9.939   3.732   2.788  1.00  0.00     0.211 HD
ENDBRANCH  28  33
BRANCH  29  35
ATOM     35  C   UNL     1       7.006   7.704  -0.188  1.00  0.00     0.191 C 
BRANCH  35  36
ATOM     36  O   UNL     1       5.793   7.890   0.487  1.00  0.00    -0.394 OA
ATOM     37  H   UNL     1       5.461   8.783   0.213  1.00  0.00     0.210 HD
ENDBRANCH  35  36
ENDBRANCH  29  35
BRANCH  30  38
ATOM     38  O   UNL     1       7.628   6.597   2.465  1.00  0.00    -0.387 OA
ATOM     39  H   UNL     1       7.806   5.939   3.187  1.00  0.00     0.211 HD
ENDBRANCH  30  38
ENDBRANCH   1  25
TORSDOF 11
ENDMDL
MODEL 4
REMARK VINA RESULT:    -4.378      3.255      4.619
REMARK INTER + INTRA:          -7.391
REMARK INTER:                  -6.407
REMARK INTRA:                  -0.984
REMARK UNBOUND:                -1.093
REMARK SMILES O=c1cc(-c2ccc(O)c(O)c2)oc2cc(O[C@@H]3O[C@@H](CO)[C@@H](O)[C@@H](O)[C@H]3O)cc(O)c12
REMARK SMILES IDX 17 1 16 2 4 3 3 4 13 5 2 6 14 7 1 8 32 9 15 10 30 11 29 12
REMARK SMILES IDX 5 13 6 14 7 15 8 16 12 17 10 18 9 19 11 21 31 23 18 25 27 26
REMARK SMILES IDX 19 27 25 28 20 29 23 30 28 31 26 33 21 35 22 36 24 38
REMARK H PARENT 9 20 11 22 31 24 28 32 26 34 22 37 24 39
REMARK Flexibility Score: inf
ROOT
ATOM      1  O   UNL     1       8.698   2.320   2.521  1.00  0.00    -0.462 OA
ENDROOT
BRANCH   1   2
ATOM      2  C   UNL     1       8.760   1.180   1.704  1.00  0.00     0.130 A 
ATOM      3  C   UNL     1       8.833  -3.583   1.585  1.00  0.00     0.138 A 
ATOM      4  C   UNL     1       8.882  -3.618   0.183  1.00  0.00     0.100 A 
ATOM      5  O   UNL     1       8.803  -2.407   2.203  1.00  0.00    -0.456 OA
ATOM      6  C   UNL     1       8.888  -2.424  -0.539  1.00  0.00     0.197 A 
ATOM      7  C   UNL     1       8.818  -1.242   1.565  1.00  0.00     0.146 A 
ATOM      8  O   UNL     1       8.875  -2.491  -1.795  1.00  0.00    -0.289 OA
ATOM      9  C   UNL     1       8.884  -1.185   0.148  1.00  0.00     0.107 A 
ATOM     10  C   UNL     1       8.760  -0.069   2.321  1.00  0.00     0.094 A 
ATOM     11  C   UNL     1       8.920   0.096  -0.479  1.00  0.00     0.134 A 
ATOM     12  C   UNL     1       8.829   1.253   0.304  1.00  0.00     0.093 A 
BRANCH   3  13
ATOM     13  C   UNL     1       8.818  -4.821   2.409  1.00  0.00     0.021 A 
ATOM     14  C   UNL     1       9.208  -4.820   3.763  1.00  0.00     0.016 A 
ATOM     15  C   UNL     1       9.195  -6.004   4.505  1.00  0.00     0.051 A 
ATOM     16  C   UNL     1       8.805  -7.208   3.910  1.00  0.00     0.157 A 
ATOM     17  C   UNL     1       8.439  -6.039   1.817  1.00  0.00     0.062 A 
ATOM     18  C   UNL     1       8.428  -7.226   2.558  1.00  0.00     0.158 A 
BRANCH  16  19
ATOM     19  O   UNL     1       8.794  -8.386   4.655  1.00  0.00    -0.504 OA
ATOM     20  H   UNL     1       9.534  -9.073   4.575  1.00  0.00     0.293 HD
ENDBRANCH  16  19
BRANCH  18  21
ATOM     21  O   UNL     1       8.044  -8.411   1.933  1.00  0.00    -0.504 OA
ATOM     22  H   UNL     1       8.256  -9.319   2.324  1.00  0.00     0.293 HD
ENDBRANCH  18  21
ENDBRANCH   3  13
BRANCH  11  23
ATOM     23  O   UNL     1       9.065   0.292  -1.857  1.00  0.00    -0.507 OA
ATOM     24  H   UNL     1       9.659   0.983  -2.289  1.00  0.00     0.293 HD
ENDBRANCH  11  23
ENDBRANCH   1   2
BRANCH   1  25
ATOM     25  C   UNL     1       7.506   3.053   2.823  1.00  0.00     0.339 C 
ATOM     26  C   UNL     1       7.668   3.811   4.154  1.00  0.00     0.214 C 
ATOM     27  O   UNL     1       7.154   3.935   1.763  1.00  0.00    -0.332 OA
ATOM     28  C   UNL     1       8.682   4.965   3.989  1.00  0.00     0.180 C 
ATOM     29  C   UNL     1       8.167   4.901   1.531  1.00  0.00     0.179 C 
ATOM     30  C   UNL     1       8.336   5.823   2.762  1.00  0.00     0.177 C 
BRANCH  26  31
ATOM     31  O   UNL     1       6.416   4.303   4.556  1.00  0.00    -0.384 OA
ATOM     32  H   UNL     1       5.788   3.535   4.553  1.00  0.00     0.211 HD
ENDBRANCH  26  31
BRANCH  28  33
ATOM     33  O   UNL     1       8.714   5.770   5.138  1.00  0.00    -0.387 OA
ATOM     34  H   UNL     1       9.491   5.470   5.675  1.00  0.00     0.211 HD
ENDBRANCH  28  33
BRANCH  29  35
ATOM     35  C   UNL     1       7.806   5.689   0.268  1.00  0.00     0.191 C 
BRANCH  35  36
ATOM     36  O   UNL     1       6.442   6.006   0.266  1.00  0.00    -0.394 OA
ATOM     37  H   UNL     1       6.388   6.988   0.136  1.00  0.00     0.210 HD
ENDBRANCH  35  36
ENDBRANCH  29  35
BRANCH  30  38
ATOM     38  O   UNL     1       7.151   6.542   3.006  1.00  0.00    -0.387 OA
ATOM     39  H   UNL     1       6.419   5.878   3.095  1.00  0.00     0.211 HD
ENDBRANCH  30  38
ENDBRANCH   1  25
TORSDOF 11
ENDMDL
MODEL 5
REMARK VINA RESULT:    -4.276      4.231     10.678
REMARK INTER + INTRA:          -7.244
REMARK INTER:                  -6.169
REMARK INTRA:                  -1.075
REMARK UNBOUND:                -1.093
REMARK SMILES O=c1cc(-c2ccc(O)c(O)c2)oc2cc(O[C@@H]3O[C@@H](CO)[C@@H](O)[C@@H](O)[C@H]3O)cc(O)c12
REMARK SMILES IDX 17 1 16 2 4 3 3 4 13 5 2 6 14 7 1 8 32 9 15 10 30 11 29 12
REMARK SMILES IDX 5 13 6 14 7 15 8 16 12 17 10 18 9 19 11 21 31 23 18 25 27 26
REMARK SMILES IDX 19 27 25 28 20 29 23 30 28 31 26 33 21 35 22 36 24 38
REMARK H PARENT 9 20 11 22 31 24 28 32 26 34 22 37 24 39
REMARK Flexibility Score: inf
ROOT
ATOM      1  O   UNL     1       6.705  -7.445  -4.156  1.00  0.00    -0.462 OA
ENDROOT
BRANCH   1   2
ATOM      2  C   UNL     1       7.366  -6.474  -3.386  1.00  0.00     0.130 A 
ATOM      3  C   UNL     1       7.800  -1.826  -2.431  1.00  0.00     0.138 A 
ATOM      4  C   UNL     1       8.771  -2.047  -1.443  1.00  0.00     0.100 A 
ATOM      5  O   UNL     1       7.292  -2.866  -3.085  1.00  0.00    -0.456 OA
ATOM      6  C   UNL     1       9.180  -3.350  -1.154  1.00  0.00     0.197 A 
ATOM      7  C   UNL     1       7.654  -4.123  -2.857  1.00  0.00     0.146 A 
ATOM      8  O   UNL     1      10.010  -3.517  -0.224  1.00  0.00    -0.289 OA
ATOM      9  C   UNL     1       8.642  -4.436  -1.887  1.00  0.00     0.107 A 
ATOM     10  C   UNL     1       7.035  -5.136  -3.592  1.00  0.00     0.094 A 
ATOM     11  C   UNL     1       9.006  -5.803  -1.704  1.00  0.00     0.134 A 
ATOM     12  C   UNL     1       8.344  -6.799  -2.433  1.00  0.00     0.093 A 
BRANCH   3  13
ATOM     13  C   UNL     1       7.318  -0.462  -2.779  1.00  0.00     0.021 A 
ATOM     14  C   UNL     1       7.674   0.670  -2.020  1.00  0.00     0.016 A 
ATOM     15  C   UNL     1       7.192   1.935  -2.366  1.00  0.00     0.051 A 
ATOM     16  C   UNL     1       6.341   2.093  -3.465  1.00  0.00     0.157 A 
ATOM     17  C   UNL     1       6.453  -0.296  -3.875  1.00  0.00     0.062 A 
ATOM     18  C   UNL     1       5.968   0.970  -4.221  1.00  0.00     0.158 A 
BRANCH  16  19
ATOM     19  O   UNL     1       5.864   3.357  -3.807  1.00  0.00    -0.504 OA
ATOM     20  H   UNL     1       5.032   3.744  -3.378  1.00  0.00     0.293 HD
ENDBRANCH  16  19
BRANCH  18  21
ATOM     21  O   UNL     1       5.114   1.091  -5.316  1.00  0.00    -0.504 OA
ATOM     22  H   UNL     1       5.456   1.308  -6.244  1.00  0.00     0.293 HD
ENDBRANCH  18  21
ENDBRANCH   3  13
BRANCH  11  23
ATOM     23  O   UNL     1      10.018  -6.239  -0.841  1.00  0.00    -0.507 OA
ATOM     24  H   UNL     1      10.334  -7.191  -0.746  1.00  0.00     0.293 HD
ENDBRANCH  11  23
ENDBRANCH   1   2
BRANCH   1  25
ATOM     25  C   UNL     1       5.793  -8.421  -3.643  1.00  0.00     0.339 C 
ATOM     26  C   UNL     1       4.640  -7.731  -2.891  1.00  0.00     0.214 C 
ATOM     27  O   UNL     1       5.306  -9.272  -4.673  1.00  0.00    -0.332 OA
ATOM     28  C   UNL     1       3.728  -6.982  -3.888  1.00  0.00     0.180 C 
ATOM     29  C   UNL     1       4.593  -8.541  -5.659  1.00  0.00     0.179 C 
ATOM     30  C   UNL     1       3.321  -7.901  -5.051  1.00  0.00     0.177 C 
BRANCH  26  31
ATOM     31  O   UNL     1       3.910  -8.700  -2.182  1.00  0.00    -0.384 OA
ATOM     32  H   UNL     1       3.276  -8.213  -1.595  1.00  0.00     0.211 HD
ENDBRANCH  26  31
BRANCH  28  33
ATOM     33  O   UNL     1       2.580  -6.493  -3.246  1.00  0.00    -0.387 OA
ATOM     34  H   UNL     1       2.445  -5.566  -3.570  1.00  0.00     0.211 HD
ENDBRANCH  28  33
BRANCH  29  35
ATOM     35  C   UNL     1       4.262  -9.485  -6.819  1.00  0.00     0.191 C 
BRANCH  35  36
ATOM     36  O   UNL     1       3.959 -10.764  -6.334  1.00  0.00    -0.394 OA
ATOM     37  H   UNL     1       3.087 -10.680  -5.868  1.00  0.00     0.210 HD
ENDBRANCH  35  36
ENDBRANCH  29  35
BRANCH  30  38
ATOM     38  O   UNL     1       2.443  -8.896  -4.584  1.00  0.00    -0.387 OA
ATOM     39  H   UNL     1       2.216  -9.474  -5.359  1.00  0.00     0.211 HD
ENDBRANCH  30  38
ENDBRANCH   1  25
TORSDOF 11
ENDMDL
MODEL 6
REMARK VINA RESULT:    -4.262      2.919      8.424
REMARK INTER + INTRA:          -7.224
REMARK INTER:                  -6.304
REMARK INTRA:                  -0.920
REMARK UNBOUND:                -1.093
REMARK SMILES O=c1cc(-c2ccc(O)c(O)c2)oc2cc(O[C@@H]3O[C@@H](CO)[C@@H](O)[C@@H](O)[C@H]3O)cc(O)c12
REMARK SMILES IDX 17 1 16 2 4 3 3 4 13 5 2 6 14 7 1 8 32 9 15 10 30 11 29 12
REMARK SMILES IDX 5 13 6 14 7 15 8 16 12 17 10 18 9 19 11 21 31 23 18 25 27 26
REMARK SMILES IDX 19 27 25 28 20 29 23 30 28 31 26 33 21 35 22 36 24 38
REMARK H PARENT 9 20 11 22 31 24 28 32 26 34 22 37 24 39
REMARK Flexibility Score: inf
ROOT
ATOM      1  O   UNL     1       9.509  -7.009  -0.772  1.00  0.00    -0.462 OA
ENDROOT
BRANCH   1   2
ATOM      2  C   UNL     1       8.813  -6.212  -1.695  1.00  0.00     0.130 A 
ATOM      3  C   UNL     1       7.462  -1.791  -2.854  1.00  0.00     0.138 A 
ATOM      4  C   UNL     1       6.816  -2.219  -4.023  1.00  0.00     0.100 A 
ATOM      5  O   UNL     1       8.056  -2.691  -2.075  1.00  0.00    -0.456 OA
ATOM      6  C   UNL     1       6.815  -3.574  -4.356  1.00  0.00     0.197 A 
ATOM      7  C   UNL     1       8.075  -3.992  -2.340  1.00  0.00     0.146 A 
ATOM      8  O   UNL     1       6.275  -3.917  -5.440  1.00  0.00    -0.289 OA
ATOM      9  C   UNL     1       7.431  -4.513  -3.493  1.00  0.00     0.107 A 
ATOM     10  C   UNL     1       8.750  -4.840  -1.460  1.00  0.00     0.094 A 
ATOM     11  C   UNL     1       7.466  -5.923  -3.712  1.00  0.00     0.134 A 
ATOM     12  C   UNL     1       8.177  -6.743  -2.828  1.00  0.00     0.093 A 
BRANCH   3  13
ATOM     13  C   UNL     1       7.504  -0.361  -2.448  1.00  0.00     0.021 A 
ATOM     14  C   UNL     1       6.804   0.635  -3.156  1.00  0.00     0.016 A 
ATOM     15  C   UNL     1       6.876   1.972  -2.757  1.00  0.00     0.051 A 
ATOM     16  C   UNL     1       7.653   2.341  -1.654  1.00  0.00     0.157 A 
ATOM     17  C   UNL     1       8.292   0.021  -1.348  1.00  0.00     0.062 A 
ATOM     18  C   UNL     1       8.367   1.359  -0.947  1.00  0.00     0.158 A 
BRANCH  16  19
ATOM     19  O   UNL     1       7.722   3.675  -1.259  1.00  0.00    -0.504 OA
ATOM     20  H   UNL     1       8.273   4.354  -1.771  1.00  0.00     0.293 HD
ENDBRANCH  16  19
BRANCH  18  21
ATOM     21  O   UNL     1       9.158   1.694   0.150  1.00  0.00    -0.504 OA
ATOM     22  H   UNL     1       8.823   1.610   1.101  1.00  0.00     0.293 HD
ENDBRANCH  18  21
ENDBRANCH   3  13
BRANCH  11  23
ATOM     23  O   UNL     1       6.806  -6.571  -4.762  1.00  0.00    -0.507 OA
ATOM     24  H   UNL     1       7.156  -7.372  -5.265  1.00  0.00     0.293 HD
ENDBRANCH  11  23
ENDBRANCH   1   2
BRANCH   1  25
ATOM     25  C   UNL     1       8.901  -7.812   0.245  1.00  0.00     0.339 C 
ATOM     26  C   UNL     1       9.910  -8.843   0.784  1.00  0.00     0.214 C 
ATOM     27  O   UNL     1       8.368  -7.011   1.293  1.00  0.00    -0.332 OA
ATOM     28  C   UNL     1      11.013  -8.132   1.599  1.00  0.00     0.180 C 
ATOM     29  C   UNL     1       9.380  -6.253   1.936  1.00  0.00     0.179 C 
ATOM     30  C   UNL     1      10.396  -7.184   2.640  1.00  0.00     0.177 C 
BRANCH  26  31
ATOM     31  O   UNL     1       9.228  -9.778   1.581  1.00  0.00    -0.384 OA
ATOM     32  H   UNL     1       9.652 -10.660   1.420  1.00  0.00     0.211 HD
ENDBRANCH  26  31
BRANCH  28  33
ATOM     33  O   UNL     1      11.841  -9.067   2.241  1.00  0.00    -0.387 OA
ATOM     34  H   UNL     1      11.329  -9.419   3.014  1.00  0.00     0.211 HD
ENDBRANCH  28  33
BRANCH  29  35
ATOM     35  C   UNL     1       8.713  -5.284   2.918  1.00  0.00     0.191 C 
BRANCH  35  36
ATOM     36  O   UNL     1       7.668  -4.596   2.287  1.00  0.00    -0.394 OA
ATOM     37  H   UNL     1       7.616  -4.962   1.367  1.00  0.00     0.210 HD
ENDBRANCH  35  36
ENDBRANCH  29  35
BRANCH  30  38
ATOM     38  O   UNL     1       9.762  -7.933   3.648  1.00  0.00    -0.387 OA
ATOM     39  H   UNL     1      10.418  -8.606   3.969  1.00  0.00     0.211 HD
ENDBRANCH  30  38
ENDBRANCH   1  25
TORSDOF 11
ENDMDL
MODEL 7
REMARK VINA RESULT:    -4.257      2.761      8.811
REMARK INTER + INTRA:          -7.217
REMARK INTER:                  -6.187
REMARK INTRA:                  -1.030
REMARK UNBOUND:                -1.093
REMARK SMILES O=c1cc(-c2ccc(O)c(O)c2)oc2cc(O[C@@H]3O[C@@H](CO)[C@@H](O)[C@@H](O)[C@H]3O)cc(O)c12
REMARK SMILES IDX 17 1 16 2 4 3 3 4 13 5 2 6 14 7 1 8 32 9 15 10 30 11 29 12
REMARK SMILES IDX 5 13 6 14 7 15 8 16 12 17 10 18 9 19 11 21 31 23 18 25 27 26
REMARK SMILES IDX 19 27 25 28 20 29 23 30 28 31 26 33 21 35 22 36 24 38
REMARK H PARENT 9 20 11 22 31 24 28 32 26 34 22 37 24 39
REMARK Flexibility Score: inf
ROOT
ATOM      1  O   UNL     1      10.085  -6.173  -0.484  1.00  0.00    -0.462 OA
ENDROOT
BRANCH   1   2
ATOM      2  C   UNL     1       9.284  -5.436  -1.372  1.00  0.00     0.130 A 
ATOM      3  C   UNL     1       7.612  -1.125  -2.520  1.00  0.00     0.138 A 
ATOM      4  C   UNL     1       6.913  -1.614  -3.634  1.00  0.00     0.100 A 
ATOM      5  O   UNL     1       8.307  -1.972  -1.768  1.00  0.00    -0.456 OA
ATOM      6  C   UNL     1       6.965  -2.975  -3.940  1.00  0.00     0.197 A 
ATOM      7  C   UNL     1       8.381  -3.276  -2.008  1.00  0.00     0.146 A 
ATOM      8  O   UNL     1       6.373  -3.371  -4.977  1.00  0.00    -0.289 OA
ATOM      9  C   UNL     1       7.690  -3.858  -3.103  1.00  0.00     0.107 A 
ATOM     10  C   UNL     1       9.161  -4.065  -1.160  1.00  0.00     0.094 A 
ATOM     11  C   UNL     1       7.789  -5.268  -3.297  1.00  0.00     0.134 A 
ATOM     12  C   UNL     1       8.604  -6.027  -2.448  1.00  0.00     0.093 A 
BRANCH   3  13
ATOM     13  C   UNL     1       7.600   0.315  -2.147  1.00  0.00     0.021 A 
ATOM     14  C   UNL     1       6.897   1.275  -2.900  1.00  0.00     0.016 A 
ATOM     15  C   UNL     1       6.920   2.622  -2.529  1.00  0.00     0.051 A 
ATOM     16  C   UNL     1       7.649   3.036  -1.410  1.00  0.00     0.157 A 
ATOM     17  C   UNL     1       8.340   0.743  -1.030  1.00  0.00     0.062 A 
ATOM     18  C   UNL     1       8.365   2.091  -0.658  1.00  0.00     0.158 A 
BRANCH  16  19
ATOM     19  O   UNL     1       7.667   4.381  -1.043  1.00  0.00    -0.504 OA
ATOM     20  H   UNL     1       6.812   4.897  -0.874  1.00  0.00     0.293 HD
ENDBRANCH  16  19
BRANCH  18  21
ATOM     21  O   UNL     1       9.109   2.473   0.457  1.00  0.00    -0.504 OA
ATOM     22  H   UNL     1       9.065   1.967   1.333  1.00  0.00     0.293 HD
ENDBRANCH  18  21
ENDBRANCH   3  13
BRANCH  11  23
ATOM     23  O   UNL     1       7.098  -5.976  -4.286  1.00  0.00    -0.507 OA
ATOM     24  H   UNL     1       7.071  -6.980  -4.375  1.00  0.00     0.293 HD
ENDBRANCH  11  23
ENDBRANCH   1   2
BRANCH   1  25
ATOM     25  C   UNL     1       9.758  -6.452   0.881  1.00  0.00     0.339 C 
ATOM     26  C   UNL     1       8.376  -7.124   0.972  1.00  0.00     0.214 C 
ATOM     27  O   UNL     1      10.762  -7.242   1.507  1.00  0.00    -0.332 OA
ATOM     28  C   UNL     1       8.442  -8.555   0.394  1.00  0.00     0.180 C 
ATOM     29  C   UNL     1      10.908  -8.501   0.868  1.00  0.00     0.179 C 
ATOM     30  C   UNL     1       9.614  -9.338   1.007  1.00  0.00     0.177 C 
BRANCH  26  31
ATOM     31  O   UNL     1       7.965  -7.150   2.316  1.00  0.00    -0.384 OA
ATOM     32  H   UNL     1       7.137  -6.608   2.376  1.00  0.00     0.211 HD
ENDBRANCH  26  31
BRANCH  28  33
ATOM     33  O   UNL     1       7.240  -9.244   0.624  1.00  0.00    -0.387 OA
ATOM     34  H   UNL     1       7.486 -10.168   0.887  1.00  0.00     0.211 HD
ENDBRANCH  28  33
BRANCH  29  35
ATOM     35  C   UNL     1      12.121  -9.215   1.472  1.00  0.00     0.191 C 
BRANCH  35  36
ATOM     36  O   UNL     1      11.882 -10.592   1.556  1.00  0.00    -0.394 OA
ATOM     37  H   UNL     1      11.826 -10.918   0.620  1.00  0.00     0.210 HD
ENDBRANCH  35  36
ENDBRANCH  29  35
BRANCH  30  38
ATOM     38  O   UNL     1       9.345  -9.610   2.361  1.00  0.00    -0.387 OA
ATOM     39  H   UNL     1      10.188  -9.946   2.764  1.00  0.00     0.211 HD
ENDBRANCH  30  38
ENDBRANCH   1  25
TORSDOF 11
ENDMDL
MODEL 8
REMARK VINA RESULT:    -4.244      9.885     12.151
REMARK INTER + INTRA:          -7.198
REMARK INTER:                  -6.208
REMARK INTRA:                  -0.991
REMARK UNBOUND:                -1.093
REMARK SMILES O=c1cc(-c2ccc(O)c(O)c2)oc2cc(O[C@@H]3O[C@@H](CO)[C@@H](O)[C@@H](O)[C@H]3O)cc(O)c12
REMARK SMILES IDX 17 1 16 2 4 3 3 4 13 5 2 6 14 7 1 8 32 9 15 10 30 11 29 12
REMARK SMILES IDX 5 13 6 14 7 15 8 16 12 17 10 18 9 19 11 21 31 23 18 25 27 26
REMARK SMILES IDX 19 27 25 28 20 29 23 30 28 31 26 33 21 35 22 36 24 38
REMARK H PARENT 9 20 11 22 31 24 28 32 26 34 22 37 24 39
REMARK Flexibility Score: inf
ROOT
ATOM      1  O   UNL     1      -3.755   1.410   3.556  1.00  0.00    -0.462 OA
ENDROOT
BRANCH   1   2
ATOM      2  C   UNL     1      -3.543   1.469   2.169  1.00  0.00     0.130 A 
ATOM      3  C   UNL     1      -0.581   2.817  -1.312  1.00  0.00     0.138 A 
ATOM      4  C   UNL     1      -1.429   2.331  -2.319  1.00  0.00     0.100 A 
ATOM      5  O   UNL     1      -0.951   2.700  -0.041  1.00  0.00    -0.456 OA
ATOM      6  C   UNL     1      -2.637   1.724  -1.972  1.00  0.00     0.197 A 
ATOM      7  C   UNL     1      -2.094   2.142   0.343  1.00  0.00     0.146 A 
ATOM      8  O   UNL     1      -3.347   1.249  -2.896  1.00  0.00    -0.289 OA
ATOM      9  C   UNL     1      -3.018   1.640  -0.611  1.00  0.00     0.107 A 
ATOM     10  C   UNL     1      -2.366   2.055   1.709  1.00  0.00     0.094 A 
ATOM     11  C   UNL     1      -4.240   1.072  -0.139  1.00  0.00     0.134 A 
ATOM     12  C   UNL     1      -4.469   0.971   1.238  1.00  0.00     0.093 A 
BRANCH   3  13
ATOM     13  C   UNL     1       0.722   3.466  -1.617  1.00  0.00     0.021 A 
ATOM     14  C   UNL     1       1.567   2.996  -2.641  1.00  0.00     0.016 A 
ATOM     15  C   UNL     1       2.791   3.621  -2.892  1.00  0.00     0.051 A 
ATOM     16  C   UNL     1       3.199   4.716  -2.123  1.00  0.00     0.157 A 
ATOM     17  C   UNL     1       1.145   4.560  -0.842  1.00  0.00     0.062 A 
ATOM     18  C   UNL     1       2.371   5.186  -1.090  1.00  0.00     0.158 A 
BRANCH  16  19
ATOM     19  O   UNL     1       4.420   5.336  -2.378  1.00  0.00    -0.504 OA
ATOM     20  H   UNL     1       5.178   4.848  -2.840  1.00  0.00     0.293 HD
ENDBRANCH  16  19
BRANCH  18  21
ATOM     21  O   UNL     1       2.752   6.268  -0.299  1.00  0.00    -0.504 OA
ATOM     22  H   UNL     1       2.764   7.216  -0.653  1.00  0.00     0.293 HD
ENDBRANCH  18  21
ENDBRANCH   3  13
BRANCH  11  23
ATOM     23  O   UNL     1      -5.267   0.615  -0.972  1.00  0.00    -0.507 OA
ATOM     24  H   UNL     1      -6.041   0.038  -0.682  1.00  0.00     0.293 HD
ENDBRANCH  11  23
ENDBRANCH   1   2
BRANCH   1  25
ATOM     25  C   UNL     1      -4.481   0.380   4.234  1.00  0.00     0.339 C 
ATOM     26  C   UNL     1      -3.592  -0.862   4.425  1.00  0.00     0.214 C 
ATOM     27  O   UNL     1      -5.003   0.840   5.475  1.00  0.00    -0.332 OA
ATOM     28  C   UNL     1      -2.480  -0.567   5.456  1.00  0.00     0.180 C 
ATOM     29  C   UNL     1      -3.969   1.245   6.357  1.00  0.00     0.179 C 
ATOM     30  C   UNL     1      -3.072   0.042   6.737  1.00  0.00     0.177 C 
BRANCH  26  31
ATOM     31  O   UNL     1      -4.390  -1.937   4.850  1.00  0.00    -0.384 OA
ATOM     32  H   UNL     1      -4.416  -2.591   4.105  1.00  0.00     0.211 HD
ENDBRANCH  26  31
BRANCH  28  33
ATOM     33  O   UNL     1      -1.767  -1.734   5.772  1.00  0.00    -0.387 OA
ATOM     34  H   UNL     1      -1.389  -1.601   6.679  1.00  0.00     0.211 HD
ENDBRANCH  28  33
BRANCH  29  35
ATOM     35  C   UNL     1      -4.607   1.897   7.588  1.00  0.00     0.191 C 
BRANCH  35  36
ATOM     36  O   UNL     1      -3.769   1.757   8.702  1.00  0.00    -0.394 OA
ATOM     37  H   UNL     1      -3.108   1.057   8.461  1.00  0.00     0.210 HD
ENDBRANCH  35  36
ENDBRANCH  29  35
BRANCH  30  38
ATOM     38  O   UNL     1      -3.819  -0.932   7.424  1.00  0.00    -0.387 OA
ATOM     39  H   UNL     1      -4.103  -1.609   6.755  1.00  0.00     0.211 HD
ENDBRANCH  30  38
ENDBRANCH   1  25
TORSDOF 11
ENDMDL
MODEL 9
REMARK VINA RESULT:    -4.188      7.340      8.721
REMARK INTER + INTRA:          -7.117
REMARK INTER:                  -6.199
REMARK INTRA:                  -0.918
REMARK UNBOUND:                -1.093
REMARK SMILES O=c1cc(-c2ccc(O)c(O)c2)oc2cc(O[C@@H]3O[C@@H](CO)[C@@H](O)[C@@H](O)[C@H]3O)cc(O)c12
REMARK SMILES IDX 17 1 16 2 4 3 3 4 13 5 2 6 14 7 1 8 32 9 15 10 30 11 29 12
REMARK SMILES IDX 5 13 6 14 7 15 8 16 12 17 10 18 9 19 11 21 31 23 18 25 27 26
REMARK SMILES IDX 19 27 25 28 20 29 23 30 28 31 26 33 21 35 22 36 24 38
REMARK H PARENT 9 20 11 22 31 24 28 32 26 34 22 37 24 39
REMARK Flexibility Score: inf
ROOT
ATOM      1  O   UNL     1       0.536   2.794  -2.952  1.00  0.00    -0.462 OA
ENDROOT
BRANCH   1   2
ATOM      2  C   UNL     1       1.341   1.907  -3.685  1.00  0.00     0.130 A 
ATOM      3  C   UNL     1       1.999  -2.612  -5.047  1.00  0.00     0.138 A 
ATOM      4  C   UNL     1       3.137  -2.293  -5.802  1.00  0.00     0.100 A 
ATOM      5  O   UNL     1       1.365  -1.645  -4.391  1.00  0.00    -0.456 OA
ATOM      6  C   UNL     1       3.580  -0.971  -5.862  1.00  0.00     0.197 A 
ATOM      7  C   UNL     1       1.750  -0.373  -4.405  1.00  0.00     0.146 A 
ATOM      8  O   UNL     1       4.570  -0.711  -6.593  1.00  0.00    -0.289 OA
ATOM      9  C   UNL     1       2.901   0.034  -5.129  1.00  0.00     0.107 A 
ATOM     10  C   UNL     1       0.991   0.559  -3.695  1.00  0.00     0.094 A 
ATOM     11  C   UNL     1       3.278   1.409  -5.088  1.00  0.00     0.134 A 
ATOM     12  C   UNL     1       2.479   2.325  -4.393  1.00  0.00     0.093 A 
BRANCH   3  13
ATOM     13  C   UNL     1       1.475  -4.000  -4.949  1.00  0.00     0.021 A 
ATOM     14  C   UNL     1       0.234  -4.369  -5.505  1.00  0.00     0.016 A 
ATOM     15  C   UNL     1      -0.236  -5.679  -5.383  1.00  0.00     0.051 A 
ATOM     16  C   UNL     1       0.515  -6.640  -4.698  1.00  0.00     0.157 A 
ATOM     17  C   UNL     1       2.217  -4.970  -4.252  1.00  0.00     0.062 A 
ATOM     18  C   UNL     1       1.747  -6.282  -4.127  1.00  0.00     0.158 A 
BRANCH  16  19
ATOM     19  O   UNL     1       0.043  -7.946  -4.579  1.00  0.00    -0.504 OA
ATOM     20  H   UNL     1       0.077  -8.445  -3.699  1.00  0.00     0.293 HD
ENDBRANCH  16  19
BRANCH  18  21
ATOM     21  O   UNL     1       2.515  -7.212  -3.430  1.00  0.00    -0.504 OA
ATOM     22  H   UNL     1       3.276  -7.718  -3.866  1.00  0.00     0.293 HD
ENDBRANCH  18  21
ENDBRANCH   3  13
BRANCH  11  23
ATOM     23  O   UNL     1       4.431   1.926  -5.690  1.00  0.00    -0.507 OA
ATOM     24  H   UNL     1       5.306   1.436  -5.791  1.00  0.00     0.293 HD
ENDBRANCH  11  23
ENDBRANCH   1   2
BRANCH   1  25
ATOM     25  C   UNL     1       0.454   2.843  -1.524  1.00  0.00     0.339 C 
ATOM     26  C   UNL     1       0.361   4.304  -1.045  1.00  0.00     0.214 C 
ATOM     27  O   UNL     1      -0.635   2.068  -1.037  1.00  0.00    -0.332 OA
ATOM     28  C   UNL     1      -1.008   4.905  -1.433  1.00  0.00     0.180 C 
ATOM     29  C   UNL     1      -1.877   2.550  -1.524  1.00  0.00     0.179 C 
ATOM     30  C   UNL     1      -2.153   3.979  -0.997  1.00  0.00     0.177 C 
BRANCH  26  31
ATOM     31  O   UNL     1       0.544   4.343   0.347  1.00  0.00    -0.384 OA
ATOM     32  H   UNL     1       1.483   4.076   0.523  1.00  0.00     0.211 HD
ENDBRANCH  26  31
BRANCH  28  33
ATOM     33  O   UNL     1      -1.178   6.174  -0.857  1.00  0.00    -0.387 OA
ATOM     34  H   UNL     1      -1.403   6.795  -1.597  1.00  0.00     0.211 HD
ENDBRANCH  28  33
BRANCH  29  35
ATOM     35  C   UNL     1      -2.976   1.564  -1.114  1.00  0.00     0.191 C 
BRANCH  35  36
ATOM     36  O   UNL     1      -2.588   0.852   0.028  1.00  0.00    -0.394 OA
ATOM     37  H   UNL     1      -2.576  -0.104  -0.236  1.00  0.00     0.210 HD
ENDBRANCH  35  36
ENDBRANCH  29  35
BRANCH  30  38
ATOM     38  O   UNL     1      -2.253   3.976   0.407  1.00  0.00    -0.387 OA
ATOM     39  H   UNL     1      -1.381   3.660   0.761  1.00  0.00     0.211 HD
ENDBRANCH  30  38
ENDBRANCH   1  25
TORSDOF 11
ENDMDL
