MODEL 1
REMARK VINA RESULT:    -3.675      0.000      0.000
REMARK INTER + INTRA:          -7.981
REMARK INTER:                  -6.253
REMARK INTRA:                  -1.728
REMARK UNBOUND:                -1.728
REMARK SMILES CCCCCCCCCCCCCC(=O)[O-]
REMARK SMILES IDX 8 1 9 2 10 3 11 4 12 5 13 6 14 7 15 8 16 9 7 10 6 11 5 12
REMARK SMILES IDX 4 13 3 14 2 15 1 16
REMARK H PARENT
REMARK Flexibility Score: inf
ROOT
ATOM      1  C   UNL     1       2.358  22.707 114.796  1.00  0.00     0.000 C 
ENDROOT
BRANCH   1   2
ATOM      2  C   UNL     1       3.426  22.448 113.718  1.00  0.00     0.000 C 
BRANCH   2   3
ATOM      3  C   UNL     1       4.564  23.484 113.670  1.00  0.00     0.000 C 
BRANCH   3   4
ATOM      4  C   UNL     1       4.942  23.893 112.238  1.00  0.00     0.000 C 
BRANCH   4   5
ATOM      5  C   UNL     1       6.089  24.913 112.242  1.00  0.00     0.006 C 
BRANCH   5   6
ATOM      6  C   UNL     1       6.780  25.014 110.876  1.00  0.00     0.053 C 
BRANCH   6   7
ATOM      7  C   UNL     1       6.861  26.432 110.398  1.00  0.00     0.041 C 
ATOM      8  O   UNL     1       6.561  26.716 109.208  1.00  0.00    -0.550 OA
ATOM      9  O   UNL     1       7.303  27.432 111.253  1.00  0.00    -0.550 OA
ENDBRANCH   6   7
ENDBRANCH   5   6
ENDBRANCH   4   5
ENDBRANCH   3   4
ENDBRANCH   2   3
ENDBRANCH   1   2
BRANCH   1  10
ATOM     10  C   UNL     1       0.936  22.804 114.218  1.00  0.00     0.000 C 
BRANCH  10  11
ATOM     11  C   UNL     1       0.780  23.960 113.217  1.00  0.00    -0.000 C 
BRANCH  11  12
ATOM     12  C   UNL     1       1.074  25.330 113.852  1.00  0.00    -0.000 C 
BRANCH  12  13
ATOM     13  C   UNL     1       1.518  26.377 112.817  1.00  0.00    -0.000 C 
BRANCH  13  14
ATOM     14  C   UNL     1       2.925  26.927 113.097  1.00  0.00    -0.000 C 
BRANCH  14  15
ATOM     15  C   UNL     1       3.533  27.547 111.832  1.00  0.00    -0.003 C 
ATOM     16  C   UNL     1       3.172  26.735 110.591  1.00  0.00     0.004 C 
ENDBRANCH  14  15
ENDBRANCH  13  14
ENDBRANCH  12  13
ENDBRANCH  11  12
ENDBRANCH  10  11
ENDBRANCH   1  10
TORSDOF 12
ENDMDL
MODEL 2
REMARK VINA RESULT:    -3.655      2.600      5.275
REMARK INTER + INTRA:          -7.947
REMARK INTER:                  -6.716
REMARK INTRA:                  -1.232
REMARK UNBOUND:                -1.728
REMARK SMILES CCCCCCCCCCCCCC(=O)[O-]
REMARK SMILES IDX 8 1 9 2 10 3 11 4 12 5 13 6 14 7 15 8 16 9 7 10 6 11 5 12
REMARK SMILES IDX 4 13 3 14 2 15 1 16
REMARK H PARENT
REMARK Flexibility Score: inf
ROOT
ATOM      1  C   UNL     1       5.214  24.007 112.641  1.00  0.00     0.000 C 
ENDROOT
BRANCH   1   2
ATOM      2  C   UNL     1       3.994  24.289 113.535  1.00  0.00     0.000 C 
BRANCH   2   3
ATOM      3  C   UNL     1       2.738  24.772 112.785  1.00  0.00     0.000 C 
BRANCH   3   4
ATOM      4  C   UNL     1       2.748  26.283 112.510  1.00  0.00     0.000 C 
BRANCH   4   5
ATOM      5  C   UNL     1       2.569  26.570 111.013  1.00  0.00     0.006 C 
BRANCH   5   6
ATOM      6  C   UNL     1       3.306  27.842 110.574  1.00  0.00     0.053 C 
BRANCH   6   7
ATOM      7  C   UNL     1       2.357  28.968 110.296  1.00  0.00     0.041 C 
ATOM      8  O   UNL     1       2.796  30.130 110.092  1.00  0.00    -0.550 OA
ATOM      9  O   UNL     1       0.987  28.741 110.299  1.00  0.00    -0.550 OA
ENDBRANCH   6   7
ENDBRANCH   5   6
ENDBRANCH   4   5
ENDBRANCH   3   4
ENDBRANCH   2   3
ENDBRANCH   1   2
BRANCH   1  10
ATOM     10  C   UNL     1       6.467  24.788 113.075  1.00  0.00     0.000 C 
BRANCH  10  11
ATOM     11  C   UNL     1       7.089  25.597 111.926  1.00  0.00    -0.000 C 
BRANCH  11  12
ATOM     12  C   UNL     1       6.217  25.584 110.658  1.00  0.00    -0.000 C 
BRANCH  12  13
ATOM     13  C   UNL     1       6.873  26.326 109.483  1.00  0.00    -0.000 C 
BRANCH  13  14
ATOM     14  C   UNL     1       8.248  25.751 109.112  1.00  0.00    -0.000 C 
BRANCH  14  15
ATOM     15  C   UNL     1       8.359  25.528 107.598  1.00  0.00    -0.003 C 
ATOM     16  C   UNL     1       7.215  26.211 106.855  1.00  0.00     0.004 C 
ENDBRANCH  14  15
ENDBRANCH  13  14
ENDBRANCH  12  13
ENDBRANCH  11  12
ENDBRANCH  10  11
ENDBRANCH   1  10
TORSDOF 12
ENDMDL
MODEL 3
REMARK VINA RESULT:    -3.574      1.279      3.574
REMARK INTER + INTRA:          -7.809
REMARK INTER:                  -6.111
REMARK INTRA:                  -1.698
REMARK UNBOUND:                -1.728
REMARK SMILES CCCCCCCCCCCCCC(=O)[O-]
REMARK SMILES IDX 8 1 9 2 10 3 11 4 12 5 13 6 14 7 15 8 16 9 7 10 6 11 5 12
REMARK SMILES IDX 4 13 3 14 2 15 1 16
REMARK H PARENT
REMARK Flexibility Score: inf
ROOT
ATOM      1  C   UNL     1       1.414  25.340 113.980  1.00  0.00     0.000 C 
ENDROOT
BRANCH   1   2
ATOM      2  C   UNL     1       2.750  25.618 113.267  1.00  0.00     0.000 C 
BRANCH   2   3
ATOM      3  C   UNL     1       2.619  26.095 111.808  1.00  0.00     0.000 C 
BRANCH   3   4
ATOM      4  C   UNL     1       3.773  25.615 110.916  1.00  0.00     0.000 C 
BRANCH   4   5
ATOM      5  C   UNL     1       4.765  24.758 111.714  1.00  0.00     0.006 C 
BRANCH   5   6
ATOM      6  C   UNL     1       6.224  25.084 111.367  1.00  0.00     0.053 C 
BRANCH   6   7
ATOM      7  C   UNL     1       6.730  26.261 112.144  1.00  0.00     0.041 C 
ATOM      8  O   UNL     1       7.052  26.130 113.354  1.00  0.00    -0.550 OA
ATOM      9  O   UNL     1       6.812  27.510 111.542  1.00  0.00    -0.550 OA
ENDBRANCH   6   7
ENDBRANCH   5   6
ENDBRANCH   4   5
ENDBRANCH   3   4
ENDBRANCH   2   3
ENDBRANCH   1   2
BRANCH   1  10
ATOM     10  C   UNL     1       0.644  24.158 113.366  1.00  0.00     0.000 C 
BRANCH  10  11
ATOM     11  C   UNL     1       0.118  23.177 114.426  1.00  0.00    -0.000 C 
BRANCH  11  12
ATOM     12  C   UNL     1       1.212  22.225 114.939  1.00  0.00    -0.000 C 
BRANCH  12  13
ATOM     13  C   UNL     1       1.994  21.555 113.797  1.00  0.00    -0.000 C 
BRANCH  13  14
ATOM     14  C   UNL     1       3.483  21.931 113.798  1.00  0.00    -0.000 C 
BRANCH  14  15
ATOM     15  C   UNL     1       3.967  22.248 115.219  1.00  0.00    -0.003 C 
ATOM     16  C   UNL     1       4.898  23.457 115.228  1.00  0.00     0.004 C 
ENDBRANCH  14  15
ENDBRANCH  13  14
ENDBRANCH  12  13
ENDBRANCH  11  12
ENDBRANCH  10  11
ENDBRANCH   1  10
TORSDOF 12
ENDMDL
MODEL 4
REMARK VINA RESULT:    -3.570      1.837      3.190
REMARK INTER + INTRA:          -7.802
REMARK INTER:                  -6.499
REMARK INTRA:                  -1.303
REMARK UNBOUND:                -1.728
REMARK SMILES CCCCCCCCCCCCCC(=O)[O-]
REMARK SMILES IDX 8 1 9 2 10 3 11 4 12 5 13 6 14 7 15 8 16 9 7 10 6 11 5 12
REMARK SMILES IDX 4 13 3 14 2 15 1 16
REMARK H PARENT
REMARK Flexibility Score: inf
ROOT
ATOM      1  C   UNL     1       4.731  23.736 114.059  1.00  0.00     0.000 C 
ENDROOT
BRANCH   1   2
ATOM      2  C   UNL     1       4.683  23.677 112.522  1.00  0.00     0.000 C 
BRANCH   2   3
ATOM      3  C   UNL     1       5.398  24.838 111.805  1.00  0.00     0.000 C 
BRANCH   3   4
ATOM      4  C   UNL     1       6.920  24.649 111.730  1.00  0.00     0.000 C 
BRANCH   4   5
ATOM      5  C   UNL     1       7.432  24.873 110.299  1.00  0.00     0.006 C 
BRANCH   5   6
ATOM      6  C   UNL     1       7.003  26.234 109.736  1.00  0.00     0.053 C 
BRANCH   6   7
ATOM      7  C   UNL     1       7.035  26.251 108.238  1.00  0.00     0.041 C 
ATOM      8  O   UNL     1       7.979  25.692 107.619  1.00  0.00    -0.550 OA
ATOM      9  O   UNL     1       6.045  26.916 107.527  1.00  0.00    -0.550 OA
ENDBRANCH   6   7
ENDBRANCH   5   6
ENDBRANCH   4   5
ENDBRANCH   3   4
ENDBRANCH   2   3
ENDBRANCH   1   2
BRANCH   1  10
ATOM     10  C   UNL     1       4.065  22.520 114.726  1.00  0.00     0.000 C 
BRANCH  10  11
ATOM     11  C   UNL     1       3.219  21.695 113.743  1.00  0.00    -0.000 C 
BRANCH  11  12
ATOM     12  C   UNL     1       1.777  21.490 114.238  1.00  0.00    -0.000 C 
BRANCH  12  13
ATOM     13  C   UNL     1       1.063  22.818 114.540  1.00  0.00    -0.000 C 
BRANCH  13  14
ATOM     14  C   UNL     1       0.732  23.616 113.270  1.00  0.00    -0.000 C 
BRANCH  14  15
ATOM     15  C   UNL     1       1.088  25.097 113.445  1.00  0.00    -0.003 C 
ATOM     16  C   UNL     1       1.550  25.389 114.870  1.00  0.00     0.004 C 
ENDBRANCH  14  15
ENDBRANCH  13  14
ENDBRANCH  12  13
ENDBRANCH  11  12
ENDBRANCH  10  11
ENDBRANCH   1  10
TORSDOF 12
ENDMDL
MODEL 5
REMARK VINA RESULT:    -3.523      2.179      3.644
REMARK INTER + INTRA:          -7.723
REMARK INTER:                  -6.116
REMARK INTRA:                  -1.607
REMARK UNBOUND:                -1.728
REMARK SMILES CCCCCCCCCCCCCC(=O)[O-]
REMARK SMILES IDX 8 1 9 2 10 3 11 4 12 5 13 6 14 7 15 8 16 9 7 10 6 11 5 12
REMARK SMILES IDX 4 13 3 14 2 15 1 16
REMARK H PARENT
REMARK Flexibility Score: inf
ROOT
ATOM      1  C   UNL     1       3.928  22.949 114.249  1.00  0.00     0.000 C 
ENDROOT
BRANCH   1   2
ATOM      2  C   UNL     1       4.701  23.755 113.189  1.00  0.00     0.000 C 
BRANCH   2   3
ATOM      3  C   UNL     1       3.857  24.786 112.415  1.00  0.00     0.000 C 
BRANCH   3   4
ATOM      4  C   UNL     1       4.564  25.316 111.158  1.00  0.00     0.000 C 
BRANCH   4   5
ATOM      5  C   UNL     1       3.607  26.161 110.305  1.00  0.00     0.006 C 
BRANCH   5   6
ATOM      6  C   UNL     1       2.529  26.850 111.152  1.00  0.00     0.053 C 
BRANCH   6   7
ATOM      7  C   UNL     1       2.271  28.252 110.690  1.00  0.00     0.041 C 
ATOM      8  O   UNL     1       3.204  29.097 110.677  1.00  0.00    -0.550 OA
ATOM      9  O   UNL     1       0.991  28.635 110.308  1.00  0.00    -0.550 OA
ENDBRANCH   6   7
ENDBRANCH   5   6
ENDBRANCH   4   5
ENDBRANCH   3   4
ENDBRANCH   2   3
ENDBRANCH   1   2
BRANCH   1  10
ATOM     10  C   UNL     1       3.326  21.649 113.689  1.00  0.00     0.000 C 
BRANCH  10  11
ATOM     11  C   UNL     1       1.806  21.561 113.898  1.00  0.00    -0.000 C 
BRANCH  11  12
ATOM     12  C   UNL     1       1.223  22.842 114.519  1.00  0.00    -0.000 C 
BRANCH  12  13
ATOM     13  C   UNL     1       0.507  23.726 113.484  1.00  0.00    -0.000 C 
BRANCH  13  14
ATOM     14  C   UNL     1       0.582  25.221 113.829  1.00  0.00    -0.000 C 
BRANCH  14  15
ATOM     15  C   UNL     1       1.343  25.444 115.142  1.00  0.00    -0.003 C 
ATOM     16  C   UNL     1       2.150  26.738 115.100  1.00  0.00     0.004 C 
ENDBRANCH  14  15
ENDBRANCH  13  14
ENDBRANCH  12  13
ENDBRANCH  11  12
ENDBRANCH  10  11
ENDBRANCH   1  10
TORSDOF 12
ENDMDL
MODEL 6
REMARK VINA RESULT:    -3.515      1.401      1.969
REMARK INTER + INTRA:          -7.709
REMARK INTER:                  -6.154
REMARK INTRA:                  -1.555
REMARK UNBOUND:                -1.728
REMARK SMILES CCCCCCCCCCCCCC(=O)[O-]
REMARK SMILES IDX 8 1 9 2 10 3 11 4 12 5 13 6 14 7 15 8 16 9 7 10 6 11 5 12
REMARK SMILES IDX 4 13 3 14 2 15 1 16
REMARK H PARENT
REMARK Flexibility Score: inf
ROOT
ATOM      1  C   UNL     1       1.416  22.259 114.686  1.00  0.00     0.000 C 
ENDROOT
BRANCH   1   2
ATOM      2  C   UNL     1       2.567  21.407 114.121  1.00  0.00     0.000 C 
BRANCH   2   3
ATOM      3  C   UNL     1       3.702  22.210 113.457  1.00  0.00     0.000 C 
BRANCH   3   4
ATOM      4  C   UNL     1       4.298  23.281 114.381  1.00  0.00     0.000 C 
BRANCH   4   5
ATOM      5  C   UNL     1       5.015  24.370 113.570  1.00  0.00     0.006 C 
BRANCH   5   6
ATOM      6  C   UNL     1       5.329  23.916 112.139  1.00  0.00     0.053 C 
BRANCH   6   7
ATOM      7  C   UNL     1       6.732  24.258 111.741  1.00  0.00     0.041 C 
ATOM      8  O   UNL     1       7.691  24.000 112.517  1.00  0.00    -0.550 OA
ATOM      9  O   UNL     1       6.979  24.894 110.532  1.00  0.00    -0.550 OA
ENDBRANCH   6   7
ENDBRANCH   5   6
ENDBRANCH   4   5
ENDBRANCH   3   4
ENDBRANCH   2   3
ENDBRANCH   1   2
BRANCH   1  10
ATOM     10  C   UNL     1       0.639  23.015 113.594  1.00  0.00     0.000 C 
BRANCH  10  11
ATOM     11  C   UNL     1       0.628  24.535 113.819  1.00  0.00    -0.000 C 
BRANCH  11  12
ATOM     12  C   UNL     1       1.554  25.281 112.843  1.00  0.00    -0.000 C 
BRANCH  12  13
ATOM     13  C   UNL     1       1.483  26.807 113.013  1.00  0.00    -0.000 C 
BRANCH  13  14
ATOM     14  C   UNL     1       1.858  27.565 111.730  1.00  0.00    -0.000 C 
BRANCH  14  15
ATOM     15  C   UNL     1       2.706  26.686 110.803  1.00  0.00    -0.003 C 
ATOM     16  C   UNL     1       4.162  27.143 110.789  1.00  0.00     0.004 C 
ENDBRANCH  14  15
ENDBRANCH  13  14
ENDBRANCH  12  13
ENDBRANCH  11  12
ENDBRANCH  10  11
ENDBRANCH   1  10
TORSDOF 12
ENDMDL
MODEL 7
REMARK VINA RESULT:    -3.515      1.324      3.954
REMARK INTER + INTRA:          -7.708
REMARK INTER:                  -6.114
REMARK INTRA:                  -1.595
REMARK UNBOUND:                -1.728
REMARK SMILES CCCCCCCCCCCCCC(=O)[O-]
REMARK SMILES IDX 8 1 9 2 10 3 11 4 12 5 13 6 14 7 15 8 16 9 7 10 6 11 5 12
REMARK SMILES IDX 4 13 3 14 2 15 1 16
REMARK H PARENT
REMARK Flexibility Score: inf
ROOT
ATOM      1  C   UNL     1       2.938  25.838 114.084  1.00  0.00     0.000 C 
ENDROOT
BRANCH   1   2
ATOM      2  C   UNL     1       3.017  26.872 112.947  1.00  0.00     0.000 C 
BRANCH   2   3
ATOM      3  C   UNL     1       2.357  26.435 111.625  1.00  0.00     0.000 C 
BRANCH   3   4
ATOM      4  C   UNL     1       3.340  25.758 110.660  1.00  0.00     0.000 C 
BRANCH   4   5
ATOM      5  C   UNL     1       4.630  26.579 110.522  1.00  0.00     0.006 C 
BRANCH   5   6
ATOM      6  C   UNL     1       5.880  25.759 110.865  1.00  0.00     0.053 C 
BRANCH   6   7
ATOM      7  C   UNL     1       6.875  26.561 111.647  1.00  0.00     0.041 C 
ATOM      8  O   UNL     1       7.405  27.584 111.136  1.00  0.00    -0.550 OA
ATOM      9  O   UNL     1       7.244  26.160 112.924  1.00  0.00    -0.550 OA
ENDBRANCH   6   7
ENDBRANCH   5   6
ENDBRANCH   4   5
ENDBRANCH   3   4
ENDBRANCH   2   3
ENDBRANCH   1   2
BRANCH   1  10
ATOM     10  C   UNL     1       4.233  25.021 114.240  1.00  0.00     0.000 C 
BRANCH  10  11
ATOM     11  C   UNL     1       4.144  23.636 113.581  1.00  0.00    -0.000 C 
BRANCH  11  12
ATOM     12  C   UNL     1       4.055  22.498 114.613  1.00  0.00    -0.000 C 
BRANCH  12  13
ATOM     13  C   UNL     1       2.963  21.473 114.267  1.00  0.00    -0.000 C 
BRANCH  13  14
ATOM     14  C   UNL     1       1.720  22.119 113.637  1.00  0.00    -0.000 C 
BRANCH  14  15
ATOM     15  C   UNL     1       0.710  22.531 114.715  1.00  0.00    -0.003 C 
ATOM     16  C   UNL     1      -0.087  23.759 114.285  1.00  0.00     0.004 C 
ENDBRANCH  14  15
ENDBRANCH  13  14
ENDBRANCH  12  13
ENDBRANCH  11  12
ENDBRANCH  10  11
ENDBRANCH   1  10
TORSDOF 12
ENDMDL
MODEL 8
REMARK VINA RESULT:    -3.466      1.969      3.541
REMARK INTER + INTRA:          -7.626
REMARK INTER:                  -6.216
REMARK INTRA:                  -1.410
REMARK UNBOUND:                -1.728
REMARK SMILES CCCCCCCCCCCCCC(=O)[O-]
REMARK SMILES IDX 8 1 9 2 10 3 11 4 12 5 13 6 14 7 15 8 16 9 7 10 6 11 5 12
REMARK SMILES IDX 4 13 3 14 2 15 1 16
REMARK H PARENT
REMARK Flexibility Score: inf
ROOT
ATOM      1  C   UNL     1       4.569  26.020 110.899  1.00  0.00     0.000 C 
ENDROOT
BRANCH   1   2
ATOM      2  C   UNL     1       5.281  24.781 111.471  1.00  0.00     0.000 C 
BRANCH   2   3
ATOM      3  C   UNL     1       6.816  24.796 111.338  1.00  0.00     0.000 C 
BRANCH   3   4
ATOM      4  C   UNL     1       7.394  26.213 111.216  1.00  0.00     0.000 C 
BRANCH   4   5
ATOM      5  C   UNL     1       8.233  26.356 109.938  1.00  0.00     0.006 C 
BRANCH   5   6
ATOM      6  C   UNL     1       7.759  25.414 108.823  1.00  0.00     0.053 C 
BRANCH   6   7
ATOM      7  C   UNL     1       7.085  26.161 107.713  1.00  0.00     0.041 C 
ATOM      8  O   UNL     1       7.563  26.130 106.548  1.00  0.00    -0.550 OA
ATOM      9  O   UNL     1       5.952  26.920 107.971  1.00  0.00    -0.550 OA
ENDBRANCH   6   7
ENDBRANCH   5   6
ENDBRANCH   4   5
ENDBRANCH   3   4
ENDBRANCH   2   3
ENDBRANCH   1   2
BRANCH   1  10
ATOM     10  C   UNL     1       3.048  25.829 110.770  1.00  0.00     0.000 C 
BRANCH  10  11
ATOM     11  C   UNL     1       2.250  26.879 111.560  1.00  0.00    -0.000 C 
BRANCH  11  12
ATOM     12  C   UNL     1       1.450  26.259 112.719  1.00  0.00    -0.000 C 
BRANCH  12  13
ATOM     13  C   UNL     1       2.267  25.227 113.513  1.00  0.00    -0.000 C 
BRANCH  13  14
ATOM     14  C   UNL     1       2.821  25.794 114.829  1.00  0.00    -0.000 C 
BRANCH  14  15
ATOM     15  C   UNL     1       4.228  26.370 114.629  1.00  0.00    -0.003 C 
ATOM     16  C   UNL     1       5.292  25.438 115.202  1.00  0.00     0.004 C 
ENDBRANCH  14  15
ENDBRANCH  13  14
ENDBRANCH  12  13
ENDBRANCH  11  12
ENDBRANCH  10  11
ENDBRANCH   1  10
TORSDOF 12
ENDMDL
MODEL 9
REMARK VINA RESULT:    -3.437      1.991      3.202
REMARK INTER + INTRA:          -7.576
REMARK INTER:                  -6.078
REMARK INTRA:                  -1.498
REMARK UNBOUND:                -1.728
REMARK SMILES CCCCCCCCCCCCCC(=O)[O-]
REMARK SMILES IDX 8 1 9 2 10 3 11 4 12 5 13 6 14 7 15 8 16 9 7 10 6 11 5 12
REMARK SMILES IDX 4 13 3 14 2 15 1 16
REMARK H PARENT
REMARK Flexibility Score: inf
ROOT
ATOM      1  C   UNL     1       4.109  26.977 112.672  1.00  0.00     0.000 C 
ENDROOT
BRANCH   1   2
ATOM      2  C   UNL     1       4.772  25.734 113.292  1.00  0.00     0.000 C 
BRANCH   2   3
ATOM      3  C   UNL     1       4.514  24.417 112.536  1.00  0.00     0.000 C 
BRANCH   3   4
ATOM      4  C   UNL     1       5.716  23.965 111.692  1.00  0.00     0.000 C 
BRANCH   4   5
ATOM      5  C   UNL     1       7.004  24.663 112.152  1.00  0.00     0.006 C 
BRANCH   5   6
ATOM      6  C   UNL     1       7.764  25.306 110.985  1.00  0.00     0.053 C 
BRANCH   6   7
ATOM      7  C   UNL     1       7.183  26.635 110.608  1.00  0.00     0.041 C 
ATOM      8  O   UNL     1       7.511  27.673 111.242  1.00  0.00    -0.550 OA
ATOM      9  O   UNL     1       6.251  26.722 109.582  1.00  0.00    -0.550 OA
ENDBRANCH   6   7
ENDBRANCH   5   6
ENDBRANCH   4   5
ENDBRANCH   3   4
ENDBRANCH   2   3
ENDBRANCH   1   2
BRANCH   1  10
ATOM     10  C   UNL     1       3.048  26.625 111.615  1.00  0.00     0.000 C 
BRANCH  10  11
ATOM     11  C   UNL     1       1.615  26.888 112.104  1.00  0.00    -0.000 C 
BRANCH  11  12
ATOM     12  C   UNL     1       1.304  28.389 112.236  1.00  0.00    -0.000 C 
BRANCH  12  13
ATOM     13  C   UNL     1       1.478  29.146 110.909  1.00  0.00    -0.000 C 
BRANCH  13  14
ATOM     14  C   UNL     1       2.561  30.233 110.984  1.00  0.00    -0.000 C 
BRANCH  14  15
ATOM     15  C   UNL     1       2.675  30.796 112.406  1.00  0.00    -0.003 C 
ATOM     16  C   UNL     1       4.129  30.844 112.866  1.00  0.00     0.004 C 
ENDBRANCH  14  15
ENDBRANCH  13  14
ENDBRANCH  12  13
ENDBRANCH  11  12
ENDBRANCH  10  11
ENDBRANCH   1  10
TORSDOF 12
ENDMDL
