MODEL 1
REMARK VINA RESULT:    10.330      0.000      0.000
REMARK INTER + INTRA:          26.085
REMARK INTER:                  27.238
REMARK INTRA:                  -1.152
REMARK UNBOUND:                -1.152
REMARK SMILES CCCCCCCCCCCCCCCCCCCCCCCCCCCCCC(=O)[O-]
REMARK SMILES IDX 16 1 17 2 18 3 19 4 20 5 21 6 22 7 23 8 24 9 25 10 26 11
REMARK SMILES IDX 27 12 28 13 29 14 30 15 31 16 32 17 15 18 14 19 13 20 12 21
REMARK SMILES IDX 11 22 10 23 9 24 8 25 7 26 6 27 5 28 4 29 3 30 2 31 1 32
REMARK H PARENT
REMARK Flexibility Score: inf
ROOT
ATOM      1  C   UNL     1      23.769  39.470  27.086  1.00  0.00     0.000 C 
ENDROOT
BRANCH   1   2
ATOM      2  C   UNL     1      22.337  39.208  27.606  1.00  0.00     0.000 C 
BRANCH   2   3
ATOM      3  C   UNL     1      22.266  38.094  28.674  1.00  0.00     0.000 C 
BRANCH   3   4
ATOM      4  C   UNL     1      21.890  38.662  30.054  1.00  0.00     0.000 C 
BRANCH   4   5
ATOM      5  C   UNL     1      21.307  37.648  31.058  1.00  0.00     0.000 C 
BRANCH   5   6
ATOM      6  C   UNL     1      22.149  37.327  32.312  1.00  0.00     0.000 C 
BRANCH   6   7
ATOM      7  C   UNL     1      21.980  38.248  33.531  1.00  0.00     0.000 C 
BRANCH   7   8
ATOM      8  C   UNL     1      22.542  39.668  33.367  1.00  0.00     0.000 C 
BRANCH   8   9
ATOM      9  C   UNL     1      21.958  40.696  34.366  1.00  0.00     0.000 C 
BRANCH   9  10
ATOM     10  C   UNL     1      22.838  41.955  34.487  1.00  0.00     0.000 C 
BRANCH  10  11
ATOM     11  C   UNL     1      22.100  43.108  35.207  1.00  0.00     0.000 C 
BRANCH  11  12
ATOM     12  C   UNL     1      21.398  44.075  34.242  1.00  0.00     0.000 C 
BRANCH  12  13
ATOM     13  C   UNL     1      21.309  45.516  34.786  1.00  0.00     0.006 C 
BRANCH  13  14
ATOM     14  C   UNL     1      21.564  45.637  36.291  1.00  0.00     0.053 C 
BRANCH  14  15
ATOM     15  C   UNL     1      22.857  46.334  36.597  1.00  0.00     0.041 C 
ATOM     16  O   UNL     1      23.867  46.123  35.876  1.00  0.00    -0.550 OA
ATOM     17  O   UNL     1      22.938  47.224  37.658  1.00  0.00    -0.550 OA
ENDBRANCH  14  15
ENDBRANCH  13  14
ENDBRANCH  12  13
ENDBRANCH  11  12
ENDBRANCH  10  11
ENDBRANCH   9  10
ENDBRANCH   8   9
ENDBRANCH   7   8
ENDBRANCH   6   7
ENDBRANCH   5   6
ENDBRANCH   4   5
ENDBRANCH   3   4
ENDBRANCH   2   3
ENDBRANCH   1   2
BRANCH   1  18
ATOM     18  C   UNL     1      23.846  39.280  25.563  1.00  0.00     0.000 C 
BRANCH  18  19
ATOM     19  C   UNL     1      23.327  37.909  25.099  1.00  0.00     0.000 C 
BRANCH  19  20
ATOM     20  C   UNL     1      22.189  37.975  24.059  1.00  0.00     0.000 C 
BRANCH  20  21
ATOM     21  C   UNL     1      22.705  38.121  22.611  1.00  0.00     0.000 C 
BRANCH  21  22
ATOM     22  C   UNL     1      22.431  36.850  21.793  1.00  0.00     0.000 C 
BRANCH  22  23
ATOM     23  C   UNL     1      23.056  36.889  20.384  1.00  0.00     0.000 C 
BRANCH  23  24
ATOM     24  C   UNL     1      23.274  35.513  19.721  1.00  0.00    -0.000 C 
BRANCH  24  25
ATOM     25  C   UNL     1      23.817  35.620  18.286  1.00  0.00    -0.000 C 
BRANCH  25  26
ATOM     26  C   UNL     1      25.303  35.227  18.206  1.00  0.00    -0.000 C 
BRANCH  26  27
ATOM     27  C   UNL     1      26.228  36.415  17.875  1.00  0.00    -0.000 C 
BRANCH  27  28
ATOM     28  C   UNL     1      27.704  36.230  18.283  1.00  0.00    -0.000 C 
BRANCH  28  29
ATOM     29  C   UNL     1      28.387  37.548  18.694  1.00  0.00    -0.000 C 
BRANCH  29  30
ATOM     30  C   UNL     1      29.854  37.343  19.114  1.00  0.00    -0.000 C 
BRANCH  30  31
ATOM     31  C   UNL     1      30.288  35.871  19.007  1.00  0.00    -0.003 C 
ATOM     32  C   UNL     1      30.464  35.226  20.380  1.00  0.00     0.004 C 
ENDBRANCH  30  31
ENDBRANCH  29  30
ENDBRANCH  28  29
ENDBRANCH  27  28
ENDBRANCH  26  27
ENDBRANCH  25  26
ENDBRANCH  24  25
ENDBRANCH  23  24
ENDBRANCH  22  23
ENDBRANCH  21  22
ENDBRANCH  20  21
ENDBRANCH  19  20
ENDBRANCH  18  19
ENDBRANCH   1  18
TORSDOF 28
ENDMDL
MODEL 2
REMARK VINA RESULT:    10.406      1.777      2.160
REMARK INTER + INTRA:          26.287
REMARK INTER:                  27.355
REMARK INTRA:                  -1.068
REMARK UNBOUND:                -1.152
REMARK SMILES CCCCCCCCCCCCCCCCCCCCCCCCCCCCCC(=O)[O-]
REMARK SMILES IDX 16 1 17 2 18 3 19 4 20 5 21 6 22 7 23 8 24 9 25 10 26 11
REMARK SMILES IDX 27 12 28 13 29 14 30 15 31 16 32 17 15 18 14 19 13 20 12 21
REMARK SMILES IDX 11 22 10 23 9 24 8 25 7 26 6 27 5 28 4 29 3 30 2 31 1 32
REMARK H PARENT
REMARK Flexibility Score: inf
ROOT
ATOM      1  C   UNL     1      24.089  39.033  25.448  1.00  0.00     0.000 C 
ENDROOT
BRANCH   1   2
ATOM      2  C   UNL     1      22.661  39.179  26.022  1.00  0.00     0.000 C 
BRANCH   2   3
ATOM      3  C   UNL     1      22.391  38.263  27.236  1.00  0.00     0.000 C 
BRANCH   3   4
ATOM      4  C   UNL     1      22.536  39.032  28.562  1.00  0.00     0.000 C 
BRANCH   4   5
ATOM      5  C   UNL     1      21.451  38.750  29.620  1.00  0.00     0.000 C 
BRANCH   5   6
ATOM      6  C   UNL     1      21.833  38.963  31.101  1.00  0.00     0.000 C 
BRANCH   6   7
ATOM      7  C   UNL     1      20.793  38.567  32.162  1.00  0.00     0.000 C 
BRANCH   7   8
ATOM      8  C   UNL     1      20.939  39.266  33.522  1.00  0.00     0.000 C 
BRANCH   8   9
ATOM      9  C   UNL     1      22.266  40.045  33.690  1.00  0.00     0.000 C 
BRANCH   9  10
ATOM     10  C   UNL     1      22.409  40.653  35.099  1.00  0.00     0.000 C 
BRANCH  10  11
ATOM     11  C   UNL     1      22.958  42.099  35.051  1.00  0.00     0.000 C 
BRANCH  11  12
ATOM     12  C   UNL     1      21.929  43.123  34.549  1.00  0.00     0.000 C 
BRANCH  12  13
ATOM     13  C   UNL     1      22.397  44.584  34.715  1.00  0.00     0.006 C 
BRANCH  13  14
ATOM     14  C   UNL     1      21.314  45.628  34.431  1.00  0.00     0.053 C 
BRANCH  14  15
ATOM     15  C   UNL     1      20.164  45.061  33.652  1.00  0.00     0.041 C 
ATOM     16  O   UNL     1      20.015  45.371  32.441  1.00  0.00    -0.550 OA
ATOM     17  O   UNL     1      19.277  44.181  34.254  1.00  0.00    -0.550 OA
ENDBRANCH  14  15
ENDBRANCH  13  14
ENDBRANCH  12  13
ENDBRANCH  11  12
ENDBRANCH  10  11
ENDBRANCH   9  10
ENDBRANCH   8   9
ENDBRANCH   7   8
ENDBRANCH   6   7
ENDBRANCH   5   6
ENDBRANCH   4   5
ENDBRANCH   3   4
ENDBRANCH   2   3
ENDBRANCH   1   2
BRANCH   1  18
ATOM     18  C   UNL     1      24.051  38.581  23.980  1.00  0.00     0.000 C 
BRANCH  18  19
ATOM     19  C   UNL     1      22.893  37.616  23.676  1.00  0.00     0.000 C 
BRANCH  19  20
ATOM     20  C   UNL     1      21.993  38.047  22.498  1.00  0.00     0.000 C 
BRANCH  20  21
ATOM     21  C   UNL     1      22.711  37.970  21.134  1.00  0.00     0.000 C 
BRANCH  21  22
ATOM     22  C   UNL     1      23.263  36.559  20.876  1.00  0.00     0.000 C 
BRANCH  22  23
ATOM     23  C   UNL     1      23.240  36.163  19.386  1.00  0.00     0.000 C 
BRANCH  23  24
ATOM     24  C   UNL     1      24.100  34.936  19.018  1.00  0.00    -0.000 C 
BRANCH  24  25
ATOM     25  C   UNL     1      25.139  35.240  17.925  1.00  0.00    -0.000 C 
BRANCH  25  26
ATOM     26  C   UNL     1      26.565  34.875  18.376  1.00  0.00    -0.000 C 
BRANCH  26  27
ATOM     27  C   UNL     1      27.632  35.869  17.876  1.00  0.00    -0.000 C 
BRANCH  27  28
ATOM     28  C   UNL     1      27.674  37.218  18.623  1.00  0.00    -0.000 C 
BRANCH  28  29
ATOM     29  C   UNL     1      28.961  37.413  19.446  1.00  0.00    -0.000 C 
BRANCH  29  30
ATOM     30  C   UNL     1      29.632  36.077  19.813  1.00  0.00    -0.000 C 
BRANCH  30  31
ATOM     31  C   UNL     1      31.058  35.971  19.248  1.00  0.00    -0.003 C 
ATOM     32  C   UNL     1      31.400  37.146  18.334  1.00  0.00     0.004 C 
ENDBRANCH  30  31
ENDBRANCH  29  30
ENDBRANCH  28  29
ENDBRANCH  27  28
ENDBRANCH  26  27
ENDBRANCH  25  26
ENDBRANCH  24  25
ENDBRANCH  23  24
ENDBRANCH  22  23
ENDBRANCH  21  22
ENDBRANCH  20  21
ENDBRANCH  19  20
ENDBRANCH  18  19
ENDBRANCH   1  18
TORSDOF 28
ENDMDL
