MODEL 1
REMARK VINA RESULT:    -4.848      0.000      0.000
REMARK INTER + INTRA:         -16.663
REMARK INTER:                 -12.216
REMARK INTRA:                  -4.448
REMARK UNBOUND:                -4.448
REMARK SMILES CCCCCCCCCCCCCCCCCCCCCCCCCCCC(=O)[O-]
REMARK SMILES IDX 15 1 16 2 17 3 18 4 19 5 20 6 21 7 22 8 23 9 24 10 25 11
REMARK SMILES IDX 26 12 27 13 28 14 29 15 30 16 14 17 13 18 12 19 11 20 10 21
REMARK SMILES IDX 9 22 8 23 7 24 6 25 5 26 4 27 3 28 2 29 1 30
REMARK H PARENT
REMARK Flexibility Score: inf
ROOT
ATOM      1  C   UNL     1      35.288  56.618  27.798  1.00  0.00     0.000 C 
ENDROOT
BRANCH   1   2
ATOM      2  C   UNL     1      34.528  57.137  26.563  1.00  0.00     0.000 C 
BRANCH   2   3
ATOM      3  C   UNL     1      33.566  56.091  25.982  1.00  0.00     0.000 C 
BRANCH   3   4
ATOM      4  C   UNL     1      32.134  56.237  26.526  1.00  0.00     0.000 C 
BRANCH   4   5
ATOM      5  C   UNL     1      31.877  55.356  27.759  1.00  0.00     0.000 C 
BRANCH   5   6
ATOM      6  C   UNL     1      32.514  53.964  27.633  1.00  0.00     0.000 C 
BRANCH   6   7
ATOM      7  C   UNL     1      33.441  53.675  28.820  1.00  0.00     0.000 C 
BRANCH   7   8
ATOM      8  C   UNL     1      32.690  52.948  29.941  1.00  0.00     0.000 C 
BRANCH   8   9
ATOM      9  C   UNL     1      33.539  51.810  30.526  1.00  0.00     0.000 C 
BRANCH   9  10
ATOM     10  C   UNL     1      32.811  51.024  31.631  1.00  0.00     0.000 C 
BRANCH  10  11
ATOM     11  C   UNL     1      32.749  49.501  31.414  1.00  0.00     0.000 C 
BRANCH  11  12
ATOM     12  C   UNL     1      31.319  48.982  31.201  1.00  0.00     0.006 C 
BRANCH  12  13
ATOM     13  C   UNL     1      30.289  49.974  31.746  1.00  0.00     0.053 C 
BRANCH  13  14
ATOM     14  C   UNL     1      29.107  50.057  30.832  1.00  0.00     0.041 C 
ATOM     15  O   UNL     1      29.273  50.113  29.585  1.00  0.00    -0.550 OA
ATOM     16  O   UNL     1      27.820  50.022  31.356  1.00  0.00    -0.550 OA
ENDBRANCH  13  14
ENDBRANCH  12  13
ENDBRANCH  11  12
ENDBRANCH  10  11
ENDBRANCH   9  10
ENDBRANCH   8   9
ENDBRANCH   7   8
ENDBRANCH   6   7
ENDBRANCH   5   6
ENDBRANCH   4   5
ENDBRANCH   3   4
ENDBRANCH   2   3
ENDBRANCH   1   2
BRANCH   1  17
ATOM     17  C   UNL     1      35.371  57.662  28.924  1.00  0.00     0.000 C 
BRANCH  17  18
ATOM     18  C   UNL     1      35.542  57.026  30.311  1.00  0.00     0.000 C 
BRANCH  18  19
ATOM     19  C   UNL     1      34.414  57.462  31.257  1.00  0.00     0.000 C 
BRANCH  19  20
ATOM     20  C   UNL     1      33.385  56.347  31.525  1.00  0.00     0.000 C 
BRANCH  20  21
ATOM     21  C   UNL     1      32.283  56.697  32.543  1.00  0.00     0.000 C 
BRANCH  21  22
ATOM     22  C   UNL     1      32.239  55.730  33.738  1.00  0.00    -0.000 C 
BRANCH  22  23
ATOM     23  C   UNL     1      32.588  54.282  33.348  1.00  0.00    -0.000 C 
BRANCH  23  24
ATOM     24  C   UNL     1      33.808  53.681  34.075  1.00  0.00    -0.000 C 
BRANCH  24  25
ATOM     25  C   UNL     1      35.105  53.632  33.244  1.00  0.00    -0.000 C 
BRANCH  25  26
ATOM     26  C   UNL     1      36.072  54.809  33.479  1.00  0.00    -0.000 C 
BRANCH  26  27
ATOM     27  C   UNL     1      35.928  55.510  34.844  1.00  0.00    -0.000 C 
BRANCH  27  28
ATOM     28  C   UNL     1      35.686  57.028  34.775  1.00  0.00    -0.000 C 
BRANCH  28  29
ATOM     29  C   UNL     1      34.562  57.495  35.711  1.00  0.00    -0.003 C 
ATOM     30  C   UNL     1      34.551  59.015  35.843  1.00  0.00     0.004 C 
ENDBRANCH  28  29
ENDBRANCH  27  28
ENDBRANCH  26  27
ENDBRANCH  25  26
ENDBRANCH  24  25
ENDBRANCH  23  24
ENDBRANCH  22  23
ENDBRANCH  21  22
ENDBRANCH  20  21
ENDBRANCH  19  20
ENDBRANCH  18  19
ENDBRANCH  17  18
ENDBRANCH   1  17
TORSDOF 26
ENDMDL
MODEL 2
REMARK VINA RESULT:    -4.789      1.747      5.878
REMARK INTER + INTRA:         -16.516
REMARK INTER:                 -12.164
REMARK INTRA:                  -4.352
REMARK UNBOUND:                -4.448
REMARK SMILES CCCCCCCCCCCCCCCCCCCCCCCCCCCC(=O)[O-]
REMARK SMILES IDX 15 1 16 2 17 3 18 4 19 5 20 6 21 7 22 8 23 9 24 10 25 11
REMARK SMILES IDX 26 12 27 13 28 14 29 15 30 16 14 17 13 18 12 19 11 20 10 21
REMARK SMILES IDX 9 22 8 23 7 24 6 25 5 26 4 27 3 28 2 29 1 30
REMARK H PARENT
REMARK Flexibility Score: inf
ROOT
ATOM      1  C   UNL     1      32.923  54.201  34.461  1.00  0.00     0.000 C 
ENDROOT
BRANCH   1   2
ATOM      2  C   UNL     1      34.298  54.835  34.739  1.00  0.00     0.000 C 
BRANCH   2   3
ATOM      3  C   UNL     1      35.421  54.191  33.914  1.00  0.00     0.000 C 
BRANCH   3   4
ATOM      4  C   UNL     1      35.747  52.758  34.374  1.00  0.00     0.000 C 
BRANCH   4   5
ATOM      5  C   UNL     1      35.511  51.715  33.271  1.00  0.00     0.000 C 
BRANCH   5   6
ATOM      6  C   UNL     1      34.812  52.307  32.038  1.00  0.00     0.000 C 
BRANCH   6   7
ATOM      7  C   UNL     1      33.541  51.519  31.696  1.00  0.00     0.000 C 
BRANCH   7   8
ATOM      8  C   UNL     1      32.606  52.342  30.801  1.00  0.00     0.000 C 
BRANCH   8   9
ATOM      9  C   UNL     1      32.178  51.538  29.565  1.00  0.00     0.000 C 
BRANCH   9  10
ATOM     10  C   UNL     1      31.599  50.157  29.919  1.00  0.00     0.000 C 
BRANCH  10  11
ATOM     11  C   UNL     1      30.086  50.004  29.680  1.00  0.00     0.000 C 
BRANCH  11  12
ATOM     12  C   UNL     1      29.287  49.836  30.981  1.00  0.00     0.006 C 
BRANCH  12  13
ATOM     13  C   UNL     1      30.219  49.582  32.169  1.00  0.00     0.053 C 
BRANCH  13  14
ATOM     14  C   UNL     1      29.901  50.515  33.294  1.00  0.00     0.041 C 
ATOM     15  O   UNL     1      29.471  50.065  34.388  1.00  0.00    -0.550 OA
ATOM     16  O   UNL     1      30.127  51.879  33.151  1.00  0.00    -0.550 OA
ENDBRANCH  13  14
ENDBRANCH  12  13
ENDBRANCH  11  12
ENDBRANCH  10  11
ENDBRANCH   9  10
ENDBRANCH   8   9
ENDBRANCH   7   8
ENDBRANCH   6   7
ENDBRANCH   5   6
ENDBRANCH   4   5
ENDBRANCH   3   4
ENDBRANCH   2   3
ENDBRANCH   1   2
BRANCH   1  17
ATOM     17  C   UNL     1      31.847  55.246  34.124  1.00  0.00     0.000 C 
BRANCH  17  18
ATOM     18  C   UNL     1      32.388  56.399  33.265  1.00  0.00     0.000 C 
BRANCH  18  19
ATOM     19  C   UNL     1      32.561  55.960  31.804  1.00  0.00     0.000 C 
BRANCH  19  20
ATOM     20  C   UNL     1      33.991  56.173  31.273  1.00  0.00     0.000 C 
BRANCH  20  21
ATOM     21  C   UNL     1      34.750  57.366  31.884  1.00  0.00     0.000 C 
BRANCH  21  22
ATOM     22  C   UNL     1      35.545  58.170  30.842  1.00  0.00    -0.000 C 
BRANCH  22  23
ATOM     23  C   UNL     1      35.231  57.749  29.395  1.00  0.00    -0.000 C 
BRANCH  23  24
ATOM     24  C   UNL     1      36.443  57.260  28.574  1.00  0.00    -0.000 C 
BRANCH  24  25
ATOM     25  C   UNL     1      36.101  56.667  27.194  1.00  0.00    -0.000 C 
BRANCH  25  26
ATOM     26  C   UNL     1      34.739  57.102  26.619  1.00  0.00    -0.000 C 
BRANCH  26  27
ATOM     27  C   UNL     1      33.728  55.960  26.398  1.00  0.00    -0.000 C 
BRANCH  27  28
ATOM     28  C   UNL     1      33.560  55.000  27.589  1.00  0.00    -0.000 C 
BRANCH  28  29
ATOM     29  C   UNL     1      32.195  55.139  28.278  1.00  0.00    -0.003 C 
ATOM     30  C   UNL     1      31.129  55.616  27.296  1.00  0.00     0.004 C 
ENDBRANCH  28  29
ENDBRANCH  27  28
ENDBRANCH  26  27
ENDBRANCH  25  26
ENDBRANCH  24  25
ENDBRANCH  23  24
ENDBRANCH  22  23
ENDBRANCH  21  22
ENDBRANCH  20  21
ENDBRANCH  19  20
ENDBRANCH  18  19
ENDBRANCH  17  18
ENDBRANCH   1  17
TORSDOF 26
ENDMDL
MODEL 3
REMARK VINA RESULT:    -4.754      2.311      6.836
REMARK INTER + INTRA:         -16.427
REMARK INTER:                 -12.099
REMARK INTRA:                  -4.327
REMARK UNBOUND:                -4.448
REMARK SMILES CCCCCCCCCCCCCCCCCCCCCCCCCCCC(=O)[O-]
REMARK SMILES IDX 15 1 16 2 17 3 18 4 19 5 20 6 21 7 22 8 23 9 24 10 25 11
REMARK SMILES IDX 26 12 27 13 28 14 29 15 30 16 14 17 13 18 12 19 11 20 10 21
REMARK SMILES IDX 9 22 8 23 7 24 6 25 5 26 4 27 3 28 2 29 1 30
REMARK H PARENT
REMARK Flexibility Score: inf
ROOT
ATOM      1  C   UNL     1      33.314  53.383  34.321  1.00  0.00     0.000 C 
ENDROOT
BRANCH   1   2
ATOM      2  C   UNL     1      32.178  54.267  33.774  1.00  0.00     0.000 C 
BRANCH   2   3
ATOM      3  C   UNL     1      32.424  55.762  34.020  1.00  0.00     0.000 C 
BRANCH   3   4
ATOM      4  C   UNL     1      32.277  56.604  32.740  1.00  0.00     0.000 C 
BRANCH   4   5
ATOM      5  C   UNL     1      32.666  55.826  31.472  1.00  0.00     0.000 C 
BRANCH   5   6
ATOM      6  C   UNL     1      34.146  56.005  31.101  1.00  0.00     0.000 C 
BRANCH   6   7
ATOM      7  C   UNL     1      34.673  57.364  31.580  1.00  0.00     0.000 C 
BRANCH   7   8
ATOM      8  C   UNL     1      35.372  58.116  30.442  1.00  0.00     0.000 C 
BRANCH   8   9
ATOM      9  C   UNL     1      35.807  57.152  29.330  1.00  0.00     0.000 C 
BRANCH   9  10
ATOM     10  C   UNL     1      35.355  57.606  27.930  1.00  0.00     0.000 C 
BRANCH  10  11
ATOM     11  C   UNL     1      34.895  56.473  26.995  1.00  0.00     0.000 C 
BRANCH  11  12
ATOM     12  C   UNL     1      33.424  56.605  26.571  1.00  0.00     0.006 C 
BRANCH  12  13
ATOM     13  C   UNL     1      32.865  55.257  26.108  1.00  0.00     0.053 C 
BRANCH  13  14
ATOM     14  C   UNL     1      31.495  55.038  26.669  1.00  0.00     0.041 C 
ATOM     15  O   UNL     1      30.956  55.920  27.387  1.00  0.00    -0.550 OA
ATOM     16  O   UNL     1      30.794  53.879  26.357  1.00  0.00    -0.550 OA
ENDBRANCH  13  14
ENDBRANCH  12  13
ENDBRANCH  11  12
ENDBRANCH  10  11
ENDBRANCH   9  10
ENDBRANCH   8   9
ENDBRANCH   7   8
ENDBRANCH   6   7
ENDBRANCH   5   6
ENDBRANCH   4   5
ENDBRANCH   3   4
ENDBRANCH   2   3
ENDBRANCH   1   2
BRANCH   1  17
ATOM     17  C   UNL     1      34.427  53.142  33.289  1.00  0.00     0.000 C 
BRANCH  17  18
ATOM     18  C   UNL     1      35.775  53.737  33.720  1.00  0.00     0.000 C 
BRANCH  18  19
ATOM     19  C   UNL     1      36.841  52.640  33.855  1.00  0.00     0.000 C 
BRANCH  19  20
ATOM     20  C   UNL     1      36.365  51.269  33.340  1.00  0.00     0.000 C 
BRANCH  20  21
ATOM     21  C   UNL     1      36.449  50.117  34.359  1.00  0.00     0.000 C 
BRANCH  21  22
ATOM     22  C   UNL     1      35.265  50.094  35.340  1.00  0.00    -0.000 C 
BRANCH  22  23
ATOM     23  C   UNL     1      34.145  49.131  34.904  1.00  0.00    -0.000 C 
BRANCH  23  24
ATOM     24  C   UNL     1      32.769  49.787  34.667  1.00  0.00    -0.000 C 
BRANCH  24  25
ATOM     25  C   UNL     1      32.312  49.834  33.196  1.00  0.00    -0.000 C 
BRANCH  25  26
ATOM     26  C   UNL     1      31.186  50.843  32.898  1.00  0.00    -0.000 C 
BRANCH  26  27
ATOM     27  C   UNL     1      31.167  51.396  31.460  1.00  0.00    -0.000 C 
BRANCH  27  28
ATOM     28  C   UNL     1      32.523  51.362  30.732  1.00  0.00    -0.000 C 
BRANCH  28  29
ATOM     29  C   UNL     1      32.432  51.856  29.281  1.00  0.00    -0.003 C 
ATOM     30  C   UNL     1      33.341  53.060  29.051  1.00  0.00     0.004 C 
ENDBRANCH  28  29
ENDBRANCH  27  28
ENDBRANCH  26  27
ENDBRANCH  25  26
ENDBRANCH  24  25
ENDBRANCH  23  24
ENDBRANCH  22  23
ENDBRANCH  21  22
ENDBRANCH  20  21
ENDBRANCH  19  20
ENDBRANCH  18  19
ENDBRANCH  17  18
ENDBRANCH   1  17
TORSDOF 26
ENDMDL
MODEL 4
REMARK VINA RESULT:    -4.684      2.721      6.701
REMARK INTER + INTRA:         -16.250
REMARK INTER:                 -11.866
REMARK INTRA:                  -4.384
REMARK UNBOUND:                -4.448
REMARK SMILES CCCCCCCCCCCCCCCCCCCCCCCCCCCC(=O)[O-]
REMARK SMILES IDX 15 1 16 2 17 3 18 4 19 5 20 6 21 7 22 8 23 9 24 10 25 11
REMARK SMILES IDX 26 12 27 13 28 14 29 15 30 16 14 17 13 18 12 19 11 20 10 21
REMARK SMILES IDX 9 22 8 23 7 24 6 25 5 26 4 27 3 28 2 29 1 30
REMARK H PARENT
REMARK Flexibility Score: inf
ROOT
ATOM      1  C   UNL     1      31.707  55.231  27.707  1.00  0.00     0.000 C 
ENDROOT
BRANCH   1   2
ATOM      2  C   UNL     1      32.052  56.256  26.611  1.00  0.00     0.000 C 
BRANCH   2   3
ATOM      3  C   UNL     1      33.411  55.978  25.951  1.00  0.00     0.000 C 
BRANCH   3   4
ATOM      4  C   UNL     1      34.487  56.999  26.361  1.00  0.00     0.000 C 
BRANCH   4   5
ATOM      5  C   UNL     1      35.036  56.745  27.774  1.00  0.00     0.000 C 
BRANCH   5   6
ATOM      6  C   UNL     1      36.040  57.819  28.220  1.00  0.00     0.000 C 
BRANCH   6   7
ATOM      7  C   UNL     1      35.898  58.114  29.719  1.00  0.00     0.000 C 
BRANCH   7   8
ATOM      8  C   UNL     1      34.949  57.115  30.389  1.00  0.00     0.000 C 
BRANCH   8   9
ATOM      9  C   UNL     1      34.508  57.616  31.772  1.00  0.00     0.000 C 
BRANCH   9  10
ATOM     10  C   UNL     1      33.194  56.973  32.252  1.00  0.00     0.000 C 
BRANCH  10  11
ATOM     11  C   UNL     1      33.180  56.545  33.730  1.00  0.00     0.000 C 
BRANCH  11  12
ATOM     12  C   UNL     1      34.588  56.357  34.314  1.00  0.00     0.006 C 
BRANCH  12  13
ATOM     13  C   UNL     1      34.892  54.875  34.546  1.00  0.00     0.053 C 
BRANCH  13  14
ATOM     14  C   UNL     1      36.042  54.436  33.696  1.00  0.00     0.041 C 
ATOM     15  O   UNL     1      36.311  53.212  33.577  1.00  0.00    -0.550 OA
ATOM     16  O   UNL     1      36.786  55.377  32.994  1.00  0.00    -0.550 OA
ENDBRANCH  13  14
ENDBRANCH  12  13
ENDBRANCH  11  12
ENDBRANCH  10  11
ENDBRANCH   9  10
ENDBRANCH   8   9
ENDBRANCH   7   8
ENDBRANCH   6   7
ENDBRANCH   5   6
ENDBRANCH   4   5
ENDBRANCH   3   4
ENDBRANCH   2   3
ENDBRANCH   1   2
BRANCH   1  17
ATOM     17  C   UNL     1      32.280  53.835  27.414  1.00  0.00     0.000 C 
BRANCH  17  18
ATOM     18  C   UNL     1      33.183  53.316  28.543  1.00  0.00     0.000 C 
BRANCH  18  19
ATOM     19  C   UNL     1      32.995  54.146  29.821  1.00  0.00     0.000 C 
BRANCH  19  20
ATOM     20  C   UNL     1      33.493  53.426  31.088  1.00  0.00     0.000 C 
BRANCH  20  21
ATOM     21  C   UNL     1      32.476  53.342  32.242  1.00  0.00     0.000 C 
BRANCH  21  22
ATOM     22  C   UNL     1      32.725  52.147  33.178  1.00  0.00    -0.000 C 
BRANCH  22  23
ATOM     23  C   UNL     1      33.683  51.104  32.575  1.00  0.00    -0.000 C 
BRANCH  23  24
ATOM     24  C   UNL     1      33.275  49.633  32.793  1.00  0.00    -0.000 C 
BRANCH  24  25
ATOM     25  C   UNL     1      32.223  49.092  31.806  1.00  0.00    -0.000 C 
BRANCH  25  26
ATOM     26  C   UNL     1      30.911  49.898  31.750  1.00  0.00    -0.000 C 
BRANCH  26  27
ATOM     27  C   UNL     1      30.636  50.607  30.409  1.00  0.00    -0.000 C 
BRANCH  27  28
ATOM     28  C   UNL     1      31.496  50.123  29.228  1.00  0.00    -0.000 C 
BRANCH  28  29
ATOM     29  C   UNL     1      30.731  49.191  28.278  1.00  0.00    -0.003 C 
ATOM     30  C   UNL     1      31.490  47.885  28.058  1.00  0.00     0.004 C 
ENDBRANCH  28  29
ENDBRANCH  27  28
ENDBRANCH  26  27
ENDBRANCH  25  26
ENDBRANCH  24  25
ENDBRANCH  23  24
ENDBRANCH  22  23
ENDBRANCH  21  22
ENDBRANCH  20  21
ENDBRANCH  19  20
ENDBRANCH  18  19
ENDBRANCH  17  18
ENDBRANCH   1  17
TORSDOF 26
ENDMDL
MODEL 5
REMARK VINA RESULT:    -4.678      2.584      5.958
REMARK INTER + INTRA:         -16.236
REMARK INTER:                 -12.024
REMARK INTRA:                  -4.212
REMARK UNBOUND:                -4.448
REMARK SMILES CCCCCCCCCCCCCCCCCCCCCCCCCCCC(=O)[O-]
REMARK SMILES IDX 15 1 16 2 17 3 18 4 19 5 20 6 21 7 22 8 23 9 24 10 25 11
REMARK SMILES IDX 26 12 27 13 28 14 29 15 30 16 14 17 13 18 12 19 11 20 10 21
REMARK SMILES IDX 9 22 8 23 7 24 6 25 5 26 4 27 3 28 2 29 1 30
REMARK H PARENT
REMARK Flexibility Score: inf
ROOT
ATOM      1  C   UNL     1      34.896  56.724  29.897  1.00  0.00     0.000 C 
ENDROOT
BRANCH   1   2
ATOM      2  C   UNL     1      34.422  56.696  31.361  1.00  0.00     0.000 C 
BRANCH   2   3
ATOM      3  C   UNL     1      33.107  55.924  31.541  1.00  0.00     0.000 C 
BRANCH   3   4
ATOM      4  C   UNL     1      32.272  56.445  32.724  1.00  0.00     0.000 C 
BRANCH   4   5
ATOM      5  C   UNL     1      32.451  55.597  33.993  1.00  0.00     0.000 C 
BRANCH   5   6
ATOM      6  C   UNL     1      33.382  56.261  35.020  1.00  0.00     0.000 C 
BRANCH   6   7
ATOM      7  C   UNL     1      34.785  55.643  34.970  1.00  0.00     0.000 C 
BRANCH   7   8
ATOM      8  C   UNL     1      34.729  54.189  34.484  1.00  0.00     0.000 C 
BRANCH   8   9
ATOM      9  C   UNL     1      35.779  53.932  33.395  1.00  0.00     0.000 C 
BRANCH   9  10
ATOM     10  C   UNL     1      36.622  52.671  33.659  1.00  0.00     0.000 C 
BRANCH  10  11
ATOM     11  C   UNL     1      35.881  51.337  33.453  1.00  0.00     0.000 C 
BRANCH  11  12
ATOM     12  C   UNL     1      36.737  50.114  33.814  1.00  0.00     0.006 C 
BRANCH  12  13
ATOM     13  C   UNL     1      36.006  49.209  34.810  1.00  0.00     0.053 C 
BRANCH  13  14
ATOM     14  C   UNL     1      35.267  48.126  34.089  1.00  0.00     0.041 C 
ATOM     15  O   UNL     1      34.376  47.464  34.683  1.00  0.00    -0.550 OA
ATOM     16  O   UNL     1      35.529  47.881  32.747  1.00  0.00    -0.550 OA
ENDBRANCH  13  14
ENDBRANCH  12  13
ENDBRANCH  11  12
ENDBRANCH  10  11
ENDBRANCH   9  10
ENDBRANCH   8   9
ENDBRANCH   7   8
ENDBRANCH   6   7
ENDBRANCH   5   6
ENDBRANCH   4   5
ENDBRANCH   3   4
ENDBRANCH   2   3
ENDBRANCH   1   2
BRANCH   1  17
ATOM     17  C   UNL     1      35.738  57.968  29.570  1.00  0.00     0.000 C 
BRANCH  17  18
ATOM     18  C   UNL     1      36.347  57.918  28.161  1.00  0.00     0.000 C 
BRANCH  18  19
ATOM     19  C   UNL     1      35.693  56.813  27.319  1.00  0.00     0.000 C 
BRANCH  19  20
ATOM     20  C   UNL     1      34.513  57.319  26.469  1.00  0.00     0.000 C 
BRANCH  20  21
ATOM     21  C   UNL     1      33.609  56.222  25.875  1.00  0.00     0.000 C 
BRANCH  21  22
ATOM     22  C   UNL     1      32.250  56.112  26.587  1.00  0.00    -0.000 C 
BRANCH  22  23
ATOM     23  C   UNL     1      32.324  55.310  27.898  1.00  0.00    -0.000 C 
BRANCH  23  24
ATOM     24  C   UNL     1      32.768  53.840  27.746  1.00  0.00    -0.000 C 
BRANCH  24  25
ATOM     25  C   UNL     1      33.407  53.217  29.002  1.00  0.00    -0.000 C 
BRANCH  25  26
ATOM     26  C   UNL     1      32.428  52.461  29.921  1.00  0.00    -0.000 C 
BRANCH  26  27
ATOM     27  C   UNL     1      32.930  52.229  31.360  1.00  0.00    -0.000 C 
BRANCH  27  28
ATOM     28  C   UNL     1      31.890  52.496  32.463  1.00  0.00    -0.000 C 
BRANCH  28  29
ATOM     29  C   UNL     1      31.986  51.496  33.625  1.00  0.00    -0.003 C 
ATOM     30  C   UNL     1      32.464  50.131  33.138  1.00  0.00     0.004 C 
ENDBRANCH  28  29
ENDBRANCH  27  28
ENDBRANCH  26  27
ENDBRANCH  25  26
ENDBRANCH  24  25
ENDBRANCH  23  24
ENDBRANCH  22  23
ENDBRANCH  21  22
ENDBRANCH  20  21
ENDBRANCH  19  20
ENDBRANCH  18  19
ENDBRANCH  17  18
ENDBRANCH   1  17
TORSDOF 26
ENDMDL
MODEL 6
REMARK VINA RESULT:    -4.672      1.749      3.251
REMARK INTER + INTRA:         -16.220
REMARK INTER:                 -12.106
REMARK INTRA:                  -4.114
REMARK UNBOUND:                -4.448
REMARK SMILES CCCCCCCCCCCCCCCCCCCCCCCCCCCC(=O)[O-]
REMARK SMILES IDX 15 1 16 2 17 3 18 4 19 5 20 6 21 7 22 8 23 9 24 10 25 11
REMARK SMILES IDX 26 12 27 13 28 14 29 15 30 16 14 17 13 18 12 19 11 20 10 21
REMARK SMILES IDX 9 22 8 23 7 24 6 25 5 26 4 27 3 28 2 29 1 30
REMARK H PARENT
REMARK Flexibility Score: inf
ROOT
ATOM      1  C   UNL     1      36.300  56.629  27.760  1.00  0.00     0.000 C 
ENDROOT
BRANCH   1   2
ATOM      2  C   UNL     1      35.939  56.911  26.290  1.00  0.00     0.000 C 
BRANCH   2   3
ATOM      3  C   UNL     1      34.451  57.236  26.100  1.00  0.00     0.000 C 
BRANCH   3   4
ATOM      4  C   UNL     1      33.572  55.974  26.039  1.00  0.00     0.000 C 
BRANCH   4   5
ATOM      5  C   UNL     1      32.168  56.202  26.619  1.00  0.00     0.000 C 
BRANCH   5   6
ATOM      6  C   UNL     1      31.866  55.284  27.813  1.00  0.00     0.000 C 
BRANCH   6   7
ATOM      7  C   UNL     1      33.082  54.413  28.157  1.00  0.00     0.000 C 
BRANCH   7   8
ATOM      8  C   UNL     1      32.673  52.948  28.352  1.00  0.00     0.000 C 
BRANCH   8   9
ATOM      9  C   UNL     1      33.274  52.376  29.643  1.00  0.00     0.000 C 
BRANCH   9  10
ATOM     10  C   UNL     1      32.992  53.252  30.877  1.00  0.00     0.000 C 
BRANCH  10  11
ATOM     11  C   UNL     1      32.312  52.525  32.051  1.00  0.00     0.000 C 
BRANCH  11  12
ATOM     12  C   UNL     1      31.562  51.256  31.618  1.00  0.00     0.006 C 
BRANCH  12  13
ATOM     13  C   UNL     1      32.219  50.004  32.204  1.00  0.00     0.053 C 
BRANCH  13  14
ATOM     14  C   UNL     1      32.603  49.055  31.113  1.00  0.00     0.041 C 
ATOM     15  O   UNL     1      33.507  48.201  31.306  1.00  0.00    -0.550 OA
ATOM     16  O   UNL     1      31.927  49.081  29.899  1.00  0.00    -0.550 OA
ENDBRANCH  13  14
ENDBRANCH  12  13
ENDBRANCH  11  12
ENDBRANCH  10  11
ENDBRANCH   9  10
ENDBRANCH   8   9
ENDBRANCH   7   8
ENDBRANCH   6   7
ENDBRANCH   5   6
ENDBRANCH   4   5
ENDBRANCH   3   4
ENDBRANCH   2   3
ENDBRANCH   1   2
BRANCH   1  17
ATOM     17  C   UNL     1      36.777  57.887  28.504  1.00  0.00     0.000 C 
BRANCH  17  18
ATOM     18  C   UNL     1      36.003  58.134  29.808  1.00  0.00     0.000 C 
BRANCH  18  19
ATOM     19  C   UNL     1      34.686  57.344  29.822  1.00  0.00     0.000 C 
BRANCH  19  20
ATOM     20  C   UNL     1      34.481  56.534  31.115  1.00  0.00     0.000 C 
BRANCH  20  21
ATOM     21  C   UNL     1      33.621  57.220  32.194  1.00  0.00     0.000 C 
BRANCH  21  22
ATOM     22  C   UNL     1      32.331  56.447  32.516  1.00  0.00    -0.000 C 
BRANCH  22  23
ATOM     23  C   UNL     1      32.397  55.711  33.867  1.00  0.00    -0.000 C 
BRANCH  23  24
ATOM     24  C   UNL     1      33.685  55.946  34.682  1.00  0.00    -0.000 C 
BRANCH  24  25
ATOM     25  C   UNL     1      34.581  54.705  34.862  1.00  0.00    -0.000 C 
BRANCH  25  26
ATOM     26  C   UNL     1      35.297  54.231  33.582  1.00  0.00    -0.000 C 
BRANCH  26  27
ATOM     27  C   UNL     1      36.245  53.030  33.771  1.00  0.00    -0.000 C 
BRANCH  27  28
ATOM     28  C   UNL     1      35.755  51.710  33.151  1.00  0.00    -0.000 C 
BRANCH  28  29
ATOM     29  C   UNL     1      36.537  50.489  33.656  1.00  0.00    -0.003 C 
ATOM     30  C   UNL     1      35.595  49.348  34.032  1.00  0.00     0.004 C 
ENDBRANCH  28  29
ENDBRANCH  27  28
ENDBRANCH  26  27
ENDBRANCH  25  26
ENDBRANCH  24  25
ENDBRANCH  23  24
ENDBRANCH  22  23
ENDBRANCH  21  22
ENDBRANCH  20  21
ENDBRANCH  19  20
ENDBRANCH  18  19
ENDBRANCH  17  18
ENDBRANCH   1  17
TORSDOF 26
ENDMDL
MODEL 7
REMARK VINA RESULT:    -4.658      2.135      6.499
REMARK INTER + INTRA:         -16.186
REMARK INTER:                 -11.431
REMARK INTRA:                  -4.755
REMARK UNBOUND:                -4.448
REMARK SMILES CCCCCCCCCCCCCCCCCCCCCCCCCCCC(=O)[O-]
REMARK SMILES IDX 15 1 16 2 17 3 18 4 19 5 20 6 21 7 22 8 23 9 24 10 25 11
REMARK SMILES IDX 26 12 27 13 28 14 29 15 30 16 14 17 13 18 12 19 11 20 10 21
REMARK SMILES IDX 9 22 8 23 7 24 6 25 5 26 4 27 3 28 2 29 1 30
REMARK H PARENT
REMARK Flexibility Score: inf
ROOT
ATOM      1  C   UNL     1      34.135  57.172  34.500  1.00  0.00     0.000 C 
ENDROOT
BRANCH   1   2
ATOM      2  C   UNL     1      33.149  56.007  34.703  1.00  0.00     0.000 C 
BRANCH   2   3
ATOM      3  C   UNL     1      32.178  55.845  33.524  1.00  0.00     0.000 C 
BRANCH   3   4
ATOM      4  C   UNL     1      32.560  56.721  32.318  1.00  0.00     0.000 C 
BRANCH   4   5
ATOM      5  C   UNL     1      32.768  55.902  31.035  1.00  0.00     0.000 C 
BRANCH   5   6
ATOM      6  C   UNL     1      34.216  55.961  30.524  1.00  0.00     0.000 C 
BRANCH   6   7
ATOM      7  C   UNL     1      34.869  57.302  30.880  1.00  0.00     0.000 C 
BRANCH   7   8
ATOM      8  C   UNL     1      35.478  57.964  29.639  1.00  0.00     0.000 C 
BRANCH   8   9
ATOM      9  C   UNL     1      36.421  57.000  28.906  1.00  0.00     0.000 C 
BRANCH   9  10
ATOM     10  C   UNL     1      36.201  56.986  27.383  1.00  0.00     0.000 C 
BRANCH  10  11
ATOM     11  C   UNL     1      34.782  57.370  26.926  1.00  0.00     0.000 C 
BRANCH  11  12
ATOM     12  C   UNL     1      34.005  56.191  26.322  1.00  0.00     0.006 C 
BRANCH  12  13
ATOM     13  C   UNL     1      32.533  56.234  26.737  1.00  0.00     0.053 C 
BRANCH  13  14
ATOM     14  C   UNL     1      31.901  54.888  26.568  1.00  0.00     0.041 C 
ATOM     15  O   UNL     1      30.730  54.681  26.980  1.00  0.00    -0.550 OA
ATOM     16  O   UNL     1      32.589  53.876  25.909  1.00  0.00    -0.550 OA
ENDBRANCH  13  14
ENDBRANCH  12  13
ENDBRANCH  11  12
ENDBRANCH  10  11
ENDBRANCH   9  10
ENDBRANCH   8   9
ENDBRANCH   7   8
ENDBRANCH   6   7
ENDBRANCH   5   6
ENDBRANCH   4   5
ENDBRANCH   3   4
ENDBRANCH   2   3
ENDBRANCH   1   2
BRANCH   1  17
ATOM     17  C   UNL     1      35.587  56.696  34.334  1.00  0.00     0.000 C 
BRANCH  17  18
ATOM     18  C   UNL     1      35.772  55.216  34.700  1.00  0.00     0.000 C 
BRANCH  18  19
ATOM     19  C   UNL     1      36.332  54.422  33.511  1.00  0.00     0.000 C 
BRANCH  19  20
ATOM     20  C   UNL     1      35.751  53.000  33.407  1.00  0.00     0.000 C 
BRANCH  20  21
ATOM     21  C   UNL     1      34.223  52.923  33.228  1.00  0.00     0.000 C 
BRANCH  21  22
ATOM     22  C   UNL     1      33.806  52.338  31.867  1.00  0.00    -0.000 C 
BRANCH  22  23
ATOM     23  C   UNL     1      32.297  52.471  31.596  1.00  0.00    -0.000 C 
BRANCH  23  24
ATOM     24  C   UNL     1      31.394  52.384  32.844  1.00  0.00    -0.000 C 
BRANCH  24  25
ATOM     25  C   UNL     1      30.088  51.590  32.652  1.00  0.00    -0.000 C 
BRANCH  25  26
ATOM     26  C   UNL     1      30.168  50.102  33.043  1.00  0.00    -0.000 C 
BRANCH  26  27
ATOM     27  C   UNL     1      31.113  49.785  34.220  1.00  0.00    -0.000 C 
BRANCH  27  28
ATOM     28  C   UNL     1      32.519  49.310  33.816  1.00  0.00    -0.000 C 
BRANCH  28  29
ATOM     29  C   UNL     1      33.589  49.664  34.858  1.00  0.00    -0.003 C 
ATOM     30  C   UNL     1      33.062  50.684  35.864  1.00  0.00     0.004 C 
ENDBRANCH  28  29
ENDBRANCH  27  28
ENDBRANCH  26  27
ENDBRANCH  25  26
ENDBRANCH  24  25
ENDBRANCH  23  24
ENDBRANCH  22  23
ENDBRANCH  21  22
ENDBRANCH  20  21
ENDBRANCH  19  20
ENDBRANCH  18  19
ENDBRANCH  17  18
ENDBRANCH   1  17
TORSDOF 26
ENDMDL
MODEL 8
REMARK VINA RESULT:    -4.654      1.210      2.286
REMARK INTER + INTRA:         -16.176
REMARK INTER:                 -11.762
REMARK INTRA:                  -4.414
REMARK UNBOUND:                -4.448
REMARK SMILES CCCCCCCCCCCCCCCCCCCCCCCCCCCC(=O)[O-]
REMARK SMILES IDX 15 1 16 2 17 3 18 4 19 5 20 6 21 7 22 8 23 9 24 10 25 11
REMARK SMILES IDX 26 12 27 13 28 14 29 15 30 16 14 17 13 18 12 19 11 20 10 21
REMARK SMILES IDX 9 22 8 23 7 24 6 25 5 26 4 27 3 28 2 29 1 30
REMARK H PARENT
REMARK Flexibility Score: inf
ROOT
ATOM      1  C   UNL     1      34.872  57.688  30.785  1.00  0.00     0.000 C 
ENDROOT
BRANCH   1   2
ATOM      2  C   UNL     1      35.611  57.756  29.437  1.00  0.00     0.000 C 
BRANCH   2   3
ATOM      3  C   UNL     1      35.278  56.568  28.522  1.00  0.00     0.000 C 
BRANCH   3   4
ATOM      4  C   UNL     1      34.870  57.009  27.105  1.00  0.00     0.000 C 
BRANCH   4   5
ATOM      5  C   UNL     1      33.558  56.360  26.639  1.00  0.00     0.000 C 
BRANCH   5   6
ATOM      6  C   UNL     1      32.757  55.748  27.798  1.00  0.00     0.000 C 
BRANCH   6   7
ATOM      7  C   UNL     1      31.977  54.511  27.335  1.00  0.00     0.000 C 
BRANCH   7   8
ATOM      8  C   UNL     1      32.623  53.224  27.861  1.00  0.00     0.000 C 
BRANCH   8   9
ATOM      9  C   UNL     1      32.905  53.325  29.367  1.00  0.00     0.000 C 
BRANCH   9  10
ATOM     10  C   UNL     1      32.923  51.955  30.068  1.00  0.00     0.000 C 
BRANCH  10  11
ATOM     11  C   UNL     1      31.540  51.403  30.457  1.00  0.00     0.000 C 
BRANCH  11  12
ATOM     12  C   UNL     1      31.563  50.586  31.757  1.00  0.00     0.006 C 
BRANCH  12  13
ATOM     13  C   UNL     1      30.247  49.828  31.952  1.00  0.00     0.053 C 
BRANCH  13  14
ATOM     14  C   UNL     1      29.324  50.601  32.840  1.00  0.00     0.041 C 
ATOM     15  O   UNL     1      29.353  51.859  32.842  1.00  0.00    -0.550 OA
ATOM     16  O   UNL     1      28.398  49.931  33.630  1.00  0.00    -0.550 OA
ENDBRANCH  13  14
ENDBRANCH  12  13
ENDBRANCH  11  12
ENDBRANCH  10  11
ENDBRANCH   9  10
ENDBRANCH   8   9
ENDBRANCH   7   8
ENDBRANCH   6   7
ENDBRANCH   5   6
ENDBRANCH   4   5
ENDBRANCH   3   4
ENDBRANCH   2   3
ENDBRANCH   1   2
BRANCH   1  17
ATOM     17  C   UNL     1      34.463  56.256  31.166  1.00  0.00     0.000 C 
BRANCH  17  18
ATOM     18  C   UNL     1      32.991  56.153  31.593  1.00  0.00     0.000 C 
BRANCH  18  19
ATOM     19  C   UNL     1      32.790  56.714  33.008  1.00  0.00     0.000 C 
BRANCH  19  20
ATOM     20  C   UNL     1      32.490  55.623  34.053  1.00  0.00     0.000 C 
BRANCH  20  21
ATOM     21  C   UNL     1      31.930  54.304  33.488  1.00  0.00     0.000 C 
BRANCH  21  22
ATOM     22  C   UNL     1      32.792  53.082  33.848  1.00  0.00    -0.000 C 
BRANCH  22  23
ATOM     23  C   UNL     1      34.198  53.467  34.343  1.00  0.00    -0.000 C 
BRANCH  23  24
ATOM     24  C   UNL     1      35.344  53.195  33.346  1.00  0.00    -0.000 C 
BRANCH  24  25
ATOM     25  C   UNL     1      36.654  53.953  33.632  1.00  0.00    -0.000 C 
BRANCH  25  26
ATOM     26  C   UNL     1      36.477  55.442  33.988  1.00  0.00    -0.000 C 
BRANCH  26  27
ATOM     27  C   UNL     1      36.967  55.841  35.394  1.00  0.00    -0.000 C 
BRANCH  27  28
ATOM     28  C   UNL     1      36.164  56.967  36.069  1.00  0.00    -0.000 C 
BRANCH  28  29
ATOM     29  C   UNL     1      35.608  57.986  35.064  1.00  0.00    -0.003 C 
ATOM     30  C   UNL     1      34.435  58.760  35.657  1.00  0.00     0.004 C 
ENDBRANCH  28  29
ENDBRANCH  27  28
ENDBRANCH  26  27
ENDBRANCH  25  26
ENDBRANCH  24  25
ENDBRANCH  23  24
ENDBRANCH  22  23
ENDBRANCH  21  22
ENDBRANCH  20  21
ENDBRANCH  19  20
ENDBRANCH  18  19
ENDBRANCH  17  18
ENDBRANCH   1  17
TORSDOF 26
ENDMDL
MODEL 9
REMARK VINA RESULT:    -4.644      1.490      4.651
REMARK INTER + INTRA:         -16.150
REMARK INTER:                 -11.659
REMARK INTRA:                  -4.491
REMARK UNBOUND:                -4.448
REMARK SMILES CCCCCCCCCCCCCCCCCCCCCCCCCCCC(=O)[O-]
REMARK SMILES IDX 15 1 16 2 17 3 18 4 19 5 20 6 21 7 22 8 23 9 24 10 25 11
REMARK SMILES IDX 26 12 27 13 28 14 29 15 30 16 14 17 13 18 12 19 11 20 10 21
REMARK SMILES IDX 9 22 8 23 7 24 6 25 5 26 4 27 3 28 2 29 1 30
REMARK H PARENT
REMARK Flexibility Score: inf
ROOT
ATOM      1  C   UNL     1      33.049  55.045  29.130  1.00  0.00     0.000 C 
ENDROOT
BRANCH   1   2
ATOM      2  C   UNL     1      32.814  54.384  30.501  1.00  0.00     0.000 C 
BRANCH   2   3
ATOM      3  C   UNL     1      32.803  52.850  30.422  1.00  0.00     0.000 C 
BRANCH   3   4
ATOM      4  C   UNL     1      34.012  52.213  31.129  1.00  0.00     0.000 C 
BRANCH   4   5
ATOM      5  C   UNL     1      34.282  52.830  32.511  1.00  0.00     0.000 C 
BRANCH   5   6
ATOM      6  C   UNL     1      35.568  52.292  33.157  1.00  0.00     0.000 C 
BRANCH   6   7
ATOM      7  C   UNL     1      35.414  50.814  33.536  1.00  0.00     0.000 C 
BRANCH   7   8
ATOM      8  C   UNL     1      34.165  50.593  34.397  1.00  0.00     0.000 C 
BRANCH   8   9
ATOM      9  C   UNL     1      33.231  49.556  33.758  1.00  0.00     0.000 C 
BRANCH   9  10
ATOM     10  C   UNL     1      31.742  49.854  34.008  1.00  0.00     0.000 C 
BRANCH  10  11
ATOM     11  C   UNL     1      31.314  51.308  33.738  1.00  0.00     0.000 C 
BRANCH  11  12
ATOM     12  C   UNL     1      30.231  51.423  32.654  1.00  0.00     0.006 C 
BRANCH  12  13
ATOM     13  C   UNL     1      30.418  50.353  31.576  1.00  0.00     0.053 C 
BRANCH  13  14
ATOM     14  C   UNL     1      29.159  50.181  30.785  1.00  0.00     0.041 C 
ATOM     15  O   UNL     1      29.210  50.059  29.533  1.00  0.00    -0.550 OA
ATOM     16  O   UNL     1      27.934  50.107  31.436  1.00  0.00    -0.550 OA
ENDBRANCH  13  14
ENDBRANCH  12  13
ENDBRANCH  11  12
ENDBRANCH  10  11
ENDBRANCH   9  10
ENDBRANCH   8   9
ENDBRANCH   7   8
ENDBRANCH   6   7
ENDBRANCH   5   6
ENDBRANCH   4   5
ENDBRANCH   3   4
ENDBRANCH   2   3
ENDBRANCH   1   2
BRANCH   1  17
ATOM     17  C   UNL     1      33.077  54.027  27.979  1.00  0.00     0.000 C 
BRANCH  17  18
ATOM     18  C   UNL     1      32.559  54.612  26.657  1.00  0.00     0.000 C 
BRANCH  18  19
ATOM     19  C   UNL     1      32.710  56.140  26.637  1.00  0.00     0.000 C 
BRANCH  19  20
ATOM     20  C   UNL     1      34.015  56.610  25.967  1.00  0.00     0.000 C 
BRANCH  20  21
ATOM     21  C   UNL     1      34.968  57.414  26.871  1.00  0.00     0.000 C 
BRANCH  21  22
ATOM     22  C   UNL     1      36.115  56.564  27.444  1.00  0.00    -0.000 C 
BRANCH  22  23
ATOM     23  C   UNL     1      36.365  56.828  28.939  1.00  0.00    -0.000 C 
BRANCH  23  24
ATOM     24  C   UNL     1      35.698  58.098  29.504  1.00  0.00    -0.000 C 
BRANCH  24  25
ATOM     25  C   UNL     1      34.924  57.900  30.822  1.00  0.00    -0.000 C 
BRANCH  25  26
ATOM     26  C   UNL     1      35.262  56.604  31.585  1.00  0.00    -0.000 C 
BRANCH  26  27
ATOM     27  C   UNL     1      35.039  56.666  33.109  1.00  0.00    -0.000 C 
BRANCH  27  28
ATOM     28  C   UNL     1      33.576  56.861  33.545  1.00  0.00    -0.000 C 
BRANCH  28  29
ATOM     29  C   UNL     1      33.118  55.816  34.573  1.00  0.00    -0.003 C 
ATOM     30  C   UNL     1      31.857  55.096  34.101  1.00  0.00     0.004 C 
ENDBRANCH  28  29
ENDBRANCH  27  28
ENDBRANCH  26  27
ENDBRANCH  25  26
ENDBRANCH  24  25
ENDBRANCH  23  24
ENDBRANCH  22  23
ENDBRANCH  21  22
ENDBRANCH  20  21
ENDBRANCH  19  20
ENDBRANCH  18  19
ENDBRANCH  17  18
ENDBRANCH   1  17
TORSDOF 26
ENDMDL
