MODEL 1
REMARK VINA RESULT:    -4.090      0.000      0.000
REMARK INTER + INTRA:          -4.210
REMARK INTER:                  -4.210
REMARK INTRA:                   0.000
REMARK UNBOUND:                 0.000
REMARK SMILES O=c1ccc2ccc(O)cc2o1
REMARK SMILES IDX 6 1 7 2 8 3 10 4 11 5 5 6 4 7 3 8 2 9 1 10 12 11 9 12
REMARK H PARENT 9 13
REMARK Flexibility Score: inf
ROOT
ATOM      1  C   UNL     1      -5.574  70.911  -7.459  1.00  0.00     0.016 A 
ATOM      2  C   UNL     1      -6.125  72.196  -7.474  1.00  0.00     0.047 A 
ATOM      3  C   UNL     1      -5.559  73.218  -6.701  1.00  0.00     0.119 A 
ATOM      4  C   UNL     1      -4.434  72.952  -5.906  1.00  0.00     0.094 A 
ATOM      5  C   UNL     1      -3.876  71.669  -5.885  1.00  0.00     0.142 A 
ATOM      6  C   UNL     1      -4.450  70.641  -6.666  1.00  0.00     0.018 A 
ATOM      7  C   UNL     1      -3.870  69.370  -6.625  1.00  0.00     0.019 A 
ATOM      8  C   UNL     1      -2.752  69.154  -5.820  1.00  0.00     0.094 A 
ATOM      9  C   UNL     1      -2.237  70.220  -5.073  1.00  0.00     0.336 A 
ATOM     10  O   UNL     1      -1.229  70.044  -4.341  1.00  0.00    -0.246 OA
ATOM     11  O   UNL     1      -2.808  71.421  -5.131  1.00  0.00    -0.423 OA
ENDROOT
BRANCH   3  12
ATOM     12  O   UNL     1      -6.123  74.491  -6.729  1.00  0.00    -0.508 OA
ATOM     13  H   UNL     1      -6.106  75.059  -7.569  1.00  0.00     0.293 HD
ENDBRANCH   3  12
TORSDOF 1
ENDMDL
MODEL 2
REMARK VINA RESULT:    -3.961     12.000     12.557
REMARK INTER + INTRA:          -4.077
REMARK INTER:                  -4.077
REMARK INTRA:                   0.000
REMARK UNBOUND:                 0.000
REMARK SMILES O=c1ccc2ccc(O)cc2o1
REMARK SMILES IDX 6 1 7 2 8 3 10 4 11 5 5 6 4 7 3 8 2 9 1 10 12 11 9 12
REMARK H PARENT 9 13
REMARK Flexibility Score: inf
ROOT
ATOM      1  C   UNL     1      -2.010  60.380  -3.696  1.00  0.00     0.016 A 
ATOM      2  C   UNL     1      -3.321  59.997  -3.998  1.00  0.00     0.047 A 
ATOM      3  C   UNL     1      -3.592  59.249  -5.151  1.00  0.00     0.119 A 
ATOM      4  C   UNL     1      -2.544  58.882  -6.009  1.00  0.00     0.094 A 
ATOM      5  C   UNL     1      -1.229  59.263  -5.716  1.00  0.00     0.142 A 
ATOM      6  C   UNL     1      -0.961  60.017  -4.551  1.00  0.00     0.018 A 
ATOM      7  C   UNL     1       0.362  60.382  -4.284  1.00  0.00     0.019 A 
ATOM      8  C   UNL     1       1.370  59.994  -5.166  1.00  0.00     0.094 A 
ATOM      9  C   UNL     1       1.030  59.247  -6.300  1.00  0.00     0.336 A 
ATOM     10  O   UNL     1       1.926  58.889  -7.108  1.00  0.00    -0.246 OA
ATOM     11  O   UNL     1      -0.238  58.913  -6.531  1.00  0.00    -0.423 OA
ENDROOT
BRANCH   3  12
ATOM     12  O   UNL     1      -4.903  58.876  -5.434  1.00  0.00    -0.508 OA
ATOM     13  H   UNL     1      -5.457  58.346  -4.772  1.00  0.00     0.293 HD
ENDBRANCH   3  12
TORSDOF 1
ENDMDL
MODEL 3
REMARK VINA RESULT:    -3.858     12.028     13.047
REMARK INTER + INTRA:          -3.970
REMARK INTER:                  -3.970
REMARK INTRA:                   0.000
REMARK UNBOUND:                 0.000
REMARK SMILES O=c1ccc2ccc(O)cc2o1
REMARK SMILES IDX 6 1 7 2 8 3 10 4 11 5 5 6 4 7 3 8 2 9 1 10 12 11 9 12
REMARK H PARENT 9 13
REMARK Flexibility Score: inf
ROOT
ATOM      1  C   UNL     1       0.660  60.374  -4.373  1.00  0.00     0.016 A 
ATOM      2  C   UNL     1       1.663  59.992  -5.269  1.00  0.00     0.047 A 
ATOM      3  C   UNL     1       1.346  59.246  -6.412  1.00  0.00     0.119 A 
ATOM      4  C   UNL     1       0.015  58.877  -6.659  1.00  0.00     0.094 A 
ATOM      5  C   UNL     1      -0.996  59.254  -5.768  1.00  0.00     0.142 A 
ATOM      6  C   UNL     1      -0.671  60.007  -4.617  1.00  0.00     0.018 A 
ATOM      7  C   UNL     1      -1.703  60.369  -3.745  1.00  0.00     0.019 A 
ATOM      8  C   UNL     1      -3.010  59.980  -4.033  1.00  0.00     0.094 A 
ATOM      9  C   UNL     1      -3.257  59.235  -5.192  1.00  0.00     0.336 A 
ATOM     10  O   UNL     1      -4.430  58.875  -5.469  1.00  0.00    -0.246 OA
ATOM     11  O   UNL     1      -2.257  58.904  -6.006  1.00  0.00    -0.423 OA
ENDROOT
BRANCH   3  12
ATOM     12  O   UNL     1       2.360  58.876  -7.292  1.00  0.00    -0.508 OA
ATOM     13  H   UNL     1       2.901  59.568  -7.796  1.00  0.00     0.293 HD
ENDBRANCH   3  12
TORSDOF 1
ENDMDL
MODEL 4
REMARK VINA RESULT:    -3.842      0.786      4.225
REMARK INTER + INTRA:          -3.954
REMARK INTER:                  -3.954
REMARK INTRA:                   0.000
REMARK UNBOUND:                 0.000
REMARK SMILES O=c1ccc2ccc(O)cc2o1
REMARK SMILES IDX 6 1 7 2 8 3 10 4 11 5 5 6 4 7 3 8 2 9 1 10 12 11 9 12
REMARK H PARENT 9 13
REMARK Flexibility Score: inf
ROOT
ATOM      1  C   UNL     1      -3.897  69.302  -6.632  1.00  0.00     0.016 A 
ATOM      2  C   UNL     1      -2.764  69.075  -5.845  1.00  0.00     0.047 A 
ATOM      3  C   UNL     1      -2.192  70.119  -5.107  1.00  0.00     0.119 A 
ATOM      4  C   UNL     1      -2.758  71.402  -5.158  1.00  0.00     0.094 A 
ATOM      5  C   UNL     1      -3.892  71.640  -5.943  1.00  0.00     0.142 A 
ATOM      6  C   UNL     1      -4.465  70.582  -6.685  1.00  0.00     0.018 A 
ATOM      7  C   UNL     1      -5.598  70.850  -7.460  1.00  0.00     0.019 A 
ATOM      8  C   UNL     1      -6.125  72.141  -7.479  1.00  0.00     0.094 A 
ATOM      9  C   UNL     1      -5.504  73.138  -6.718  1.00  0.00     0.336 A 
ATOM     10  O   UNL     1      -5.965  74.309  -6.722  1.00  0.00    -0.246 OA
ATOM     11  O   UNL     1      -4.427  72.857  -5.989  1.00  0.00    -0.423 OA
ENDROOT
BRANCH   3  12
ATOM     12  O   UNL     1      -1.064  69.872  -4.329  1.00  0.00    -0.508 OA
ATOM     13  H   UNL     1      -1.128  69.383  -3.444  1.00  0.00     0.293 HD
ENDBRANCH   3  12
TORSDOF 1
ENDMDL
MODEL 5
REMARK VINA RESULT:    -3.387     12.072     13.042
REMARK INTER + INTRA:          -3.486
REMARK INTER:                  -3.486
REMARK INTRA:                   0.000
REMARK UNBOUND:                 0.000
REMARK SMILES O=c1ccc2ccc(O)cc2o1
REMARK SMILES IDX 6 1 7 2 8 3 10 4 11 5 5 6 4 7 3 8 2 9 1 10 12 11 9 12
REMARK H PARENT 9 13
REMARK Flexibility Score: inf
ROOT
ATOM      1  C   UNL     1       0.865  58.875  -7.898  1.00  0.00     0.016 A 
ATOM      2  C   UNL     1       2.193  59.258  -8.113  1.00  0.00     0.047 A 
ATOM      3  C   UNL     1       2.880  60.002  -7.146  1.00  0.00     0.119 A 
ATOM      4  C   UNL     1       2.235  60.368  -5.955  1.00  0.00     0.094 A 
ATOM      5  C   UNL     1       0.906  59.990  -5.732  1.00  0.00     0.142 A 
ATOM      6  C   UNL     1       0.216  59.238  -6.710  1.00  0.00     0.018 A 
ATOM      7  C   UNL     1      -1.110  58.875  -6.458  1.00  0.00     0.019 A 
ATOM      8  C   UNL     1      -1.709  59.261  -5.260  1.00  0.00     0.094 A 
ATOM      9  C   UNL     1      -0.964  60.004  -4.337  1.00  0.00     0.336 A 
ATOM     10  O   UNL     1      -1.488  60.362  -3.250  1.00  0.00    -0.246 OA
ATOM     11  O   UNL     1       0.297  60.337  -4.601  1.00  0.00    -0.423 OA
ENDROOT
BRANCH   3  12
ATOM     12  O   UNL     1       4.203  60.373  -7.379  1.00  0.00    -0.508 OA
ATOM     13  H   UNL     1       4.946  59.686  -7.417  1.00  0.00     0.293 HD
ENDBRANCH   3  12
TORSDOF 1
ENDMDL
MODEL 6
REMARK VINA RESULT:    -3.328     11.930     12.881
REMARK INTER + INTRA:          -3.425
REMARK INTER:                  -3.425
REMARK INTRA:                   0.000
REMARK UNBOUND:                 0.000
REMARK SMILES O=c1ccc2ccc(O)cc2o1
REMARK SMILES IDX 6 1 7 2 8 3 10 4 11 5 5 6 4 7 3 8 2 9 1 10 12 11 9 12
REMARK H PARENT 9 13
REMARK Flexibility Score: inf
ROOT
ATOM      1  C   UNL     1       0.223  58.878  -7.307  1.00  0.00     0.016 A 
ATOM      2  C   UNL     1       1.553  59.190  -7.008  1.00  0.00     0.047 A 
ATOM      3  C   UNL     1       1.881  59.794  -5.787  1.00  0.00     0.119 A 
ATOM      4  C   UNL     1       0.871  60.089  -4.860  1.00  0.00     0.094 A 
ATOM      5  C   UNL     1      -0.463  59.782  -5.151  1.00  0.00     0.142 A 
ATOM      6  C   UNL     1      -0.789  59.172  -6.383  1.00  0.00     0.018 A 
ATOM      7  C   UNL     1      -2.130  58.876  -6.646  1.00  0.00     0.019 A 
ATOM      8  C   UNL     1      -3.099  59.188  -5.693  1.00  0.00     0.094 A 
ATOM      9  C   UNL     1      -2.702  59.791  -4.494  1.00  0.00     0.336 A 
ATOM     10  O   UNL     1      -3.562  60.081  -3.622  1.00  0.00    -0.246 OA
ATOM     11  O   UNL     1      -1.418  60.062  -4.269  1.00  0.00    -0.423 OA
ENDROOT
BRANCH   3  12
ATOM     12  O   UNL     1       3.211  60.096  -5.507  1.00  0.00    -0.508 OA
ATOM     13  H   UNL     1       3.931  60.022  -6.217  1.00  0.00     0.293 HD
ENDBRANCH   3  12
TORSDOF 1
ENDMDL
MODEL 7
REMARK VINA RESULT:    -3.291     12.102     12.845
REMARK INTER + INTRA:          -3.388
REMARK INTER:                  -3.388
REMARK INTRA:                   0.000
REMARK UNBOUND:                 0.000
REMARK SMILES O=c1ccc2ccc(O)cc2o1
REMARK SMILES IDX 6 1 7 2 8 3 10 4 11 5 5 6 4 7 3 8 2 9 1 10 12 11 9 12
REMARK H PARENT 9 13
REMARK Flexibility Score: inf
ROOT
ATOM      1  C   UNL     1      -1.056  59.009  -6.139  1.00  0.00     0.016 A 
ATOM      2  C   UNL     1      -1.508  59.429  -4.884  1.00  0.00     0.047 A 
ATOM      3  C   UNL     1      -0.652  60.122  -4.018  1.00  0.00     0.119 A 
ATOM      4  C   UNL     1       0.667  60.395  -4.410  1.00  0.00     0.094 A 
ATOM      5  C   UNL     1       1.129  59.977  -5.663  1.00  0.00     0.142 A 
ATOM      6  C   UNL     1       0.261  59.280  -6.534  1.00  0.00     0.018 A 
ATOM      7  C   UNL     1       0.751  58.875  -7.779  1.00  0.00     0.019 A 
ATOM      8  C   UNL     1       2.069  59.170  -8.125  1.00  0.00     0.094 A 
ATOM      9  C   UNL     1       2.870  59.866  -7.212  1.00  0.00     0.336 A 
ATOM     10  O   UNL     1       4.063  60.140  -7.506  1.00  0.00    -0.246 OA
ATOM     11  O   UNL     1       2.380  60.239  -6.033  1.00  0.00    -0.423 OA
ENDROOT
BRANCH   3  12
ATOM     12  O   UNL     1      -1.122  60.533  -2.773  1.00  0.00    -0.508 OA
ATOM     13  H   UNL     1      -1.587  61.424  -2.651  1.00  0.00     0.293 HD
ENDBRANCH   3  12
TORSDOF 1
ENDMDL
MODEL 8
REMARK VINA RESULT:    -2.886     12.546     12.628
REMARK INTER + INTRA:          -2.970
REMARK INTER:                  -2.970
REMARK INTRA:                   0.000
REMARK UNBOUND:                 0.000
REMARK SMILES O=c1ccc2ccc(O)cc2o1
REMARK SMILES IDX 6 1 7 2 8 3 10 4 11 5 5 6 4 7 3 8 2 9 1 10 12 11 9 12
REMARK H PARENT 9 13
REMARK Flexibility Score: inf
ROOT
ATOM      1  C   UNL     1      -4.368  58.875  -5.988  1.00  0.00     0.016 A 
ATOM      2  C   UNL     1      -5.004  58.938  -4.745  1.00  0.00     0.047 A 
ATOM      3  C   UNL     1      -4.255  59.114  -3.574  1.00  0.00     0.119 A 
ATOM      4  C   UNL     1      -2.859  59.226  -3.648  1.00  0.00     0.094 A 
ATOM      5  C   UNL     1      -2.213  59.163  -4.888  1.00  0.00     0.142 A 
ATOM      6  C   UNL     1      -2.973  58.987  -6.067  1.00  0.00     0.018 A 
ATOM      7  C   UNL     1      -2.301  58.928  -7.291  1.00  0.00     0.019 A 
ATOM      8  C   UNL     1      -0.911  59.045  -7.314  1.00  0.00     0.094 A 
ATOM      9  C   UNL     1      -0.224  59.219  -6.107  1.00  0.00     0.336 A 
ATOM     10  O   UNL     1       1.030  59.326  -6.108  1.00  0.00    -0.246 OA
ATOM     11  O   UNL     1      -0.889  59.272  -4.955  1.00  0.00    -0.423 OA
ENDROOT
BRANCH   3  12
ATOM     12  O   UNL     1      -4.907  59.174  -2.345  1.00  0.00    -0.508 OA
ATOM     13  H   UNL     1      -5.707  59.779  -2.200  1.00  0.00     0.293 HD
ENDBRANCH   3  12
TORSDOF 1
ENDMDL
