MODEL 1
REMARK VINA RESULT:    -2.954      0.000      0.000
REMARK INTER + INTRA:          -7.462
REMARK INTER:                  -5.371
REMARK INTRA:                  -2.091
REMARK UNBOUND:                -2.091
REMARK SMILES CCCCCCCCCCCCCCCC(=O)[O-]
REMARK SMILES IDX 9 1 10 2 11 3 12 4 13 5 14 6 15 7 16 8 17 9 18 10 8 11 7 12
REMARK SMILES IDX 6 13 5 14 4 15 3 16 2 17 1 18
REMARK H PARENT
REMARK Flexibility Score: inf
ROOT
ATOM      1  C   UNL     1     141.910 144.353 145.918  1.00  0.00     0.000 C 
ENDROOT
BRANCH   1   2
ATOM      2  C   UNL     1     143.143 144.465 145.005  1.00  0.00     0.000 C 
BRANCH   2   3
ATOM      3  C   UNL     1     144.449 144.067 145.716  1.00  0.00     0.000 C 
BRANCH   3   4
ATOM      4  C   UNL     1     145.299 143.021 144.971  1.00  0.00     0.000 C 
BRANCH   4   5
ATOM      5  C   UNL     1     144.924 142.893 143.485  1.00  0.00     0.000 C 
BRANCH   5   6
ATOM      6  C   UNL     1     145.747 143.839 142.586  1.00  0.00     0.006 C 
BRANCH   6   7
ATOM      7  C   UNL     1     147.150 143.306 142.256  1.00  0.00     0.053 C 
BRANCH   7   8
ATOM      8  C   UNL     1     147.356 143.120 140.785  1.00  0.00     0.041 C 
ATOM      9  O   UNL     1     146.365 142.974 140.020  1.00  0.00    -0.550 OA
ATOM     10  O   UNL     1     148.641 143.139 140.253  1.00  0.00    -0.550 OA
ENDBRANCH   7   8
ENDBRANCH   6   7
ENDBRANCH   5   6
ENDBRANCH   4   5
ENDBRANCH   3   4
ENDBRANCH   2   3
ENDBRANCH   1   2
BRANCH   1  11
ATOM     11  C   UNL     1     142.145 143.425 147.121  1.00  0.00     0.000 C 
BRANCH  11  12
ATOM     12  C   UNL     1     141.185 142.222 147.133  1.00  0.00    -0.000 C 
BRANCH  12  13
ATOM     13  C   UNL     1     141.005 141.600 145.737  1.00  0.00    -0.000 C 
BRANCH  13  14
ATOM     14  C   UNL     1     142.278 140.892 145.242  1.00  0.00    -0.000 C 
BRANCH  14  15
ATOM     15  C   UNL     1     142.830 139.875 146.257  1.00  0.00    -0.000 C 
BRANCH  15  16
ATOM     16  C   UNL     1     144.333 140.018 146.576  1.00  0.00    -0.000 C 
BRANCH  16  17
ATOM     17  C   UNL     1     144.650 140.715 147.910  1.00  0.00    -0.003 C 
ATOM     18  C   UNL     1     143.701 140.308 149.036  1.00  0.00     0.004 C 
ENDBRANCH  16  17
ENDBRANCH  15  16
ENDBRANCH  14  15
ENDBRANCH  13  14
ENDBRANCH  12  13
ENDBRANCH  11  12
ENDBRANCH   1  11
TORSDOF 14
ENDMDL
MODEL 2
REMARK VINA RESULT:    -2.913      4.688      6.936
REMARK INTER + INTRA:          -7.388
REMARK INTER:                  -4.737
REMARK INTRA:                  -2.651
REMARK UNBOUND:                -2.091
REMARK SMILES CCCCCCCCCCCCCCCC(=O)[O-]
REMARK SMILES IDX 9 1 10 2 11 3 12 4 13 5 14 6 15 7 16 8 17 9 18 10 8 11 7 12
REMARK SMILES IDX 6 13 5 14 4 15 3 16 2 17 1 18
REMARK H PARENT
REMARK Flexibility Score: inf
ROOT
ATOM      1  C   UNL     1     144.866 141.222 145.439  1.00  0.00     0.000 C 
ENDROOT
BRANCH   1   2
ATOM      2  C   UNL     1     145.042 140.350 146.694  1.00  0.00     0.000 C 
BRANCH   2   3
ATOM      3  C   UNL     1     145.599 141.137 147.894  1.00  0.00     0.000 C 
BRANCH   3   4
ATOM      4  C   UNL     1     144.607 141.338 149.054  1.00  0.00     0.000 C 
BRANCH   4   5
ATOM      5  C   UNL     1     143.632 140.160 149.219  1.00  0.00     0.000 C 
BRANCH   5   6
ATOM      6  C   UNL     1     142.343 140.563 149.965  1.00  0.00     0.006 C 
BRANCH   6   7
ATOM      7  C   UNL     1     142.383 141.990 150.534  1.00  0.00     0.053 C 
BRANCH   7   8
ATOM      8  C   UNL     1     141.014 142.552 150.759  1.00  0.00     0.041 C 
ATOM      9  O   UNL     1     140.085 141.809 151.176  1.00  0.00    -0.550 OA
ATOM     10  O   UNL     1     140.769 143.902 150.539  1.00  0.00    -0.550 OA
ENDBRANCH   7   8
ENDBRANCH   6   7
ENDBRANCH   5   6
ENDBRANCH   4   5
ENDBRANCH   3   4
ENDBRANCH   2   3
ENDBRANCH   1   2
BRANCH   1  11
ATOM     11  C   UNL     1     143.673 140.785 144.575  1.00  0.00     0.000 C 
BRANCH  11  12
ATOM     12  C   UNL     1     142.501 140.247 145.416  1.00  0.00    -0.000 C 
BRANCH  12  13
ATOM     13  C   UNL     1     141.334 141.246 145.503  1.00  0.00    -0.000 C 
BRANCH  13  14
ATOM     14  C   UNL     1     141.122 141.779 146.930  1.00  0.00    -0.000 C 
BRANCH  14  15
ATOM     15  C   UNL     1     141.410 143.286 147.054  1.00  0.00    -0.000 C 
BRANCH  15  16
ATOM     16  C   UNL     1     142.110 143.922 145.834  1.00  0.00    -0.000 C 
BRANCH  16  17
ATOM     17  C   UNL     1     143.496 144.524 146.122  1.00  0.00    -0.003 C 
ATOM     18  C   UNL     1     143.837 144.551 147.612  1.00  0.00     0.004 C 
ENDBRANCH  16  17
ENDBRANCH  15  16
ENDBRANCH  14  15
ENDBRANCH  13  14
ENDBRANCH  12  13
ENDBRANCH  11  12
ENDBRANCH   1  11
TORSDOF 14
ENDMDL
MODEL 3
REMARK VINA RESULT:    -2.855      1.521      2.203
REMARK INTER + INTRA:          -7.283
REMARK INTER:                  -4.840
REMARK INTRA:                  -2.443
REMARK UNBOUND:                -2.091
REMARK SMILES CCCCCCCCCCCCCCCC(=O)[O-]
REMARK SMILES IDX 9 1 10 2 11 3 12 4 13 5 14 6 15 7 16 8 17 9 18 10 8 11 7 12
REMARK SMILES IDX 6 13 5 14 4 15 3 16 2 17 1 18
REMARK H PARENT
REMARK Flexibility Score: inf
ROOT
ATOM      1  C   UNL     1     141.804 144.114 146.457  1.00  0.00     0.000 C 
ENDROOT
BRANCH   1   2
ATOM      2  C   UNL     1     142.834 145.198 146.816  1.00  0.00     0.000 C 
BRANCH   2   3
ATOM      3  C   UNL     1     142.883 146.339 145.784  1.00  0.00     0.000 C 
BRANCH   3   4
ATOM      4  C   UNL     1     142.394 145.960 144.375  1.00  0.00     0.000 C 
BRANCH   4   5
ATOM      5  C   UNL     1     143.545 145.733 143.381  1.00  0.00     0.000 C 
BRANCH   5   6
ATOM      6  C   UNL     1     144.072 144.283 143.412  1.00  0.00     0.006 C 
BRANCH   6   7
ATOM      7  C   UNL     1     145.606 144.188 143.446  1.00  0.00     0.053 C 
BRANCH   7   8
ATOM      8  C   UNL     1     146.130 143.115 142.544  1.00  0.00     0.041 C 
ATOM      9  O   UNL     1     146.669 142.084 143.031  1.00  0.00    -0.550 OA
ATOM     10  O   UNL     1     145.997 143.236 141.165  1.00  0.00    -0.550 OA
ENDBRANCH   7   8
ENDBRANCH   6   7
ENDBRANCH   5   6
ENDBRANCH   4   5
ENDBRANCH   3   4
ENDBRANCH   2   3
ENDBRANCH   1   2
BRANCH   1  11
ATOM     11  C   UNL     1     141.399 143.256 147.667  1.00  0.00     0.000 C 
BRANCH  11  12
ATOM     12  C   UNL     1     141.318 141.757 147.325  1.00  0.00    -0.000 C 
BRANCH  12  13
ATOM     13  C   UNL     1     141.256 141.503 145.809  1.00  0.00    -0.000 C 
BRANCH  13  14
ATOM     14  C   UNL     1     142.215 140.387 145.361  1.00  0.00    -0.000 C 
BRANCH  14  15
ATOM     15  C   UNL     1     143.549 140.928 144.817  1.00  0.00    -0.000 C 
BRANCH  15  16
ATOM     16  C   UNL     1     144.726 140.891 145.814  1.00  0.00    -0.000 C 
BRANCH  16  17
ATOM     17  C   UNL     1     145.055 142.238 146.481  1.00  0.00    -0.003 C 
ATOM     18  C   UNL     1     144.970 142.185 148.005  1.00  0.00     0.004 C 
ENDBRANCH  16  17
ENDBRANCH  15  16
ENDBRANCH  14  15
ENDBRANCH  13  14
ENDBRANCH  12  13
ENDBRANCH  11  12
ENDBRANCH   1  11
TORSDOF 14
ENDMDL
MODEL 4
REMARK VINA RESULT:    -2.854      2.163      3.824
REMARK INTER + INTRA:          -7.281
REMARK INTER:                  -5.013
REMARK INTRA:                  -2.268
REMARK UNBOUND:                -2.091
REMARK SMILES CCCCCCCCCCCCCCCC(=O)[O-]
REMARK SMILES IDX 9 1 10 2 11 3 12 4 13 5 14 6 15 7 16 8 17 9 18 10 8 11 7 12
REMARK SMILES IDX 6 13 5 14 4 15 3 16 2 17 1 18
REMARK H PARENT
REMARK Flexibility Score: inf
ROOT
ATOM      1  C   UNL     1     142.090 142.630 147.323  1.00  0.00     0.000 C 
ENDROOT
BRANCH   1   2
ATOM      2  C   UNL     1     141.269 142.540 146.026  1.00  0.00     0.000 C 
BRANCH   2   3
ATOM      3  C   UNL     1     141.194 141.107 145.466  1.00  0.00     0.000 C 
BRANCH   3   4
ATOM      4  C   UNL     1     142.440 140.242 145.730  1.00  0.00     0.000 C 
BRANCH   4   5
ATOM      5  C   UNL     1     143.211 139.894 144.446  1.00  0.00     0.000 C 
BRANCH   5   6
ATOM      6  C   UNL     1     144.700 140.291 144.526  1.00  0.00     0.006 C 
BRANCH   6   7
ATOM      7  C   UNL     1     144.926 141.734 145.003  1.00  0.00     0.053 C 
BRANCH   7   8
ATOM      8  C   UNL     1     144.737 142.733 143.904  1.00  0.00     0.041 C 
ATOM      9  O   UNL     1     143.889 143.657 144.026  1.00  0.00    -0.550 OA
ATOM     10  O   UNL     1     145.519 142.663 142.756  1.00  0.00    -0.550 OA
ENDBRANCH   7   8
ENDBRANCH   6   7
ENDBRANCH   5   6
ENDBRANCH   4   5
ENDBRANCH   3   4
ENDBRANCH   2   3
ENDBRANCH   1   2
BRANCH   1  11
ATOM     11  C   UNL     1     141.215 142.871 148.564  1.00  0.00     0.000 C 
BRANCH  11  12
ATOM     12  C   UNL     1     141.357 141.753 149.612  1.00  0.00    -0.000 C 
BRANCH  12  13
ATOM     13  C   UNL     1     142.498 140.775 149.276  1.00  0.00    -0.000 C 
BRANCH  13  14
ATOM     14  C   UNL     1     143.431 140.529 150.474  1.00  0.00    -0.000 C 
BRANCH  14  15
ATOM     15  C   UNL     1     144.586 141.544 150.551  1.00  0.00    -0.000 C 
BRANCH  15  16
ATOM     16  C   UNL     1     145.371 141.744 149.239  1.00  0.00    -0.000 C 
BRANCH  16  17
ATOM     17  C   UNL     1     145.490 143.205 148.770  1.00  0.00    -0.003 C 
ATOM     18  C   UNL     1     144.665 144.172 149.617  1.00  0.00     0.004 C 
ENDBRANCH  16  17
ENDBRANCH  15  16
ENDBRANCH  14  15
ENDBRANCH  13  14
ENDBRANCH  12  13
ENDBRANCH  11  12
ENDBRANCH   1  11
TORSDOF 14
ENDMDL
MODEL 5
REMARK VINA RESULT:    -2.826      6.038      8.786
REMARK INTER + INTRA:          -7.229
REMARK INTER:                  -5.339
REMARK INTRA:                  -1.891
REMARK UNBOUND:                -2.091
REMARK SMILES CCCCCCCCCCCCCCCC(=O)[O-]
REMARK SMILES IDX 9 1 10 2 11 3 12 4 13 5 14 6 15 7 16 8 17 9 18 10 8 11 7 12
REMARK SMILES IDX 6 13 5 14 4 15 3 16 2 17 1 18
REMARK H PARENT
REMARK Flexibility Score: inf
ROOT
ATOM      1  C   UNL     1     143.725 140.885 148.980  1.00  0.00     0.000 C 
ENDROOT
BRANCH   1   2
ATOM      2  C   UNL     1     142.798 140.720 150.196  1.00  0.00     0.000 C 
BRANCH   2   3
ATOM      3  C   UNL     1     141.400 141.323 149.967  1.00  0.00     0.000 C 
BRANCH   3   4
ATOM      4  C   UNL     1     141.050 142.513 150.879  1.00  0.00     0.000 C 
BRANCH   4   5
ATOM      5  C   UNL     1     139.924 142.193 151.876  1.00  0.00     0.000 C 
BRANCH   5   6
ATOM      6  C   UNL     1     140.441 142.050 153.323  1.00  0.00     0.006 C 
BRANCH   6   7
ATOM      7  C   UNL     1     140.161 143.282 154.199  1.00  0.00     0.053 C 
BRANCH   7   8
ATOM      8  C   UNL     1     141.393 144.097 154.443  1.00  0.00     0.041 C 
ATOM      9  O   UNL     1     141.702 144.441 155.616  1.00  0.00    -0.550 OA
ATOM     10  O   UNL     1     142.217 144.451 153.381  1.00  0.00    -0.550 OA
ENDBRANCH   7   8
ENDBRANCH   6   7
ENDBRANCH   5   6
ENDBRANCH   4   5
ENDBRANCH   3   4
ENDBRANCH   2   3
ENDBRANCH   1   2
BRANCH   1  11
ATOM     11  C   UNL     1     143.422 139.875 147.861  1.00  0.00     0.000 C 
BRANCH  11  12
ATOM     12  C   UNL     1     143.588 140.484 146.457  1.00  0.00    -0.000 C 
BRANCH  12  13
ATOM     13  C   UNL     1     142.273 140.480 145.657  1.00  0.00    -0.000 C 
BRANCH  13  14
ATOM     14  C   UNL     1     141.258 141.506 146.190  1.00  0.00    -0.000 C 
BRANCH  14  15
ATOM     15  C   UNL     1     141.718 142.962 145.991  1.00  0.00    -0.000 C 
BRANCH  15  16
ATOM     16  C   UNL     1     141.808 143.803 147.281  1.00  0.00    -0.000 C 
BRANCH  16  17
ATOM     17  C   UNL     1     143.188 144.425 147.556  1.00  0.00    -0.003 C 
ATOM     18  C   UNL     1     143.469 144.619 149.045  1.00  0.00     0.004 C 
ENDBRANCH  16  17
ENDBRANCH  15  16
ENDBRANCH  14  15
ENDBRANCH  13  14
ENDBRANCH  12  13
ENDBRANCH  11  12
ENDBRANCH   1  11
TORSDOF 14
ENDMDL
MODEL 6
REMARK VINA RESULT:    -2.814      2.345      3.874
REMARK INTER + INTRA:          -7.209
REMARK INTER:                  -5.182
REMARK INTRA:                  -2.026
REMARK UNBOUND:                -2.091
REMARK SMILES CCCCCCCCCCCCCCCC(=O)[O-]
REMARK SMILES IDX 9 1 10 2 11 3 12 4 13 5 14 6 15 7 16 8 17 9 18 10 8 11 7 12
REMARK SMILES IDX 6 13 5 14 4 15 3 16 2 17 1 18
REMARK H PARENT
REMARK Flexibility Score: inf
ROOT
ATOM      1  C   UNL     1     141.367 142.541 145.968  1.00  0.00     0.000 C 
ENDROOT
BRANCH   1   2
ATOM      2  C   UNL     1     141.002 141.107 145.549  1.00  0.00     0.000 C 
BRANCH   2   3
ATOM      3  C   UNL     1     142.190 140.133 145.656  1.00  0.00     0.000 C 
BRANCH   3   4
ATOM      4  C   UNL     1     143.436 140.541 144.850  1.00  0.00     0.000 C 
BRANCH   4   5
ATOM      5  C   UNL     1     144.669 140.787 145.736  1.00  0.00     0.000 C 
BRANCH   5   6
ATOM      6  C   UNL     1     145.282 142.186 145.518  1.00  0.00     0.006 C 
BRANCH   6   7
ATOM      7  C   UNL     1     144.740 142.906 144.273  1.00  0.00     0.053 C 
BRANCH   7   8
ATOM      8  C   UNL     1     145.820 143.230 143.288  1.00  0.00     0.041 C 
ATOM      9  O   UNL     1     146.941 143.644 143.690  1.00  0.00    -0.550 OA
ATOM     10  O   UNL     1     145.603 143.045 141.928  1.00  0.00    -0.550 OA
ENDBRANCH   7   8
ENDBRANCH   6   7
ENDBRANCH   5   6
ENDBRANCH   4   5
ENDBRANCH   3   4
ENDBRANCH   2   3
ENDBRANCH   1   2
BRANCH   1  11
ATOM     11  C   UNL     1     141.461 142.708 147.493  1.00  0.00     0.000 C 
BRANCH  11  12
ATOM     12  C   UNL     1     142.730 143.465 147.925  1.00  0.00    -0.000 C 
BRANCH  12  13
ATOM     13  C   UNL     1     143.622 142.630 148.860  1.00  0.00    -0.000 C 
BRANCH  13  14
ATOM     14  C   UNL     1     143.018 141.249 149.170  1.00  0.00    -0.000 C 
BRANCH  14  15
ATOM     15  C   UNL     1     142.826 141.006 150.678  1.00  0.00    -0.000 C 
BRANCH  15  16
ATOM     16  C   UNL     1     142.480 142.261 151.506  1.00  0.00    -0.000 C 
BRANCH  16  17
ATOM     17  C   UNL     1     142.664 142.107 153.025  1.00  0.00    -0.003 C 
ATOM     18  C   UNL     1     141.404 141.611 153.732  1.00  0.00     0.004 C 
ENDBRANCH  16  17
ENDBRANCH  15  16
ENDBRANCH  14  15
ENDBRANCH  13  14
ENDBRANCH  12  13
ENDBRANCH  11  12
ENDBRANCH   1  11
TORSDOF 14
ENDMDL
MODEL 7
REMARK VINA RESULT:    -2.803      1.819      4.425
REMARK INTER + INTRA:          -7.187
REMARK INTER:                  -4.779
REMARK INTRA:                  -2.408
REMARK UNBOUND:                -2.091
REMARK SMILES CCCCCCCCCCCCCCCC(=O)[O-]
REMARK SMILES IDX 9 1 10 2 11 3 12 4 13 5 14 6 15 7 16 8 17 9 18 10 8 11 7 12
REMARK SMILES IDX 6 13 5 14 4 15 3 16 2 17 1 18
REMARK H PARENT
REMARK Flexibility Score: inf
ROOT
ATOM      1  C   UNL     1     141.757 141.371 148.058  1.00  0.00     0.000 C 
ENDROOT
BRANCH   1   2
ATOM      2  C   UNL     1     140.994 142.036 146.900  1.00  0.00     0.000 C 
BRANCH   2   3
ATOM      3  C   UNL     1     141.304 141.393 145.535  1.00  0.00     0.000 C 
BRANCH   3   4
ATOM      4  C   UNL     1     142.364 140.278 145.571  1.00  0.00     0.000 C 
BRANCH   4   5
ATOM      5  C   UNL     1     143.708 140.708 144.957  1.00  0.00     0.000 C 
BRANCH   5   6
ATOM      6  C   UNL     1     143.679 142.161 144.438  1.00  0.00     0.006 C 
BRANCH   6   7
ATOM      7  C   UNL     1     145.064 142.700 144.046  1.00  0.00     0.053 C 
BRANCH   7   8
ATOM      8  C   UNL     1     145.042 143.426 142.736  1.00  0.00     0.041 C 
ATOM      9  O   UNL     1     144.174 144.313 142.518  1.00  0.00    -0.550 OA
ATOM     10  O   UNL     1     145.999 143.146 141.767  1.00  0.00    -0.550 OA
ENDBRANCH   7   8
ENDBRANCH   6   7
ENDBRANCH   5   6
ENDBRANCH   4   5
ENDBRANCH   3   4
ENDBRANCH   2   3
ENDBRANCH   1   2
BRANCH   1  11
ATOM     11  C   UNL     1     142.629 142.366 148.843  1.00  0.00     0.000 C 
BRANCH  11  12
ATOM     12  C   UNL     1     144.091 142.374 148.361  1.00  0.00    -0.000 C 
BRANCH  12  13
ATOM     13  C   UNL     1     144.475 143.696 147.673  1.00  0.00    -0.000 C 
BRANCH  13  14
ATOM     14  C   UNL     1     143.777 144.912 148.305  1.00  0.00    -0.000 C 
BRANCH  14  15
ATOM     15  C   UNL     1     143.434 146.006 147.277  1.00  0.00    -0.000 C 
BRANCH  15  16
ATOM     16  C   UNL     1     143.269 145.512 145.825  1.00  0.00    -0.000 C 
BRANCH  16  17
ATOM     17  C   UNL     1     141.813 145.313 145.369  1.00  0.00    -0.003 C 
ATOM     18  C   UNL     1     141.296 146.465 144.507  1.00  0.00     0.004 C 
ENDBRANCH  16  17
ENDBRANCH  15  16
ENDBRANCH  14  15
ENDBRANCH  13  14
ENDBRANCH  12  13
ENDBRANCH  11  12
ENDBRANCH   1  11
TORSDOF 14
ENDMDL
MODEL 8
REMARK VINA RESULT:    -2.777      6.457      8.865
REMARK INTER + INTRA:          -7.141
REMARK INTER:                  -5.725
REMARK INTRA:                  -1.416
REMARK UNBOUND:                -2.091
REMARK SMILES CCCCCCCCCCCCCCCC(=O)[O-]
REMARK SMILES IDX 9 1 10 2 11 3 12 4 13 5 14 6 15 7 16 8 17 9 18 10 8 11 7 12
REMARK SMILES IDX 6 13 5 14 4 15 3 16 2 17 1 18
REMARK H PARENT
REMARK Flexibility Score: inf
ROOT
ATOM      1  C   UNL     1     142.668 143.537 149.448  1.00  0.00     0.000 C 
ENDROOT
BRANCH   1   2
ATOM      2  C   UNL     1     142.180 144.011 150.827  1.00  0.00     0.000 C 
BRANCH   2   3
ATOM      3  C   UNL     1     140.645 144.008 150.951  1.00  0.00     0.000 C 
BRANCH   3   4
ATOM      4  C   UNL     1     140.072 142.923 151.881  1.00  0.00     0.000 C 
BRANCH   4   5
ATOM      5  C   UNL     1     141.159 142.187 152.683  1.00  0.00     0.000 C 
BRANCH   5   6
ATOM      6  C   UNL     1     140.902 142.233 154.204  1.00  0.00     0.006 C 
BRANCH   6   7
ATOM      7  C   UNL     1     140.198 143.518 154.669  1.00  0.00     0.053 C 
BRANCH   7   8
ATOM      8  C   UNL     1     141.164 144.631 154.934  1.00  0.00     0.041 C 
ATOM      9  O   UNL     1     142.165 144.438 155.675  1.00  0.00    -0.550 OA
ATOM     10  O   UNL     1     140.977 145.873 154.339  1.00  0.00    -0.550 OA
ENDBRANCH   7   8
ENDBRANCH   6   7
ENDBRANCH   5   6
ENDBRANCH   4   5
ENDBRANCH   3   4
ENDBRANCH   2   3
ENDBRANCH   1   2
BRANCH   1  11
ATOM     11  C   UNL     1     141.554 143.550 148.388  1.00  0.00     0.000 C 
BRANCH  11  12
ATOM     12  C   UNL     1     141.301 142.158 147.781  1.00  0.00    -0.000 C 
BRANCH  12  13
ATOM     13  C   UNL     1     140.861 142.230 146.309  1.00  0.00    -0.000 C 
BRANCH  13  14
ATOM     14  C   UNL     1     141.253 140.972 145.516  1.00  0.00    -0.000 C 
BRANCH  14  15
ATOM     15  C   UNL     1     142.735 140.963 145.102  1.00  0.00    -0.000 C 
BRANCH  15  16
ATOM     16  C   UNL     1     143.597 139.876 145.778  1.00  0.00    -0.000 C 
BRANCH  16  17
ATOM     17  C   UNL     1     144.979 140.352 146.261  1.00  0.00    -0.003 C 
ATOM     18  C   UNL     1     144.900 141.287 147.467  1.00  0.00     0.004 C 
ENDBRANCH  16  17
ENDBRANCH  15  16
ENDBRANCH  14  15
ENDBRANCH  13  14
ENDBRANCH  12  13
ENDBRANCH  11  12
ENDBRANCH   1  11
TORSDOF 14
ENDMDL
MODEL 9
REMARK VINA RESULT:    -2.767      6.874      9.500
REMARK INTER + INTRA:          -7.123
REMARK INTER:                  -5.570
REMARK INTRA:                  -1.554
REMARK UNBOUND:                -2.091
REMARK SMILES CCCCCCCCCCCCCCCC(=O)[O-]
REMARK SMILES IDX 9 1 10 2 11 3 12 4 13 5 14 6 15 7 16 8 17 9 18 10 8 11 7 12
REMARK SMILES IDX 6 13 5 14 4 15 3 16 2 17 1 18
REMARK H PARENT
REMARK Flexibility Score: inf
ROOT
ATOM      1  C   UNL     1     142.862 142.616 151.877  1.00  0.00     0.000 C 
ENDROOT
BRANCH   1   2
ATOM      2  C   UNL     1     142.591 141.274 152.578  1.00  0.00     0.000 C 
BRANCH   2   3
ATOM      3  C   UNL     1     141.582 141.399 153.735  1.00  0.00     0.000 C 
BRANCH   3   4
ATOM      4  C   UNL     1     140.321 142.219 153.409  1.00  0.00     0.000 C 
BRANCH   4   5
ATOM      5  C   UNL     1     139.979 143.250 154.498  1.00  0.00     0.000 C 
BRANCH   5   6
ATOM      6  C   UNL     1     140.070 144.702 153.983  1.00  0.00     0.006 C 
BRANCH   6   7
ATOM      7  C   UNL     1     141.510 145.228 153.880  1.00  0.00     0.053 C 
BRANCH   7   8
ATOM      8  C   UNL     1     142.288 145.007 155.140  1.00  0.00     0.041 C 
ATOM      9  O   UNL     1     142.025 145.680 156.173  1.00  0.00    -0.550 OA
ATOM     10  O   UNL     1     143.282 144.037 155.185  1.00  0.00    -0.550 OA
ENDBRANCH   7   8
ENDBRANCH   6   7
ENDBRANCH   5   6
ENDBRANCH   4   5
ENDBRANCH   3   4
ENDBRANCH   2   3
ENDBRANCH   1   2
BRANCH   1  11
ATOM     11  C   UNL     1     142.874 142.494 150.345  1.00  0.00     0.000 C 
BRANCH  11  12
ATOM     12  C   UNL     1     141.939 141.383 149.835  1.00  0.00    -0.000 C 
BRANCH  12  13
ATOM     13  C   UNL     1     142.695 140.286 149.065  1.00  0.00    -0.000 C 
BRANCH  13  14
ATOM     14  C   UNL     1     143.880 140.845 148.259  1.00  0.00    -0.000 C 
BRANCH  14  15
ATOM     15  C   UNL     1     143.917 140.325 146.811  1.00  0.00    -0.000 C 
BRANCH  15  16
ATOM     16  C   UNL     1     143.350 141.293 145.752  1.00  0.00    -0.000 C 
BRANCH  16  17
ATOM     17  C   UNL     1     141.970 140.907 145.192  1.00  0.00    -0.003 C 
ATOM     18  C   UNL     1     140.815 141.557 145.952  1.00  0.00     0.004 C 
ENDBRANCH  16  17
ENDBRANCH  15  16
ENDBRANCH  14  15
ENDBRANCH  13  14
ENDBRANCH  12  13
ENDBRANCH  11  12
ENDBRANCH   1  11
TORSDOF 14
ENDMDL
