MODEL 1
REMARK VINA RESULT:    -3.842      0.000      0.000
REMARK INTER + INTRA:          -9.057
REMARK INTER:                  -6.986
REMARK INTRA:                  -2.071
REMARK UNBOUND:                -2.071
REMARK SMILES CCCCCCCCCCCCCCCC(=O)[O-]
REMARK SMILES IDX 9 1 10 2 11 3 12 4 13 5 14 6 15 7 16 8 17 9 18 10 8 11 7 12
REMARK SMILES IDX 6 13 5 14 4 15 3 16 2 17 1 18
REMARK H PARENT
REMARK Flexibility Score: inf
ROOT
ATOM      1  C   UNL     1      22.887  17.923   6.761  1.00  0.00     0.000 C 
ENDROOT
BRANCH   1   2
ATOM      2  C   UNL     1      22.559  19.256   7.456  1.00  0.00     0.000 C 
BRANCH   2   3
ATOM      3  C   UNL     1      21.063  19.479   7.756  1.00  0.00     0.000 C 
BRANCH   3   4
ATOM      4  C   UNL     1      20.671  19.373   9.243  1.00  0.00     0.000 C 
BRANCH   4   5
ATOM      5  C   UNL     1      19.255  18.824   9.507  1.00  0.00     0.000 C 
BRANCH   5   6
ATOM      6  C   UNL     1      18.577  18.165   8.293  1.00  0.00     0.006 C 
BRANCH   6   7
ATOM      7  C   UNL     1      17.550  17.098   8.689  1.00  0.00     0.053 C 
BRANCH   7   8
ATOM      8  C   UNL     1      16.217  17.407   8.085  1.00  0.00     0.041 C 
ATOM      9  O   UNL     1      16.089  17.478   6.834  1.00  0.00    -0.550 OA
ATOM     10  O   UNL     1      15.104  17.569   8.901  1.00  0.00    -0.550 OA
ENDBRANCH   7   8
ENDBRANCH   6   7
ENDBRANCH   5   6
ENDBRANCH   4   5
ENDBRANCH   3   4
ENDBRANCH   2   3
ENDBRANCH   1   2
BRANCH   1  11
ATOM     11  C   UNL     1      23.705  16.971   7.651  1.00  0.00     0.000 C 
BRANCH  11  12
ATOM     12  C   UNL     1      23.112  15.553   7.714  1.00  0.00    -0.000 C 
BRANCH  12  13
ATOM     13  C   UNL     1      22.716  15.076   9.125  1.00  0.00    -0.000 C 
BRANCH  13  14
ATOM     14  C   UNL     1      21.504  15.832   9.695  1.00  0.00    -0.000 C 
BRANCH  14  15
ATOM     15  C   UNL     1      21.802  16.485  11.054  1.00  0.00    -0.000 C 
BRANCH  15  16
ATOM     16  C   UNL     1      23.309  16.693  11.290  1.00  0.00    -0.000 C 
BRANCH  16  17
ATOM     17  C   UNL     1      23.699  18.179  11.339  1.00  0.00    -0.003 C 
ATOM     18  C   UNL     1      22.935  18.958  12.410  1.00  0.00     0.004 C 
ENDBRANCH  16  17
ENDBRANCH  15  16
ENDBRANCH  14  15
ENDBRANCH  13  14
ENDBRANCH  12  13
ENDBRANCH  11  12
ENDBRANCH   1  11
TORSDOF 14
ENDMDL
MODEL 2
REMARK VINA RESULT:    -3.690      3.457      5.900
REMARK INTER + INTRA:          -8.781
REMARK INTER:                  -6.698
REMARK INTRA:                  -2.084
REMARK UNBOUND:                -2.071
REMARK SMILES CCCCCCCCCCCCCCCC(=O)[O-]
REMARK SMILES IDX 9 1 10 2 11 3 12 4 13 5 14 6 15 7 16 8 17 9 18 10 8 11 7 12
REMARK SMILES IDX 6 13 5 14 4 15 3 16 2 17 1 18
REMARK H PARENT
REMARK Flexibility Score: inf
ROOT
ATOM      1  C   UNL     1      20.010  16.475   5.280  1.00  0.00     0.000 C 
ENDROOT
BRANCH   1   2
ATOM      2  C   UNL     1      21.534  16.462   5.496  1.00  0.00     0.000 C 
BRANCH   2   3
ATOM      3  C   UNL     1      22.016  15.572   6.660  1.00  0.00     0.000 C 
BRANCH   3   4
ATOM      4  C   UNL     1      23.496  15.751   7.050  1.00  0.00     0.000 C 
BRANCH   4   5
ATOM      5  C   UNL     1      23.814  17.046   7.824  1.00  0.00     0.000 C 
BRANCH   5   6
ATOM      6  C   UNL     1      23.164  17.148   9.216  1.00  0.00     0.006 C 
BRANCH   6   7
ATOM      7  C   UNL     1      23.741  18.289  10.061  1.00  0.00     0.053 C 
BRANCH   7   8
ATOM      8  C   UNL     1      23.576  17.993  11.519  1.00  0.00     0.041 C 
ATOM      9  O   UNL     1      23.236  18.906  12.316  1.00  0.00    -0.550 OA
ATOM     10  O   UNL     1      23.750  16.698  11.990  1.00  0.00    -0.550 OA
ENDBRANCH   7   8
ENDBRANCH   6   7
ENDBRANCH   5   6
ENDBRANCH   4   5
ENDBRANCH   3   4
ENDBRANCH   2   3
ENDBRANCH   1   2
BRANCH   1  11
ATOM     11  C   UNL     1      19.227  16.062   6.537  1.00  0.00     0.000 C 
BRANCH  11  12
ATOM     12  C   UNL     1      18.129  17.071   6.918  1.00  0.00    -0.000 C 
BRANCH  12  13
ATOM     13  C   UNL     1      18.611  18.523   7.091  1.00  0.00    -0.000 C 
BRANCH  13  14
ATOM     14  C   UNL     1      19.366  18.751   8.412  1.00  0.00    -0.000 C 
BRANCH  14  15
ATOM     15  C   UNL     1      20.715  19.458   8.206  1.00  0.00    -0.000 C 
BRANCH  15  16
ATOM     16  C   UNL     1      20.991  19.783   6.727  1.00  0.00    -0.000 C 
BRANCH  16  17
ATOM     17  C   UNL     1      22.465  20.128   6.464  1.00  0.00    -0.003 C 
ATOM     18  C   UNL     1      22.640  21.419   5.664  1.00  0.00     0.004 C 
ENDBRANCH  16  17
ENDBRANCH  15  16
ENDBRANCH  14  15
ENDBRANCH  13  14
ENDBRANCH  12  13
ENDBRANCH  11  12
ENDBRANCH   1  11
TORSDOF 14
ENDMDL
MODEL 3
REMARK VINA RESULT:    -3.671      3.427      5.296
REMARK INTER + INTRA:          -8.746
REMARK INTER:                  -6.326
REMARK INTRA:                  -2.419
REMARK UNBOUND:                -2.071
REMARK SMILES CCCCCCCCCCCCCCCC(=O)[O-]
REMARK SMILES IDX 9 1 10 2 11 3 12 4 13 5 14 6 15 7 16 8 17 9 18 10 8 11 7 12
REMARK SMILES IDX 6 13 5 14 4 15 3 16 2 17 1 18
REMARK H PARENT
REMARK Flexibility Score: inf
ROOT
ATOM      1  C   UNL     1      23.967  17.228   5.908  1.00  0.00     0.000 C 
ENDROOT
BRANCH   1   2
ATOM      2  C   UNL     1      22.942  18.369   5.776  1.00  0.00     0.000 C 
BRANCH   2   3
ATOM      3  C   UNL     1      22.951  19.384   6.936  1.00  0.00     0.000 C 
BRANCH   3   4
ATOM      4  C   UNL     1      21.614  19.527   7.690  1.00  0.00     0.000 C 
BRANCH   4   5
ATOM      5  C   UNL     1      21.599  18.928   9.111  1.00  0.00     0.000 C 
BRANCH   5   6
ATOM      6  C   UNL     1      22.750  17.952   9.416  1.00  0.00     0.006 C 
BRANCH   6   7
ATOM      7  C   UNL     1      23.806  18.551  10.353  1.00  0.00     0.053 C 
BRANCH   7   8
ATOM      8  C   UNL     1      23.564  18.111  11.762  1.00  0.00     0.041 C 
ATOM      9  O   UNL     1      23.719  16.903  12.084  1.00  0.00    -0.550 OA
ATOM     10  O   UNL     1      23.212  19.042  12.731  1.00  0.00    -0.550 OA
ENDBRANCH   7   8
ENDBRANCH   6   7
ENDBRANCH   5   6
ENDBRANCH   4   5
ENDBRANCH   3   4
ENDBRANCH   2   3
ENDBRANCH   1   2
BRANCH   1  11
ATOM     11  C   UNL     1      23.319  15.835   5.836  1.00  0.00     0.000 C 
BRANCH  11  12
ATOM     12  C   UNL     1      23.207  15.155   7.212  1.00  0.00    -0.000 C 
BRANCH  12  13
ATOM     13  C   UNL     1      21.767  14.929   7.711  1.00  0.00    -0.000 C 
BRANCH  13  14
ATOM     14  C   UNL     1      20.708  15.212   6.631  1.00  0.00    -0.000 C 
BRANCH  14  15
ATOM     15  C   UNL     1      19.774  16.373   7.011  1.00  0.00    -0.000 C 
BRANCH  15  16
ATOM     16  C   UNL     1      19.416  17.260   5.805  1.00  0.00    -0.000 C 
BRANCH  16  17
ATOM     17  C   UNL     1      18.408  18.363   6.164  1.00  0.00    -0.003 C 
ATOM     18  C   UNL     1      18.059  18.387   7.652  1.00  0.00     0.004 C 
ENDBRANCH  16  17
ENDBRANCH  15  16
ENDBRANCH  14  15
ENDBRANCH  13  14
ENDBRANCH  12  13
ENDBRANCH  11  12
ENDBRANCH   1  11
TORSDOF 14
ENDMDL
MODEL 4
REMARK VINA RESULT:    -3.667      2.735      4.492
REMARK INTER + INTRA:          -8.738
REMARK INTER:                  -6.661
REMARK INTRA:                  -2.077
REMARK UNBOUND:                -2.071
REMARK SMILES CCCCCCCCCCCCCCCC(=O)[O-]
REMARK SMILES IDX 9 1 10 2 11 3 12 4 13 5 14 6 15 7 16 8 17 9 18 10 8 11 7 12
REMARK SMILES IDX 6 13 5 14 4 15 3 16 2 17 1 18
REMARK H PARENT
REMARK Flexibility Score: inf
ROOT
ATOM      1  C   UNL     1      19.702  18.253   9.973  1.00  0.00     0.000 C 
ENDROOT
BRANCH   1   2
ATOM      2  C   UNL     1      20.368  19.366   9.144  1.00  0.00     0.000 C 
BRANCH   2   3
ATOM      3  C   UNL     1      20.555  19.035   7.650  1.00  0.00     0.000 C 
BRANCH   3   4
ATOM      4  C   UNL     1      21.521  19.967   6.891  1.00  0.00     0.000 C 
BRANCH   4   5
ATOM      5  C   UNL     1      22.990  19.501   6.863  1.00  0.00     0.000 C 
BRANCH   5   6
ATOM      6  C   UNL     1      23.194  17.986   7.047  1.00  0.00     0.006 C 
BRANCH   6   7
ATOM      7  C   UNL     1      23.979  17.347   5.895  1.00  0.00     0.053 C 
BRANCH   7   8
ATOM      8  C   UNL     1      23.087  16.458   5.088  1.00  0.00     0.041 C 
ATOM      9  O   UNL     1      23.549  15.417   4.549  1.00  0.00    -0.550 OA
ATOM     10  O   UNL     1      21.734  16.752   4.969  1.00  0.00    -0.550 OA
ENDBRANCH   7   8
ENDBRANCH   6   7
ENDBRANCH   5   6
ENDBRANCH   4   5
ENDBRANCH   3   4
ENDBRANCH   2   3
ENDBRANCH   1   2
BRANCH   1  11
ATOM     11  C   UNL     1      19.660  16.904   9.236  1.00  0.00     0.000 C 
BRANCH  11  12
ATOM     12  C   UNL     1      19.573  15.701  10.191  1.00  0.00    -0.000 C 
BRANCH  12  13
ATOM     13  C   UNL     1      20.657  15.659  11.285  1.00  0.00    -0.000 C 
BRANCH  13  14
ATOM     14  C   UNL     1      22.073  15.463  10.719  1.00  0.00    -0.000 C 
BRANCH  14  15
ATOM     15  C   UNL     1      23.127  16.303  11.461  1.00  0.00    -0.000 C 
BRANCH  15  16
ATOM     16  C   UNL     1      23.767  17.375  10.561  1.00  0.00    -0.000 C 
BRANCH  16  17
ATOM     17  C   UNL     1      23.440  18.803  11.023  1.00  0.00    -0.003 C 
ATOM     18  C   UNL     1      22.873  18.853  12.442  1.00  0.00     0.004 C 
ENDBRANCH  16  17
ENDBRANCH  15  16
ENDBRANCH  14  15
ENDBRANCH  13  14
ENDBRANCH  12  13
ENDBRANCH  11  12
ENDBRANCH   1  11
TORSDOF 14
ENDMDL
MODEL 5
REMARK VINA RESULT:    -3.640      3.136      5.527
REMARK INTER + INTRA:          -8.691
REMARK INTER:                  -6.113
REMARK INTRA:                  -2.578
REMARK UNBOUND:                -2.071
REMARK SMILES CCCCCCCCCCCCCCCC(=O)[O-]
REMARK SMILES IDX 9 1 10 2 11 3 12 4 13 5 14 6 15 7 16 8 17 9 18 10 8 11 7 12
REMARK SMILES IDX 6 13 5 14 4 15 3 16 2 17 1 18
REMARK H PARENT
REMARK Flexibility Score: inf
ROOT
ATOM      1  C   UNL     1      23.085  17.690   8.078  1.00  0.00     0.000 C 
ENDROOT
BRANCH   1   2
ATOM      2  C   UNL     1      22.706  16.569   7.094  1.00  0.00     0.000 C 
BRANCH   2   3
ATOM      3  C   UNL     1      22.064  15.327   7.744  1.00  0.00     0.000 C 
BRANCH   3   4
ATOM      4  C   UNL     1      22.736  14.850   9.048  1.00  0.00     0.000 C 
BRANCH   4   5
ATOM      5  C   UNL     1      21.762  14.471  10.182  1.00  0.00     0.000 C 
BRANCH   5   6
ATOM      6  C   UNL     1      21.954  15.255  11.492  1.00  0.00     0.006 C 
BRANCH   6   7
ATOM      7  C   UNL     1      21.555  16.730  11.367  1.00  0.00     0.053 C 
BRANCH   7   8
ATOM      8  C   UNL     1      22.684  17.614  11.793  1.00  0.00     0.041 C 
ATOM      9  O   UNL     1      22.451  18.758  12.264  1.00  0.00    -0.550 OA
ATOM     10  O   UNL     1      23.994  17.156  11.716  1.00  0.00    -0.550 OA
ENDBRANCH   7   8
ENDBRANCH   6   7
ENDBRANCH   5   6
ENDBRANCH   4   5
ENDBRANCH   3   4
ENDBRANCH   2   3
ENDBRANCH   1   2
BRANCH   1  11
ATOM     11  C   UNL     1      22.812  19.095   7.514  1.00  0.00     0.000 C 
BRANCH  11  12
ATOM     12  C   UNL     1      21.324  19.482   7.563  1.00  0.00    -0.000 C 
BRANCH  12  13
ATOM     13  C   UNL     1      20.658  19.333   8.944  1.00  0.00    -0.000 C 
BRANCH  13  14
ATOM     14  C   UNL     1      19.352  18.522   8.897  1.00  0.00    -0.000 C 
BRANCH  14  15
ATOM     15  C   UNL     1      19.225  17.684   7.614  1.00  0.00    -0.000 C 
BRANCH  15  16
ATOM     16  C   UNL     1      18.388  16.410   7.822  1.00  0.00    -0.000 C 
BRANCH  16  17
ATOM     17  C   UNL     1      18.414  15.920   9.278  1.00  0.00    -0.003 C 
ATOM     18  C   UNL     1      18.251  14.404   9.398  1.00  0.00     0.004 C 
ENDBRANCH  16  17
ENDBRANCH  15  16
ENDBRANCH  14  15
ENDBRANCH  13  14
ENDBRANCH  12  13
ENDBRANCH  11  12
ENDBRANCH   1  11
TORSDOF 14
ENDMDL
MODEL 6
REMARK VINA RESULT:    -3.623      3.492      5.965
REMARK INTER + INTRA:          -8.659
REMARK INTER:                  -6.384
REMARK INTRA:                  -2.276
REMARK UNBOUND:                -2.071
REMARK SMILES CCCCCCCCCCCCCCCC(=O)[O-]
REMARK SMILES IDX 9 1 10 2 11 3 12 4 13 5 14 6 15 7 16 8 17 9 18 10 8 11 7 12
REMARK SMILES IDX 6 13 5 14 4 15 3 16 2 17 1 18
REMARK H PARENT
REMARK Flexibility Score: inf
ROOT
ATOM      1  C   UNL     1      19.182  17.332   7.307  1.00  0.00     0.000 C 
ENDROOT
BRANCH   1   2
ATOM      2  C   UNL     1      20.053  16.318   6.546  1.00  0.00     0.000 C 
BRANCH   2   3
ATOM      3  C   UNL     1      20.601  15.161   7.407  1.00  0.00     0.000 C 
BRANCH   3   4
ATOM      4  C   UNL     1      21.985  15.415   8.038  1.00  0.00     0.000 C 
BRANCH   4   5
ATOM      5  C   UNL     1      21.953  15.948   9.485  1.00  0.00     0.000 C 
BRANCH   5   6
ATOM      6  C   UNL     1      22.689  17.282   9.701  1.00  0.00     0.006 C 
BRANCH   6   7
ATOM      7  C   UNL     1      22.051  18.143  10.798  1.00  0.00     0.053 C 
BRANCH   7   8
ATOM      8  C   UNL     1      22.966  18.246  11.977  1.00  0.00     0.041 C 
ATOM      9  O   UNL     1      23.873  17.390  12.152  1.00  0.00    -0.550 OA
ATOM     10  O   UNL     1      22.847  19.313  12.859  1.00  0.00    -0.550 OA
ENDBRANCH   7   8
ENDBRANCH   6   7
ENDBRANCH   5   6
ENDBRANCH   4   5
ENDBRANCH   3   4
ENDBRANCH   2   3
ENDBRANCH   1   2
BRANCH   1  11
ATOM     11  C   UNL     1      19.474  18.788   6.906  1.00  0.00     0.000 C 
BRANCH  11  12
ATOM     12  C   UNL     1      20.645  19.403   7.692  1.00  0.00    -0.000 C 
BRANCH  12  13
ATOM     13  C   UNL     1      21.726  20.078   6.828  1.00  0.00    -0.000 C 
BRANCH  13  14
ATOM     14  C   UNL     1      23.027  19.262   6.749  1.00  0.00    -0.000 C 
BRANCH  14  15
ATOM     15  C   UNL     1      22.999  18.216   5.622  1.00  0.00    -0.000 C 
BRANCH  15  16
ATOM     16  C   UNL     1      24.127  17.177   5.753  1.00  0.00    -0.000 C 
BRANCH  16  17
ATOM     17  C   UNL     1      24.035  16.070   4.691  1.00  0.00    -0.003 C 
ATOM     18  C   UNL     1      24.371  14.686   5.246  1.00  0.00     0.004 C 
ENDBRANCH  16  17
ENDBRANCH  15  16
ENDBRANCH  14  15
ENDBRANCH  13  14
ENDBRANCH  12  13
ENDBRANCH  11  12
ENDBRANCH   1  11
TORSDOF 14
ENDMDL
MODEL 7
REMARK VINA RESULT:    -3.583      3.357      5.345
REMARK INTER + INTRA:          -8.587
REMARK INTER:                  -5.937
REMARK INTRA:                  -2.649
REMARK UNBOUND:                -2.071
REMARK SMILES CCCCCCCCCCCCCCCC(=O)[O-]
REMARK SMILES IDX 9 1 10 2 11 3 12 4 13 5 14 6 15 7 16 8 17 9 18 10 8 11 7 12
REMARK SMILES IDX 6 13 5 14 4 15 3 16 2 17 1 18
REMARK H PARENT
REMARK Flexibility Score: inf
ROOT
ATOM      1  C   UNL     1      18.996  17.508   5.942  1.00  0.00     0.000 C 
ENDROOT
BRANCH   1   2
ATOM      2  C   UNL     1      19.824  16.510   6.769  1.00  0.00     0.000 C 
BRANCH   2   3
ATOM      3  C   UNL     1      18.999  15.595   7.696  1.00  0.00     0.000 C 
BRANCH   3   4
ATOM      4  C   UNL     1      18.902  16.066   9.161  1.00  0.00     0.000 C 
BRANCH   4   5
ATOM      5  C   UNL     1      19.817  17.252   9.527  1.00  0.00     0.000 C 
BRANCH   5   6
ATOM      6  C   UNL     1      20.814  16.974  10.666  1.00  0.00     0.006 C 
BRANCH   6   7
ATOM      7  C   UNL     1      21.715  18.177  10.975  1.00  0.00     0.053 C 
BRANCH   7   8
ATOM      8  C   UNL     1      23.071  17.715  11.404  1.00  0.00     0.041 C 
ATOM      9  O   UNL     1      23.999  18.549  11.578  1.00  0.00    -0.550 OA
ATOM     10  O   UNL     1      23.300  16.369  11.659  1.00  0.00    -0.550 OA
ENDBRANCH   7   8
ENDBRANCH   6   7
ENDBRANCH   5   6
ENDBRANCH   4   5
ENDBRANCH   3   4
ENDBRANCH   2   3
ENDBRANCH   1   2
BRANCH   1  11
ATOM     11  C   UNL     1      19.295  18.973   6.302  1.00  0.00     0.000 C 
BRANCH  11  12
ATOM     12  C   UNL     1      20.777  19.345   6.118  1.00  0.00    -0.000 C 
BRANCH  12  13
ATOM     13  C   UNL     1      21.514  19.739   7.413  1.00  0.00    -0.000 C 
BRANCH  13  14
ATOM     14  C   UNL     1      22.889  19.063   7.549  1.00  0.00    -0.000 C 
BRANCH  14  15
ATOM     15  C   UNL     1      23.298  18.297   6.280  1.00  0.00    -0.000 C 
BRANCH  15  16
ATOM     16  C   UNL     1      23.518  16.797   6.541  1.00  0.00    -0.000 C 
BRANCH  16  17
ATOM     17  C   UNL     1      23.263  16.410   8.006  1.00  0.00    -0.003 C 
ATOM     18  C   UNL     1      22.887  14.938   8.175  1.00  0.00     0.004 C 
ENDBRANCH  16  17
ENDBRANCH  15  16
ENDBRANCH  14  15
ENDBRANCH  13  14
ENDBRANCH  12  13
ENDBRANCH  11  12
ENDBRANCH   1  11
TORSDOF 14
ENDMDL
MODEL 8
REMARK VINA RESULT:    -3.578      3.276      5.502
REMARK INTER + INTRA:          -8.577
REMARK INTER:                  -5.853
REMARK INTRA:                  -2.723
REMARK UNBOUND:                -2.071
REMARK SMILES CCCCCCCCCCCCCCCC(=O)[O-]
REMARK SMILES IDX 9 1 10 2 11 3 12 4 13 5 14 6 15 7 16 8 17 9 18 10 8 11 7 12
REMARK SMILES IDX 6 13 5 14 4 15 3 16 2 17 1 18
REMARK H PARENT
REMARK Flexibility Score: inf
ROOT
ATOM      1  C   UNL     1      21.951  14.813  11.399  1.00  0.00     0.000 C 
ENDROOT
BRANCH   1   2
ATOM      2  C   UNL     1      20.648  15.628  11.473  1.00  0.00     0.000 C 
BRANCH   2   3
ATOM      3  C   UNL     1      19.501  15.098  10.588  1.00  0.00     0.000 C 
BRANCH   3   4
ATOM      4  C   UNL     1      19.949  14.391   9.293  1.00  0.00     0.000 C 
BRANCH   4   5
ATOM      5  C   UNL     1      20.265  15.330   8.112  1.00  0.00     0.000 C 
BRANCH   5   6
ATOM      6  C   UNL     1      21.753  15.412   7.727  1.00  0.00     0.006 C 
BRANCH   6   7
ATOM      7  C   UNL     1      22.013  16.361   6.551  1.00  0.00     0.053 C 
BRANCH   7   8
ATOM      8  C   UNL     1      23.483  16.534   6.336  1.00  0.00     0.041 C 
ATOM      9  O   UNL     1      24.236  15.526   6.264  1.00  0.00    -0.550 OA
ATOM     10  O   UNL     1      24.017  17.805   6.167  1.00  0.00    -0.550 OA
ENDBRANCH   7   8
ENDBRANCH   6   7
ENDBRANCH   5   6
ENDBRANCH   4   5
ENDBRANCH   3   4
ENDBRANCH   2   3
ENDBRANCH   1   2
BRANCH   1  11
ATOM     11  C   UNL     1      23.205  15.700  11.330  1.00  0.00     0.000 C 
BRANCH  11  12
ATOM     12  C   UNL     1      22.881  17.203  11.392  1.00  0.00    -0.000 C 
BRANCH  12  13
ATOM     13  C   UNL     1      23.323  18.015  10.159  1.00  0.00    -0.000 C 
BRANCH  13  14
ATOM     14  C   UNL     1      22.139  18.614   9.380  1.00  0.00    -0.000 C 
BRANCH  14  15
ATOM     15  C   UNL     1      20.930  18.911  10.282  1.00  0.00    -0.000 C 
BRANCH  15  16
ATOM     16  C   UNL     1      19.590  18.773   9.536  1.00  0.00    -0.000 C 
BRANCH  16  17
ATOM     17  C   UNL     1      19.735  18.987   8.021  1.00  0.00    -0.003 C 
ATOM     18  C   UNL     1      18.476  18.603   7.244  1.00  0.00     0.004 C 
ENDBRANCH  16  17
ENDBRANCH  15  16
ENDBRANCH  14  15
ENDBRANCH  13  14
ENDBRANCH  12  13
ENDBRANCH  11  12
ENDBRANCH   1  11
TORSDOF 14
ENDMDL
MODEL 9
REMARK VINA RESULT:    -3.568      1.461      3.760
REMARK INTER + INTRA:          -8.559
REMARK INTER:                  -6.179
REMARK INTRA:                  -2.380
REMARK UNBOUND:                -2.071
REMARK SMILES CCCCCCCCCCCCCCCC(=O)[O-]
REMARK SMILES IDX 9 1 10 2 11 3 12 4 13 5 14 6 15 7 16 8 17 9 18 10 8 11 7 12
REMARK SMILES IDX 6 13 5 14 4 15 3 16 2 17 1 18
REMARK H PARENT
REMARK Flexibility Score: inf
ROOT
ATOM      1  C   UNL     1      22.181  15.566  10.615  1.00  0.00     0.000 C 
ENDROOT
BRANCH   1   2
ATOM      2  C   UNL     1      23.262  16.414  11.309  1.00  0.00     0.000 C 
BRANCH   2   3
ATOM      3  C   UNL     1      23.230  17.916  10.960  1.00  0.00     0.000 C 
BRANCH   3   4
ATOM      4  C   UNL     1      21.856  18.596  11.123  1.00  0.00     0.000 C 
BRANCH   4   5
ATOM      5  C   UNL     1      21.152  18.969   9.803  1.00  0.00     0.000 C 
BRANCH   5   6
ATOM      6  C   UNL     1      19.615  18.896   9.843  1.00  0.00     0.006 C 
BRANCH   6   7
ATOM      7  C   UNL     1      19.062  17.630   9.177  1.00  0.00     0.053 C 
BRANCH   7   8
ATOM      8  C   UNL     1      18.353  17.978   7.906  1.00  0.00     0.041 C 
ATOM      9  O   UNL     1      18.081  17.079   7.066  1.00  0.00    -0.550 OA
ATOM     10  O   UNL     1      17.951  19.286   7.669  1.00  0.00    -0.550 OA
ENDBRANCH   7   8
ENDBRANCH   6   7
ENDBRANCH   5   6
ENDBRANCH   4   5
ENDBRANCH   3   4
ENDBRANCH   2   3
ENDBRANCH   1   2
BRANCH   1  11
ATOM     11  C   UNL     1      22.764  14.360   9.859  1.00  0.00     0.000 C 
BRANCH  11  12
ATOM     12  C   UNL     1      22.680  14.514   8.330  1.00  0.00    -0.000 C 
BRANCH  12  13
ATOM     13  C   UNL     1      22.312  15.926   7.837  1.00  0.00    -0.000 C 
BRANCH  13  14
ATOM     14  C   UNL     1      23.540  16.759   7.432  1.00  0.00    -0.000 C 
BRANCH  14  15
ATOM     15  C   UNL     1      23.164  18.001   6.608  1.00  0.00    -0.000 C 
BRANCH  15  16
ATOM     16  C   UNL     1      21.672  18.030   6.232  1.00  0.00    -0.000 C 
BRANCH  16  17
ATOM     17  C   UNL     1      21.142  19.459   6.034  1.00  0.00    -0.003 C 
ATOM     18  C   UNL     1      22.122  20.528   6.517  1.00  0.00     0.004 C 
ENDBRANCH  16  17
ENDBRANCH  15  16
ENDBRANCH  14  15
ENDBRANCH  13  14
ENDBRANCH  12  13
ENDBRANCH  11  12
ENDBRANCH   1  11
TORSDOF 14
ENDMDL
