MODEL 1
REMARK VINA RESULT:     3.965      0.000      0.000
REMARK INTER + INTRA:           3.965
REMARK INTER:                   3.965
REMARK INTRA:                   0.000
REMARK UNBOUND:                 0.000
REMARK SMILES CC1(C)O[C@]2(C)CC[C@H]1CC2
REMARK SMILES IDX 1 1 2 2 9 3 10 4 11 5 5 6 4 7 7 8 8 9 6 10 3 11
REMARK H PARENT
REMARK Flexibility Score: inf
ROOT
ATOM      1  C   UNL     1       6.009   5.134  20.024  1.00  0.00     0.042 C 
ATOM      2  C   UNL     1       7.111   4.844  18.981  1.00  0.00     0.066 C 
ATOM      3  C   UNL     1       8.538   4.892  19.650  1.00  0.00     0.021 C 
ATOM      4  C   UNL     1       8.620   3.768  20.710  1.00  0.00     0.009 C 
ATOM      5  C   UNL     1       8.196   2.427  20.063  1.00  0.00     0.035 C 
ATOM      6  C   UNL     1       7.919   2.639  18.547  1.00  0.00     0.066 C 
ATOM      7  O   UNL     1       6.841   3.563  18.392  1.00  0.00    -0.369 OA
ATOM      8  C   UNL     1       9.195   3.224  17.876  1.00  0.00     0.035 C 
ATOM      9  C   UNL     1       9.596   4.545  18.574  1.00  0.00     0.009 C 
ATOM     10  C   UNL     1       7.529   1.311  17.886  1.00  0.00     0.042 C 
ATOM     11  C   UNL     1       6.989   5.915  17.876  1.00  0.00     0.042 C 
ENDROOT
TORSDOF 0
ENDMDL
MODEL 2
REMARK VINA RESULT:     4.222      1.385      2.566
REMARK INTER + INTRA:           4.222
REMARK INTER:                   4.222
REMARK INTRA:                   0.000
REMARK UNBOUND:                 0.000
REMARK SMILES CC1(C)O[C@]2(C)CC[C@H]1CC2
REMARK SMILES IDX 1 1 2 2 9 3 10 4 11 5 5 6 4 7 7 8 8 9 6 10 3 11
REMARK H PARENT
REMARK Flexibility Score: inf
ROOT
ATOM      1  C   UNL     1       6.528   1.221  20.020  1.00  0.00     0.042 C 
ATOM      2  C   UNL     1       6.710   2.347  18.979  1.00  0.00     0.066 C 
ATOM      3  C   UNL     1       6.529   3.763  19.652  1.00  0.00     0.021 C 
ATOM      4  C   UNL     1       7.642   3.949  20.709  1.00  0.00     0.009 C 
ATOM      5  C   UNL     1       9.016   3.654  20.059  1.00  0.00     0.035 C 
ATOM      6  C   UNL     1       8.828   3.361  18.543  1.00  0.00     0.066 C 
ATOM      7  O   UNL     1       8.010   2.200  18.387  1.00  0.00    -0.369 OA
ATOM      8  C   UNL     1       8.124   4.577  17.875  1.00  0.00     0.035 C 
ATOM      9  C   UNL     1       6.772   4.850  18.577  1.00  0.00     0.009 C 
ATOM     10  C   UNL     1      10.185   3.100  17.879  1.00  0.00     0.042 C 
ATOM     11  C   UNL     1       5.653   2.127  17.876  1.00  0.00     0.042 C 
ENDROOT
TORSDOF 0
ENDMDL
MODEL 3
REMARK VINA RESULT:     5.136      1.354      2.500
REMARK INTER + INTRA:           5.136
REMARK INTER:                   5.136
REMARK INTRA:                   0.000
REMARK UNBOUND:                 0.000
REMARK SMILES CC1(C)O[C@]2(C)CC[C@H]1CC2
REMARK SMILES IDX 1 1 2 2 9 3 10 4 11 5 5 6 4 7 7 8 8 9 6 10 3 11
REMARK H PARENT
REMARK Flexibility Score: inf
ROOT
ATOM      1  C   UNL     1       6.383   6.227  17.876  1.00  0.00     0.042 C 
ATOM      2  C   UNL     1       7.322   5.696  18.980  1.00  0.00     0.066 C 
ATOM      3  C   UNL     1       6.718   4.402  19.650  1.00  0.00     0.021 C 
ATOM      4  C   UNL     1       6.622   3.293  18.576  1.00  0.00     0.009 C 
ATOM      5  C   UNL     1       7.995   3.143  17.876  1.00  0.00     0.035 C 
ATOM      6  C   UNL     1       9.033   4.087  18.546  1.00  0.00     0.066 C 
ATOM      7  O   UNL     1       8.605   5.442  18.390  1.00  0.00    -0.369 OA
ATOM      8  C   UNL     1       9.119   3.750  20.062  1.00  0.00     0.035 C 
ATOM      9  C   UNL     1       7.721   3.885  20.711  1.00  0.00     0.009 C 
ATOM     10  C   UNL     1      10.407   3.925  17.884  1.00  0.00     0.042 C 
ATOM     11  C   UNL     1       7.488   6.823  20.022  1.00  0.00     0.042 C 
ENDROOT
TORSDOF 0
ENDMDL
MODEL 4
REMARK VINA RESULT:     6.046      1.465      3.215
REMARK INTER + INTRA:           6.046
REMARK INTER:                   6.046
REMARK INTRA:                   0.000
REMARK UNBOUND:                 0.000
REMARK SMILES CC1(C)O[C@]2(C)CC[C@H]1CC2
REMARK SMILES IDX 1 1 2 2 9 3 10 4 11 5 5 6 4 7 7 8 8 9 6 10 3 11
REMARK H PARENT
REMARK Flexibility Score: inf
ROOT
ATOM      1  C   UNL     1       7.134   3.132  20.895  1.00  0.00     0.042 C 
ATOM      2  C   UNL     1       8.337   3.651  20.077  1.00  0.00     0.066 C 
ATOM      3  C   UNL     1       8.400   2.941  18.669  1.00  0.00     0.021 C 
ATOM      4  C   UNL     1       7.126   3.313  17.875  1.00  0.00     0.009 C 
ATOM      5  C   UNL     1       6.958   4.852  17.875  1.00  0.00     0.035 C 
ATOM      6  C   UNL     1       8.170   5.514  18.592  1.00  0.00     0.066 C 
ATOM      7  O   UNL     1       8.209   5.075  19.951  1.00  0.00    -0.369 OA
ATOM      8  C   UNL     1       9.481   5.077  17.876  1.00  0.00     0.035 C 
ATOM      9  C   UNL     1       9.590   3.534  17.875  1.00  0.00     0.009 C 
ATOM     10  C   UNL     1       8.033   7.040  18.570  1.00  0.00     0.042 C 
ATOM     11  C   UNL     1       9.611   3.354  20.896  1.00  0.00     0.042 C 
ENDROOT
TORSDOF 0
ENDMDL
MODEL 5
REMARK VINA RESULT:     6.860      1.379      2.692
REMARK INTER + INTRA:           6.860
REMARK INTER:                   6.860
REMARK INTRA:                   0.000
REMARK UNBOUND:                 0.000
REMARK SMILES CC1(C)O[C@]2(C)CC[C@H]1CC2
REMARK SMILES IDX 1 1 2 2 9 3 10 4 11 5 5 6 4 7 7 8 8 9 6 10 3 11
REMARK H PARENT
REMARK Flexibility Score: inf
ROOT
ATOM      1  C   UNL     1       5.897   4.988  19.357  1.00  0.00     0.042 C 
ATOM      2  C   UNL     1       6.714   3.682  19.258  1.00  0.00     0.066 C 
ATOM      3  C   UNL     1       7.510   3.624  17.898  1.00  0.00     0.021 C 
ATOM      4  C   UNL     1       8.527   4.789  17.875  1.00  0.00     0.009 C 
ATOM      5  C   UNL     1       9.364   4.759  19.177  1.00  0.00     0.035 C 
ATOM      6  C   UNL     1       8.969   3.518  20.028  1.00  0.00     0.066 C 
ATOM      7  O   UNL     1       7.592   3.618  20.393  1.00  0.00    -0.369 OA
ATOM      8  C   UNL     1       9.180   2.233  19.177  1.00  0.00     0.035 C 
ATOM      9  C   UNL     1       8.349   2.322  17.876  1.00  0.00     0.009 C 
ATOM     10  C   UNL     1       9.814   3.457  21.306  1.00  0.00     0.042 C 
ATOM     11  C   UNL     1       5.717   2.508  19.358  1.00  0.00     0.042 C 
ENDROOT
TORSDOF 0
ENDMDL
MODEL 6
REMARK VINA RESULT:     6.932      1.401      3.108
REMARK INTER + INTRA:           6.932
REMARK INTER:                   6.932
REMARK INTRA:                   0.000
REMARK UNBOUND:                 0.000
REMARK SMILES CC1(C)O[C@]2(C)CC[C@H]1CC2
REMARK SMILES IDX 1 1 2 2 9 3 10 4 11 5 5 6 4 7 7 8 8 9 6 10 3 11
REMARK H PARENT
REMARK Flexibility Score: inf
ROOT
ATOM      1  C   UNL     1      10.466   3.499  17.878  1.00  0.00     0.042 C 
ATOM      2  C   UNL     1       9.477   3.090  18.991  1.00  0.00     0.066 C 
ATOM      3  C   UNL     1       8.813   4.364  19.642  1.00  0.00     0.021 C 
ATOM      4  C   UNL     1       7.986   5.093  18.557  1.00  0.00     0.009 C 
ATOM      5  C   UNL     1       7.035   4.080  17.876  1.00  0.00     0.035 C 
ATOM      6  C   UNL     1       7.161   2.692  18.568  1.00  0.00     0.066 C 
ATOM      7  O   UNL     1       8.498   2.212  18.417  1.00  0.00    -0.369 OA
ATOM      8  C   UNL     1       6.843   2.852  20.083  1.00  0.00     0.035 C 
ATOM      9  C   UNL     1       7.798   3.894  20.712  1.00  0.00     0.009 C 
ATOM     10  C   UNL     1       6.199   1.686  17.924  1.00  0.00     0.042 C 
ATOM     11  C   UNL     1      10.277   2.293  20.044  1.00  0.00     0.042 C 
ENDROOT
TORSDOF 0
ENDMDL
