MODEL 1
REMARK VINA RESULT:    -5.580      0.000      0.000
REMARK INTER + INTRA:         -12.058
REMARK INTER:                 -10.146
REMARK INTRA:                  -1.912
REMARK UNBOUND:                -1.912
REMARK SMILES CCCCCCCCCCCCCCCC(=O)[O-]
REMARK SMILES IDX 9 1 10 2 11 3 12 4 13 5 14 6 15 7 16 8 17 9 18 10 8 11 7 12
REMARK SMILES IDX 6 13 5 14 4 15 3 16 2 17 1 18
REMARK H PARENT
REMARK Flexibility Score: inf
ROOT
ATOM      1  C   UNL     1     -34.701  15.903  55.994  1.00  0.00     0.000 C 
ENDROOT
BRANCH   1   2
ATOM      2  C   UNL     1     -33.621  16.007  57.082  1.00  0.00     0.000 C 
BRANCH   2   3
ATOM      3  C   UNL     1     -32.333  15.299  56.647  1.00  0.00     0.000 C 
BRANCH   3   4
ATOM      4  C   UNL     1     -31.230  16.315  56.320  1.00  0.00     0.000 C 
BRANCH   4   5
ATOM      5  C   UNL     1     -31.151  17.406  57.397  1.00  0.00     0.000 C 
BRANCH   5   6
ATOM      6  C   UNL     1     -30.468  18.694  56.900  1.00  0.00     0.006 C 
BRANCH   6   7
ATOM      7  C   UNL     1     -29.796  18.555  55.523  1.00  0.00     0.053 C 
BRANCH   7   8
ATOM      8  C   UNL     1     -29.800  19.835  54.744  1.00  0.00     0.041 C 
ATOM      9  O   UNL     1     -29.377  19.860  53.559  1.00  0.00    -0.550 OA
ATOM     10  O   UNL     1     -30.302  20.996  55.319  1.00  0.00    -0.550 OA
ENDBRANCH   7   8
ENDBRANCH   6   7
ENDBRANCH   5   6
ENDBRANCH   4   5
ENDBRANCH   3   4
ENDBRANCH   2   3
ENDBRANCH   1   2
BRANCH   1  11
ATOM     11  C   UNL     1     -34.548  14.642  55.129  1.00  0.00     0.000 C 
BRANCH  11  12
ATOM     12  C   UNL     1     -35.880  13.896  54.931  1.00  0.00    -0.000 C 
BRANCH  12  13
ATOM     13  C   UNL     1     -35.704  12.371  54.873  1.00  0.00    -0.000 C 
BRANCH  13  14
ATOM     14  C   UNL     1     -34.585  11.871  55.803  1.00  0.00    -0.000 C 
BRANCH  14  15
ATOM     15  C   UNL     1     -35.089  11.579  57.227  1.00  0.00    -0.000 C 
BRANCH  15  16
ATOM     16  C   UNL     1     -34.502  12.545  58.271  1.00  0.00    -0.000 C 
BRANCH  16  17
ATOM     17  C   UNL     1     -35.569  13.461  58.890  1.00  0.00    -0.003 C 
ATOM     18  C   UNL     1     -36.979  13.159  58.380  1.00  0.00     0.004 C 
ENDBRANCH  16  17
ENDBRANCH  15  16
ENDBRANCH  14  15
ENDBRANCH  13  14
ENDBRANCH  12  13
ENDBRANCH  11  12
ENDBRANCH   1  11
TORSDOF 14
ENDMDL
MODEL 2
REMARK VINA RESULT:    -5.551      2.265      3.180
REMARK INTER + INTRA:         -12.006
REMARK INTER:                 -10.181
REMARK INTRA:                  -1.825
REMARK UNBOUND:                -1.912
REMARK SMILES CCCCCCCCCCCCCCCC(=O)[O-]
REMARK SMILES IDX 9 1 10 2 11 3 12 4 13 5 14 6 15 7 16 8 17 9 18 10 8 11 7 12
REMARK SMILES IDX 6 13 5 14 4 15 3 16 2 17 1 18
REMARK H PARENT
REMARK Flexibility Score: inf
ROOT
ATOM      1  C   UNL     1     -32.077  13.380  55.681  1.00  0.00     0.000 C 
ENDROOT
BRANCH   1   2
ATOM      2  C   UNL     1     -32.259  14.894  55.864  1.00  0.00     0.000 C 
BRANCH   2   3
ATOM      3  C   UNL     1     -32.224  15.276  57.349  1.00  0.00     0.000 C 
BRANCH   3   4
ATOM      4  C   UNL     1     -31.297  16.475  57.587  1.00  0.00     0.000 C 
BRANCH   4   5
ATOM      5  C   UNL     1     -30.997  17.207  56.271  1.00  0.00     0.000 C 
BRANCH   5   6
ATOM      6  C   UNL     1     -29.646  17.947  56.287  1.00  0.00     0.006 C 
BRANCH   6   7
ATOM      7  C   UNL     1     -28.703  17.502  57.420  1.00  0.00     0.053 C 
BRANCH   7   8
ATOM      8  C   UNL     1     -27.289  17.320  56.960  1.00  0.00     0.041 C 
ATOM      9  O   UNL     1     -26.958  17.631  55.785  1.00  0.00    -0.550 OA
ATOM     10  O   UNL     1     -26.329  16.836  57.838  1.00  0.00    -0.550 OA
ENDBRANCH   7   8
ENDBRANCH   6   7
ENDBRANCH   5   6
ENDBRANCH   4   5
ENDBRANCH   3   4
ENDBRANCH   2   3
ENDBRANCH   1   2
BRANCH   1  11
ATOM     11  C   UNL     1     -32.227  12.603  56.999  1.00  0.00     0.000 C 
BRANCH  11  12
ATOM     12  C   UNL     1     -33.074  11.328  56.840  1.00  0.00    -0.000 C 
BRANCH  12  13
ATOM     13  C   UNL     1     -34.207  11.235  57.875  1.00  0.00    -0.000 C 
BRANCH  13  14
ATOM     14  C   UNL     1     -34.556  12.601  58.490  1.00  0.00    -0.000 C 
BRANCH  14  15
ATOM     15  C   UNL     1     -36.067  12.778  58.717  1.00  0.00    -0.000 C 
BRANCH  15  16
ATOM     16  C   UNL     1     -36.771  13.437  57.519  1.00  0.00    -0.000 C 
BRANCH  16  17
ATOM     17  C   UNL     1     -35.791  14.171  56.591  1.00  0.00    -0.003 C 
ATOM     18  C   UNL     1     -35.827  13.646  55.156  1.00  0.00     0.004 C 
ENDBRANCH  16  17
ENDBRANCH  15  16
ENDBRANCH  14  15
ENDBRANCH  13  14
ENDBRANCH  12  13
ENDBRANCH  11  12
ENDBRANCH   1  11
TORSDOF 14
ENDMDL
MODEL 3
REMARK VINA RESULT:    -5.509      1.449      3.011
REMARK INTER + INTRA:         -11.930
REMARK INTER:                  -9.708
REMARK INTRA:                  -2.222
REMARK UNBOUND:                -1.912
REMARK SMILES CCCCCCCCCCCCCCCC(=O)[O-]
REMARK SMILES IDX 9 1 10 2 11 3 12 4 13 5 14 6 15 7 16 8 17 9 18 10 8 11 7 12
REMARK SMILES IDX 6 13 5 14 4 15 3 16 2 17 1 18
REMARK H PARENT
REMARK Flexibility Score: inf
ROOT
ATOM      1  C   UNL     1     -32.286  12.451  56.990  1.00  0.00     0.000 C 
ENDROOT
BRANCH   1   2
ATOM      2  C   UNL     1     -32.053  13.182  55.660  1.00  0.00     0.000 C 
BRANCH   2   3
ATOM      3  C   UNL     1     -32.187  14.700  55.836  1.00  0.00     0.000 C 
BRANCH   3   4
ATOM      4  C   UNL     1     -32.223  15.080  57.322  1.00  0.00     0.000 C 
BRANCH   4   5
ATOM      5  C   UNL     1     -31.780  16.536  57.528  1.00  0.00     0.000 C 
BRANCH   5   6
ATOM      6  C   UNL     1     -30.389  16.832  56.936  1.00  0.00     0.006 C 
BRANCH   6   7
ATOM      7  C   UNL     1     -30.380  17.968  55.897  1.00  0.00     0.053 C 
BRANCH   7   8
ATOM      8  C   UNL     1     -29.840  19.252  56.448  1.00  0.00     0.041 C 
ATOM      9  O   UNL     1     -29.582  20.215  55.679  1.00  0.00    -0.550 OA
ATOM     10  O   UNL     1     -29.652  19.397  57.816  1.00  0.00    -0.550 OA
ENDBRANCH   7   8
ENDBRANCH   6   7
ENDBRANCH   5   6
ENDBRANCH   4   5
ENDBRANCH   3   4
ENDBRANCH   2   3
ENDBRANCH   1   2
BRANCH   1  11
ATOM     11  C   UNL     1     -33.161  11.199  56.830  1.00  0.00     0.000 C 
BRANCH  11  12
ATOM     12  C   UNL     1     -34.304  11.140  57.862  1.00  0.00    -0.000 C 
BRANCH  12  13
ATOM     13  C   UNL     1     -34.546  12.490  58.556  1.00  0.00    -0.000 C 
BRANCH  13  14
ATOM     14  C   UNL     1     -36.038  12.858  58.622  1.00  0.00    -0.000 C 
BRANCH  14  15
ATOM     15  C   UNL     1     -36.622  13.206  57.243  1.00  0.00    -0.000 C 
BRANCH  15  16
ATOM     16  C   UNL     1     -35.789  14.263  56.498  1.00  0.00    -0.000 C 
BRANCH  16  17
ATOM     17  C   UNL     1     -35.647  13.952  54.999  1.00  0.00    -0.003 C 
ATOM     18  C   UNL     1     -35.897  12.480  54.673  1.00  0.00     0.004 C 
ENDBRANCH  16  17
ENDBRANCH  15  16
ENDBRANCH  14  15
ENDBRANCH  13  14
ENDBRANCH  12  13
ENDBRANCH  11  12
ENDBRANCH   1  11
TORSDOF 14
ENDMDL
MODEL 4
REMARK VINA RESULT:    -5.502      2.247      3.054
REMARK INTER + INTRA:         -11.916
REMARK INTER:                 -10.136
REMARK INTRA:                  -1.780
REMARK UNBOUND:                -1.912
REMARK SMILES CCCCCCCCCCCCCCCC(=O)[O-]
REMARK SMILES IDX 9 1 10 2 11 3 12 4 13 5 14 6 15 7 16 8 17 9 18 10 8 11 7 12
REMARK SMILES IDX 6 13 5 14 4 15 3 16 2 17 1 18
REMARK H PARENT
REMARK Flexibility Score: inf
ROOT
ATOM      1  C   UNL     1     -34.942  15.176  55.123  1.00  0.00     0.000 C 
ENDROOT
BRANCH   1   2
ATOM      2  C   UNL     1     -33.458  15.144  55.516  1.00  0.00     0.000 C 
BRANCH   2   3
ATOM      3  C   UNL     1     -33.183  16.077  56.702  1.00  0.00     0.000 C 
BRANCH   3   4
ATOM      4  C   UNL     1     -31.704  16.033  57.106  1.00  0.00     0.000 C 
BRANCH   4   5
ATOM      5  C   UNL     1     -31.160  17.447  57.355  1.00  0.00     0.000 C 
BRANCH   5   6
ATOM      6  C   UNL     1     -29.733  17.648  56.811  1.00  0.00     0.006 C 
BRANCH   6   7
ATOM      7  C   UNL     1     -28.625  17.318  57.828  1.00  0.00     0.053 C 
BRANCH   7   8
ATOM      8  C   UNL     1     -27.258  17.316  57.214  1.00  0.00     0.041 C 
ATOM      9  O   UNL     1     -26.257  16.959  57.890  1.00  0.00    -0.550 OA
ATOM     10  O   UNL     1     -27.093  17.678  55.883  1.00  0.00    -0.550 OA
ENDBRANCH   7   8
ENDBRANCH   6   7
ENDBRANCH   5   6
ENDBRANCH   4   5
ENDBRANCH   3   4
ENDBRANCH   2   3
ENDBRANCH   1   2
BRANCH   1  11
ATOM     11  C   UNL     1     -35.633  13.816  55.311  1.00  0.00     0.000 C 
BRANCH  11  12
ATOM     12  C   UNL     1     -36.754  13.863  56.365  1.00  0.00    -0.000 C 
BRANCH  12  13
ATOM     13  C   UNL     1     -36.446  12.999  57.598  1.00  0.00    -0.000 C 
BRANCH  13  14
ATOM     14  C   UNL     1     -35.417  13.655  58.535  1.00  0.00    -0.000 C 
BRANCH  14  15
ATOM     15  C   UNL     1     -34.050  12.950  58.497  1.00  0.00    -0.000 C 
BRANCH  15  16
ATOM     16  C   UNL     1     -34.136  11.526  57.920  1.00  0.00    -0.000 C 
BRANCH  16  17
ATOM     17  C   UNL     1     -33.218  11.328  56.704  1.00  0.00    -0.003 C 
ATOM     18  C   UNL     1     -31.973  12.215  56.748  1.00  0.00     0.004 C 
ENDBRANCH  16  17
ENDBRANCH  15  16
ENDBRANCH  14  15
ENDBRANCH  13  14
ENDBRANCH  12  13
ENDBRANCH  11  12
ENDBRANCH   1  11
TORSDOF 14
ENDMDL
MODEL 5
REMARK VINA RESULT:    -5.499      2.065      2.324
REMARK INTER + INTRA:         -11.912
REMARK INTER:                 -10.065
REMARK INTRA:                  -1.847
REMARK UNBOUND:                -1.912
REMARK SMILES CCCCCCCCCCCCCCCC(=O)[O-]
REMARK SMILES IDX 9 1 10 2 11 3 12 4 13 5 14 6 15 7 16 8 17 9 18 10 8 11 7 12
REMARK SMILES IDX 6 13 5 14 4 15 3 16 2 17 1 18
REMARK H PARENT
REMARK Flexibility Score: inf
ROOT
ATOM      1  C   UNL     1     -33.958  15.182  55.586  1.00  0.00     0.000 C 
ENDROOT
BRANCH   1   2
ATOM      2  C   UNL     1     -33.882  15.779  56.999  1.00  0.00     0.000 C 
BRANCH   2   3
ATOM      3  C   UNL     1     -32.536  15.455  57.660  1.00  0.00     0.000 C 
BRANCH   3   4
ATOM      4  C   UNL     1     -31.367  15.823  56.737  1.00  0.00     0.000 C 
BRANCH   4   5
ATOM      5  C   UNL     1     -31.145  17.342  56.710  1.00  0.00     0.000 C 
BRANCH   5   6
ATOM      6  C   UNL     1     -29.675  17.732  56.470  1.00  0.00     0.006 C 
BRANCH   6   7
ATOM      7  C   UNL     1     -28.698  17.167  57.517  1.00  0.00     0.053 C 
BRANCH   7   8
ATOM      8  C   UNL     1     -27.266  17.269  57.087  1.00  0.00     0.041 C 
ATOM      9  O   UNL     1     -26.339  17.006  57.898  1.00  0.00    -0.550 OA
ATOM     10  O   UNL     1     -26.956  17.623  55.781  1.00  0.00    -0.550 OA
ENDBRANCH   7   8
ENDBRANCH   6   7
ENDBRANCH   5   6
ENDBRANCH   4   5
ENDBRANCH   3   4
ENDBRANCH   2   3
ENDBRANCH   1   2
BRANCH   1  11
ATOM     11  C   UNL     1     -35.316  14.524  55.295  1.00  0.00     0.000 C 
BRANCH  11  12
ATOM     12  C   UNL     1     -35.207  13.000  55.105  1.00  0.00    -0.000 C 
BRANCH  12  13
ATOM     13  C   UNL     1     -33.866  12.435  55.600  1.00  0.00    -0.000 C 
BRANCH  13  14
ATOM     14  C   UNL     1     -34.043  11.185  56.479  1.00  0.00    -0.000 C 
BRANCH  14  15
ATOM     15  C   UNL     1     -35.021  11.416  57.643  1.00  0.00    -0.000 C 
BRANCH  15  16
ATOM     16  C   UNL     1     -34.533  12.499  58.620  1.00  0.00    -0.000 C 
BRANCH  16  17
ATOM     17  C   UNL     1     -35.684  13.350  59.179  1.00  0.00    -0.003 C 
ATOM     18  C   UNL     1     -36.976  13.201  58.376  1.00  0.00     0.004 C 
ENDBRANCH  16  17
ENDBRANCH  15  16
ENDBRANCH  14  15
ENDBRANCH  13  14
ENDBRANCH  12  13
ENDBRANCH  11  12
ENDBRANCH   1  11
TORSDOF 14
ENDMDL
MODEL 6
REMARK VINA RESULT:    -5.499      1.529      3.084
REMARK INTER + INTRA:         -11.911
REMARK INTER:                  -9.733
REMARK INTRA:                  -2.178
REMARK UNBOUND:                -1.912
REMARK SMILES CCCCCCCCCCCCCCCC(=O)[O-]
REMARK SMILES IDX 9 1 10 2 11 3 12 4 13 5 14 6 15 7 16 8 17 9 18 10 8 11 7 12
REMARK SMILES IDX 6 13 5 14 4 15 3 16 2 17 1 18
REMARK H PARENT
REMARK Flexibility Score: inf
ROOT
ATOM      1  C   UNL     1     -34.761  13.346  59.200  1.00  0.00     0.000 C 
ENDROOT
BRANCH   1   2
ATOM      2  C   UNL     1     -34.472  14.846  59.034  1.00  0.00     0.000 C 
BRANCH   2   3
ATOM      3  C   UNL     1     -33.048  15.076  58.511  1.00  0.00     0.000 C 
BRANCH   3   4
ATOM      4  C   UNL     1     -33.045  16.068  57.341  1.00  0.00     0.000 C 
BRANCH   4   5
ATOM      5  C   UNL     1     -31.711  16.018  56.582  1.00  0.00     0.000 C 
BRANCH   5   6
ATOM      6  C   UNL     1     -30.586  16.797  57.289  1.00  0.00     0.006 C 
BRANCH   6   7
ATOM      7  C   UNL     1     -30.824  18.316  57.355  1.00  0.00     0.053 C 
BRANCH   7   8
ATOM      8  C   UNL     1     -29.936  19.083  56.423  1.00  0.00     0.041 C 
ATOM      9  O   UNL     1     -29.024  19.823  56.878  1.00  0.00    -0.550 OA
ATOM     10  O   UNL     1     -30.094  18.955  55.049  1.00  0.00    -0.550 OA
ENDBRANCH   7   8
ENDBRANCH   6   7
ENDBRANCH   5   6
ENDBRANCH   4   5
ENDBRANCH   3   4
ENDBRANCH   2   3
ENDBRANCH   1   2
BRANCH   1  11
ATOM     11  C   UNL     1     -36.261  13.022  59.119  1.00  0.00     0.000 C 
BRANCH  11  12
ATOM     12  C   UNL     1     -36.889  13.457  57.782  1.00  0.00    -0.000 C 
BRANCH  12  13
ATOM     13  C   UNL     1     -36.236  12.775  56.570  1.00  0.00    -0.000 C 
BRANCH  13  14
ATOM     14  C   UNL     1     -35.541  13.779  55.634  1.00  0.00    -0.000 C 
BRANCH  14  15
ATOM     15  C   UNL     1     -34.115  13.343  55.255  1.00  0.00    -0.000 C 
BRANCH  15  16
ATOM     16  C   UNL     1     -33.729  11.986  55.869  1.00  0.00    -0.000 C 
BRANCH  16  17
ATOM     17  C   UNL     1     -32.439  12.062  56.701  1.00  0.00    -0.003 C 
ATOM     18  C   UNL     1     -31.210  12.405  55.859  1.00  0.00     0.004 C 
ENDBRANCH  16  17
ENDBRANCH  15  16
ENDBRANCH  14  15
ENDBRANCH  13  14
ENDBRANCH  12  13
ENDBRANCH  11  12
ENDBRANCH   1  11
TORSDOF 14
ENDMDL
MODEL 7
REMARK VINA RESULT:    -5.477      2.176      3.382
REMARK INTER + INTRA:         -11.872
REMARK INTER:                 -10.075
REMARK INTRA:                  -1.797
REMARK UNBOUND:                -1.912
REMARK SMILES CCCCCCCCCCCCCCCC(=O)[O-]
REMARK SMILES IDX 9 1 10 2 11 3 12 4 13 5 14 6 15 7 16 8 17 9 18 10 8 11 7 12
REMARK SMILES IDX 6 13 5 14 4 15 3 16 2 17 1 18
REMARK H PARENT
REMARK Flexibility Score: inf
ROOT
ATOM      1  C   UNL     1     -32.999  14.667  58.863  1.00  0.00     0.000 C 
ENDROOT
BRANCH   1   2
ATOM      2  C   UNL     1     -32.554  13.912  57.601  1.00  0.00     0.000 C 
BRANCH   2   3
ATOM      3  C   UNL     1     -31.605  14.769  56.754  1.00  0.00     0.000 C 
BRANCH   3   4
ATOM      4  C   UNL     1     -31.473  16.183  57.336  1.00  0.00     0.000 C 
BRANCH   4   5
ATOM      5  C   UNL     1     -31.039  17.183  56.255  1.00  0.00     0.000 C 
BRANCH   5   6
ATOM      6  C   UNL     1     -29.731  17.918  56.604  1.00  0.00     0.006 C 
BRANCH   6   7
ATOM      7  C   UNL     1     -28.751  17.084  57.448  1.00  0.00     0.053 C 
BRANCH   7   8
ATOM      8  C   UNL     1     -27.327  17.249  57.014  1.00  0.00     0.041 C 
ATOM      9  O   UNL     1     -26.385  16.914  57.780  1.00  0.00    -0.550 OA
ATOM     10  O   UNL     1     -27.039  17.745  55.749  1.00  0.00    -0.550 OA
ENDBRANCH   7   8
ENDBRANCH   6   7
ENDBRANCH   5   6
ENDBRANCH   4   5
ENDBRANCH   3   4
ENDBRANCH   2   3
ENDBRANCH   1   2
BRANCH   1  11
ATOM     11  C   UNL     1     -34.517  14.598  59.087  1.00  0.00     0.000 C 
BRANCH  11  12
ATOM     12  C   UNL     1     -35.077  13.174  58.911  1.00  0.00    -0.000 C 
BRANCH  12  13
ATOM     13  C   UNL     1     -36.567  13.164  58.536  1.00  0.00    -0.000 C 
BRANCH  13  14
ATOM     14  C   UNL     1     -36.813  12.626  57.116  1.00  0.00    -0.000 C 
BRANCH  14  15
ATOM     15  C   UNL     1     -35.535  12.070  56.465  1.00  0.00    -0.000 C 
BRANCH  15  16
ATOM     16  C   UNL     1     -35.200  12.763  55.134  1.00  0.00    -0.000 C 
BRANCH  16  17
ATOM     17  C   UNL     1     -35.857  14.147  55.009  1.00  0.00    -0.003 C 
ATOM     18  C   UNL     1     -34.858  15.294  55.159  1.00  0.00     0.004 C 
ENDBRANCH  16  17
ENDBRANCH  15  16
ENDBRANCH  14  15
ENDBRANCH  13  14
ENDBRANCH  12  13
ENDBRANCH  11  12
ENDBRANCH   1  11
TORSDOF 14
ENDMDL
MODEL 8
REMARK VINA RESULT:    -5.467      1.154      2.186
REMARK INTER + INTRA:         -11.854
REMARK INTER:                  -9.917
REMARK INTRA:                  -1.937
REMARK UNBOUND:                -1.912
REMARK SMILES CCCCCCCCCCCCCCCC(=O)[O-]
REMARK SMILES IDX 9 1 10 2 11 3 12 4 13 5 14 6 15 7 16 8 17 9 18 10 8 11 7 12
REMARK SMILES IDX 6 13 5 14 4 15 3 16 2 17 1 18
REMARK H PARENT
REMARK Flexibility Score: inf
ROOT
ATOM      1  C   UNL     1     -34.885  15.220  55.127  1.00  0.00     0.000 C 
ENDROOT
BRANCH   1   2
ATOM      2  C   UNL     1     -33.436  15.118  55.626  1.00  0.00     0.000 C 
BRANCH   2   3
ATOM      3  C   UNL     1     -33.166  16.134  56.742  1.00  0.00     0.000 C 
BRANCH   3   4
ATOM      4  C   UNL     1     -31.988  15.690  57.619  1.00  0.00     0.000 C 
BRANCH   4   5
ATOM      5  C   UNL     1     -30.745  16.547  57.345  1.00  0.00     0.000 C 
BRANCH   5   6
ATOM      6  C   UNL     1     -31.005  17.680  56.334  1.00  0.00     0.006 C 
BRANCH   6   7
ATOM      7  C   UNL     1     -29.768  18.079  55.510  1.00  0.00     0.053 C 
BRANCH   7   8
ATOM      8  C   UNL     1     -29.785  19.520  55.101  1.00  0.00     0.041 C 
ATOM      9  O   UNL     1     -29.955  19.836  53.894  1.00  0.00    -0.550 OA
ATOM     10  O   UNL     1     -29.644  20.516  56.058  1.00  0.00    -0.550 OA
ENDBRANCH   7   8
ENDBRANCH   6   7
ENDBRANCH   5   6
ENDBRANCH   4   5
ENDBRANCH   3   4
ENDBRANCH   2   3
ENDBRANCH   1   2
BRANCH   1  11
ATOM     11  C   UNL     1     -35.631  13.879  55.203  1.00  0.00     0.000 C 
BRANCH  11  12
ATOM     12  C   UNL     1     -36.724  13.871  56.289  1.00  0.00    -0.000 C 
BRANCH  12  13
ATOM     13  C   UNL     1     -36.418  12.889  57.431  1.00  0.00    -0.000 C 
BRANCH  13  14
ATOM     14  C   UNL     1     -35.453  13.480  58.473  1.00  0.00    -0.000 C 
BRANCH  14  15
ATOM     15  C   UNL     1     -34.072  12.802  58.450  1.00  0.00    -0.000 C 
BRANCH  15  16
ATOM     16  C   UNL     1     -34.103  11.422  57.771  1.00  0.00    -0.000 C 
BRANCH  16  17
ATOM     17  C   UNL     1     -33.272  11.384  56.479  1.00  0.00    -0.003 C 
ATOM     18  C   UNL     1     -31.913  12.068  56.626  1.00  0.00     0.004 C 
ENDBRANCH  16  17
ENDBRANCH  15  16
ENDBRANCH  14  15
ENDBRANCH  13  14
ENDBRANCH  12  13
ENDBRANCH  11  12
ENDBRANCH   1  11
TORSDOF 14
ENDMDL
