MODEL 1
REMARK VINA RESULT:    55.652      0.000      0.000
REMARK INTER + INTRA:          76.252
REMARK INTER:                  76.799
REMARK INTRA:                  -0.546
REMARK UNBOUND:                -0.546
REMARK SMILES CC[C@@H](CC[C@@H](C)[C@@H]1CC[C@H]2[C@@H]3CC=C4C[C@@H](O)CC[C@]4(C)[C@@H]3CC[C@@]21C)C(C)C
REMARK SMILES IDX 5 1 4 2 3 3 2 4 1 5 28 6 29 7 30 8 6 9 7 10 8 11 9 12 26 13
REMARK SMILES IDX 10 14 11 15 25 16 27 17 12 18 24 19 23 20 13 21 21 22 14 23
REMARK SMILES IDX 15 24 20 25 22 26 16 27 19 28 17 29 18 30
REMARK H PARENT 18 31
REMARK Flexibility Score: inf
ROOT
ATOM      1  C   UNL     1     -26.853  23.855   7.272  1.00  0.00     0.004 C 
ENDROOT
BRANCH   1   2
ATOM      2  C   UNL     1     -26.059  24.498   6.108  1.00  0.00     0.004 C 
BRANCH   2   3
ATOM      3  C   UNL     1     -25.286  25.801   6.501  1.00  0.00    -0.009 C 
BRANCH   3   4
ATOM      4  C   UNL     1     -26.237  27.034   6.479  1.00  0.00     0.000 C 
ATOM      5  C   UNL     1     -27.014  27.231   5.169  1.00  0.00     0.004 C 
ENDBRANCH   3   4
BRANCH   3   6
ATOM      6  C   UNL     1     -23.969  25.990   5.670  1.00  0.00    -0.014 C 
ATOM      7  C   UNL     1     -23.262  27.314   6.026  1.00  0.00     0.007 C 
ATOM      8  C   UNL     1     -24.227  25.989   4.150  1.00  0.00     0.007 C 
ENDBRANCH   3   6
ENDBRANCH   2   3
ENDBRANCH   1   2
BRANCH   1   9
ATOM      9  C   UNL     1     -28.291  23.378   6.880  1.00  0.00    -0.011 C 
ATOM     10  C   UNL     1     -28.601  22.075   7.649  1.00  0.00     0.008 C 
BRANCH   9  11
ATOM     11  C   UNL     1     -29.353  24.517   7.168  1.00  0.00    -0.002 C 
ATOM     12  C   UNL     1     -29.560  24.862   8.679  1.00  0.00     0.005 C 
ATOM     13  C   UNL     1     -30.828  24.242   6.685  1.00  0.00    -0.026 C 
ATOM     14  C   UNL     1     -30.918  24.291   9.114  1.00  0.00     0.005 C 
ATOM     15  C   UNL     1     -31.414  23.520   7.903  1.00  0.00    -0.001 C 
ATOM     16  C   UNL     1     -31.049  23.294   5.458  1.00  0.00     0.007 C 
ATOM     17  C   UNL     1     -31.512  25.636   6.425  1.00  0.00     0.012 C 
ATOM     18  C   UNL     1     -32.951  23.218   7.839  1.00  0.00     0.000 C 
ATOM     19  C   UNL     1     -32.454  22.611   5.402  1.00  0.00     0.005 C 
ATOM     20  C   UNL     1     -33.500  23.225   6.374  1.00  0.00     0.003 C 
ATOM     21  C   UNL     1     -33.206  21.859   8.529  1.00  0.00     0.031 C 
ATOM     22  C   UNL     1     -34.997  22.697   6.274  1.00  0.00    -0.008 C 
ATOM     23  C   UNL     1     -34.561  21.271   8.294  1.00  0.00    -0.027 C 
ATOM     24  C   UNL     1     -35.277  21.494   7.179  1.00  0.00    -0.065 C 
ATOM     25  C   UNL     1     -35.366  22.320   4.805  1.00  0.00     0.014 C 
ATOM     26  C   UNL     1     -35.935  23.845   6.748  1.00  0.00     0.016 C 
ATOM     27  C   UNL     1     -36.578  20.726   7.006  1.00  0.00     0.063 C 
ATOM     28  C   UNL     1     -36.755  21.683   4.657  1.00  0.00     0.033 C 
ATOM     29  C   UNL     1     -36.857  20.419   5.525  1.00  0.00     0.118 C 
BRANCH  29  30
ATOM     30  O   UNL     1     -38.116  19.812   5.371  1.00  0.00    -0.393 OA
ATOM     31  H   UNL     1     -38.580  19.846   6.249  1.00  0.00     0.210 HD
ENDBRANCH  29  30
ENDBRANCH   9  11
ENDBRANCH   1   9
TORSDOF 7
ENDMDL
MODEL 2
REMARK VINA RESULT:    57.967      3.192      9.062
REMARK INTER + INTRA:          79.448
REMARK INTER:                  69.933
REMARK INTRA:                   9.515
REMARK UNBOUND:                -0.546
REMARK SMILES CC[C@@H](CC[C@@H](C)[C@@H]1CC[C@H]2[C@@H]3CC=C4C[C@@H](O)CC[C@]4(C)[C@@H]3CC[C@@]21C)C(C)C
REMARK SMILES IDX 5 1 4 2 3 3 2 4 1 5 28 6 29 7 30 8 6 9 7 10 8 11 9 12 26 13
REMARK SMILES IDX 10 14 11 15 25 16 27 17 12 18 24 19 23 20 13 21 21 22 14 23
REMARK SMILES IDX 15 24 20 25 22 26 16 27 19 28 17 29 18 30
REMARK H PARENT 18 31
REMARK Flexibility Score: inf
ROOT
ATOM      1  C   UNL     1     -36.783  20.421   8.504  1.00  0.00     0.004 C 
ENDROOT
BRANCH   1   2
ATOM      2  C   UNL     1     -38.121  20.499   7.726  1.00  0.00     0.004 C 
BRANCH   2   3
ATOM      3  C   UNL     1     -38.117  21.522   6.542  1.00  0.00    -0.009 C 
BRANCH   3   4
ATOM      4  C   UNL     1     -37.362  20.937   5.312  1.00  0.00     0.000 C 
ATOM      5  C   UNL     1     -38.125  19.853   4.537  1.00  0.00     0.004 C 
ENDBRANCH   3   4
BRANCH   3   6
ATOM      6  C   UNL     1     -37.626  22.945   6.981  1.00  0.00    -0.014 C 
ATOM      7  C   UNL     1     -38.104  23.294   8.406  1.00  0.00     0.007 C 
ATOM      8  C   UNL     1     -38.122  24.056   6.033  1.00  0.00     0.007 C 
ENDBRANCH   3   6
ENDBRANCH   2   3
ENDBRANCH   1   2
BRANCH   1   9
ATOM      9  C   UNL     1     -35.511  20.610   7.612  1.00  0.00    -0.011 C 
ATOM     10  C   UNL     1     -35.547  19.560   6.481  1.00  0.00     0.008 C 
BRANCH   9  11
ATOM     11  C   UNL     1     -35.433  22.092   7.061  1.00  0.00    -0.002 C 
ATOM     12  C   UNL     1     -35.695  22.243   5.527  1.00  0.00     0.005 C 
ATOM     13  C   UNL     1     -34.054  22.837   7.237  1.00  0.00    -0.026 C 
ATOM     14  C   UNL     1     -34.351  22.535   4.843  1.00  0.00     0.005 C 
ATOM     15  C   UNL     1     -33.323  22.423   5.955  1.00  0.00    -0.001 C 
ATOM     16  C   UNL     1     -33.129  22.423   8.431  1.00  0.00     0.007 C 
ATOM     17  C   UNL     1     -34.351  24.382   7.289  1.00  0.00     0.012 C 
ATOM     18  C   UNL     1     -31.939  23.115   5.710  1.00  0.00     0.000 C 
ATOM     19  C   UNL     1     -31.611  22.737   8.222  1.00  0.00     0.005 C 
ATOM     20  C   UNL     1     -31.315  23.687   7.027  1.00  0.00     0.003 C 
ATOM     21  C   UNL     1     -30.996  22.089   5.041  1.00  0.00     0.031 C 
ATOM     22  C   UNL     1     -29.817  24.183   6.835  1.00  0.00    -0.008 C 
ATOM     23  C   UNL     1     -29.552  22.475   5.013  1.00  0.00    -0.027 C 
ATOM     24  C   UNL     1     -28.982  23.260   5.944  1.00  0.00    -0.065 C 
ATOM     25  C   UNL     1     -29.096  24.346   8.210  1.00  0.00     0.014 C 
ATOM     26  C   UNL     1     -29.865  25.568   6.127  1.00  0.00     0.016 C 
ATOM     27  C   UNL     1     -27.476  23.463   5.875  1.00  0.00     0.063 C 
ATOM     28  C   UNL     1     -27.606  24.701   8.092  1.00  0.00     0.033 C 
ATOM     29  C   UNL     1     -26.865  23.629   7.277  1.00  0.00     0.118 C 
BRANCH  29  30
ATOM     30  O   UNL     1     -25.495  23.930   7.191  1.00  0.00    -0.393 OA
ATOM     31  H   UNL     1     -24.989  23.083   7.308  1.00  0.00     0.210 HD
ENDBRANCH  29  30
ENDBRANCH   9  11
ENDBRANCH   1   9
TORSDOF 7
ENDMDL
MODEL 3
REMARK VINA RESULT:    58.148      9.901     12.262
REMARK INTER + INTRA:          79.698
REMARK INTER:                  80.164
REMARK INTRA:                  -0.466
REMARK UNBOUND:                -0.546
REMARK SMILES CC[C@@H](CC[C@@H](C)[C@@H]1CC[C@H]2[C@@H]3CC=C4C[C@@H](O)CC[C@]4(C)[C@@H]3CC[C@@]21C)C(C)C
REMARK SMILES IDX 5 1 4 2 3 3 2 4 1 5 28 6 29 7 30 8 6 9 7 10 8 11 9 12 26 13
REMARK SMILES IDX 10 14 11 15 25 16 27 17 12 18 24 19 23 20 13 21 21 22 14 23
REMARK SMILES IDX 15 24 20 25 22 26 16 27 19 28 17 29 18 30
REMARK H PARENT 18 31
REMARK Flexibility Score: inf
ROOT
ATOM      1  C   UNL     1     -26.168  31.837  -4.557  1.00  0.00     0.004 C 
ENDROOT
BRANCH   1   2
ATOM      2  C   UNL     1     -25.001  31.251  -5.389  1.00  0.00     0.004 C 
BRANCH   2   3
ATOM      3  C   UNL     1     -25.282  31.175  -6.926  1.00  0.00    -0.009 C 
BRANCH   3   4
ATOM      4  C   UNL     1     -26.381  30.115  -7.234  1.00  0.00     0.000 C 
ATOM      5  C   UNL     1     -26.109  28.714  -6.668  1.00  0.00     0.004 C 
ENDBRANCH   3   4
BRANCH   3   6
ATOM      6  C   UNL     1     -23.970  31.003  -7.768  1.00  0.00    -0.014 C 
ATOM      7  C   UNL     1     -23.884  32.046  -8.902  1.00  0.00     0.007 C 
ATOM      8  C   UNL     1     -23.862  29.604  -8.408  1.00  0.00     0.007 C 
ENDBRANCH   3   6
ENDBRANCH   2   3
ENDBRANCH   1   2
BRANCH   1   9
ATOM      9  C   UNL     1     -26.553  30.986  -3.302  1.00  0.00    -0.011 C 
ATOM     10  C   UNL     1     -25.259  30.414  -2.683  1.00  0.00     0.008 C 
BRANCH   9  11
ATOM     11  C   UNL     1     -27.384  31.855  -2.273  1.00  0.00    -0.002 C 
ATOM     12  C   UNL     1     -27.022  31.627  -0.769  1.00  0.00     0.005 C 
ATOM     13  C   UNL     1     -28.947  31.644  -2.273  1.00  0.00    -0.026 C 
ATOM     14  C   UNL     1     -28.162  30.825  -0.123  1.00  0.00     0.005 C 
ATOM     15  C   UNL     1     -29.095  30.492  -1.273  1.00  0.00    -0.001 C 
ATOM     16  C   UNL     1     -29.637  31.174  -3.598  1.00  0.00     0.007 C 
ATOM     17  C   UNL     1     -29.608  32.977  -1.758  1.00  0.00     0.012 C 
ATOM     18  C   UNL     1     -30.566  30.103  -0.899  1.00  0.00     0.000 C 
ATOM     19  C   UNL     1     -31.002  30.438  -3.400  1.00  0.00     0.005 C 
ATOM     20  C   UNL     1     -31.601  30.579  -1.972  1.00  0.00     0.003 C 
ATOM     21  C   UNL     1     -30.625  28.571  -0.702  1.00  0.00     0.031 C 
ATOM     22  C   UNL     1     -33.059  29.995  -1.724  1.00  0.00    -0.008 C 
ATOM     23  C   UNL     1     -32.002  27.990  -0.641  1.00  0.00    -0.027 C 
ATOM     24  C   UNL     1     -33.057  28.531  -1.276  1.00  0.00    -0.065 C 
ATOM     25  C   UNL     1     -33.946  30.130  -3.002  1.00  0.00     0.014 C 
ATOM     26  C   UNL     1     -33.708  30.817  -0.574  1.00  0.00     0.016 C 
ATOM     27  C   UNL     1     -34.371  27.765  -1.246  1.00  0.00     0.063 C 
ATOM     28  C   UNL     1     -35.326  29.470  -2.872  1.00  0.00     0.033 C 
ATOM     29  C   UNL     1     -35.175  27.977  -2.540  1.00  0.00     0.118 C 
BRANCH  29  30
ATOM     30  O   UNL     1     -36.434  27.359  -2.451  1.00  0.00    -0.393 OA
ATOM     31  H   UNL     1     -36.311  26.389  -2.629  1.00  0.00     0.210 HD
ENDBRANCH  29  30
ENDBRANCH   9  11
ENDBRANCH   1   9
TORSDOF 7
ENDMDL
