MODEL 1
REMARK VINA RESULT:    -7.846      0.000      0.000
REMARK INTER + INTRA:         -14.944
REMARK INTER:                 -12.891
REMARK INTRA:                  -2.053
REMARK UNBOUND:                -2.053
REMARK SMILES C[C@@H]1O[C@H](OC[C@H]2O[C@@H](Oc3c(-c4ccc(O)c(O)c4)oc4cc(O)cc(O)c4c3=O)[C@H](O)[C@@H](O)[C@H]2O)[C@H](O)[C@@H](O)[C@@H]1O
REMARK SMILES IDX 7 1 36 2 34 3 32 4 9 5 8 6 6 7 5 8 4 9 1 10 2 11 42 12 3 13
REMARK SMILES IDX 40 14 38 15 43 16 41 18 39 20 37 22 35 24 10 26 11 27 12 28
REMARK SMILES IDX 30 29 21 30 29 31 31 32 22 33 27 34 23 35 26 36 24 37 13 38
REMARK SMILES IDX 20 39 14 40 18 41 15 42 16 43 19 44 17 46 28 48 25 50 33 52
REMARK H PARENT 43 17 41 19 39 21 37 23 35 25 19 45 17 47 28 49 25 51 33 53
REMARK Flexibility Score: inf
ROOT
ATOM      1  C   UNL     1     162.542 171.623 169.892  1.00  0.00     0.180 C 
ATOM      2  C   UNL     1     161.531 172.747 170.287  1.00  0.00     0.177 C 
ATOM      3  C   UNL     1     159.998 172.440 170.467  1.00  0.00     0.180 C 
ATOM      4  C   UNL     1     159.543 171.184 169.706  1.00  0.00     0.214 C 
ATOM      5  C   UNL     1     160.626 170.154 169.966  1.00  0.00     0.339 C 
ATOM      6  O   UNL     1     161.833 170.597 169.251  1.00  0.00    -0.332 OA
ENDROOT
BRANCH   1   7
ATOM      7  C   UNL     1     163.451 171.009 170.950  1.00  0.00     0.198 C 
BRANCH   7   8
ATOM      8  O   UNL     1     164.111 172.095 171.432  1.00  0.00    -0.347 OA
BRANCH   8   9
ATOM      9  C   UNL     1     165.464 171.931 171.223  1.00  0.00     0.281 C 
ATOM     10  C   UNL     1     167.512 169.775 169.021  1.00  0.00     0.041 C 
ATOM     11  C   UNL     1     167.114 171.077 169.693  1.00  0.00     0.150 C 
ATOM     12  C   UNL     1     167.084 172.354 168.790  1.00  0.00     0.174 C 
ATOM     13  O   UNL     1     165.847 170.878 170.342  1.00  0.00    -0.344 OA
ATOM     14  C   UNL     1     165.823 173.229 169.117  1.00  0.00     0.179 C 
ATOM     15  C   UNL     1     165.793 173.255 170.627  1.00  0.00     0.202 C 
BRANCH  12  16
ATOM     16  O   UNL     1     167.018 172.057 167.378  1.00  0.00    -0.388 OA
ATOM     17  H   UNL     1     166.194 172.610 167.092  1.00  0.00     0.211 HD
ENDBRANCH  12  16
BRANCH  14  18
ATOM     18  O   UNL     1     166.068 174.555 168.480  1.00  0.00    -0.387 OA
ATOM     19  H   UNL     1     166.957 174.609 167.978  1.00  0.00     0.211 HD
ENDBRANCH  14  18
BRANCH  15  20
ATOM     20  O   UNL     1     165.059 174.259 171.312  1.00  0.00    -0.385 OA
ATOM     21  H   UNL     1     165.334 175.239 171.203  1.00  0.00     0.211 HD
ENDBRANCH  15  20
ENDBRANCH   8   9
ENDBRANCH   7   8
ENDBRANCH   1   7
BRANCH   2  22
ATOM     22  O   UNL     1     162.085 173.531 171.293  1.00  0.00    -0.387 OA
ATOM     23  H   UNL     1     163.062 173.609 171.159  1.00  0.00     0.211 HD
ENDBRANCH   2  22
BRANCH   3  24
ATOM     24  O   UNL     1     159.561 172.396 171.810  1.00  0.00    -0.387 OA
ATOM     25  H   UNL     1     159.213 171.474 172.117  1.00  0.00     0.211 HD
ENDBRANCH   3  24
BRANCH   5  26
ATOM     26  O   UNL     1     160.810 169.820 171.470  1.00  0.00    -0.454 OA
BRANCH  26  27
ATOM     27  C   UNL     1     159.881 169.227 172.548  1.00  0.00     0.214 A 
ATOM     28  C   UNL     1     158.879 168.026 172.705  1.00  0.00     0.180 A 
ATOM     29  C   UNL     1     160.055 169.945 173.768  1.00  0.00     0.239 A 
ATOM     30  O   UNL     1     158.200 167.939 173.821  1.00  0.00    -0.452 OA
ATOM     31  C   UNL     1     159.307 169.719 174.909  1.00  0.00     0.111 A 
ATOM     32  O   UNL     1     160.738 171.004 173.800  1.00  0.00    -0.285 OA
ATOM     33  C   UNL     1     158.296 168.822 174.838  1.00  0.00     0.146 A 
ATOM     34  C   UNL     1     159.397 170.581 176.022  1.00  0.00     0.134 A 
ATOM     35  C   UNL     1     157.190 168.924 175.746  1.00  0.00     0.094 A 
ATOM     36  C   UNL     1     158.278 170.685 176.915  1.00  0.00     0.093 A 
ATOM     37  C   UNL     1     157.173 169.917 176.691  1.00  0.00     0.123 A 
BRANCH  28  38
ATOM     38  C   UNL     1     158.138 166.689 171.982  1.00  0.00     0.025 A 
ATOM     39  C   UNL     1     157.433 166.232 170.712  1.00  0.00     0.062 A 
ATOM     40  C   UNL     1     158.302 165.515 172.877  1.00  0.00     0.016 A 
ATOM     41  C   UNL     1     157.055 164.801 170.379  1.00  0.00     0.158 A 
ATOM     42  C   UNL     1     157.883 164.253 172.603  1.00  0.00     0.051 A 
ATOM     43  C   UNL     1     157.311 163.872 171.364  1.00  0.00     0.157 A 
BRANCH  41  44
ATOM     44  O   UNL     1     156.586 164.234 169.106  1.00  0.00    -0.504 OA
ATOM     45  H   UNL     1     156.096 164.796 168.398  1.00  0.00     0.293 HD
ENDBRANCH  41  44
BRANCH  43  46
ATOM     46  O   UNL     1     156.909 162.547 171.166  1.00  0.00    -0.504 OA
ATOM     47  H   UNL     1     156.666 162.203 170.214  1.00  0.00     0.293 HD
ENDBRANCH  43  46
ENDBRANCH  28  38
BRANCH  34  48
ATOM     48  O   UNL     1     160.499 171.441 176.248  1.00  0.00    -0.507 OA
ATOM     49  H   UNL     1     161.114 171.413 177.066  1.00  0.00     0.293 HD
ENDBRANCH  34  48
BRANCH  37  50
ATOM     50  O   UNL     1     156.006 170.105 177.480  1.00  0.00    -0.508 OA
ATOM     51  H   UNL     1     155.454 171.002 177.352  1.00  0.00     0.293 HD
ENDBRANCH  37  50
ENDBRANCH  26  27
ENDBRANCH   5  26
BRANCH   4  52
ATOM     52  O   UNL     1     159.482 171.453 168.373  1.00  0.00    -0.384 OA
ATOM     53  H   UNL     1     159.422 170.613 167.803  1.00  0.00     0.211 HD
ENDBRANCH   4  52
TORSDOF 16
ENDMDL
MODEL 2
REMARK VINA RESULT:    -7.576      1.940      9.065
REMARK INTER + INTRA:         -14.501
REMARK INTER:                 -12.251
REMARK INTRA:                  -2.250
REMARK UNBOUND:                -2.053
REMARK SMILES C[C@@H]1O[C@H](OC[C@H]2O[C@@H](Oc3c(-c4ccc(O)c(O)c4)oc4cc(O)cc(O)c4c3=O)[C@H](O)[C@@H](O)[C@H]2O)[C@H](O)[C@@H](O)[C@@H]1O
REMARK SMILES IDX 7 1 36 2 34 3 32 4 9 5 8 6 6 7 5 8 4 9 1 10 2 11 42 12 3 13
REMARK SMILES IDX 40 14 38 15 43 16 41 18 39 20 37 22 35 24 10 26 11 27 12 28
REMARK SMILES IDX 30 29 21 30 29 31 31 32 22 33 27 34 23 35 26 36 24 37 13 38
REMARK SMILES IDX 20 39 14 40 18 41 15 42 16 43 19 44 17 46 28 48 25 50 33 52
REMARK H PARENT 43 17 41 19 39 21 37 23 35 25 19 45 17 47 28 49 25 51 33 53
REMARK Flexibility Score: inf
ROOT
ATOM      1  C   UNL     1     158.929 168.439 174.867  1.00  0.00     0.180 C 
ATOM      2  C   UNL     1     157.805 169.227 175.613  1.00  0.00     0.177 C 
ATOM      3  C   UNL     1     157.856 170.795 175.743  1.00  0.00     0.180 C 
ATOM      4  C   UNL     1     159.277 171.364 175.602  1.00  0.00     0.214 C 
ATOM      5  C   UNL     1     159.886 170.614 174.434  1.00  0.00     0.339 C 
ATOM      6  O   UNL     1     160.091 169.223 174.866  1.00  0.00    -0.332 OA
ENDROOT
BRANCH   1   7
ATOM      7  C   UNL     1     158.685 167.916 173.456  1.00  0.00     0.198 C 
BRANCH   7   8
ATOM      8  O   UNL     1     158.254 166.648 173.687  1.00  0.00    -0.347 OA
BRANCH   8   9
ATOM      9  C   UNL     1     157.215 166.360 172.829  1.00  0.00     0.281 C 
ATOM     10  C   UNL     1     156.826 166.276 169.150  1.00  0.00     0.041 C 
ATOM     11  C   UNL     1     156.660 165.754 170.566  1.00  0.00     0.150 C 
ATOM     12  C   UNL     1     156.951 164.234 170.796  1.00  0.00     0.174 C 
ATOM     13  O   UNL     1     157.461 166.567 171.441  1.00  0.00    -0.344 OA
ATOM     14  C   UNL     1     157.756 164.023 172.126  1.00  0.00     0.179 C 
ATOM     15  C   UNL     1     157.040 164.910 173.117  1.00  0.00     0.202 C 
BRANCH  12  16
ATOM     16  O   UNL     1     157.740 163.636 169.744  1.00  0.00    -0.388 OA
ATOM     17  H   UNL     1     157.672 164.355 169.005  1.00  0.00     0.211 HD
ENDBRANCH  12  16
BRANCH  14  18
ATOM     18  O   UNL     1     157.674 162.565 172.428  1.00  0.00    -0.387 OA
ATOM     19  H   UNL     1     158.587 162.119 172.540  1.00  0.00     0.211 HD
ENDBRANCH  14  18
BRANCH  15  20
ATOM     20  O   UNL     1     157.198 164.699 174.513  1.00  0.00    -0.385 OA
ATOM     21  H   UNL     1     156.703 165.310 175.168  1.00  0.00     0.211 HD
ENDBRANCH  15  20
ENDBRANCH   8   9
ENDBRANCH   7   8
ENDBRANCH   1   7
BRANCH   2  22
ATOM     22  O   UNL     1     156.565 168.718 175.247  1.00  0.00    -0.387 OA
ATOM     23  H   UNL     1     156.524 167.750 175.451  1.00  0.00     0.211 HD
ENDBRANCH   2  22
BRANCH   3  24
ATOM     24  O   UNL     1     156.956 171.483 174.898  1.00  0.00    -0.387 OA
ATOM     25  H   UNL     1     156.011 171.073 174.854  1.00  0.00     0.211 HD
ENDBRANCH   3  24
BRANCH   5  26
ATOM     26  O   UNL     1     159.110 170.807 173.105  1.00  0.00    -0.454 OA
BRANCH  26  27
ATOM     27  C   UNL     1     159.494 170.656 171.619  1.00  0.00     0.214 A 
ATOM     28  C   UNL     1     160.792 170.683 170.732  1.00  0.00     0.180 A 
ATOM     29  C   UNL     1     158.332 170.321 170.863  1.00  0.00     0.239 A 
ATOM     30  O   UNL     1     160.646 170.594 169.435  1.00  0.00    -0.452 OA
ATOM     31  C   UNL     1     158.318 170.199 169.486  1.00  0.00     0.111 A 
ATOM     32  O   UNL     1     157.188 170.359 171.390  1.00  0.00    -0.285 OA
ATOM     33  C   UNL     1     159.452 170.495 168.811  1.00  0.00     0.146 A 
ATOM     34  C   UNL     1     157.105 170.048 168.781  1.00  0.00     0.134 A 
ATOM     35  C   UNL     1     159.375 170.908 167.438  1.00  0.00     0.094 A 
ATOM     36  C   UNL     1     157.038 170.478 167.413  1.00  0.00     0.093 A 
ATOM     37  C   UNL     1     158.156 170.981 166.815  1.00  0.00     0.123 A 
BRANCH  28  38
ATOM     38  C   UNL     1     162.471 170.870 170.675  1.00  0.00     0.025 A 
ATOM     39  C   UNL     1     163.782 170.116 170.842  1.00  0.00     0.062 A 
ATOM     40  C   UNL     1     162.778 172.251 170.221  1.00  0.00     0.016 A 
ATOM     41  C   UNL     1     165.160 170.654 170.506  1.00  0.00     0.158 A 
ATOM     42  C   UNL     1     164.022 172.749 170.004  1.00  0.00     0.051 A 
ATOM     43  C   UNL     1     165.201 171.969 170.093  1.00  0.00     0.157 A 
BRANCH  41  44
ATOM     44  O   UNL     1     166.443 169.942 170.417  1.00  0.00    -0.504 OA
ATOM     45  H   UNL     1     167.346 170.433 170.380  1.00  0.00     0.293 HD
ENDBRANCH  41  44
BRANCH  43  46
ATOM     46  O   UNL     1     166.444 172.563 169.849  1.00  0.00    -0.504 OA
ATOM     47  H   UNL     1     167.227 172.453 170.525  1.00  0.00     0.293 HD
ENDBRANCH  43  46
ENDBRANCH  28  38
BRANCH  34  48
ATOM     48  O   UNL     1     155.909 169.593 169.386  1.00  0.00    -0.507 OA
ATOM     49  H   UNL     1     155.615 168.615 169.454  1.00  0.00     0.293 HD
ENDBRANCH  34  48
BRANCH  37  50
ATOM     50  O   UNL     1     158.075 171.538 165.511  1.00  0.00    -0.508 OA
ATOM     51  H   UNL     1     158.980 171.723 164.988  1.00  0.00     0.293 HD
ENDBRANCH  37  50
ENDBRANCH  26  27
ENDBRANCH   5  26
BRANCH   4  52
ATOM     52  O   UNL     1     159.989 171.102 176.733  1.00  0.00    -0.384 OA
ATOM     53  H   UNL     1     160.986 171.007 176.559  1.00  0.00     0.211 HD
ENDBRANCH   4  52
TORSDOF 16
ENDMDL
MODEL 3
REMARK VINA RESULT:    -7.352      5.949     11.692
REMARK INTER + INTRA:         -14.132
REMARK INTER:                 -12.179
REMARK INTRA:                  -1.952
REMARK UNBOUND:                -2.053
REMARK SMILES C[C@@H]1O[C@H](OC[C@H]2O[C@@H](Oc3c(-c4ccc(O)c(O)c4)oc4cc(O)cc(O)c4c3=O)[C@H](O)[C@@H](O)[C@H]2O)[C@H](O)[C@@H](O)[C@@H]1O
REMARK SMILES IDX 7 1 36 2 34 3 32 4 9 5 8 6 6 7 5 8 4 9 1 10 2 11 42 12 3 13
REMARK SMILES IDX 40 14 38 15 43 16 41 18 39 20 37 22 35 24 10 26 11 27 12 28
REMARK SMILES IDX 30 29 21 30 29 31 31 32 22 33 27 34 23 35 26 36 24 37 13 38
REMARK SMILES IDX 20 39 14 40 18 41 15 42 16 43 19 44 17 46 28 48 25 50 33 52
REMARK H PARENT 43 17 41 19 39 21 37 23 35 25 19 45 17 47 28 49 25 51 33 53
REMARK Flexibility Score: inf
ROOT
ATOM      1  C   UNL     1     169.546 174.244 164.183  1.00  0.00     0.180 C 
ATOM      2  C   UNL     1     169.742 175.295 165.322  1.00  0.00     0.177 C 
ATOM      3  C   UNL     1     168.970 175.171 166.688  1.00  0.00     0.180 C 
ATOM      4  C   UNL     1     167.683 174.337 166.578  1.00  0.00     0.214 C 
ATOM      5  C   UNL     1     168.064 173.136 165.735  1.00  0.00     0.339 C 
ATOM      6  O   UNL     1     168.305 173.620 164.367  1.00  0.00    -0.332 OA
ENDROOT
BRANCH   1   7
ATOM      7  C   UNL     1     170.606 173.175 163.941  1.00  0.00     0.198 C 
BRANCH   7   8
ATOM      8  O   UNL     1     171.617 173.890 163.380  1.00  0.00    -0.347 OA
BRANCH   8   9
ATOM      9  C   UNL     1     172.671 173.046 163.108  1.00  0.00     0.281 C 
ATOM     10  C   UNL     1     173.594 170.872 160.259  1.00  0.00     0.041 C 
ATOM     11  C   UNL     1     173.849 171.894 161.353  1.00  0.00     0.150 C 
ATOM     12  C   UNL     1     174.695 173.150 160.959  1.00  0.00     0.174 C 
ATOM     13  O   UNL     1     172.581 172.283 161.908  1.00  0.00    -0.344 OA
ATOM     14  C   UNL     1     174.079 174.447 161.591  1.00  0.00     0.179 C 
ATOM     15  C   UNL     1     173.777 174.039 163.014  1.00  0.00     0.202 C 
BRANCH  12  16
ATOM     16  O   UNL     1     174.752 173.380 159.534  1.00  0.00    -0.388 OA
ATOM     17  H   UNL     1     174.476 174.373 159.477  1.00  0.00     0.211 HD
ENDBRANCH  12  16
BRANCH  14  18
ATOM     18  O   UNL     1     175.125 175.503 161.460  1.00  0.00    -0.387 OA
ATOM     19  H   UNL     1     175.913 175.226 160.872  1.00  0.00     0.211 HD
ENDBRANCH  14  18
BRANCH  15  20
ATOM     20  O   UNL     1     173.592 175.024 164.019  1.00  0.00    -0.385 OA
ATOM     21  H   UNL     1     174.398 175.328 164.573  1.00  0.00     0.211 HD
ENDBRANCH  15  20
ENDBRANCH   8   9
ENDBRANCH   7   8
ENDBRANCH   1   7
BRANCH   2  22
ATOM     22  O   UNL     1     171.094 175.591 165.448  1.00  0.00    -0.387 OA
ATOM     23  H   UNL     1     171.543 174.896 165.990  1.00  0.00     0.211 HD
ENDBRANCH   2  22
BRANCH   3  24
ATOM     24  O   UNL     1     169.761 174.727 167.771  1.00  0.00    -0.387 OA
ATOM     25  H   UNL     1     169.288 174.756 168.688  1.00  0.00     0.211 HD
ENDBRANCH   3  24
BRANCH   5  26
ATOM     26  O   UNL     1     169.194 172.277 166.361  1.00  0.00    -0.454 OA
BRANCH  26  27
ATOM     27  C   UNL     1     169.458 171.742 167.783  1.00  0.00     0.214 A 
ATOM     28  C   UNL     1     168.649 171.456 169.100  1.00  0.00     0.180 A 
ATOM     29  C   UNL     1     170.817 171.321 167.884  1.00  0.00     0.239 A 
ATOM     30  O   UNL     1     169.318 171.067 170.155  1.00  0.00    -0.452 OA
ATOM     31  C   UNL     1     171.399 170.870 169.055  1.00  0.00     0.111 A 
ATOM     32  O   UNL     1     171.639 171.571 166.962  1.00  0.00    -0.285 OA
ATOM     33  C   UNL     1     170.659 170.909 170.187  1.00  0.00     0.146 A 
ATOM     34  C   UNL     1     172.789 170.644 169.137  1.00  0.00     0.134 A 
ATOM     35  C   UNL     1     171.314 170.980 171.462  1.00  0.00     0.094 A 
ATOM     36  C   UNL     1     173.434 170.733 170.416  1.00  0.00     0.093 A 
ATOM     37  C   UNL     1     172.684 170.991 171.526  1.00  0.00     0.123 A 
BRANCH  28  38
ATOM     38  C   UNL     1     167.153 171.499 169.887  1.00  0.00     0.025 A 
ATOM     39  C   UNL     1     166.209 172.418 170.648  1.00  0.00     0.062 A 
ATOM     40  C   UNL     1     166.483 170.186 169.702  1.00  0.00     0.016 A 
ATOM     41  C   UNL     1     164.787 172.081 171.058  1.00  0.00     0.158 A 
ATOM     42  C   UNL     1     165.241 169.868 170.148  1.00  0.00     0.051 A 
ATOM     43  C   UNL     1     164.375 170.797 170.775  1.00  0.00     0.157 A 
BRANCH  41  44
ATOM     44  O   UNL     1     163.736 172.962 171.585  1.00  0.00    -0.504 OA
ATOM     45  H   UNL     1     163.764 173.346 172.539  1.00  0.00     0.293 HD
ENDBRANCH  41  44
BRANCH  43  46
ATOM     46  O   UNL     1     163.108 170.384 171.202  1.00  0.00    -0.504 OA
ATOM     47  H   UNL     1     162.289 170.441 170.564  1.00  0.00     0.293 HD
ENDBRANCH  43  46
ENDBRANCH  28  38
BRANCH  34  48
ATOM     48  O   UNL     1     173.608 170.439 168.001  1.00  0.00    -0.507 OA
ATOM     49  H   UNL     1     173.272 170.336 167.039  1.00  0.00     0.293 HD
ENDBRANCH  34  48
BRANCH  37  50
ATOM     50  O   UNL     1     173.319 171.220 172.775  1.00  0.00    -0.508 OA
ATOM     51  H   UNL     1     173.912 172.093 172.884  1.00  0.00     0.293 HD
ENDBRANCH  37  50
ENDBRANCH  26  27
ENDBRANCH   5  26
BRANCH   4  52
ATOM     52  O   UNL     1     166.724 175.059 165.934  1.00  0.00    -0.384 OA
ATOM     53  H   UNL     1     165.830 175.049 166.418  1.00  0.00     0.211 HD
ENDBRANCH   4  52
TORSDOF 16
ENDMDL
MODEL 4
REMARK VINA RESULT:    -7.124      2.650      7.014
REMARK INTER + INTRA:         -13.757
REMARK INTER:                 -11.235
REMARK INTRA:                  -2.523
REMARK UNBOUND:                -2.053
REMARK SMILES C[C@@H]1O[C@H](OC[C@H]2O[C@@H](Oc3c(-c4ccc(O)c(O)c4)oc4cc(O)cc(O)c4c3=O)[C@H](O)[C@@H](O)[C@H]2O)[C@H](O)[C@@H](O)[C@@H]1O
REMARK SMILES IDX 7 1 36 2 34 3 32 4 9 5 8 6 6 7 5 8 4 9 1 10 2 11 42 12 3 13
REMARK SMILES IDX 40 14 38 15 43 16 41 18 39 20 37 22 35 24 10 26 11 27 12 28
REMARK SMILES IDX 30 29 21 30 29 31 31 32 22 33 27 34 23 35 26 36 24 37 13 38
REMARK SMILES IDX 20 39 14 40 18 41 15 42 16 43 19 44 17 46 28 48 25 50 33 52
REMARK H PARENT 43 17 41 19 39 21 37 23 35 25 19 45 17 47 28 49 25 51 33 53
REMARK Flexibility Score: inf
ROOT
ATOM      1  C   UNL     1     161.783 171.838 173.083  1.00  0.00     0.180 C 
ATOM      2  C   UNL     1     161.919 173.158 172.258  1.00  0.00     0.177 C 
ATOM      3  C   UNL     1     161.802 173.154 170.688  1.00  0.00     0.180 C 
ATOM      4  C   UNL     1     162.110 171.782 170.065  1.00  0.00     0.214 C 
ATOM      5  C   UNL     1     161.391 170.781 170.947  1.00  0.00     0.339 C 
ATOM      6  O   UNL     1     162.088 170.758 172.243  1.00  0.00    -0.332 OA
ENDROOT
BRANCH   1   7
ATOM      7  C   UNL     1     160.488 171.535 173.828  1.00  0.00     0.198 C 
BRANCH   7   8
ATOM      8  O   UNL     1     160.749 172.013 175.073  1.00  0.00    -0.347 OA
BRANCH   8   9
ATOM      9  C   UNL     1     159.675 172.762 175.504  1.00  0.00     0.281 C 
ATOM     10  C   UNL     1     156.541 173.954 173.939  1.00  0.00     0.041 C 
ATOM     11  C   UNL     1     157.384 173.337 175.041  1.00  0.00     0.150 C 
ATOM     12  C   UNL     1     156.817 172.048 175.722  1.00  0.00     0.174 C 
ATOM     13  O   UNL     1     158.703 173.104 174.519  1.00  0.00    -0.344 OA
ATOM     14  C   UNL     1     157.960 170.997 175.948  1.00  0.00     0.179 C 
ATOM     15  C   UNL     1     159.096 171.824 176.505  1.00  0.00     0.202 C 
BRANCH  12  16
ATOM     16  O   UNL     1     155.803 171.383 174.939  1.00  0.00    -0.388 OA
ATOM     17  H   UNL     1     155.496 172.146 174.314  1.00  0.00     0.211 HD
ENDBRANCH  12  16
BRANCH  14  18
ATOM     18  O   UNL     1     157.408 169.987 176.896  1.00  0.00    -0.387 OA
ATOM     19  H   UNL     1     157.851 169.070 176.818  1.00  0.00     0.211 HD
ENDBRANCH  14  18
BRANCH  15  20
ATOM     20  O   UNL     1     160.156 171.200 177.213  1.00  0.00    -0.385 OA
ATOM     21  H   UNL     1     160.075 171.080 178.227  1.00  0.00     0.211 HD
ENDBRANCH  15  20
ENDBRANCH   8   9
ENDBRANCH   7   8
ENDBRANCH   1   7
BRANCH   2  22
ATOM     22  O   UNL     1     161.205 174.170 172.888  1.00  0.00    -0.387 OA
ATOM     23  H   UNL     1     160.238 174.065 172.705  1.00  0.00     0.211 HD
ENDBRANCH   2  22
BRANCH   3  24
ATOM     24  O   UNL     1     160.584 173.666 170.189  1.00  0.00    -0.387 OA
ATOM     25  H   UNL     1     160.673 174.211 169.317  1.00  0.00     0.211 HD
ENDBRANCH   3  24
BRANCH   5  26
ATOM     26  O   UNL     1     159.856 170.998 171.004  1.00  0.00    -0.454 OA
BRANCH  26  27
ATOM     27  C   UNL     1     158.656 170.267 170.371  1.00  0.00     0.214 A 
ATOM     28  C   UNL     1     157.973 168.852 170.438  1.00  0.00     0.180 A 
ATOM     29  C   UNL     1     157.925 171.178 169.552  1.00  0.00     0.239 A 
ATOM     30  O   UNL     1     156.975 168.617 169.625  1.00  0.00    -0.452 OA
ATOM     31  C   UNL     1     156.840 170.817 168.775  1.00  0.00     0.111 A 
ATOM     32  O   UNL     1     158.384 172.324 169.298  1.00  0.00    -0.285 OA
ATOM     33  C   UNL     1     156.504 169.507 168.725  1.00  0.00     0.146 A 
ATOM     34  C   UNL     1     156.276 171.718 167.849  1.00  0.00     0.134 A 
ATOM     35  C   UNL     1     155.791 168.999 167.587  1.00  0.00     0.094 A 
ATOM     36  C   UNL     1     155.578 171.198 166.708  1.00  0.00     0.093 A 
ATOM     37  C   UNL     1     155.440 169.848 166.568  1.00  0.00     0.123 A 
BRANCH  28  38
ATOM     38  C   UNL     1     157.989 167.296 171.099  1.00  0.00     0.025 A 
ATOM     39  C   UNL     1     158.315 166.519 172.367  1.00  0.00     0.062 A 
ATOM     40  C   UNL     1     157.396 166.356 170.112  1.00  0.00     0.016 A 
ATOM     41  C   UNL     1     157.996 165.057 172.614  1.00  0.00     0.158 A 
ATOM     42  C   UNL     1     157.193 165.029 170.314  1.00  0.00     0.051 A 
ATOM     43  C   UNL     1     157.437 164.381 171.550  1.00  0.00     0.157 A 
BRANCH  41  44
ATOM     44  O   UNL     1     158.063 164.287 173.864  1.00  0.00    -0.504 OA
ATOM     45  H   UNL     1     158.622 164.592 174.671  1.00  0.00     0.293 HD
ENDBRANCH  41  44
BRANCH  43  46
ATOM     46  O   UNL     1     157.196 163.008 171.671  1.00  0.00    -0.504 OA
ATOM     47  H   UNL     1     156.960 162.436 170.836  1.00  0.00     0.293 HD
ENDBRANCH  43  46
ENDBRANCH  28  38
BRANCH  34  48
ATOM     48  O   UNL     1     156.456 173.121 167.925  1.00  0.00    -0.507 OA
ATOM     49  H   UNL     1     156.954 173.614 168.671  1.00  0.00     0.293 HD
ENDBRANCH  34  48
BRANCH  37  50
ATOM     50  O   UNL     1     154.876 169.310 165.381  1.00  0.00    -0.508 OA
ATOM     51  H   UNL     1     153.978 169.740 165.013  1.00  0.00     0.293 HD
ENDBRANCH  37  50
ENDBRANCH  26  27
ENDBRANCH   5  26
BRANCH   4  52
ATOM     52  O   UNL     1     163.451 171.550 170.112  1.00  0.00    -0.384 OA
ATOM     53  H   UNL     1     163.957 171.999 169.353  1.00  0.00     0.211 HD
ENDBRANCH   4  52
TORSDOF 16
ENDMDL
MODEL 5
REMARK VINA RESULT:    -7.104      2.711      7.461
REMARK INTER + INTRA:         -13.724
REMARK INTER:                 -11.002
REMARK INTRA:                  -2.723
REMARK UNBOUND:                -2.053
REMARK SMILES C[C@@H]1O[C@H](OC[C@H]2O[C@@H](Oc3c(-c4ccc(O)c(O)c4)oc4cc(O)cc(O)c4c3=O)[C@H](O)[C@@H](O)[C@H]2O)[C@H](O)[C@@H](O)[C@@H]1O
REMARK SMILES IDX 7 1 36 2 34 3 32 4 9 5 8 6 6 7 5 8 4 9 1 10 2 11 42 12 3 13
REMARK SMILES IDX 40 14 38 15 43 16 41 18 39 20 37 22 35 24 10 26 11 27 12 28
REMARK SMILES IDX 30 29 21 30 29 31 31 32 22 33 27 34 23 35 26 36 24 37 13 38
REMARK SMILES IDX 20 39 14 40 18 41 15 42 16 43 19 44 17 46 28 48 25 50 33 52
REMARK H PARENT 43 17 41 19 39 21 37 23 35 25 19 45 17 47 28 49 25 51 33 53
REMARK Flexibility Score: inf
ROOT
ATOM      1  C   UNL     1     160.868 173.336 173.905  1.00  0.00     0.180 C 
ATOM      2  C   UNL     1     160.856 174.099 172.541  1.00  0.00     0.177 C 
ATOM      3  C   UNL     1     161.210 173.366 171.194  1.00  0.00     0.180 C 
ATOM      4  C   UNL     1     162.064 172.105 171.401  1.00  0.00     0.214 C 
ATOM      5  C   UNL     1     161.436 171.396 172.584  1.00  0.00     0.339 C 
ATOM      6  O   UNL     1     161.700 172.216 173.777  1.00  0.00    -0.332 OA
ENDROOT
BRANCH   1   7
ATOM      7  C   UNL     1     159.554 172.906 174.548  1.00  0.00     0.198 C 
BRANCH   7   8
ATOM      8  O   UNL     1     159.975 172.086 175.547  1.00  0.00    -0.347 OA
BRANCH   8   9
ATOM      9  C   UNL     1     158.991 172.006 176.510  1.00  0.00     0.281 C 
ATOM     10  C   UNL     1     155.480 173.150 176.741  1.00  0.00     0.041 C 
ATOM     11  C   UNL     1     156.621 172.160 176.898  1.00  0.00     0.150 C 
ATOM     12  C   UNL     1     156.348 170.692 176.431  1.00  0.00     0.174 C 
ATOM     13  O   UNL     1     157.777 172.701 176.237  1.00  0.00    -0.344 OA
ATOM     14  C   UNL     1     157.588 170.120 175.659  1.00  0.00     0.179 C 
ATOM     15  C   UNL     1     158.761 170.535 176.517  1.00  0.00     0.202 C 
BRANCH  12  16
ATOM     16  O   UNL     1     155.221 170.574 175.535  1.00  0.00    -0.388 OA
ATOM     17  H   UNL     1     155.458 169.709 175.023  1.00  0.00     0.211 HD
ENDBRANCH  12  16
BRANCH  14  18
ATOM     18  O   UNL     1     157.375 168.646 175.574  1.00  0.00    -0.387 OA
ATOM     19  H   UNL     1     157.193 168.315 174.624  1.00  0.00     0.211 HD
ENDBRANCH  14  18
BRANCH  15  20
ATOM     20  O   UNL     1     160.012 169.876 176.389  1.00  0.00    -0.385 OA
ATOM     21  H   UNL     1     160.095 168.902 176.694  1.00  0.00     0.211 HD
ENDBRANCH  15  20
ENDBRANCH   8   9
ENDBRANCH   7   8
ENDBRANCH   1   7
BRANCH   2  22
ATOM     22  O   UNL     1     159.732 174.913 172.478  1.00  0.00    -0.387 OA
ATOM     23  H   UNL     1     159.311 174.976 173.372  1.00  0.00     0.211 HD
ENDBRANCH   2  22
BRANCH   3  24
ATOM     24  O   UNL     1     160.097 173.085 170.369  1.00  0.00    -0.387 OA
ATOM     25  H   UNL     1     159.182 173.296 170.797  1.00  0.00     0.211 HD
ENDBRANCH   3  24
BRANCH   5  26
ATOM     26  O   UNL     1     159.956 170.994 172.348  1.00  0.00    -0.454 OA
BRANCH  26  27
ATOM     27  C   UNL     1     159.277 169.861 171.553  1.00  0.00     0.214 A 
ATOM     28  C   UNL     1     158.645 169.639 170.131  1.00  0.00     0.180 A 
ATOM     29  C   UNL     1     159.311 168.659 172.321  1.00  0.00     0.239 A 
ATOM     30  O   UNL     1     158.072 168.486 169.891  1.00  0.00    -0.452 OA
ATOM     31  C   UNL     1     158.711 167.477 171.929  1.00  0.00     0.111 A 
ATOM     32  O   UNL     1     159.685 168.674 173.524  1.00  0.00    -0.285 OA
ATOM     33  C   UNL     1     157.978 167.484 170.792  1.00  0.00     0.146 A 
ATOM     34  C   UNL     1     158.621 166.379 172.810  1.00  0.00     0.134 A 
ATOM     35  C   UNL     1     156.932 166.517 170.613  1.00  0.00     0.094 A 
ATOM     36  C   UNL     1     157.562 165.427 172.629  1.00  0.00     0.093 A 
ATOM     37  C   UNL     1     156.695 165.582 171.587  1.00  0.00     0.123 A 
BRANCH  28  38
ATOM     38  C   UNL     1     158.257 170.307 168.627  1.00  0.00     0.025 A 
ATOM     39  C   UNL     1     158.872 170.823 167.334  1.00  0.00     0.062 A 
ATOM     40  C   UNL     1     156.779 170.326 168.485  1.00  0.00     0.016 A 
ATOM     41  C   UNL     1     158.105 171.198 166.079  1.00  0.00     0.158 A 
ATOM     42  C   UNL     1     156.100 170.743 167.385  1.00  0.00     0.051 A 
ATOM     43  C   UNL     1     156.732 171.131 166.179  1.00  0.00     0.157 A 
BRANCH  41  44
ATOM     44  O   UNL     1     158.611 171.484 164.729  1.00  0.00    -0.504 OA
ATOM     45  H   UNL     1     158.649 172.438 164.345  1.00  0.00     0.293 HD
ENDBRANCH  41  44
BRANCH  43  46
ATOM     46  O   UNL     1     155.954 171.545 165.092  1.00  0.00    -0.504 OA
ATOM     47  H   UNL     1     155.534 170.848 164.444  1.00  0.00     0.293 HD
ENDBRANCH  43  46
ENDBRANCH  28  38
BRANCH  34  48
ATOM     48  O   UNL     1     159.460 166.222 173.939  1.00  0.00    -0.507 OA
ATOM     49  H   UNL     1     159.804 166.983 174.532  1.00  0.00     0.293 HD
ENDBRANCH  34  48
BRANCH  37  50
ATOM     50  O   UNL     1     155.562 164.733 171.473  1.00  0.00    -0.508 OA
ATOM     51  H   UNL     1     154.903 164.884 170.655  1.00  0.00     0.293 HD
ENDBRANCH  37  50
ENDBRANCH  26  27
ENDBRANCH   5  26
BRANCH   4  52
ATOM     52  O   UNL     1     163.341 172.463 171.710  1.00  0.00    -0.384 OA
ATOM     53  H   UNL     1     163.811 171.782 172.300  1.00  0.00     0.211 HD
ENDBRANCH   4  52
TORSDOF 16
ENDMDL
MODEL 6
REMARK VINA RESULT:    -7.077      3.359      6.759
REMARK INTER + INTRA:         -13.681
REMARK INTER:                 -10.519
REMARK INTRA:                  -3.162
REMARK UNBOUND:                -2.053
REMARK SMILES C[C@@H]1O[C@H](OC[C@H]2O[C@@H](Oc3c(-c4ccc(O)c(O)c4)oc4cc(O)cc(O)c4c3=O)[C@H](O)[C@@H](O)[C@H]2O)[C@H](O)[C@@H](O)[C@@H]1O
REMARK SMILES IDX 7 1 36 2 34 3 32 4 9 5 8 6 6 7 5 8 4 9 1 10 2 11 42 12 3 13
REMARK SMILES IDX 40 14 38 15 43 16 41 18 39 20 37 22 35 24 10 26 11 27 12 28
REMARK SMILES IDX 30 29 21 30 29 31 31 32 22 33 27 34 23 35 26 36 24 37 13 38
REMARK SMILES IDX 20 39 14 40 18 41 15 42 16 43 19 44 17 46 28 48 25 50 33 52
REMARK H PARENT 43 17 41 19 39 21 37 23 35 25 19 45 17 47 28 49 25 51 33 53
REMARK Flexibility Score: inf
ROOT
ATOM      1  C   UNL     1     157.942 171.888 175.925  1.00  0.00     0.180 C 
ATOM      2  C   UNL     1     156.762 170.979 176.397  1.00  0.00     0.177 C 
ATOM      3  C   UNL     1     155.669 170.470 175.385  1.00  0.00     0.180 C 
ATOM      4  C   UNL     1     155.549 171.356 174.134  1.00  0.00     0.214 C 
ATOM      5  C   UNL     1     156.978 171.650 173.723  1.00  0.00     0.339 C 
ATOM      6  O   UNL     1     157.554 172.538 174.745  1.00  0.00    -0.332 OA
ENDROOT
BRANCH   1   7
ATOM      7  C   UNL     1     159.331 171.292 175.727  1.00  0.00     0.198 C 
BRANCH   7   8
ATOM      8  O   UNL     1     160.117 172.399 175.672  1.00  0.00    -0.347 OA
BRANCH   8   9
ATOM      9  C   UNL     1     161.068 172.230 174.689  1.00  0.00     0.281 C 
ATOM     10  C   UNL     1     161.335 170.112 171.666  1.00  0.00     0.041 C 
ATOM     11  C   UNL     1     161.448 171.401 172.461  1.00  0.00     0.150 C 
ATOM     12  C   UNL     1     160.907 172.699 171.778  1.00  0.00     0.174 C 
ATOM     13  O   UNL     1     160.823 171.196 173.740  1.00  0.00    -0.344 OA
ATOM     14  C   UNL     1     160.115 173.575 172.810  1.00  0.00     0.179 C 
ATOM     15  C   UNL     1     161.000 173.566 174.035  1.00  0.00     0.202 C 
BRANCH  12  16
ATOM     16  O   UNL     1     159.999 172.437 170.686  1.00  0.00    -0.388 OA
ATOM     17  H   UNL     1     159.253 171.907 171.165  1.00  0.00     0.211 HD
ENDBRANCH  12  16
BRANCH  14  18
ATOM     18  O   UNL     1     159.954 174.915 172.174  1.00  0.00    -0.387 OA
ATOM     19  H   UNL     1     159.877 175.680 172.847  1.00  0.00     0.211 HD
ENDBRANCH  14  18
BRANCH  15  20
ATOM     20  O   UNL     1     160.847 174.558 175.038  1.00  0.00    -0.385 OA
ATOM     21  H   UNL     1     161.361 175.440 174.950  1.00  0.00     0.211 HD
ENDBRANCH  15  20
ENDBRANCH   8   9
ENDBRANCH   7   8
ENDBRANCH   1   7
BRANCH   2  22
ATOM     22  O   UNL     1     157.249 170.004 177.260  1.00  0.00    -0.387 OA
ATOM     23  H   UNL     1     156.955 170.196 178.185  1.00  0.00     0.211 HD
ENDBRANCH   2  22
BRANCH   3  24
ATOM     24  O   UNL     1     155.790 169.110 175.024  1.00  0.00    -0.387 OA
ATOM     25  H   UNL     1     155.555 168.444 175.776  1.00  0.00     0.211 HD
ENDBRANCH   3  24
BRANCH   5  26
ATOM     26  O   UNL     1     157.798 170.376 173.388  1.00  0.00    -0.454 OA
BRANCH  26  27
ATOM     27  C   UNL     1     157.809 169.404 172.192  1.00  0.00     0.214 A 
ATOM     28  C   UNL     1     157.699 169.468 170.624  1.00  0.00     0.180 A 
ATOM     29  C   UNL     1     158.071 168.082 172.659  1.00  0.00     0.239 A 
ATOM     30  O   UNL     1     157.665 168.335 169.969  1.00  0.00    -0.452 OA
ATOM     31  C   UNL     1     158.064 166.962 171.849  1.00  0.00     0.111 A 
ATOM     32  O   UNL     1     158.082 167.826 173.893  1.00  0.00    -0.285 OA
ATOM     33  C   UNL     1     157.705 167.119 170.554  1.00  0.00     0.146 A 
ATOM     34  C   UNL     1     158.147 165.665 172.398  1.00  0.00     0.134 A 
ATOM     35  C   UNL     1     157.165 166.005 169.825  1.00  0.00     0.094 A 
ATOM     36  C   UNL     1     157.591 164.563 171.667  1.00  0.00     0.093 A 
ATOM     37  C   UNL     1     157.034 164.787 170.442  1.00  0.00     0.123 A 
BRANCH  28  38
ATOM     38  C   UNL     1     157.507 170.434 169.251  1.00  0.00     0.025 A 
ATOM     39  C   UNL     1     156.612 171.499 168.632  1.00  0.00     0.062 A 
ATOM     40  C   UNL     1     158.677 170.227 168.359  1.00  0.00     0.016 A 
ATOM     41  C   UNL     1     156.917 172.285 167.370  1.00  0.00     0.158 A 
ATOM     42  C   UNL     1     158.896 170.877 167.187  1.00  0.00     0.051 A 
ATOM     43  C   UNL     1     158.070 171.922 166.707  1.00  0.00     0.157 A 
BRANCH  41  44
ATOM     44  O   UNL     1     156.241 173.470 166.825  1.00  0.00    -0.504 OA
ATOM     45  H   UNL     1     156.027 173.572 165.824  1.00  0.00     0.293 HD
ENDBRANCH  41  44
BRANCH  43  46
ATOM     46  O   UNL     1     158.372 172.541 165.489  1.00  0.00    -0.504 OA
ATOM     47  H   UNL     1     157.647 172.638 164.750  1.00  0.00     0.293 HD
ENDBRANCH  43  46
ENDBRANCH  28  38
BRANCH  34  48
ATOM     48  O   UNL     1     158.657 165.404 173.693  1.00  0.00    -0.507 OA
ATOM     49  H   UNL     1     159.645 165.441 173.959  1.00  0.00     0.293 HD
ENDBRANCH  34  48
BRANCH  37  50
ATOM     50  O   UNL     1     156.357 163.738 169.765  1.00  0.00    -0.508 OA
ATOM     51  H   UNL     1     155.423 163.413 170.151  1.00  0.00     0.293 HD
ENDBRANCH  37  50
ENDBRANCH  26  27
ENDBRANCH   5  26
BRANCH   4  52
ATOM     52  O   UNL     1     154.919 172.519 174.455  1.00  0.00    -0.384 OA
ATOM     53  H   UNL     1     155.433 173.073 175.135  1.00  0.00     0.211 HD
ENDBRANCH   4  52
TORSDOF 16
ENDMDL
MODEL 7
REMARK VINA RESULT:    -7.051      2.571      6.935
REMARK INTER + INTRA:         -13.638
REMARK INTER:                 -10.924
REMARK INTRA:                  -2.714
REMARK UNBOUND:                -2.053
REMARK SMILES C[C@@H]1O[C@H](OC[C@H]2O[C@@H](Oc3c(-c4ccc(O)c(O)c4)oc4cc(O)cc(O)c4c3=O)[C@H](O)[C@@H](O)[C@H]2O)[C@H](O)[C@@H](O)[C@@H]1O
REMARK SMILES IDX 7 1 36 2 34 3 32 4 9 5 8 6 6 7 5 8 4 9 1 10 2 11 42 12 3 13
REMARK SMILES IDX 40 14 38 15 43 16 41 18 39 20 37 22 35 24 10 26 11 27 12 28
REMARK SMILES IDX 30 29 21 30 29 31 31 32 22 33 27 34 23 35 26 36 24 37 13 38
REMARK SMILES IDX 20 39 14 40 18 41 15 42 16 43 19 44 17 46 28 48 25 50 33 52
REMARK H PARENT 43 17 41 19 39 21 37 23 35 25 19 45 17 47 28 49 25 51 33 53
REMARK Flexibility Score: inf
ROOT
ATOM      1  C   UNL     1     157.972 173.143 173.744  1.00  0.00     0.180 C 
ATOM      2  C   UNL     1     157.895 174.694 173.564  1.00  0.00     0.177 C 
ATOM      3  C   UNL     1     159.130 175.614 173.885  1.00  0.00     0.180 C 
ATOM      4  C   UNL     1     160.124 174.968 174.865  1.00  0.00     0.214 C 
ATOM      5  C   UNL     1     160.265 173.535 174.392  1.00  0.00     0.339 C 
ATOM      6  O   UNL     1     158.989 172.856 174.664  1.00  0.00    -0.332 OA
ENDROOT
BRANCH   1   7
ATOM      7  C   UNL     1     158.137 172.243 172.526  1.00  0.00     0.198 C 
BRANCH   7   8
ATOM      8  O   UNL     1     158.152 173.137 171.502  1.00  0.00    -0.347 OA
BRANCH   8   9
ATOM      9  C   UNL     1     158.593 172.508 170.358  1.00  0.00     0.281 C 
ATOM     10  C   UNL     1     156.970 170.515 167.696  1.00  0.00     0.041 C 
ATOM     11  C   UNL     1     157.900 171.582 168.247  1.00  0.00     0.150 C 
ATOM     12  C   UNL     1     157.880 172.972 167.530  1.00  0.00     0.174 C 
ATOM     13  O   UNL     1     157.633 171.726 169.653  1.00  0.00    -0.344 OA
ATOM     14  C   UNL     1     157.922 174.134 168.582  1.00  0.00     0.179 C 
ATOM     15  C   UNL     1     158.994 173.694 169.553  1.00  0.00     0.202 C 
BRANCH  12  16
ATOM     16  O   UNL     1     156.696 173.189 166.732  1.00  0.00    -0.388 OA
ATOM     17  H   UNL     1     156.753 172.402 166.065  1.00  0.00     0.211 HD
ENDBRANCH  12  16
BRANCH  14  18
ATOM     18  O   UNL     1     158.252 175.370 167.815  1.00  0.00    -0.387 OA
ATOM     19  H   UNL     1     159.117 175.296 167.275  1.00  0.00     0.211 HD
ENDBRANCH  14  18
BRANCH  15  20
ATOM     20  O   UNL     1     159.617 174.640 170.410  1.00  0.00    -0.385 OA
ATOM     21  H   UNL     1     159.031 175.271 170.964  1.00  0.00     0.211 HD
ENDBRANCH  15  20
ENDBRANCH   8   9
ENDBRANCH   7   8
ENDBRANCH   1   7
BRANCH   2  22
ATOM     22  O   UNL     1     157.251 174.987 172.368  1.00  0.00    -0.387 OA
ATOM     23  H   UNL     1     156.468 174.393 172.252  1.00  0.00     0.211 HD
ENDBRANCH   2  22
BRANCH   3  24
ATOM     24  O   UNL     1     159.804 176.111 172.747  1.00  0.00    -0.387 OA
ATOM     25  H   UNL     1     160.422 176.916 172.932  1.00  0.00     0.211 HD
ENDBRANCH   3  24
BRANCH   5  26
ATOM     26  O   UNL     1     160.804 173.414 172.942  1.00  0.00    -0.454 OA
BRANCH  26  27
ATOM     27  C   UNL     1     161.554 172.306 172.176  1.00  0.00     0.214 A 
ATOM     28  C   UNL     1     161.422 170.760 171.918  1.00  0.00     0.180 A 
ATOM     29  C   UNL     1     162.626 172.885 171.436  1.00  0.00     0.239 A 
ATOM     30  O   UNL     1     162.377 170.170 171.245  1.00  0.00    -0.452 OA
ATOM     31  C   UNL     1     163.545 172.152 170.708  1.00  0.00     0.111 A 
ATOM     32  O   UNL     1     162.946 174.093 171.604  1.00  0.00    -0.285 OA
ATOM     33  C   UNL     1     163.472 170.802 170.771  1.00  0.00     0.146 A 
ATOM     34  C   UNL     1     164.687 172.763 170.151  1.00  0.00     0.134 A 
ATOM     35  C   UNL     1     164.644 170.014 170.516  1.00  0.00     0.094 A 
ATOM     36  C   UNL     1     165.858 171.967 169.914  1.00  0.00     0.093 A 
ATOM     37  C   UNL     1     165.825 170.632 170.193  1.00  0.00     0.123 A 
BRANCH  28  38
ATOM     38  C   UNL     1     160.553 169.339 172.209  1.00  0.00     0.025 A 
ATOM     39  C   UNL     1     160.300 168.265 173.258  1.00  0.00     0.062 A 
ATOM     40  C   UNL     1     159.650 169.092 171.056  1.00  0.00     0.016 A 
ATOM     41  C   UNL     1     159.237 167.186 173.178  1.00  0.00     0.158 A 
ATOM     42  C   UNL     1     158.760 168.071 170.960  1.00  0.00     0.051 A 
ATOM     43  C   UNL     1     158.509 167.152 172.008  1.00  0.00     0.157 A 
BRANCH  41  44
ATOM     44  O   UNL     1     158.771 166.259 174.219  1.00  0.00    -0.504 OA
ATOM     45  H   UNL     1     159.331 166.038 175.053  1.00  0.00     0.293 HD
ENDBRANCH  41  44
BRANCH  43  46
ATOM     46  O   UNL     1     157.571 166.131 171.824  1.00  0.00    -0.504 OA
ATOM     47  H   UNL     1     156.660 166.325 171.361  1.00  0.00     0.293 HD
ENDBRANCH  43  46
ENDBRANCH  28  38
BRANCH  34  48
ATOM     48  O   UNL     1     164.780 174.156 169.910  1.00  0.00    -0.507 OA
ATOM     49  H   UNL     1     164.295 174.883 170.444  1.00  0.00     0.293 HD
ENDBRANCH  34  48
BRANCH  37  50
ATOM     50  O   UNL     1     167.011 169.857 170.097  1.00  0.00    -0.508 OA
ATOM     51  H   UNL     1     166.939 168.810 170.256  1.00  0.00     0.293 HD
ENDBRANCH  37  50
ENDBRANCH  26  27
ENDBRANCH   5  26
BRANCH   4  52
ATOM     52  O   UNL     1     159.601 174.983 176.122  1.00  0.00    -0.384 OA
ATOM     53  H   UNL     1     158.977 174.201 176.301  1.00  0.00     0.211 HD
ENDBRANCH   4  52
TORSDOF 16
ENDMDL
MODEL 8
REMARK VINA RESULT:    -6.984      2.316      5.461
REMARK INTER + INTRA:         -13.528
REMARK INTER:                 -12.042
REMARK INTRA:                  -1.486
REMARK UNBOUND:                -2.053
REMARK SMILES C[C@@H]1O[C@H](OC[C@H]2O[C@@H](Oc3c(-c4ccc(O)c(O)c4)oc4cc(O)cc(O)c4c3=O)[C@H](O)[C@@H](O)[C@H]2O)[C@H](O)[C@@H](O)[C@@H]1O
REMARK SMILES IDX 7 1 36 2 34 3 32 4 9 5 8 6 6 7 5 8 4 9 1 10 2 11 42 12 3 13
REMARK SMILES IDX 40 14 38 15 43 16 41 18 39 20 37 22 35 24 10 26 11 27 12 28
REMARK SMILES IDX 30 29 21 30 29 31 31 32 22 33 27 34 23 35 26 36 24 37 13 38
REMARK SMILES IDX 20 39 14 40 18 41 15 42 16 43 19 44 17 46 28 48 25 50 33 52
REMARK H PARENT 43 17 41 19 39 21 37 23 35 25 19 45 17 47 28 49 25 51 33 53
REMARK Flexibility Score: inf
ROOT
ATOM      1  C   UNL     1     160.279 172.654 172.829  1.00  0.00     0.180 C 
ATOM      2  C   UNL     1     160.043 172.712 174.372  1.00  0.00     0.177 C 
ATOM      3  C   UNL     1     158.624 172.428 174.991  1.00  0.00     0.180 C 
ATOM      4  C   UNL     1     157.476 172.656 173.995  1.00  0.00     0.214 C 
ATOM      5  C   UNL     1     157.950 172.027 172.699  1.00  0.00     0.339 C 
ATOM      6  O   UNL     1     159.051 172.858 172.186  1.00  0.00    -0.332 OA
ENDROOT
BRANCH   1   7
ATOM      7  C   UNL     1     160.967 171.443 172.208  1.00  0.00     0.198 C 
BRANCH   7   8
ATOM      8  O   UNL     1     162.280 171.705 172.437  1.00  0.00    -0.347 OA
BRANCH   8   9
ATOM      9  C   UNL     1     162.805 172.368 171.349  1.00  0.00     0.281 C 
ATOM     10  C   UNL     1     164.937 175.360 170.907  1.00  0.00     0.041 C 
ATOM     11  C   UNL     1     164.493 173.933 170.642  1.00  0.00     0.150 C 
ATOM     12  C   UNL     1     165.617 172.846 170.580  1.00  0.00     0.174 C 
ATOM     13  O   UNL     1     163.497 173.584 171.619  1.00  0.00    -0.344 OA
ATOM     14  C   UNL     1     165.166 171.545 171.331  1.00  0.00     0.179 C 
ATOM     15  C   UNL     1     163.750 171.331 170.849  1.00  0.00     0.202 C 
BRANCH  12  16
ATOM     16  O   UNL     1     166.854 173.264 171.198  1.00  0.00    -0.388 OA
ATOM     17  H   UNL     1     166.888 172.645 172.024  1.00  0.00     0.211 HD
ENDBRANCH  12  16
BRANCH  14  18
ATOM     18  O   UNL     1     166.126 170.480 170.920  1.00  0.00    -0.387 OA
ATOM     19  H   UNL     1     165.677 169.668 170.494  1.00  0.00     0.211 HD
ENDBRANCH  14  18
BRANCH  15  20
ATOM     20  O   UNL     1     163.135 170.057 170.972  1.00  0.00    -0.385 OA
ATOM     21  H   UNL     1     162.410 169.920 171.682  1.00  0.00     0.211 HD
ENDBRANCH  15  20
ENDBRANCH   8   9
ENDBRANCH   7   8
ENDBRANCH   1   7
BRANCH   2  22
ATOM     22  O   UNL     1     161.095 172.078 175.023  1.00  0.00    -0.387 OA
ATOM     23  H   UNL     1     161.958 172.423 174.684  1.00  0.00     0.211 HD
ENDBRANCH   2  22
BRANCH   3  24
ATOM     24  O   UNL     1     158.498 171.168 175.618  1.00  0.00    -0.387 OA
ATOM     25  H   UNL     1     159.196 170.469 175.318  1.00  0.00     0.211 HD
ENDBRANCH   3  24
BRANCH   5  26
ATOM     26  O   UNL     1     158.244 170.508 172.822  1.00  0.00    -0.454 OA
BRANCH  26  27
ATOM     27  C   UNL     1     158.088 169.315 171.859  1.00  0.00     0.214 A 
ATOM     28  C   UNL     1     157.842 169.066 170.326  1.00  0.00     0.180 A 
ATOM     29  C   UNL     1     158.310 168.100 172.573  1.00  0.00     0.239 A 
ATOM     30  O   UNL     1     157.680 167.830 169.927  1.00  0.00    -0.452 OA
ATOM     31  C   UNL     1     158.161 166.842 172.018  1.00  0.00     0.111 A 
ATOM     32  O   UNL     1     158.416 168.101 173.829  1.00  0.00    -0.285 OA
ATOM     33  C   UNL     1     157.697 166.759 170.750  1.00  0.00     0.146 A 
ATOM     34  C   UNL     1     158.213 165.682 172.819  1.00  0.00     0.134 A 
ATOM     35  C   UNL     1     157.027 165.567 170.314  1.00  0.00     0.094 A 
ATOM     36  C   UNL     1     157.527 164.501 172.379  1.00  0.00     0.093 A 
ATOM     37  C   UNL     1     156.877 164.514 171.180  1.00  0.00     0.123 A 
BRANCH  28  38
ATOM     38  C   UNL     1     157.587 169.745 168.799  1.00  0.00     0.025 A 
ATOM     39  C   UNL     1     156.498 170.112 167.801  1.00  0.00     0.062 A 
ATOM     40  C   UNL     1     158.889 170.229 168.273  1.00  0.00     0.016 A 
ATOM     41  C   UNL     1     156.697 170.923 166.534  1.00  0.00     0.158 A 
ATOM     42  C   UNL     1     159.067 170.881 167.095  1.00  0.00     0.051 A 
ATOM     43  C   UNL     1     158.000 171.271 166.249  1.00  0.00     0.157 A 
BRANCH  41  44
ATOM     44  O   UNL     1     155.693 171.513 165.639  1.00  0.00    -0.504 OA
ATOM     45  H   UNL     1     154.699 171.252 165.675  1.00  0.00     0.293 HD
ENDBRANCH  41  44
BRANCH  43  46
ATOM     46  O   UNL     1     158.274 171.944 165.053  1.00  0.00    -0.504 OA
ATOM     47  H   UNL     1     157.503 172.342 164.480  1.00  0.00     0.293 HD
ENDBRANCH  43  46
ENDBRANCH  28  38
BRANCH  34  48
ATOM     48  O   UNL     1     158.820 165.652 174.098  1.00  0.00    -0.507 OA
ATOM     49  H   UNL     1     159.122 164.806 174.590  1.00  0.00     0.293 HD
ENDBRANCH  34  48
BRANCH  37  50
ATOM     50  O   UNL     1     156.079 163.405 170.792  1.00  0.00    -0.508 OA
ATOM     51  H   UNL     1     156.055 162.557 171.430  1.00  0.00     0.293 HD
ENDBRANCH  37  50
ENDBRANCH  26  27
ENDBRANCH   5  26
BRANCH   4  52
ATOM     52  O   UNL     1     157.289 173.992 173.810  1.00  0.00    -0.384 OA
ATOM     53  H   UNL     1     156.544 174.200 173.150  1.00  0.00     0.211 HD
ENDBRANCH   4  52
TORSDOF 16
ENDMDL
MODEL 9
REMARK VINA RESULT:    -6.983      6.255     13.395
REMARK INTER + INTRA:         -13.526
REMARK INTER:                 -11.791
REMARK INTRA:                  -1.736
REMARK UNBOUND:                -2.053
REMARK SMILES C[C@@H]1O[C@H](OC[C@H]2O[C@@H](Oc3c(-c4ccc(O)c(O)c4)oc4cc(O)cc(O)c4c3=O)[C@H](O)[C@@H](O)[C@H]2O)[C@H](O)[C@@H](O)[C@@H]1O
REMARK SMILES IDX 7 1 36 2 34 3 32 4 9 5 8 6 6 7 5 8 4 9 1 10 2 11 42 12 3 13
REMARK SMILES IDX 40 14 38 15 43 16 41 18 39 20 37 22 35 24 10 26 11 27 12 28
REMARK SMILES IDX 30 29 21 30 29 31 31 32 22 33 27 34 23 35 26 36 24 37 13 38
REMARK SMILES IDX 20 39 14 40 18 41 15 42 16 43 19 44 17 46 28 48 25 50 33 52
REMARK H PARENT 43 17 41 19 39 21 37 23 35 25 19 45 17 47 28 49 25 51 33 53
REMARK Flexibility Score: inf
ROOT
ATOM      1  C   UNL     1     167.157 175.028 166.744  1.00  0.00     0.180 C 
ATOM      2  C   UNL     1     166.926 173.736 165.896  1.00  0.00     0.177 C 
ATOM      3  C   UNL     1     168.021 173.209 164.897  1.00  0.00     0.180 C 
ATOM      4  C   UNL     1     168.995 174.306 164.438  1.00  0.00     0.214 C 
ATOM      5  C   UNL     1     169.332 175.083 165.696  1.00  0.00     0.339 C 
ATOM      6  O   UNL     1     168.120 175.814 166.097  1.00  0.00    -0.332 OA
ENDROOT
BRANCH   1   7
ATOM      7  C   UNL     1     167.521 174.915 168.220  1.00  0.00     0.198 C 
BRANCH   7   8
ATOM      8  O   UNL     1     167.512 173.571 168.420  1.00  0.00    -0.347 OA
BRANCH   8   9
ATOM      9  C   UNL     1     166.954 173.300 169.650  1.00  0.00     0.281 C 
ATOM     10  C   UNL     1     163.530 172.571 170.850  1.00  0.00     0.041 C 
ATOM     11  C   UNL     1     165.033 172.369 170.762  1.00  0.00     0.150 C 
ATOM     12  C   UNL     1     165.537 170.895 170.616  1.00  0.00     0.174 C 
ATOM     13  O   UNL     1     165.534 173.190 169.694  1.00  0.00    -0.344 OA
ATOM     14  C   UNL     1     166.703 170.814 169.569  1.00  0.00     0.179 C 
ATOM     15  C   UNL     1     167.588 171.983 169.934  1.00  0.00     0.202 C 
BRANCH  12  16
ATOM     16  O   UNL     1     164.516 169.982 170.159  1.00  0.00    -0.388 OA
ATOM     17  H   UNL     1     163.743 170.632 169.944  1.00  0.00     0.211 HD
ENDBRANCH  12  16
BRANCH  14  18
ATOM     18  O   UNL     1     167.334 169.476 169.761  1.00  0.00    -0.387 OA
ATOM     19  H   UNL     1     167.816 169.129 168.929  1.00  0.00     0.211 HD
ENDBRANCH  14  18
BRANCH  15  20
ATOM     20  O   UNL     1     168.939 172.023 169.498  1.00  0.00    -0.385 OA
ATOM     21  H   UNL     1     169.177 171.640 168.579  1.00  0.00     0.211 HD
ENDBRANCH  15  20
ENDBRANCH   8   9
ENDBRANCH   7   8
ENDBRANCH   1   7
BRANCH   2  22
ATOM     22  O   UNL     1     166.354 172.755 166.698  1.00  0.00    -0.387 OA
ATOM     23  H   UNL     1     166.619 172.894 167.641  1.00  0.00     0.211 HD
ENDBRANCH   2  22
BRANCH   3  24
ATOM     24  O   UNL     1     168.728 172.071 165.348  1.00  0.00    -0.387 OA
ATOM     25  H   UNL     1     168.269 171.559 166.118  1.00  0.00     0.211 HD
ENDBRANCH   3  24
BRANCH   5  26
ATOM     26  O   UNL     1     169.999 174.216 166.796  1.00  0.00    -0.454 OA
BRANCH  26  27
ATOM     27  C   UNL     1     171.346 173.471 166.891  1.00  0.00     0.214 A 
ATOM     28  C   UNL     1     172.414 172.845 165.921  1.00  0.00     0.180 A 
ATOM     29  C   UNL     1     171.758 173.412 168.255  1.00  0.00     0.239 A 
ATOM     30  O   UNL     1     173.418 172.198 166.455  1.00  0.00    -0.452 OA
ATOM     31  C   UNL     1     172.883 172.738 168.692  1.00  0.00     0.111 A 
ATOM     32  O   UNL     1     170.979 173.769 169.179  1.00  0.00    -0.285 OA
ATOM     33  C   UNL     1     173.586 172.022 167.784  1.00  0.00     0.146 A 
ATOM     34  C   UNL     1     173.137 172.560 170.068  1.00  0.00     0.134 A 
ATOM     35  C   UNL     1     174.390 170.915 168.219  1.00  0.00     0.094 A 
ATOM     36  C   UNL     1     173.930 171.441 170.491  1.00  0.00     0.093 A 
ATOM     37  C   UNL     1     174.454 170.601 169.552  1.00  0.00     0.123 A 
BRANCH  28  38
ATOM     38  C   UNL     1     172.869 172.525 164.325  1.00  0.00     0.025 A 
ATOM     39  C   UNL     1     172.899 171.429 163.269  1.00  0.00     0.062 A 
ATOM     40  C   UNL     1     173.338 173.790 163.703  1.00  0.00     0.016 A 
ATOM     41  C   UNL     1     173.253 171.622 161.806  1.00  0.00     0.158 A 
ATOM     42  C   UNL     1     173.733 173.932 162.412  1.00  0.00     0.051 A 
ATOM     43  C   UNL     1     173.655 172.892 161.453  1.00  0.00     0.157 A 
BRANCH  41  44
ATOM     44  O   UNL     1     173.095 170.692 160.679  1.00  0.00    -0.504 OA
ATOM     45  H   UNL     1     173.696 169.866 160.556  1.00  0.00     0.293 HD
ENDBRANCH  41  44
BRANCH  43  46
ATOM     46  O   UNL     1     174.081 173.127 160.141  1.00  0.00    -0.504 OA
ATOM     47  H   UNL     1     173.426 173.514 159.432  1.00  0.00     0.293 HD
ENDBRANCH  43  46
ENDBRANCH  28  38
BRANCH  34  48
ATOM     48  O   UNL     1     172.557 173.371 171.073  1.00  0.00    -0.507 OA
ATOM     49  H   UNL     1     172.955 174.243 171.433  1.00  0.00     0.293 HD
ENDBRANCH  34  48
BRANCH  37  50
ATOM     50  O   UNL     1     175.123 169.414 169.954  1.00  0.00    -0.508 OA
ATOM     51  H   UNL     1     176.096 169.503 170.368  1.00  0.00     0.293 HD
ENDBRANCH  37  50
ENDBRANCH  26  27
ENDBRANCH   5  26
BRANCH   4  52
ATOM     52  O   UNL     1     168.373 175.128 163.549  1.00  0.00    -0.384 OA
ATOM     53  H   UNL     1     168.022 175.981 163.977  1.00  0.00     0.211 HD
ENDBRANCH   4  52
TORSDOF 16
ENDMDL
