MODEL 1
REMARK VINA RESULT:    -2.944      0.000      0.000
REMARK INTER + INTRA:          -7.918
REMARK INTER:                  -5.526
REMARK INTRA:                  -2.391
REMARK UNBOUND:                -2.391
REMARK SMILES CCCCCCCCC=CCCCCCCCC(=O)[O-]
REMARK SMILES IDX 10 1 9 2 11 3 12 4 13 5 14 6 15 7 16 8 17 9 18 10 19 11
REMARK SMILES IDX 20 12 8 13 7 14 6 15 5 16 4 17 3 18 2 19 1 20
REMARK H PARENT
REMARK Flexibility Score: inf
ROOT
ATOM      1  C   UNL     1     124.444 124.328 124.975  1.00  0.00    -0.031 C 
ATOM      2  C   UNL     1     124.525 124.690 123.687  1.00  0.00    -0.031 C 
ENDROOT
BRANCH   1   3
ATOM      3  C   UNL     1     123.723 125.193 125.972  1.00  0.00     0.027 C 
BRANCH   3   4
ATOM      4  C   UNL     1     122.730 126.133 125.273  1.00  0.00     0.004 C 
BRANCH   4   5
ATOM      5  C   UNL     1     121.391 126.251 126.025  1.00  0.00     0.000 C 
BRANCH   5   6
ATOM      6  C   UNL     1     121.226 127.549 126.836  1.00  0.00     0.000 C 
BRANCH   6   7
ATOM      7  C   UNL     1     120.948 127.285 128.326  1.00  0.00     0.000 C 
BRANCH   7   8
ATOM      8  C   UNL     1     120.970 125.788 128.676  1.00  0.00     0.006 C 
BRANCH   8   9
ATOM      9  C   UNL     1     122.183 125.396 129.530  1.00  0.00     0.053 C 
BRANCH   9  10
ATOM     10  C   UNL     1     121.739 124.777 130.817  1.00  0.00     0.041 C 
ATOM     11  O   UNL     1     120.884 125.358 131.537  1.00  0.00    -0.550 OA
ATOM     12  O   UNL     1     122.302 123.582 131.246  1.00  0.00    -0.550 OA
ENDBRANCH   9  10
ENDBRANCH   8   9
ENDBRANCH   7   8
ENDBRANCH   6   7
ENDBRANCH   5   6
ENDBRANCH   4   5
ENDBRANCH   3   4
ENDBRANCH   1   3
BRANCH   2  13
ATOM     13  C   UNL     1     125.242 123.842 122.670  1.00  0.00     0.027 C 
BRANCH  13  14
ATOM     14  C   UNL     1     125.475 122.402 123.158  1.00  0.00     0.004 C 
BRANCH  14  15
ATOM     15  C   UNL     1     124.395 121.394 122.715  1.00  0.00     0.000 C 
BRANCH  15  16
ATOM     16  C   UNL     1     123.503 121.860 121.550  1.00  0.00     0.000 C 
BRANCH  16  17
ATOM     17  C   UNL     1     122.007 121.859 121.905  1.00  0.00    -0.000 C 
BRANCH  17  18
ATOM     18  C   UNL     1     121.751 122.209 123.380  1.00  0.00    -0.000 C 
BRANCH  18  19
ATOM     19  C   UNL     1     120.875 123.460 123.548  1.00  0.00    -0.003 C 
ATOM     20  C   UNL     1     121.103 124.447 122.407  1.00  0.00     0.004 C 
ENDBRANCH  18  19
ENDBRANCH  17  18
ENDBRANCH  16  17
ENDBRANCH  15  16
ENDBRANCH  14  15
ENDBRANCH  13  14
ENDBRANCH   2  13
TORSDOF 15
ENDMDL
MODEL 2
REMARK VINA RESULT:    -2.932      1.201      2.924
REMARK INTER + INTRA:          -7.894
REMARK INTER:                  -5.733
REMARK INTRA:                  -2.161
REMARK UNBOUND:                -2.391
REMARK SMILES CCCCCCCCC=CCCCCCCCC(=O)[O-]
REMARK SMILES IDX 10 1 9 2 11 3 12 4 13 5 14 6 15 7 16 8 17 9 18 10 19 11
REMARK SMILES IDX 20 12 8 13 7 14 6 15 5 16 4 17 3 18 2 19 1 20
REMARK H PARENT
REMARK Flexibility Score: inf
ROOT
ATOM      1  C   UNL     1     120.968 124.896 123.392  1.00  0.00    -0.031 C 
ATOM      2  C   UNL     1     121.389 124.021 122.469  1.00  0.00    -0.031 C 
ENDROOT
BRANCH   1   3
ATOM      3  C   UNL     1     121.110 126.377 123.166  1.00  0.00     0.027 C 
BRANCH   3   4
ATOM      4  C   UNL     1     121.530 127.096 124.456  1.00  0.00     0.004 C 
BRANCH   4   5
ATOM      5  C   UNL     1     121.620 126.148 125.666  1.00  0.00     0.000 C 
BRANCH   5   6
ATOM      6  C   UNL     1     121.182 126.775 127.002  1.00  0.00     0.000 C 
BRANCH   6   7
ATOM      7  C   UNL     1     121.873 126.126 128.214  1.00  0.00     0.000 C 
BRANCH   7   8
ATOM      8  C   UNL     1     120.965 126.068 129.453  1.00  0.00     0.006 C 
BRANCH   8   9
ATOM      9  C   UNL     1     121.102 124.751 130.229  1.00  0.00     0.053 C 
BRANCH   9  10
ATOM     10  C   UNL     1     121.733 124.993 131.563  1.00  0.00     0.041 C 
ATOM     11  O   UNL     1     122.987 124.990 131.681  1.00  0.00    -0.550 OA
ATOM     12  O   UNL     1     120.938 125.174 132.687  1.00  0.00    -0.550 OA
ENDBRANCH   9  10
ENDBRANCH   8   9
ENDBRANCH   7   8
ENDBRANCH   6   7
ENDBRANCH   5   6
ENDBRANCH   4   5
ENDBRANCH   3   4
ENDBRANCH   1   3
BRANCH   2  13
ATOM     13  C   UNL     1     121.260 122.534 122.672  1.00  0.00     0.027 C 
BRANCH  13  14
ATOM     14  C   UNL     1     122.357 121.964 123.587  1.00  0.00     0.004 C 
BRANCH  14  15
ATOM     15  C   UNL     1     123.705 121.703 122.885  1.00  0.00     0.000 C 
BRANCH  15  16
ATOM     16  C   UNL     1     124.765 122.803 123.076  1.00  0.00     0.000 C 
BRANCH  16  17
ATOM     17  C   UNL     1     124.651 123.513 124.436  1.00  0.00    -0.000 C 
BRANCH  17  18
ATOM     18  C   UNL     1     124.672 125.045 124.304  1.00  0.00    -0.000 C 
BRANCH  18  19
ATOM     19  C   UNL     1     124.790 125.511 122.846  1.00  0.00    -0.003 C 
ATOM     20  C   UNL     1     124.879 127.033 122.762  1.00  0.00     0.004 C 
ENDBRANCH  18  19
ENDBRANCH  17  18
ENDBRANCH  16  17
ENDBRANCH  15  16
ENDBRANCH  14  15
ENDBRANCH  13  14
ENDBRANCH   2  13
TORSDOF 15
ENDMDL
MODEL 3
REMARK VINA RESULT:    -2.907      3.271      4.566
REMARK INTER + INTRA:          -7.847
REMARK INTER:                  -4.693
REMARK INTRA:                  -3.154
REMARK UNBOUND:                -2.391
REMARK SMILES CCCCCCCCC=CCCCCCCCC(=O)[O-]
REMARK SMILES IDX 10 1 9 2 11 3 12 4 13 5 14 6 15 7 16 8 17 9 18 10 19 11
REMARK SMILES IDX 20 12 8 13 7 14 6 15 5 16 4 17 3 18 2 19 1 20
REMARK H PARENT
REMARK Flexibility Score: inf
ROOT
ATOM      1  C   UNL     1     124.428 122.903 124.665  1.00  0.00    -0.031 C 
ATOM      2  C   UNL     1     124.463 122.366 123.438  1.00  0.00    -0.031 C 
ENDROOT
BRANCH   1   3
ATOM      3  C   UNL     1     125.628 123.617 125.224  1.00  0.00     0.027 C 
BRANCH   3   4
ATOM      4  C   UNL     1     125.215 124.885 125.985  1.00  0.00     0.004 C 
BRANCH   4   5
ATOM      5  C   UNL     1     123.691 124.991 126.183  1.00  0.00     0.000 C 
BRANCH   5   6
ATOM      6  C   UNL     1     123.227 126.278 126.890  1.00  0.00     0.000 C 
BRANCH   6   7
ATOM      7  C   UNL     1     121.696 126.431 126.897  1.00  0.00     0.000 C 
BRANCH   7   8
ATOM      8  C   UNL     1     121.243 127.877 126.640  1.00  0.00     0.006 C 
BRANCH   8   9
ATOM      9  C   UNL     1     122.150 128.616 125.647  1.00  0.00     0.053 C 
BRANCH   9  10
ATOM     10  C   UNL     1     121.338 129.503 124.757  1.00  0.00     0.041 C 
ATOM     11  O   UNL     1     121.065 129.142 123.582  1.00  0.00    -0.550 OA
ATOM     12  O   UNL     1     120.923 130.749 125.208  1.00  0.00    -0.550 OA
ENDBRANCH   9  10
ENDBRANCH   8   9
ENDBRANCH   7   8
ENDBRANCH   6   7
ENDBRANCH   5   6
ENDBRANCH   4   5
ENDBRANCH   3   4
ENDBRANCH   1   3
BRANCH   2  13
ATOM     13  C   UNL     1     123.275 121.645 122.856  1.00  0.00     0.027 C 
BRANCH  13  14
ATOM     14  C   UNL     1     121.949 122.061 123.515  1.00  0.00     0.004 C 
BRANCH  14  15
ATOM     15  C   UNL     1     121.251 123.263 122.846  1.00  0.00     0.000 C 
BRANCH  15  16
ATOM     16  C   UNL     1     121.119 124.517 123.729  1.00  0.00     0.000 C 
BRANCH  16  17
ATOM     17  C   UNL     1     121.786 125.757 123.110  1.00  0.00    -0.000 C 
BRANCH  17  18
ATOM     18  C   UNL     1     122.810 125.394 122.023  1.00  0.00    -0.000 C 
BRANCH  18  19
ATOM     19  C   UNL     1     124.244 125.789 122.405  1.00  0.00    -0.003 C 
ATOM     20  C   UNL     1     124.270 127.135 123.125  1.00  0.00     0.004 C 
ENDBRANCH  18  19
ENDBRANCH  17  18
ENDBRANCH  16  17
ENDBRANCH  15  16
ENDBRANCH  14  15
ENDBRANCH  13  14
ENDBRANCH   2  13
TORSDOF 15
ENDMDL
MODEL 4
REMARK VINA RESULT:    -2.845      1.979      3.472
REMARK INTER + INTRA:          -7.730
REMARK INTER:                  -5.796
REMARK INTRA:                  -1.935
REMARK UNBOUND:                -2.391
REMARK SMILES CCCCCCCCC=CCCCCCCCC(=O)[O-]
REMARK SMILES IDX 10 1 9 2 11 3 12 4 13 5 14 6 15 7 16 8 17 9 18 10 19 11
REMARK SMILES IDX 20 12 8 13 7 14 6 15 5 16 4 17 3 18 2 19 1 20
REMARK H PARENT
REMARK Flexibility Score: inf
ROOT
ATOM      1  C   UNL     1     124.202 122.821 124.882  1.00  0.00    -0.031 C 
ATOM      2  C   UNL     1     124.450 122.439 123.621  1.00  0.00    -0.031 C 
ENDROOT
BRANCH   1   3
ATOM      3  C   UNL     1     125.225 123.600 125.663  1.00  0.00     0.027 C 
BRANCH   3   4
ATOM      4  C   UNL     1     124.571 124.369 126.820  1.00  0.00     0.004 C 
BRANCH   4   5
ATOM      5  C   UNL     1     125.127 123.960 128.197  1.00  0.00     0.000 C 
BRANCH   5   6
ATOM      6  C   UNL     1     124.062 123.477 129.198  1.00  0.00     0.000 C 
BRANCH   6   7
ATOM      7  C   UNL     1     123.130 124.610 129.662  1.00  0.00     0.000 C 
BRANCH   7   8
ATOM      8  C   UNL     1     122.176 124.170 130.785  1.00  0.00     0.006 C 
BRANCH   8   9
ATOM      9  C   UNL     1     122.851 123.255 131.814  1.00  0.00     0.053 C 
BRANCH   9  10
ATOM     10  C   UNL     1     122.250 123.459 133.169  1.00  0.00     0.041 C 
ATOM     11  O   UNL     1     122.004 124.622 133.584  1.00  0.00    -0.550 OA
ATOM     12  O   UNL     1     122.005 122.368 133.993  1.00  0.00    -0.550 OA
ENDBRANCH   9  10
ENDBRANCH   8   9
ENDBRANCH   7   8
ENDBRANCH   6   7
ENDBRANCH   5   6
ENDBRANCH   4   5
ENDBRANCH   3   4
ENDBRANCH   1   3
BRANCH   2  13
ATOM     13  C   UNL     1     123.444 121.658 122.819  1.00  0.00     0.027 C 
BRANCH  13  14
ATOM     14  C   UNL     1     122.002 121.866 123.313  1.00  0.00     0.004 C 
BRANCH  14  15
ATOM     15  C   UNL     1     121.280 123.077 122.687  1.00  0.00     0.000 C 
BRANCH  15  16
ATOM     16  C   UNL     1     120.875 124.181 123.681  1.00  0.00     0.000 C 
BRANCH  16  17
ATOM     17  C   UNL     1     121.547 125.532 123.379  1.00  0.00    -0.000 C 
BRANCH  17  18
ATOM     18  C   UNL     1     122.705 125.403 122.377  1.00  0.00    -0.000 C 
BRANCH  18  19
ATOM     19  C   UNL     1     123.986 126.099 122.860  1.00  0.00    -0.003 C 
ATOM     20  C   UNL     1     123.738 126.867 124.155  1.00  0.00     0.004 C 
ENDBRANCH  18  19
ENDBRANCH  17  18
ENDBRANCH  16  17
ENDBRANCH  15  16
ENDBRANCH  14  15
ENDBRANCH  13  14
ENDBRANCH   2  13
TORSDOF 15
ENDMDL
MODEL 5
REMARK VINA RESULT:    -2.835      1.316      1.999
REMARK INTER + INTRA:          -7.712
REMARK INTER:                  -5.363
REMARK INTRA:                  -2.349
REMARK UNBOUND:                -2.391
REMARK SMILES CCCCCCCCC=CCCCCCCCC(=O)[O-]
REMARK SMILES IDX 10 1 9 2 11 3 12 4 13 5 14 6 15 7 16 8 17 9 18 10 19 11
REMARK SMILES IDX 20 12 8 13 7 14 6 15 5 16 4 17 3 18 2 19 1 20
REMARK H PARENT
REMARK Flexibility Score: inf
ROOT
ATOM      1  C   UNL     1     124.727 124.236 125.579  1.00  0.00    -0.031 C 
ATOM      2  C   UNL     1     124.265 123.105 125.027  1.00  0.00    -0.031 C 
ENDROOT
BRANCH   1   3
ATOM      3  C   UNL     1     124.075 124.812 126.806  1.00  0.00     0.027 C 
BRANCH   3   4
ATOM      4  C   UNL     1     124.295 126.330 126.889  1.00  0.00     0.004 C 
BRANCH   4   5
ATOM      5  C   UNL     1     123.116 127.068 127.551  1.00  0.00     0.000 C 
BRANCH   5   6
ATOM      6  C   UNL     1     121.920 126.167 127.909  1.00  0.00     0.000 C 
BRANCH   6   7
ATOM      7  C   UNL     1     120.976 126.818 128.935  1.00  0.00     0.000 C 
BRANCH   7   8
ATOM      8  C   UNL     1     121.017 126.123 130.305  1.00  0.00     0.006 C 
BRANCH   8   9
ATOM      9  C   UNL     1     121.269 124.613 130.197  1.00  0.00     0.053 C 
BRANCH   9  10
ATOM     10  C   UNL     1     122.498 124.233 130.961  1.00  0.00     0.041 C 
ATOM     11  O   UNL     1     122.398 123.642 132.069  1.00  0.00    -0.550 OA
ATOM     12  O   UNL     1     123.754 124.573 130.473  1.00  0.00    -0.550 OA
ENDBRANCH   9  10
ENDBRANCH   8   9
ENDBRANCH   7   8
ENDBRANCH   6   7
ENDBRANCH   5   6
ENDBRANCH   4   5
ENDBRANCH   3   4
ENDBRANCH   1   3
BRANCH   2  13
ATOM     13  C   UNL     1     124.898 122.508 123.798  1.00  0.00     0.027 C 
BRANCH  13  14
ATOM     14  C   UNL     1     123.906 121.678 122.965  1.00  0.00     0.004 C 
BRANCH  14  15
ATOM     15  C   UNL     1     122.425 121.883 123.342  1.00  0.00     0.000 C 
BRANCH  15  16
ATOM     16  C   UNL     1     121.537 122.446 122.217  1.00  0.00     0.000 C 
BRANCH  16  17
ATOM     17  C   UNL     1     121.147 123.917 122.443  1.00  0.00    -0.000 C 
BRANCH  17  18
ATOM     18  C   UNL     1     122.302 124.885 122.143  1.00  0.00    -0.000 C 
BRANCH  18  19
ATOM     19  C   UNL     1     122.464 125.966 123.222  1.00  0.00    -0.003 C 
ATOM     20  C   UNL     1     121.406 125.816 124.312  1.00  0.00     0.004 C 
ENDBRANCH  18  19
ENDBRANCH  17  18
ENDBRANCH  16  17
ENDBRANCH  15  16
ENDBRANCH  14  15
ENDBRANCH  13  14
ENDBRANCH   2  13
TORSDOF 15
ENDMDL
MODEL 6
REMARK VINA RESULT:    -2.831      1.345      2.848
REMARK INTER + INTRA:          -7.705
REMARK INTER:                  -5.660
REMARK INTRA:                  -2.045
REMARK UNBOUND:                -2.391
REMARK SMILES CCCCCCCCC=CCCCCCCCC(=O)[O-]
REMARK SMILES IDX 10 1 9 2 11 3 12 4 13 5 14 6 15 7 16 8 17 9 18 10 19 11
REMARK SMILES IDX 20 12 8 13 7 14 6 15 5 16 4 17 3 18 2 19 1 20
REMARK H PARENT
REMARK Flexibility Score: inf
ROOT
ATOM      1  C   UNL     1     123.576 125.053 125.363  1.00  0.00    -0.031 C 
ATOM      2  C   UNL     1     124.164 125.603 124.291  1.00  0.00    -0.031 C 
ENDROOT
BRANCH   1   3
ATOM      3  C   UNL     1     124.363 124.787 126.617  1.00  0.00     0.027 C 
BRANCH   3   4
ATOM      4  C   UNL     1     123.733 125.494 127.826  1.00  0.00     0.004 C 
BRANCH   4   5
ATOM      5  C   UNL     1     122.425 126.227 127.474  1.00  0.00     0.000 C 
BRANCH   5   6
ATOM      6  C   UNL     1     121.332 126.137 128.555  1.00  0.00     0.000 C 
BRANCH   6   7
ATOM      7  C   UNL     1     121.839 126.561 129.945  1.00  0.00     0.000 C 
BRANCH   7   8
ATOM      8  C   UNL     1     121.430 125.575 131.051  1.00  0.00     0.006 C 
BRANCH   8   9
ATOM      9  C   UNL     1     122.090 124.199 130.894  1.00  0.00     0.053 C 
BRANCH   9  10
ATOM     10  C   UNL     1     122.363 123.594 132.235  1.00  0.00     0.041 C 
ATOM     11  O   UNL     1     122.884 122.451 132.321  1.00  0.00    -0.550 OA
ATOM     12  O   UNL     1     121.997 124.272 133.392  1.00  0.00    -0.550 OA
ENDBRANCH   9  10
ENDBRANCH   8   9
ENDBRANCH   7   8
ENDBRANCH   6   7
ENDBRANCH   5   6
ENDBRANCH   4   5
ENDBRANCH   3   4
ENDBRANCH   1   3
BRANCH   2  13
ATOM     13  C   UNL     1     123.400 125.878 123.023  1.00  0.00     0.027 C 
BRANCH  13  14
ATOM     14  C   UNL     1     121.954 126.331 123.290  1.00  0.00     0.004 C 
BRANCH  14  15
ATOM     15  C   UNL     1     120.876 125.471 122.600  1.00  0.00     0.000 C 
BRANCH  15  16
ATOM     16  C   UNL     1     121.288 124.017 122.307  1.00  0.00     0.000 C 
BRANCH  16  17
ATOM     17  C   UNL     1     121.069 123.081 123.508  1.00  0.00    -0.000 C 
BRANCH  17  18
ATOM     18  C   UNL     1     122.008 121.864 123.484  1.00  0.00    -0.000 C 
BRANCH  18  19
ATOM     19  C   UNL     1     123.280 122.114 122.661  1.00  0.00    -0.003 C 
ATOM     20  C   UNL     1     124.529 121.986 123.528  1.00  0.00     0.004 C 
ENDBRANCH  18  19
ENDBRANCH  17  18
ENDBRANCH  16  17
ENDBRANCH  15  16
ENDBRANCH  14  15
ENDBRANCH  13  14
ENDBRANCH   2  13
TORSDOF 15
ENDMDL
MODEL 7
REMARK VINA RESULT:    -2.825      6.386     12.311
REMARK INTER + INTRA:          -7.693
REMARK INTER:                  -6.162
REMARK INTRA:                  -1.530
REMARK UNBOUND:                -2.391
REMARK SMILES CCCCCCCCC=CCCCCCCCC(=O)[O-]
REMARK SMILES IDX 10 1 9 2 11 3 12 4 13 5 14 6 15 7 16 8 17 9 18 10 19 11
REMARK SMILES IDX 20 12 8 13 7 14 6 15 5 16 4 17 3 18 2 19 1 20
REMARK H PARENT
REMARK Flexibility Score: inf
ROOT
ATOM      1  C   UNL     1     122.451 126.187 135.822  1.00  0.00    -0.031 C 
ATOM      2  C   UNL     1     122.115 127.054 136.787  1.00  0.00    -0.031 C 
ENDROOT
BRANCH   1   3
ATOM      3  C   UNL     1     122.397 126.594 134.374  1.00  0.00     0.027 C 
BRANCH   3   4
ATOM      4  C   UNL     1     121.652 125.548 133.532  1.00  0.00     0.004 C 
BRANCH   4   5
ATOM      5  C   UNL     1     121.259 124.299 134.344  1.00  0.00     0.000 C 
BRANCH   5   6
ATOM      6  C   UNL     1     121.962 123.003 133.901  1.00  0.00     0.000 C 
BRANCH   6   7
ATOM      7  C   UNL     1     123.204 123.270 133.034  1.00  0.00     0.000 C 
BRANCH   7   8
ATOM      8  C   UNL     1     123.145 122.551 131.676  1.00  0.00     0.006 C 
BRANCH   8   9
ATOM      9  C   UNL     1     123.672 123.415 130.523  1.00  0.00     0.053 C 
BRANCH   9  10
ATOM     10  C   UNL     1     122.765 124.581 130.288  1.00  0.00     0.041 C 
ATOM     11  O   UNL     1     123.233 125.750 130.254  1.00  0.00    -0.550 OA
ATOM     12  O   UNL     1     121.397 124.383 130.153  1.00  0.00    -0.550 OA
ENDBRANCH   9  10
ENDBRANCH   8   9
ENDBRANCH   7   8
ENDBRANCH   6   7
ENDBRANCH   5   6
ENDBRANCH   4   5
ENDBRANCH   3   4
ENDBRANCH   1   3
BRANCH   2  13
ATOM     13  C   UNL     1     122.159 126.672 138.243  1.00  0.00     0.027 C 
BRANCH  13  14
ATOM     14  C   UNL     1     121.394 125.369 138.537  1.00  0.00     0.004 C 
BRANCH  14  15
ATOM     15  C   UNL     1     122.206 124.311 139.312  1.00  0.00     0.000 C 
BRANCH  15  16
ATOM     16  C   UNL     1     123.526 123.883 138.646  1.00  0.00     0.000 C 
BRANCH  16  17
ATOM     17  C   UNL     1     124.252 122.769 139.419  1.00  0.00    -0.000 C 
BRANCH  17  18
ATOM     18  C   UNL     1     123.435 121.468 139.484  1.00  0.00    -0.000 C 
BRANCH  18  19
ATOM     19  C   UNL     1     122.950 121.145 140.905  1.00  0.00    -0.003 C 
ATOM     20  C   UNL     1     121.438 120.932 140.933  1.00  0.00     0.004 C 
ENDBRANCH  18  19
ENDBRANCH  17  18
ENDBRANCH  16  17
ENDBRANCH  15  16
ENDBRANCH  14  15
ENDBRANCH  13  14
ENDBRANCH   2  13
TORSDOF 15
ENDMDL
MODEL 8
REMARK VINA RESULT:    -2.780      2.761      6.756
REMARK INTER + INTRA:          -7.609
REMARK INTER:                  -6.049
REMARK INTRA:                  -1.561
REMARK UNBOUND:                -2.391
REMARK SMILES CCCCCCCCC=CCCCCCCCC(=O)[O-]
REMARK SMILES IDX 10 1 9 2 11 3 12 4 13 5 14 6 15 7 16 8 17 9 18 10 19 11
REMARK SMILES IDX 20 12 8 13 7 14 6 15 5 16 4 17 3 18 2 19 1 20
REMARK H PARENT
REMARK Flexibility Score: inf
ROOT
ATOM      1  C   UNL     1     124.412 123.432 125.415  1.00  0.00    -0.031 C 
ATOM      2  C   UNL     1     124.920 123.282 126.646  1.00  0.00    -0.031 C 
ENDROOT
BRANCH   1   3
ATOM      3  C   UNL     1     124.823 122.511 124.298  1.00  0.00     0.027 C 
BRANCH   3   4
ATOM      4  C   UNL     1     123.815 122.561 123.141  1.00  0.00     0.004 C 
BRANCH   4   5
ATOM      5  C   UNL     1     122.481 121.870 123.481  1.00  0.00     0.000 C 
BRANCH   5   6
ATOM      6  C   UNL     1     121.254 122.801 123.448  1.00  0.00     0.000 C 
BRANCH   6   7
ATOM      7  C   UNL     1     121.397 123.930 122.413  1.00  0.00     0.000 C 
BRANCH   7   8
ATOM      8  C   UNL     1     121.044 125.311 122.989  1.00  0.00     0.006 C 
BRANCH   8   9
ATOM      9  C   UNL     1     121.346 125.423 124.489  1.00  0.00     0.053 C 
BRANCH   9  10
ATOM     10  C   UNL     1     122.440 126.415 124.729  1.00  0.00     0.041 C 
ATOM     11  O   UNL     1     123.070 126.911 123.757  1.00  0.00    -0.550 OA
ATOM     12  O   UNL     1     122.797 126.757 126.027  1.00  0.00    -0.550 OA
ENDBRANCH   9  10
ENDBRANCH   8   9
ENDBRANCH   7   8
ENDBRANCH   6   7
ENDBRANCH   5   6
ENDBRANCH   4   5
ENDBRANCH   3   4
ENDBRANCH   1   3
BRANCH   2  13
ATOM     13  C   UNL     1     124.527 124.191 127.781  1.00  0.00     0.027 C 
BRANCH  13  14
ATOM     14  C   UNL     1     124.477 123.461 129.134  1.00  0.00     0.004 C 
BRANCH  14  15
ATOM     15  C   UNL     1     123.413 124.000 130.113  1.00  0.00     0.000 C 
BRANCH  15  16
ATOM     16  C   UNL     1     122.454 125.049 129.522  1.00  0.00     0.000 C 
BRANCH  16  17
ATOM     17  C   UNL     1     121.117 125.129 130.279  1.00  0.00    -0.000 C 
BRANCH  17  18
ATOM     18  C   UNL     1     120.879 126.512 130.907  1.00  0.00    -0.000 C 
BRANCH  18  19
ATOM     19  C   UNL     1     121.076 126.513 132.430  1.00  0.00    -0.003 C 
ATOM     20  C   UNL     1     121.120 125.089 132.979  1.00  0.00     0.004 C 
ENDBRANCH  18  19
ENDBRANCH  17  18
ENDBRANCH  16  17
ENDBRANCH  15  16
ENDBRANCH  14  15
ENDBRANCH  13  14
ENDBRANCH   2  13
TORSDOF 15
ENDMDL
MODEL 9
REMARK VINA RESULT:    -2.737      1.750      3.492
REMARK INTER + INTRA:          -7.529
REMARK INTER:                  -5.629
REMARK INTRA:                  -1.900
REMARK UNBOUND:                -2.391
REMARK SMILES CCCCCCCCC=CCCCCCCCC(=O)[O-]
REMARK SMILES IDX 10 1 9 2 11 3 12 4 13 5 14 6 15 7 16 8 17 9 18 10 19 11
REMARK SMILES IDX 20 12 8 13 7 14 6 15 5 16 4 17 3 18 2 19 1 20
REMARK H PARENT
REMARK Flexibility Score: inf
ROOT
ATOM      1  C   UNL     1     125.056 123.339 125.020  1.00  0.00    -0.031 C 
ATOM      2  C   UNL     1     124.276 122.343 124.577  1.00  0.00    -0.031 C 
ENDROOT
BRANCH   1   3
ATOM      3  C   UNL     1     125.536 123.361 126.446  1.00  0.00     0.027 C 
BRANCH   3   4
ATOM      4  C   UNL     1     124.756 122.358 127.309  1.00  0.00     0.004 C 
BRANCH   4   5
ATOM      5  C   UNL     1     124.674 122.781 128.788  1.00  0.00     0.000 C 
BRANCH   5   6
ATOM      6  C   UNL     1     123.893 124.084 129.037  1.00  0.00     0.000 C 
BRANCH   6   7
ATOM      7  C   UNL     1     123.601 124.322 130.529  1.00  0.00     0.000 C 
BRANCH   7   8
ATOM      8  C   UNL     1     122.163 123.946 130.919  1.00  0.00     0.006 C 
BRANCH   8   9
ATOM      9  C   UNL     1     121.111 124.829 130.234  1.00  0.00     0.053 C 
BRANCH   9  10
ATOM     10  C   UNL     1     121.235 126.246 130.699  1.00  0.00     0.041 C 
ATOM     11  O   UNL     1     121.702 127.127 129.930  1.00  0.00    -0.550 OA
ATOM     12  O   UNL     1     120.882 126.585 131.999  1.00  0.00    -0.550 OA
ENDBRANCH   9  10
ENDBRANCH   8   9
ENDBRANCH   7   8
ENDBRANCH   6   7
ENDBRANCH   5   6
ENDBRANCH   4   5
ENDBRANCH   3   4
ENDBRANCH   1   3
BRANCH   2  13
ATOM     13  C   UNL     1     123.782 122.298 123.155  1.00  0.00     0.027 C 
BRANCH  13  14
ATOM     14  C   UNL     1     122.379 121.678 123.035  1.00  0.00     0.004 C 
BRANCH  14  15
ATOM     15  C   UNL     1     121.296 122.642 122.511  1.00  0.00     0.000 C 
BRANCH  15  16
ATOM     16  C   UNL     1     120.875 123.750 123.493  1.00  0.00     0.000 C 
BRANCH  16  17
ATOM     17  C   UNL     1     121.254 125.158 123.004  1.00  0.00    -0.000 C 
BRANCH  17  18
ATOM     18  C   UNL     1     122.334 125.815 123.879  1.00  0.00    -0.000 C 
BRANCH  18  19
ATOM     19  C   UNL     1     121.847 126.096 125.308  1.00  0.00    -0.003 C 
ATOM     20  C   UNL     1     123.023 126.268 126.265  1.00  0.00     0.004 C 
ENDBRANCH  18  19
ENDBRANCH  17  18
ENDBRANCH  16  17
ENDBRANCH  15  16
ENDBRANCH  14  15
ENDBRANCH  13  14
ENDBRANCH   2  13
TORSDOF 15
ENDMDL
