MODEL 1
REMARK VINA RESULT:    -3.868      0.000      0.000
REMARK INTER + INTRA:          -4.864
REMARK INTER:                  -4.546
REMARK INTRA:                  -0.318
REMARK UNBOUND:                -0.318
REMARK SMILES O=c1cc(-c2ccc(O)c(O)c2)oc2cc(O)cc(O)c12
REMARK SMILES IDX 4 1 3 2 2 3 1 4 21 5 19 6 18 7 16 8 15 9 14 10 13 11 5 12
REMARK SMILES IDX 6 13 7 14 8 15 12 16 10 17 9 18 11 20 20 22 17 24
REMARK H PARENT 9 19 11 21 20 23 17 25
REMARK Flexibility Score: inf
ROOT
ATOM      1  C   UNL     1      72.221  40.824  19.810  1.00  0.00     0.138 A 
ATOM      2  C   UNL     1      73.087  40.733  18.712  1.00  0.00     0.100 A 
ATOM      3  C   UNL     1      74.465  40.672  18.924  1.00  0.00     0.197 A 
ATOM      4  O   UNL     1      75.213  40.534  17.922  1.00  0.00    -0.289 OA
ATOM      5  C   UNL     1      74.979  40.739  20.241  1.00  0.00     0.107 A 
ATOM      6  C   UNL     1      76.366  40.721  20.577  1.00  0.00     0.134 A 
ATOM      7  C   UNL     1      76.751  40.694  21.923  1.00  0.00     0.093 A 
ATOM      8  C   UNL     1      75.803  40.743  22.945  1.00  0.00     0.123 A 
ATOM      9  C   UNL     1      74.446  40.812  22.629  1.00  0.00     0.094 A 
ATOM     10  C   UNL     1      74.029  40.806  21.296  1.00  0.00     0.146 A 
ATOM     11  O   UNL     1      72.725  40.854  21.038  1.00  0.00    -0.456 OA
ENDROOT
BRANCH   1  12
ATOM     12  C   UNL     1      70.747  40.895  19.643  1.00  0.00     0.021 A 
ATOM     13  C   UNL     1      70.198  40.924  18.351  1.00  0.00     0.016 A 
ATOM     14  C   UNL     1      68.815  40.998  18.166  1.00  0.00     0.051 A 
ATOM     15  C   UNL     1      67.957  41.053  19.268  1.00  0.00     0.157 A 
ATOM     16  C   UNL     1      69.878  40.965  20.751  1.00  0.00     0.062 A 
ATOM     17  C   UNL     1      68.490  41.041  20.566  1.00  0.00     0.158 A 
BRANCH  15  18
ATOM     18  O   UNL     1      66.581  41.125  19.052  1.00  0.00    -0.504 OA
ATOM     19  H   UNL     1      65.933  41.370  19.790  1.00  0.00     0.293 HD
ENDBRANCH  15  18
BRANCH  17  20
ATOM     20  O   UNL     1      67.639  41.108  21.669  1.00  0.00    -0.504 OA
ATOM     21  H   UNL     1      67.602  40.366  22.358  1.00  0.00     0.293 HD
ENDBRANCH  17  20
ENDBRANCH   1  12
BRANCH   6  22
ATOM     22  O   UNL     1      77.400  40.751  19.635  1.00  0.00    -0.507 OA
ATOM     23  H   UNL     1      77.296  41.011  18.668  1.00  0.00     0.293 HD
ENDBRANCH   6  22
BRANCH   8  24
ATOM     24  O   UNL     1      76.224  40.730  24.273  1.00  0.00    -0.508 OA
ATOM     25  H   UNL     1      77.024  41.271  24.580  1.00  0.00     0.293 HD
ENDBRANCH   8  24
TORSDOF 5
ENDMDL
MODEL 2
REMARK VINA RESULT:    -2.239      1.126      2.640
REMARK INTER + INTRA:          -2.950
REMARK INTER:                  -2.653
REMARK INTRA:                  -0.297
REMARK UNBOUND:                -0.318
REMARK SMILES O=c1cc(-c2ccc(O)c(O)c2)oc2cc(O)cc(O)c12
REMARK SMILES IDX 4 1 3 2 2 3 1 4 21 5 19 6 18 7 16 8 15 9 14 10 13 11 5 12
REMARK SMILES IDX 6 13 7 14 8 15 12 16 10 17 9 18 11 20 20 22 17 24
REMARK H PARENT 9 19 11 21 20 23 17 25
REMARK Flexibility Score: inf
ROOT
ATOM      1  C   UNL     1      72.184  41.010  20.295  1.00  0.00     0.138 A 
ATOM      2  C   UNL     1      72.513  41.050  21.656  1.00  0.00     0.100 A 
ATOM      3  C   UNL     1      73.854  41.028  22.043  1.00  0.00     0.197 A 
ATOM      4  O   UNL     1      74.119  41.122  23.269  1.00  0.00    -0.289 OA
ATOM      5  C   UNL     1      74.868  40.928  21.061  1.00  0.00     0.107 A 
ATOM      6  C   UNL     1      76.267  40.862  21.338  1.00  0.00     0.134 A 
ATOM      7  C   UNL     1      77.182  40.865  20.278  1.00  0.00     0.093 A 
ATOM      8  C   UNL     1      76.749  40.872  18.952  1.00  0.00     0.123 A 
ATOM      9  C   UNL     1      75.384  40.885  18.669  1.00  0.00     0.094 A 
ATOM     10  C   UNL     1      74.447  40.918  19.704  1.00  0.00     0.146 A 
ATOM     11  O   UNL     1      73.155  40.949  19.390  1.00  0.00    -0.456 OA
ENDROOT
BRANCH   1  12
ATOM     12  C   UNL     1      70.775  41.028  19.826  1.00  0.00     0.021 A 
ATOM     13  C   UNL     1      70.505  41.096  18.450  1.00  0.00     0.016 A 
ATOM     14  C   UNL     1      69.188  41.122  17.983  1.00  0.00     0.051 A 
ATOM     15  C   UNL     1      68.119  41.088  18.881  1.00  0.00     0.157 A 
ATOM     16  C   UNL     1      69.693  41.009  20.730  1.00  0.00     0.062 A 
ATOM     17  C   UNL     1      68.371  41.036  20.261  1.00  0.00     0.158 A 
BRANCH  15  18
ATOM     18  O   UNL     1      66.816  41.113  18.386  1.00  0.00    -0.504 OA
ATOM     19  H   UNL     1      66.395  40.308  17.938  1.00  0.00     0.293 HD
ENDBRANCH  15  18
BRANCH  17  20
ATOM     20  O   UNL     1      67.308  41.015  21.164  1.00  0.00    -0.504 OA
ATOM     21  H   UNL     1      67.112  40.202  21.736  1.00  0.00     0.293 HD
ENDBRANCH  17  20
ENDBRANCH   1  12
BRANCH   6  22
ATOM     22  O   UNL     1      76.807  40.772  22.625  1.00  0.00    -0.507 OA
ATOM     23  H   UNL     1      77.790  40.799  22.844  1.00  0.00     0.293 HD
ENDBRANCH   6  22
BRANCH   8  24
ATOM     24  O   UNL     1      77.689  40.858  17.924  1.00  0.00    -0.508 OA
ATOM     25  H   UNL     1      78.677  40.728  18.110  1.00  0.00     0.293 HD
ENDBRANCH   8  24
TORSDOF 5
ENDMDL
