MODEL 1
REMARK VINA RESULT:    -4.940      0.000      0.000
REMARK INTER + INTRA:          -8.356
REMARK INTER:                  -7.827
REMARK INTRA:                  -0.529
REMARK UNBOUND:                -0.529
REMARK SMILES CCCCCCCCCCCC(=O)[O-]
REMARK SMILES IDX 7 1 8 2 9 3 10 4 11 5 12 6 13 7 14 8 6 9 5 10 4 11 3 12 2 13
REMARK SMILES IDX 1 14
REMARK H PARENT
REMARK Flexibility Score: inf
ROOT
ATOM      1  C   UNL     1       1.955  24.106  47.930  1.00  0.00     0.000 C 
ENDROOT
BRANCH   1   2
ATOM      2  C   UNL     1       1.474  24.412  49.359  1.00  0.00     0.000 C 
BRANCH   2   3
ATOM      3  C   UNL     1       2.589  24.258  50.405  1.00  0.00     0.000 C 
BRANCH   3   4
ATOM      4  C   UNL     1       3.274  22.893  50.279  1.00  0.00     0.006 C 
BRANCH   4   5
ATOM      5  C   UNL     1       2.419  21.788  50.907  1.00  0.00     0.053 C 
BRANCH   5   6
ATOM      6  C   UNL     1       2.656  21.715  52.382  1.00  0.00     0.041 C 
ATOM      7  O   UNL     1       1.737  22.018  53.187  1.00  0.00    -0.550 OA
ATOM      8  O   UNL     1       3.877  21.266  52.868  1.00  0.00    -0.550 OA
ENDBRANCH   5   6
ENDBRANCH   4   5
ENDBRANCH   3   4
ENDBRANCH   2   3
ENDBRANCH   1   2
BRANCH   1   9
ATOM      9  C   UNL     1       0.921  24.503  46.862  1.00  0.00     0.000 C 
BRANCH   9  10
ATOM     10  C   UNL     1       1.251  23.923  45.478  1.00  0.00    -0.000 C 
BRANCH  10  11
ATOM     11  C   UNL     1       2.477  22.991  45.502  1.00  0.00    -0.000 C 
BRANCH  11  12
ATOM     12  C   UNL     1       2.832  22.447  44.109  1.00  0.00    -0.000 C 
BRANCH  12  13
ATOM     13  C   UNL     1       1.702  21.607  43.498  1.00  0.00    -0.003 C 
ATOM     14  C   UNL     1       2.006  21.249  42.046  1.00  0.00     0.004 C 
ENDBRANCH  12  13
ENDBRANCH  11  12
ENDBRANCH  10  11
ENDBRANCH   9  10
ENDBRANCH   1   9
TORSDOF 10
ENDMDL
MODEL 2
REMARK VINA RESULT:    -4.826      1.001      1.770
REMARK INTER + INTRA:          -8.177
REMARK INTER:                  -7.510
REMARK INTRA:                  -0.667
REMARK UNBOUND:                -0.529
REMARK SMILES CCCCCCCCCCCC(=O)[O-]
REMARK SMILES IDX 7 1 8 2 9 3 10 4 11 5 12 6 13 7 14 8 6 9 5 10 4 11 3 12 2 13
REMARK SMILES IDX 1 14
REMARK H PARENT
REMARK Flexibility Score: inf
ROOT
ATOM      1  C   UNL     1       0.865  24.503  46.915  1.00  0.00     0.000 C 
ENDROOT
BRANCH   1   2
ATOM      2  C   UNL     1       1.568  25.689  47.596  1.00  0.00     0.000 C 
BRANCH   2   3
ATOM      3  C   UNL     1       2.335  25.278  48.862  1.00  0.00     0.000 C 
BRANCH   3   4
ATOM      4  C   UNL     1       1.670  24.074  49.539  1.00  0.00     0.006 C 
BRANCH   4   5
ATOM      5  C   UNL     1       2.681  22.948  49.777  1.00  0.00     0.053 C 
BRANCH   5   6
ATOM      6  C   UNL     1       2.359  22.212  51.039  1.00  0.00     0.041 C 
ATOM      7  O   UNL     1       3.273  21.646  51.693  1.00  0.00    -0.550 OA
ATOM      8  O   UNL     1       1.056  22.194  51.519  1.00  0.00    -0.550 OA
ENDBRANCH   5   6
ENDBRANCH   4   5
ENDBRANCH   3   4
ENDBRANCH   2   3
ENDBRANCH   1   2
BRANCH   1   9
ATOM      9  C   UNL     1       1.517  24.122  45.574  1.00  0.00     0.000 C 
BRANCH   9  10
ATOM     10  C   UNL     1       2.433  22.893  45.692  1.00  0.00    -0.000 C 
BRANCH  10  11
ATOM     11  C   UNL     1       3.428  22.781  44.523  1.00  0.00    -0.000 C 
BRANCH  11  12
ATOM     12  C   UNL     1       2.732  22.804  43.152  1.00  0.00    -0.000 C 
BRANCH  12  13
ATOM     13  C   UNL     1       1.947  21.516  42.867  1.00  0.00    -0.003 C 
ATOM     14  C   UNL     1       2.026  21.139  41.391  1.00  0.00     0.004 C 
ENDBRANCH  12  13
ENDBRANCH  11  12
ENDBRANCH  10  11
ENDBRANCH   9  10
ENDBRANCH   1   9
TORSDOF 10
ENDMDL
MODEL 3
REMARK VINA RESULT:    -4.659      4.354      7.325
REMARK INTER + INTRA:          -7.911
REMARK INTER:                  -7.482
REMARK INTRA:                  -0.428
REMARK UNBOUND:                -0.529
REMARK SMILES CCCCCCCCCCCC(=O)[O-]
REMARK SMILES IDX 7 1 8 2 9 3 10 4 11 5 12 6 13 7 14 8 6 9 5 10 4 11 3 12 2 13
REMARK SMILES IDX 1 14
REMARK H PARENT
REMARK Flexibility Score: inf
ROOT
ATOM      1  C   UNL     1       0.849  24.746  47.103  1.00  0.00     0.000 C 
ENDROOT
BRANCH   1   2
ATOM      2  C   UNL     1       1.263  24.094  45.773  1.00  0.00     0.000 C 
BRANCH   2   3
ATOM      3  C   UNL     1       2.382  23.055  45.944  1.00  0.00     0.000 C 
BRANCH   3   4
ATOM      4  C   UNL     1       2.986  22.673  44.588  1.00  0.00     0.006 C 
BRANCH   4   5
ATOM      5  C   UNL     1       2.004  21.834  43.764  1.00  0.00     0.053 C 
BRANCH   5   6
ATOM      6  C   UNL     1       2.342  21.909  42.309  1.00  0.00     0.041 C 
ATOM      7  O   UNL     1       2.005  20.979  41.532  1.00  0.00    -0.550 OA
ATOM      8  O   UNL     1       2.985  23.031  41.803  1.00  0.00    -0.550 OA
ENDBRANCH   5   6
ENDBRANCH   4   5
ENDBRANCH   3   4
ENDBRANCH   2   3
ENDBRANCH   1   2
BRANCH   1   9
ATOM      9  C   UNL     1       1.779  24.358  48.265  1.00  0.00     0.000 C 
BRANCH   9  10
ATOM     10  C   UNL     1       1.331  24.964  49.605  1.00  0.00    -0.000 C 
BRANCH  10  11
ATOM     11  C   UNL     1       1.087  23.896  50.687  1.00  0.00    -0.000 C 
BRANCH  11  12
ATOM     12  C   UNL     1       2.376  23.499  51.425  1.00  0.00    -0.000 C 
BRANCH  12  13
ATOM     13  C   UNL     1       2.930  22.145  50.957  1.00  0.00    -0.003 C 
ATOM     14  C   UNL     1       3.122  21.193  52.134  1.00  0.00     0.004 C 
ENDBRANCH  12  13
ENDBRANCH  11  12
ENDBRANCH  10  11
ENDBRANCH   9  10
ENDBRANCH   1   9
TORSDOF 10
ENDMDL
MODEL 4
REMARK VINA RESULT:    -4.631      1.089      1.301
REMARK INTER + INTRA:          -7.867
REMARK INTER:                  -7.420
REMARK INTRA:                  -0.446
REMARK UNBOUND:                -0.529
REMARK SMILES CCCCCCCCCCCC(=O)[O-]
REMARK SMILES IDX 7 1 8 2 9 3 10 4 11 5 12 6 13 7 14 8 6 9 5 10 4 11 3 12 2 13
REMARK SMILES IDX 1 14
REMARK H PARENT
REMARK Flexibility Score: inf
ROOT
ATOM      1  C   UNL     1       1.984  24.473  48.771  1.00  0.00     0.000 C 
ENDROOT
BRANCH   1   2
ATOM      2  C   UNL     1       1.161  24.533  50.069  1.00  0.00     0.000 C 
BRANCH   2   3
ATOM      3  C   UNL     1       1.745  23.652  51.184  1.00  0.00     0.000 C 
BRANCH   3   4
ATOM      4  C   UNL     1       2.659  22.567  50.602  1.00  0.00     0.006 C 
BRANCH   4   5
ATOM      5  C   UNL     1       3.954  22.445  51.411  1.00  0.00     0.053 C 
BRANCH   5   6
ATOM      6  C   UNL     1       3.786  21.459  52.523  1.00  0.00     0.041 C 
ATOM      7  O   UNL     1       3.379  20.293  52.280  1.00  0.00    -0.550 OA
ATOM      8  O   UNL     1       4.127  21.812  53.822  1.00  0.00    -0.550 OA
ENDBRANCH   5   6
ENDBRANCH   4   5
ENDBRANCH   3   4
ENDBRANCH   2   3
ENDBRANCH   1   2
BRANCH   1   9
ATOM      9  C   UNL     1       1.101  24.491  47.512  1.00  0.00     0.000 C 
BRANCH   9  10
ATOM     10  C   UNL     1       1.897  24.826  46.239  1.00  0.00    -0.000 C 
BRANCH  10  11
ATOM     11  C   UNL     1       1.589  23.864  45.077  1.00  0.00    -0.000 C 
BRANCH  11  12
ATOM     12  C   UNL     1       2.607  22.717  44.976  1.00  0.00    -0.000 C 
BRANCH  12  13
ATOM     13  C   UNL     1       2.720  22.152  43.552  1.00  0.00    -0.003 C 
ATOM     14  C   UNL     1       1.493  21.319  43.193  1.00  0.00     0.004 C 
ENDBRANCH  12  13
ENDBRANCH  11  12
ENDBRANCH  10  11
ENDBRANCH   9  10
ENDBRANCH   1   9
TORSDOF 10
ENDMDL
MODEL 5
REMARK VINA RESULT:    -4.572      2.551      4.430
REMARK INTER + INTRA:          -7.774
REMARK INTER:                  -6.542
REMARK INTRA:                  -1.232
REMARK UNBOUND:                -0.529
REMARK SMILES CCCCCCCCCCCC(=O)[O-]
REMARK SMILES IDX 7 1 8 2 9 3 10 4 11 5 12 6 13 7 14 8 6 9 5 10 4 11 3 12 2 13
REMARK SMILES IDX 1 14
REMARK H PARENT
REMARK Flexibility Score: inf
ROOT
ATOM      1  C   UNL     1       2.425  22.309  44.529  1.00  0.00     0.000 C 
ENDROOT
BRANCH   1   2
ATOM      2  C   UNL     1       2.314  23.100  45.843  1.00  0.00     0.000 C 
BRANCH   2   3
ATOM      3  C   UNL     1       1.271  24.225  45.772  1.00  0.00     0.000 C 
BRANCH   3   4
ATOM      4  C   UNL     1       0.775  24.601  47.174  1.00  0.00     0.006 C 
BRANCH   4   5
ATOM      5  C   UNL     1       1.946  24.950  48.097  1.00  0.00     0.053 C 
BRANCH   5   6
ATOM      6  C   UNL     1       1.867  24.162  49.365  1.00  0.00     0.041 C 
ATOM      7  O   UNL     1       1.068  24.504  50.276  1.00  0.00    -0.550 OA
ATOM      8  O   UNL     1       2.641  23.019  49.522  1.00  0.00    -0.550 OA
ENDBRANCH   5   6
ENDBRANCH   4   5
ENDBRANCH   3   4
ENDBRANCH   2   3
ENDBRANCH   1   2
BRANCH   1   9
ATOM      9  C   UNL     1       3.710  22.637  43.750  1.00  0.00     0.000 C 
BRANCH   9  10
ATOM     10  C   UNL     1       3.498  23.740  42.701  1.00  0.00    -0.000 C 
BRANCH  10  11
ATOM     11  C   UNL     1       4.113  25.087  43.123  1.00  0.00    -0.000 C 
BRANCH  11  12
ATOM     12  C   UNL     1       3.112  26.249  43.027  1.00  0.00    -0.000 C 
BRANCH  12  13
ATOM     13  C   UNL     1       2.957  27.006  44.354  1.00  0.00    -0.003 C 
ATOM     14  C   UNL     1       4.102  26.681  45.309  1.00  0.00     0.004 C 
ENDBRANCH  12  13
ENDBRANCH  11  12
ENDBRANCH  10  11
ENDBRANCH   9  10
ENDBRANCH   1   9
TORSDOF 10
ENDMDL
MODEL 6
REMARK VINA RESULT:    -4.566      3.956      6.922
REMARK INTER + INTRA:          -7.765
REMARK INTER:                  -7.120
REMARK INTRA:                  -0.645
REMARK UNBOUND:                -0.529
REMARK SMILES CCCCCCCCCCCC(=O)[O-]
REMARK SMILES IDX 7 1 8 2 9 3 10 4 11 5 12 6 13 7 14 8 6 9 5 10 4 11 3 12 2 13
REMARK SMILES IDX 1 14
REMARK H PARENT
REMARK Flexibility Score: inf
ROOT
ATOM      1  C   UNL     1       1.975  24.358  48.853  1.00  0.00     0.000 C 
ENDROOT
BRANCH   1   2
ATOM      2  C   UNL     1       1.101  24.629  47.618  1.00  0.00     0.000 C 
BRANCH   2   3
ATOM      3  C   UNL     1       1.910  24.654  46.312  1.00  0.00     0.000 C 
BRANCH   3   4
ATOM      4  C   UNL     1       1.483  23.512  45.382  1.00  0.00     0.006 C 
BRANCH   4   5
ATOM      5  C   UNL     1       2.654  22.568  45.095  1.00  0.00     0.053 C 
BRANCH   5   6
ATOM      6  C   UNL     1       3.109  22.711  43.678  1.00  0.00     0.041 C 
ATOM      7  O   UNL     1       2.679  21.928  42.792  1.00  0.00    -0.550 OA
ATOM      8  O   UNL     1       3.972  23.742  43.326  1.00  0.00    -0.550 OA
ENDBRANCH   5   6
ENDBRANCH   4   5
ENDBRANCH   3   4
ENDBRANCH   2   3
ENDBRANCH   1   2
BRANCH   1   9
ATOM      9  C   UNL     1       1.208  24.550  50.173  1.00  0.00     0.000 C 
BRANCH   9  10
ATOM     10  C   UNL     1       1.393  23.368  51.139  1.00  0.00    -0.000 C 
BRANCH  10  11
ATOM     11  C   UNL     1       2.337  22.287  50.581  1.00  0.00    -0.000 C 
BRANCH  11  12
ATOM     12  C   UNL     1       3.081  21.525  51.688  1.00  0.00    -0.000 C 
BRANCH  12  13
ATOM     13  C   UNL     1       4.320  22.279  52.194  1.00  0.00    -0.003 C 
ATOM     14  C   UNL     1       5.118  22.866  51.034  1.00  0.00     0.004 C 
ENDBRANCH  12  13
ENDBRANCH  11  12
ENDBRANCH  10  11
ENDBRANCH   9  10
ENDBRANCH   1   9
TORSDOF 10
ENDMDL
MODEL 7
REMARK VINA RESULT:    -4.411      4.093      6.990
REMARK INTER + INTRA:          -7.518
REMARK INTER:                  -7.045
REMARK INTRA:                  -0.473
REMARK UNBOUND:                -0.529
REMARK SMILES CCCCCCCCCCCC(=O)[O-]
REMARK SMILES IDX 7 1 8 2 9 3 10 4 11 5 12 6 13 7 14 8 6 9 5 10 4 11 3 12 2 13
REMARK SMILES IDX 1 14
REMARK H PARENT
REMARK Flexibility Score: inf
ROOT
ATOM      1  C   UNL     1       1.698  25.541  47.545  1.00  0.00     0.000 C 
ENDROOT
BRANCH   1   2
ATOM      2  C   UNL     1       0.832  24.487  46.836  1.00  0.00     0.000 C 
BRANCH   2   3
ATOM      3  C   UNL     1       1.383  24.095  45.457  1.00  0.00     0.000 C 
BRANCH   3   4
ATOM      4  C   UNL     1       2.383  22.939  45.575  1.00  0.00     0.006 C 
BRANCH   4   5
ATOM      5  C   UNL     1       2.304  22.015  44.356  1.00  0.00     0.053 C 
BRANCH   5   6
ATOM      6  C   UNL     1       2.998  22.633  43.184  1.00  0.00     0.041 C 
ATOM      7  O   UNL     1       3.955  23.431  43.363  1.00  0.00    -0.550 OA
ATOM      8  O   UNL     1       2.621  22.289  41.893  1.00  0.00    -0.550 OA
ENDBRANCH   5   6
ENDBRANCH   4   5
ENDBRANCH   3   4
ENDBRANCH   2   3
ENDBRANCH   1   2
BRANCH   1   9
ATOM      9  C   UNL     1       1.516  25.524  49.073  1.00  0.00     0.000 C 
BRANCH   9  10
ATOM     10  C   UNL     1       1.693  24.119  49.672  1.00  0.00    -0.000 C 
BRANCH  10  11
ATOM     11  C   UNL     1       3.077  23.918  50.315  1.00  0.00    -0.000 C 
BRANCH  11  12
ATOM     12  C   UNL     1       3.127  22.688  51.234  1.00  0.00    -0.000 C 
BRANCH  12  13
ATOM     13  C   UNL     1       4.547  22.377  51.728  1.00  0.00    -0.003 C 
ATOM     14  C   UNL     1       5.590  23.147  50.923  1.00  0.00     0.004 C 
ENDBRANCH  12  13
ENDBRANCH  11  12
ENDBRANCH  10  11
ENDBRANCH   9  10
ENDBRANCH   1   9
TORSDOF 10
ENDMDL
MODEL 8
REMARK VINA RESULT:    -4.299      4.589      8.557
REMARK INTER + INTRA:          -7.342
REMARK INTER:                  -6.445
REMARK INTRA:                  -0.896
REMARK UNBOUND:                -0.529
REMARK SMILES CCCCCCCCCCCC(=O)[O-]
REMARK SMILES IDX 7 1 8 2 9 3 10 4 11 5 12 6 13 7 14 8 6 9 5 10 4 11 3 12 2 13
REMARK SMILES IDX 1 14
REMARK H PARENT
REMARK Flexibility Score: inf
ROOT
ATOM      1  C   UNL     1      -0.003  25.558  53.910  1.00  0.00     0.000 C 
ENDROOT
BRANCH   1   2
ATOM      2  C   UNL     1       0.353  24.108  53.539  1.00  0.00     0.000 C 
BRANCH   2   3
ATOM      3  C   UNL     1       0.420  23.883  52.021  1.00  0.00     0.000 C 
BRANCH   3   4
ATOM      4  C   UNL     1       0.952  22.482  51.698  1.00  0.00     0.006 C 
BRANCH   4   5
ATOM      5  C   UNL     1       2.253  22.558  50.893  1.00  0.00     0.053 C 
BRANCH   5   6
ATOM      6  C   UNL     1       3.360  21.862  51.617  1.00  0.00     0.041 C 
ATOM      7  O   UNL     1       4.539  22.297  51.541  1.00  0.00    -0.550 OA
ATOM      8  O   UNL     1       3.083  20.761  52.417  1.00  0.00    -0.550 OA
ENDBRANCH   5   6
ENDBRANCH   4   5
ENDBRANCH   3   4
ENDBRANCH   2   3
ENDBRANCH   1   2
BRANCH   1   9
ATOM      9  C   UNL     1      -1.217  25.645  54.851  1.00  0.00     0.000 C 
BRANCH   9  10
ATOM     10  C   UNL     1      -2.017  24.333  54.903  1.00  0.00    -0.000 C 
BRANCH  10  11
ATOM     11  C   UNL     1      -2.171  23.789  56.336  1.00  0.00    -0.000 C 
BRANCH  11  12
ATOM     12  C   UNL     1      -1.086  24.317  57.287  1.00  0.00    -0.000 C 
BRANCH  12  13
ATOM     13  C   UNL     1      -0.226  23.194  57.884  1.00  0.00    -0.003 C 
ATOM     14  C   UNL     1       0.611  22.511  56.806  1.00  0.00     0.004 C 
ENDBRANCH  12  13
ENDBRANCH  11  12
ENDBRANCH  10  11
ENDBRANCH   9  10
ENDBRANCH   1   9
TORSDOF 10
ENDMDL
MODEL 9
REMARK VINA RESULT:    -4.255      3.980      5.825
REMARK INTER + INTRA:          -7.272
REMARK INTER:                  -6.418
REMARK INTRA:                  -0.853
REMARK UNBOUND:                -0.529
REMARK SMILES CCCCCCCCCCCC(=O)[O-]
REMARK SMILES IDX 7 1 8 2 9 3 10 4 11 5 12 6 13 7 14 8 6 9 5 10 4 11 3 12 2 13
REMARK SMILES IDX 1 14
REMARK H PARENT
REMARK Flexibility Score: inf
ROOT
ATOM      1  C   UNL     1       3.794  23.378  43.083  1.00  0.00     0.000 C 
ENDROOT
BRANCH   1   2
ATOM      2  C   UNL     1       2.666  22.371  43.362  1.00  0.00     0.000 C 
BRANCH   2   3
ATOM      3  C   UNL     1       2.297  22.290  44.851  1.00  0.00     0.000 C 
BRANCH   3   4
ATOM      4  C   UNL     1       2.443  23.658  45.526  1.00  0.00     0.006 C 
BRANCH   4   5
ATOM      5  C   UNL     1       1.090  24.172  46.029  1.00  0.00     0.053 C 
BRANCH   5   6
ATOM      6  C   UNL     1       1.207  24.669  47.434  1.00  0.00     0.041 C 
ATOM      7  O   UNL     1       0.625  25.730  47.782  1.00  0.00    -0.550 OA
ATOM      8  O   UNL     1       1.919  23.935  48.374  1.00  0.00    -0.550 OA
ENDBRANCH   5   6
ENDBRANCH   4   5
ENDBRANCH   3   4
ENDBRANCH   2   3
ENDBRANCH   1   2
BRANCH   1   9
ATOM      9  C   UNL     1       3.462  24.329  41.921  1.00  0.00     0.000 C 
BRANCH   9  10
ATOM     10  C   UNL     1       3.497  25.808  42.341  1.00  0.00    -0.000 C 
BRANCH  10  11
ATOM     11  C   UNL     1       4.263  26.032  43.658  1.00  0.00    -0.000 C 
BRANCH  11  12
ATOM     12  C   UNL     1       5.423  27.028  43.503  1.00  0.00    -0.000 C 
BRANCH  12  13
ATOM     13  C   UNL     1       6.302  26.725  42.280  1.00  0.00    -0.003 C 
ATOM     14  C   UNL     1       7.780  26.695  42.659  1.00  0.00     0.004 C 
ENDBRANCH  12  13
ENDBRANCH  11  12
ENDBRANCH  10  11
ENDBRANCH   9  10
ENDBRANCH   1   9
TORSDOF 10
ENDMDL
