MODEL 1
REMARK VINA RESULT:    -4.826      0.000      0.000
REMARK INTER + INTRA:         -11.444
REMARK INTER:                  -9.339
REMARK INTRA:                  -2.105
REMARK UNBOUND:                -2.105
REMARK SMILES CCCCCCCCCCCCCCCCCC(=O)[O-]
REMARK SMILES IDX 10 1 11 2 12 3 13 4 14 5 15 6 16 7 17 8 18 9 19 10 20 11
REMARK SMILES IDX 9 12 8 13 7 14 6 15 5 16 4 17 3 18 2 19 1 20
REMARK H PARENT
REMARK Flexibility Score: inf
ROOT
ATOM      1  C   UNL     1     -11.014 -38.058  44.382  1.00  0.00     0.000 C 
ENDROOT
BRANCH   1   2
ATOM      2  C   UNL     1     -10.048 -36.870  44.513  1.00  0.00     0.000 C 
BRANCH   2   3
ATOM      3  C   UNL     1     -10.759 -35.645  45.103  1.00  0.00     0.000 C 
BRANCH   3   4
ATOM      4  C   UNL     1      -9.790 -34.499  45.448  1.00  0.00     0.000 C 
BRANCH   4   5
ATOM      5  C   UNL     1      -9.614 -33.433  44.347  1.00  0.00     0.000 C 
BRANCH   5   6
ATOM      6  C   UNL     1     -10.567 -33.570  43.146  1.00  0.00     0.000 C 
BRANCH   6   7
ATOM      7  C   UNL     1      -9.880 -34.157  41.902  1.00  0.00     0.006 C 
BRANCH   7   8
ATOM      8  C   UNL     1      -9.425 -33.065  40.925  1.00  0.00     0.053 C 
BRANCH   8   9
ATOM      9  C   UNL     1      -8.030 -32.603  41.218  1.00  0.00     0.041 C 
ATOM     10  O   UNL     1      -7.829 -31.451  41.685  1.00  0.00    -0.550 OA
ATOM     11  O   UNL     1      -6.950 -33.433  40.946  1.00  0.00    -0.550 OA
ENDBRANCH   8   9
ENDBRANCH   7   8
ENDBRANCH   6   7
ENDBRANCH   5   6
ENDBRANCH   4   5
ENDBRANCH   3   4
ENDBRANCH   2   3
ENDBRANCH   1   2
BRANCH   1  12
ATOM     12  C   UNL     1     -10.277 -39.413  44.392  1.00  0.00     0.000 C 
BRANCH  12  13
ATOM     13  C   UNL     1      -8.767 -39.292  44.677  1.00  0.00    -0.000 C 
BRANCH  13  14
ATOM     14  C   UNL     1      -8.320 -39.841  46.044  1.00  0.00    -0.000 C 
BRANCH  14  15
ATOM     15  C   UNL     1      -8.844 -39.052  47.259  1.00  0.00    -0.000 C 
BRANCH  15  16
ATOM     16  C   UNL     1      -9.456 -39.946  48.360  1.00  0.00    -0.000 C 
BRANCH  16  17
ATOM     17  C   UNL     1     -10.797 -39.397  48.876  1.00  0.00    -0.000 C 
BRANCH  17  18
ATOM     18  C   UNL     1     -11.835 -39.229  47.754  1.00  0.00    -0.000 C 
BRANCH  18  19
ATOM     19  C   UNL     1     -12.443 -37.819  47.726  1.00  0.00    -0.003 C 
ATOM     20  C   UNL     1     -11.584 -36.835  48.514  1.00  0.00     0.004 C 
ENDBRANCH  18  19
ENDBRANCH  17  18
ENDBRANCH  16  17
ENDBRANCH  15  16
ENDBRANCH  14  15
ENDBRANCH  13  14
ENDBRANCH  12  13
ENDBRANCH   1  12
TORSDOF 16
ENDMDL
MODEL 2
REMARK VINA RESULT:    -4.803      1.460      3.512
REMARK INTER + INTRA:         -11.400
REMARK INTER:                  -8.996
REMARK INTRA:                  -2.404
REMARK UNBOUND:                -2.105
REMARK SMILES CCCCCCCCCCCCCCCCCC(=O)[O-]
REMARK SMILES IDX 10 1 11 2 12 3 13 4 14 5 15 6 16 7 17 8 18 9 19 10 20 11
REMARK SMILES IDX 9 12 8 13 7 14 6 15 5 16 4 17 3 18 2 19 1 20
REMARK H PARENT
REMARK Flexibility Score: inf
ROOT
ATOM      1  C   UNL     1      -8.554 -38.325  46.837  1.00  0.00     0.000 C 
ENDROOT
BRANCH   1   2
ATOM      2  C   UNL     1      -8.412 -39.350  45.701  1.00  0.00     0.000 C 
BRANCH   2   3
ATOM      3  C   UNL     1      -8.955 -38.787  44.382  1.00  0.00     0.000 C 
BRANCH   3   4
ATOM      4  C   UNL     1      -8.969 -37.247  44.348  1.00  0.00     0.000 C 
BRANCH   4   5
ATOM      5  C   UNL     1     -10.353 -36.607  44.109  1.00  0.00     0.000 C 
BRANCH   5   6
ATOM      6  C   UNL     1     -10.630 -35.329  44.922  1.00  0.00     0.000 C 
BRANCH   6   7
ATOM      7  C   UNL     1     -10.321 -34.044  44.137  1.00  0.00     0.006 C 
BRANCH   7   8
ATOM      8  C   UNL     1     -10.329 -34.278  42.620  1.00  0.00     0.053 C 
BRANCH   8   9
ATOM      9  C   UNL     1      -9.215 -33.544  41.939  1.00  0.00     0.041 C 
ATOM     10  O   UNL     1      -9.303 -33.250  40.718  1.00  0.00    -0.550 OA
ATOM     11  O   UNL     1      -8.066 -33.211  42.646  1.00  0.00    -0.550 OA
ENDBRANCH   8   9
ENDBRANCH   7   8
ENDBRANCH   6   7
ENDBRANCH   5   6
ENDBRANCH   4   5
ENDBRANCH   3   4
ENDBRANCH   2   3
ENDBRANCH   1   2
BRANCH   1  12
ATOM     12  C   UNL     1      -8.352 -38.963  48.227  1.00  0.00     0.000 C 
BRANCH  12  13
ATOM     13  C   UNL     1      -9.241 -40.197  48.475  1.00  0.00    -0.000 C 
BRANCH  13  14
ATOM     14  C   UNL     1     -10.737 -39.890  48.667  1.00  0.00    -0.000 C 
BRANCH  14  15
ATOM     15  C   UNL     1     -11.615 -40.150  47.428  1.00  0.00    -0.000 C 
BRANCH  15  16
ATOM     16  C   UNL     1     -12.221 -38.868  46.819  1.00  0.00    -0.000 C 
BRANCH  16  17
ATOM     17  C   UNL     1     -12.767 -39.099  45.400  1.00  0.00    -0.000 C 
BRANCH  17  18
ATOM     18  C   UNL     1     -12.455 -40.510  44.873  1.00  0.00    -0.000 C 
BRANCH  18  19
ATOM     19  C   UNL     1     -11.999 -40.499  43.407  1.00  0.00    -0.003 C 
ATOM     20  C   UNL     1     -12.569 -39.295  42.664  1.00  0.00     0.004 C 
ENDBRANCH  18  19
ENDBRANCH  17  18
ENDBRANCH  16  17
ENDBRANCH  15  16
ENDBRANCH  14  15
ENDBRANCH  13  14
ENDBRANCH  12  13
ENDBRANCH   1  12
TORSDOF 16
ENDMDL
MODEL 3
REMARK VINA RESULT:    -4.760      1.387      2.453
REMARK INTER + INTRA:         -11.318
REMARK INTER:                  -9.397
REMARK INTRA:                  -1.921
REMARK UNBOUND:                -2.105
REMARK SMILES CCCCCCCCCCCCCCCCCC(=O)[O-]
REMARK SMILES IDX 10 1 11 2 12 3 13 4 14 5 15 6 16 7 17 8 18 9 19 10 20 11
REMARK SMILES IDX 9 12 8 13 7 14 6 15 5 16 4 17 3 18 2 19 1 20
REMARK H PARENT
REMARK Flexibility Score: inf
ROOT
ATOM      1  C   UNL     1      -9.008 -39.429  44.916  1.00  0.00     0.000 C 
ENDROOT
BRANCH   1   2
ATOM      2  C   UNL     1      -8.825 -37.907  44.819  1.00  0.00     0.000 C 
BRANCH   2   3
ATOM      3  C   UNL     1     -10.180 -37.197  44.702  1.00  0.00     0.000 C 
BRANCH   3   4
ATOM      4  C   UNL     1     -10.211 -35.841  45.430  1.00  0.00     0.000 C 
BRANCH   4   5
ATOM      5  C   UNL     1     -10.059 -34.603  44.522  1.00  0.00     0.000 C 
BRANCH   5   6
ATOM      6  C   UNL     1     -10.173 -34.883  43.013  1.00  0.00     0.000 C 
BRANCH   6   7
ATOM      7  C   UNL     1     -10.227 -33.598  42.170  1.00  0.00     0.006 C 
BRANCH   7   8
ATOM      8  C   UNL     1      -8.962 -33.410  41.321  1.00  0.00     0.053 C 
BRANCH   8   9
ATOM      9  C   UNL     1      -8.072 -32.343  41.880  1.00  0.00     0.041 C 
ATOM     10  O   UNL     1      -7.489 -32.516  42.983  1.00  0.00    -0.550 OA
ATOM     11  O   UNL     1      -7.912 -31.143  41.198  1.00  0.00    -0.550 OA
ENDBRANCH   8   9
ENDBRANCH   7   8
ENDBRANCH   6   7
ENDBRANCH   5   6
ENDBRANCH   4   5
ENDBRANCH   3   4
ENDBRANCH   2   3
ENDBRANCH   1   2
BRANCH   1  12
ATOM     12  C   UNL     1      -9.232 -40.079  43.535  1.00  0.00     0.000 C 
BRANCH  12  13
ATOM     13  C   UNL     1     -10.678 -40.560  43.307  1.00  0.00    -0.000 C 
BRANCH  13  14
ATOM     14  C   UNL     1     -11.193 -41.578  44.341  1.00  0.00    -0.000 C 
BRANCH  14  15
ATOM     15  C   UNL     1     -12.556 -41.231  44.967  1.00  0.00    -0.000 C 
BRANCH  15  16
ATOM     16  C   UNL     1     -12.472 -40.847  46.460  1.00  0.00    -0.000 C 
BRANCH  16  17
ATOM     17  C   UNL     1     -12.415 -39.324  46.667  1.00  0.00    -0.000 C 
BRANCH  17  18
ATOM     18  C   UNL     1     -11.494 -38.922  47.830  1.00  0.00    -0.000 C 
BRANCH  18  19
ATOM     19  C   UNL     1     -10.495 -40.029  48.195  1.00  0.00    -0.003 C 
ATOM     20  C   UNL     1     -10.595 -40.393  49.672  1.00  0.00     0.004 C 
ENDBRANCH  18  19
ENDBRANCH  17  18
ENDBRANCH  16  17
ENDBRANCH  15  16
ENDBRANCH  14  15
ENDBRANCH  13  14
ENDBRANCH  12  13
ENDBRANCH   1  12
TORSDOF 16
ENDMDL
MODEL 4
REMARK VINA RESULT:    -4.727      2.060      3.614
REMARK INTER + INTRA:         -11.253
REMARK INTER:                  -8.826
REMARK INTRA:                  -2.428
REMARK UNBOUND:                -2.105
REMARK SMILES CCCCCCCCCCCCCCCCCC(=O)[O-]
REMARK SMILES IDX 10 1 11 2 12 3 13 4 14 5 15 6 16 7 17 8 18 9 19 10 20 11
REMARK SMILES IDX 9 12 8 13 7 14 6 15 5 16 4 17 3 18 2 19 1 20
REMARK H PARENT
REMARK Flexibility Score: inf
ROOT
ATOM      1  C   UNL     1      -8.768 -40.122  43.545  1.00  0.00     0.000 C 
ENDROOT
BRANCH   1   2
ATOM      2  C   UNL     1      -9.053 -39.493  44.918  1.00  0.00     0.000 C 
BRANCH   2   3
ATOM      3  C   UNL     1      -8.915 -37.966  44.860  1.00  0.00     0.000 C 
BRANCH   3   4
ATOM      4  C   UNL     1      -9.679 -37.253  45.992  1.00  0.00     0.000 C 
BRANCH   4   5
ATOM      5  C   UNL     1     -10.607 -36.107  45.539  1.00  0.00     0.000 C 
BRANCH   5   6
ATOM      6  C   UNL     1      -9.925 -35.001  44.713  1.00  0.00     0.000 C 
BRANCH   6   7
ATOM      7  C   UNL     1     -10.265 -35.079  43.215  1.00  0.00     0.006 C 
BRANCH   7   8
ATOM      8  C   UNL     1     -10.327 -33.690  42.565  1.00  0.00     0.053 C 
BRANCH   8   9
ATOM      9  C   UNL     1      -9.371 -33.570  41.418  1.00  0.00     0.041 C 
ATOM     10  O   UNL     1      -9.788 -33.237  40.277  1.00  0.00    -0.550 OA
ATOM     11  O   UNL     1      -8.024 -33.858  41.602  1.00  0.00    -0.550 OA
ENDBRANCH   8   9
ENDBRANCH   7   8
ENDBRANCH   6   7
ENDBRANCH   5   6
ENDBRANCH   4   5
ENDBRANCH   3   4
ENDBRANCH   2   3
ENDBRANCH   1   2
BRANCH   1  12
ATOM     12  C   UNL     1      -9.670 -41.342  43.265  1.00  0.00     0.000 C 
BRANCH  12  13
ATOM     13  C   UNL     1     -10.549 -41.185  42.009  1.00  0.00    -0.000 C 
BRANCH  13  14
ATOM     14  C   UNL     1     -12.061 -41.096  42.283  1.00  0.00    -0.000 C 
BRANCH  14  15
ATOM     15  C   UNL     1     -12.641 -39.669  42.252  1.00  0.00    -0.000 C 
BRANCH  15  16
ATOM     16  C   UNL     1     -12.496 -38.914  43.591  1.00  0.00    -0.000 C 
BRANCH  16  17
ATOM     17  C   UNL     1     -13.217 -39.633  44.745  1.00  0.00    -0.000 C 
BRANCH  17  18
ATOM     18  C   UNL     1     -12.511 -39.432  46.095  1.00  0.00    -0.000 C 
BRANCH  18  19
ATOM     19  C   UNL     1     -12.079 -40.760  46.733  1.00  0.00    -0.003 C 
ATOM     20  C   UNL     1     -12.401 -41.938  45.819  1.00  0.00     0.004 C 
ENDBRANCH  18  19
ENDBRANCH  17  18
ENDBRANCH  16  17
ENDBRANCH  15  16
ENDBRANCH  14  15
ENDBRANCH  13  14
ENDBRANCH  12  13
ENDBRANCH   1  12
TORSDOF 16
ENDMDL
MODEL 5
REMARK VINA RESULT:    -4.721      3.517      5.952
REMARK INTER + INTRA:         -11.243
REMARK INTER:                  -8.538
REMARK INTRA:                  -2.705
REMARK UNBOUND:                -2.105
REMARK SMILES CCCCCCCCCCCCCCCCCC(=O)[O-]
REMARK SMILES IDX 10 1 11 2 12 3 13 4 14 5 15 6 16 7 17 8 18 9 19 10 20 11
REMARK SMILES IDX 9 12 8 13 7 14 6 15 5 16 4 17 3 18 2 19 1 20
REMARK H PARENT
REMARK Flexibility Score: inf
ROOT
ATOM      1  C   UNL     1     -11.743 -38.779  48.297  1.00  0.00     0.000 C 
ENDROOT
BRANCH   1   2
ATOM      2  C   UNL     1     -12.577 -38.489  47.040  1.00  0.00     0.000 C 
BRANCH   2   3
ATOM      3  C   UNL     1     -12.469 -39.641  46.032  1.00  0.00     0.000 C 
BRANCH   3   4
ATOM      4  C   UNL     1     -12.762 -39.202  44.586  1.00  0.00     0.000 C 
BRANCH   4   5
ATOM      5  C   UNL     1     -11.712 -39.635  43.541  1.00  0.00     0.000 C 
BRANCH   5   6
ATOM      6  C   UNL     1     -10.651 -40.626  44.054  1.00  0.00     0.000 C 
BRANCH   6   7
ATOM      7  C   UNL     1      -9.656 -41.052  42.962  1.00  0.00     0.006 C 
BRANCH   7   8
ATOM      8  C   UNL     1      -8.215 -40.655  43.309  1.00  0.00     0.053 C 
BRANCH   8   9
ATOM      9  C   UNL     1      -7.231 -41.696  42.871  1.00  0.00     0.041 C 
ATOM     10  O   UNL     1      -6.105 -41.780  43.430  1.00  0.00    -0.550 OA
ATOM     11  O   UNL     1      -7.545 -42.555  41.825  1.00  0.00    -0.550 OA
ENDBRANCH   8   9
ENDBRANCH   7   8
ENDBRANCH   6   7
ENDBRANCH   5   6
ENDBRANCH   4   5
ENDBRANCH   3   4
ENDBRANCH   2   3
ENDBRANCH   1   2
BRANCH   1  12
ATOM     12  C   UNL     1     -11.061 -40.161  48.239  1.00  0.00     0.000 C 
BRANCH  12  13
ATOM     13  C   UNL     1      -9.812 -40.271  49.136  1.00  0.00    -0.000 C 
BRANCH  13  14
ATOM     14  C   UNL     1      -8.470 -40.108  48.401  1.00  0.00    -0.000 C 
BRANCH  14  15
ATOM     15  C   UNL     1      -8.590 -39.692  46.922  1.00  0.00    -0.000 C 
BRANCH  15  16
ATOM     16  C   UNL     1      -8.417 -38.176  46.690  1.00  0.00    -0.000 C 
BRANCH  16  17
ATOM     17  C   UNL     1      -8.965 -37.731  45.323  1.00  0.00    -0.000 C 
BRANCH  17  18
ATOM     18  C   UNL     1      -9.905 -36.519  45.433  1.00  0.00    -0.000 C 
BRANCH  18  19
ATOM     19  C   UNL     1     -10.535 -36.144  44.083  1.00  0.00    -0.003 C 
ATOM     20  C   UNL     1     -10.352 -34.659  43.787  1.00  0.00     0.004 C 
ENDBRANCH  18  19
ENDBRANCH  17  18
ENDBRANCH  16  17
ENDBRANCH  15  16
ENDBRANCH  14  15
ENDBRANCH  13  14
ENDBRANCH  12  13
ENDBRANCH   1  12
TORSDOF 16
ENDMDL
MODEL 6
REMARK VINA RESULT:    -4.690      1.482      2.584
REMARK INTER + INTRA:         -11.182
REMARK INTER:                  -9.213
REMARK INTRA:                  -1.969
REMARK UNBOUND:                -2.105
REMARK SMILES CCCCCCCCCCCCCCCCCC(=O)[O-]
REMARK SMILES IDX 10 1 11 2 12 3 13 4 14 5 15 6 16 7 17 8 18 9 19 10 20 11
REMARK SMILES IDX 9 12 8 13 7 14 6 15 5 16 4 17 3 18 2 19 1 20
REMARK H PARENT
REMARK Flexibility Score: inf
ROOT
ATOM      1  C   UNL     1     -12.242 -39.308  43.098  1.00  0.00     0.000 C 
ENDROOT
BRANCH   1   2
ATOM      2  C   UNL     1     -11.650 -37.965  43.551  1.00  0.00     0.000 C 
BRANCH   2   3
ATOM      3  C   UNL     1     -10.334 -38.173  44.311  1.00  0.00     0.000 C 
BRANCH   3   4
ATOM      4  C   UNL     1      -9.443 -36.917  44.323  1.00  0.00     0.000 C 
BRANCH   4   5
ATOM      5  C   UNL     1     -10.201 -35.574  44.360  1.00  0.00     0.000 C 
BRANCH   5   6
ATOM      6  C   UNL     1      -9.437 -34.376  43.767  1.00  0.00     0.000 C 
BRANCH   6   7
ATOM      7  C   UNL     1     -10.232 -33.641  42.675  1.00  0.00     0.006 C 
BRANCH   7   8
ATOM      8  C   UNL     1      -9.545 -33.728  41.305  1.00  0.00     0.053 C 
BRANCH   8   9
ATOM      9  C   UNL     1      -8.258 -32.961  41.280  1.00  0.00     0.041 C 
ATOM     10  O   UNL     1      -7.163 -33.566  41.137  1.00  0.00    -0.550 OA
ATOM     11  O   UNL     1      -8.266 -31.582  41.446  1.00  0.00    -0.550 OA
ENDBRANCH   8   9
ENDBRANCH   7   8
ENDBRANCH   6   7
ENDBRANCH   5   6
ENDBRANCH   4   5
ENDBRANCH   3   4
ENDBRANCH   2   3
ENDBRANCH   1   2
BRANCH   1  12
ATOM     12  C   UNL     1     -11.480 -40.511  43.692  1.00  0.00     0.000 C 
BRANCH  12  13
ATOM     13  C   UNL     1     -12.403 -41.614  44.245  1.00  0.00    -0.000 C 
BRANCH  13  14
ATOM     14  C   UNL     1     -12.471 -41.691  45.782  1.00  0.00    -0.000 C 
BRANCH  14  15
ATOM     15  C   UNL     1     -11.407 -40.855  46.518  1.00  0.00    -0.000 C 
BRANCH  15  16
ATOM     16  C   UNL     1     -11.983 -39.618  47.241  1.00  0.00    -0.000 C 
BRANCH  16  17
ATOM     17  C   UNL     1     -11.023 -39.070  48.310  1.00  0.00    -0.000 C 
BRANCH  17  18
ATOM     18  C   UNL     1     -10.682 -37.587  48.089  1.00  0.00    -0.000 C 
BRANCH  18  19
ATOM     19  C   UNL     1      -9.189 -37.366  47.806  1.00  0.00    -0.003 C 
ATOM     20  C   UNL     1      -8.422 -38.684  47.849  1.00  0.00     0.004 C 
ENDBRANCH  18  19
ENDBRANCH  17  18
ENDBRANCH  16  17
ENDBRANCH  15  16
ENDBRANCH  14  15
ENDBRANCH  13  14
ENDBRANCH  12  13
ENDBRANCH   1  12
TORSDOF 16
ENDMDL
MODEL 7
REMARK VINA RESULT:    -4.669      4.032      6.659
REMARK INTER + INTRA:         -11.141
REMARK INTER:                  -8.402
REMARK INTRA:                  -2.739
REMARK UNBOUND:                -2.105
REMARK SMILES CCCCCCCCCCCCCCCCCC(=O)[O-]
REMARK SMILES IDX 10 1 11 2 12 3 13 4 14 5 15 6 16 7 17 8 18 9 19 10 20 11
REMARK SMILES IDX 9 12 8 13 7 14 6 15 5 16 4 17 3 18 2 19 1 20
REMARK H PARENT
REMARK Flexibility Score: inf
ROOT
ATOM      1  C   UNL     1     -12.354 -40.349  45.439  1.00  0.00     0.000 C 
ENDROOT
BRANCH   1   2
ATOM      2  C   UNL     1     -11.518 -41.157  44.435  1.00  0.00     0.000 C 
BRANCH   2   3
ATOM      3  C   UNL     1     -11.939 -40.846  42.993  1.00  0.00     0.000 C 
BRANCH   3   4
ATOM      4  C   UNL     1     -10.970 -41.427  41.947  1.00  0.00     0.000 C 
BRANCH   4   5
ATOM      5  C   UNL     1      -9.511 -41.591  42.421  1.00  0.00     0.000 C 
BRANCH   5   6
ATOM      6  C   UNL     1      -8.440 -41.286  41.357  1.00  0.00     0.000 C 
BRANCH   6   7
ATOM      7  C   UNL     1      -7.008 -41.508  41.871  1.00  0.00     0.006 C 
BRANCH   7   8
ATOM      8  C   UNL     1      -6.917 -42.707  42.825  1.00  0.00     0.053 C 
BRANCH   8   9
ATOM      9  C   UNL     1      -5.824 -42.532  43.834  1.00  0.00     0.041 C 
ATOM     10  O   UNL     1      -5.082 -43.503  44.140  1.00  0.00    -0.550 OA
ATOM     11  O   UNL     1      -5.645 -41.305  44.460  1.00  0.00    -0.550 OA
ENDBRANCH   8   9
ENDBRANCH   7   8
ENDBRANCH   6   7
ENDBRANCH   5   6
ENDBRANCH   4   5
ENDBRANCH   3   4
ENDBRANCH   2   3
ENDBRANCH   1   2
BRANCH   1  12
ATOM     12  C   UNL     1     -11.901 -40.582  46.896  1.00  0.00     0.000 C 
BRANCH  12  13
ATOM     13  C   UNL     1     -11.742 -39.281  47.707  1.00  0.00    -0.000 C 
BRANCH  13  14
ATOM     14  C   UNL     1     -10.459 -39.198  48.553  1.00  0.00    -0.000 C 
BRANCH  14  15
ATOM     15  C   UNL     1      -9.231 -39.891  47.933  1.00  0.00    -0.000 C 
BRANCH  15  16
ATOM     16  C   UNL     1      -8.435 -38.989  46.964  1.00  0.00    -0.000 C 
BRANCH  16  17
ATOM     17  C   UNL     1      -8.408 -39.554  45.534  1.00  0.00    -0.000 C 
BRANCH  17  18
ATOM     18  C   UNL     1      -8.856 -38.523  44.485  1.00  0.00    -0.000 C 
BRANCH  18  19
ATOM     19  C   UNL     1      -9.819 -37.478  45.067  1.00  0.00    -0.003 C 
ATOM     20  C   UNL     1     -10.950 -37.171  44.090  1.00  0.00     0.004 C 
ENDBRANCH  18  19
ENDBRANCH  17  18
ENDBRANCH  16  17
ENDBRANCH  15  16
ENDBRANCH  14  15
ENDBRANCH  13  14
ENDBRANCH  12  13
ENDBRANCH   1  12
TORSDOF 16
ENDMDL
MODEL 8
REMARK VINA RESULT:    -4.666      1.837      4.464
REMARK INTER + INTRA:         -11.135
REMARK INTER:                  -9.123
REMARK INTRA:                  -2.011
REMARK UNBOUND:                -2.105
REMARK SMILES CCCCCCCCCCCCCCCCCC(=O)[O-]
REMARK SMILES IDX 10 1 11 2 12 3 13 4 14 5 15 6 16 7 17 8 18 9 19 10 20 11
REMARK SMILES IDX 9 12 8 13 7 14 6 15 5 16 4 17 3 18 2 19 1 20
REMARK H PARENT
REMARK Flexibility Score: inf
ROOT
ATOM      1  C   UNL     1      -9.133 -39.687  47.924  1.00  0.00     0.000 C 
ENDROOT
BRANCH   1   2
ATOM      2  C   UNL     1      -8.764 -38.471  47.060  1.00  0.00     0.000 C 
BRANCH   2   3
ATOM      3  C   UNL     1      -8.632 -38.866  45.584  1.00  0.00     0.000 C 
BRANCH   3   4
ATOM      4  C   UNL     1      -8.897 -37.692  44.623  1.00  0.00     0.000 C 
BRANCH   4   5
ATOM      5  C   UNL     1     -10.326 -37.113  44.670  1.00  0.00     0.000 C 
BRANCH   5   6
ATOM      6  C   UNL     1     -10.414 -35.580  44.568  1.00  0.00     0.000 C 
BRANCH   6   7
ATOM      7  C   UNL     1     -10.201 -35.063  43.136  1.00  0.00     0.006 C 
BRANCH   7   8
ATOM      8  C   UNL     1      -8.962 -34.164  43.025  1.00  0.00     0.053 C 
BRANCH   8   9
ATOM      9  C   UNL     1      -8.758 -33.671  41.625  1.00  0.00     0.041 C 
ATOM     10  O   UNL     1      -9.733 -33.594  40.831  1.00  0.00    -0.550 OA
ATOM     11  O   UNL     1      -7.486 -33.325  41.188  1.00  0.00    -0.550 OA
ENDBRANCH   8   9
ENDBRANCH   7   8
ENDBRANCH   6   7
ENDBRANCH   5   6
ENDBRANCH   4   5
ENDBRANCH   3   4
ENDBRANCH   2   3
ENDBRANCH   1   2
BRANCH   1  12
ATOM     12  C   UNL     1     -10.514 -39.529  48.593  1.00  0.00     0.000 C 
BRANCH  12  13
ATOM     13  C   UNL     1     -11.683 -39.477  47.590  1.00  0.00    -0.000 C 
BRANCH  13  14
ATOM     14  C   UNL     1     -11.790 -40.696  46.656  1.00  0.00    -0.000 C 
BRANCH  14  15
ATOM     15  C   UNL     1     -12.039 -40.356  45.175  1.00  0.00    -0.000 C 
BRANCH  15  16
ATOM     16  C   UNL     1     -11.456 -41.396  44.195  1.00  0.00    -0.000 C 
BRANCH  16  17
ATOM     17  C   UNL     1     -10.655 -40.739  43.058  1.00  0.00    -0.000 C 
BRANCH  17  18
ATOM     18  C   UNL     1      -9.443 -41.582  42.628  1.00  0.00    -0.000 C 
BRANCH  18  19
ATOM     19  C   UNL     1      -8.152 -40.755  42.553  1.00  0.00    -0.003 C 
ATOM     20  C   UNL     1      -7.112 -41.439  41.671  1.00  0.00     0.004 C 
ENDBRANCH  18  19
ENDBRANCH  17  18
ENDBRANCH  16  17
ENDBRANCH  15  16
ENDBRANCH  14  15
ENDBRANCH  13  14
ENDBRANCH  12  13
ENDBRANCH   1  12
TORSDOF 16
ENDMDL
MODEL 9
REMARK VINA RESULT:    -4.659      1.413      3.281
REMARK INTER + INTRA:         -11.122
REMARK INTER:                  -9.030
REMARK INTRA:                  -2.092
REMARK UNBOUND:                -2.105
REMARK SMILES CCCCCCCCCCCCCCCCCC(=O)[O-]
REMARK SMILES IDX 10 1 11 2 12 3 13 4 14 5 15 6 16 7 17 8 18 9 19 10 20 11
REMARK SMILES IDX 9 12 8 13 7 14 6 15 5 16 4 17 3 18 2 19 1 20
REMARK H PARENT
REMARK Flexibility Score: inf
ROOT
ATOM      1  C   UNL     1     -11.789 -37.172  48.554  1.00  0.00     0.000 C 
ENDROOT
BRANCH   1   2
ATOM      2  C   UNL     1     -11.446 -36.486  47.222  1.00  0.00     0.000 C 
BRANCH   2   3
ATOM      3  C   UNL     1     -10.192 -35.612  47.362  1.00  0.00     0.000 C 
BRANCH   3   4
ATOM      4  C   UNL     1      -9.814 -34.893  46.054  1.00  0.00     0.000 C 
BRANCH   4   5
ATOM      5  C   UNL     1     -10.633 -35.309  44.814  1.00  0.00     0.000 C 
BRANCH   5   6
ATOM      6  C   UNL     1      -9.945 -35.052  43.461  1.00  0.00     0.000 C 
BRANCH   6   7
ATOM      7  C   UNL     1     -10.347 -33.706  42.834  1.00  0.00     0.006 C 
BRANCH   7   8
ATOM      8  C   UNL     1      -9.855 -33.575  41.386  1.00  0.00     0.053 C 
BRANCH   8   9
ATOM      9  C   UNL     1      -8.547 -32.849  41.308  1.00  0.00     0.041 C 
ATOM     10  O   UNL     1      -8.525 -31.598  41.162  1.00  0.00    -0.550 OA
ATOM     11  O   UNL     1      -7.354 -33.557  41.364  1.00  0.00    -0.550 OA
ENDBRANCH   8   9
ENDBRANCH   7   8
ENDBRANCH   6   7
ENDBRANCH   5   6
ENDBRANCH   4   5
ENDBRANCH   3   4
ENDBRANCH   2   3
ENDBRANCH   1   2
BRANCH   1  12
ATOM     12  C   UNL     1     -11.643 -38.706  48.474  1.00  0.00     0.000 C 
BRANCH  12  13
ATOM     13  C   UNL     1     -10.179 -39.189  48.506  1.00  0.00    -0.000 C 
BRANCH  13  14
ATOM     14  C   UNL     1      -9.704 -39.902  47.227  1.00  0.00    -0.000 C 
BRANCH  14  15
ATOM     15  C   UNL     1      -8.943 -39.005  46.232  1.00  0.00    -0.000 C 
BRANCH  15  16
ATOM     16  C   UNL     1      -9.550 -39.003  44.813  1.00  0.00    -0.000 C 
BRANCH  16  17
ATOM     17  C   UNL     1     -11.074 -39.211  44.832  1.00  0.00    -0.000 C 
BRANCH  17  18
ATOM     18  C   UNL     1     -11.770 -38.574  43.618  1.00  0.00    -0.000 C 
BRANCH  18  19
ATOM     19  C   UNL     1     -12.222 -39.619  42.588  1.00  0.00    -0.003 C 
ATOM     20  C   UNL     1     -13.517 -39.191  41.905  1.00  0.00     0.004 C 
ENDBRANCH  18  19
ENDBRANCH  17  18
ENDBRANCH  16  17
ENDBRANCH  15  16
ENDBRANCH  14  15
ENDBRANCH  13  14
ENDBRANCH  12  13
ENDBRANCH   1  12
TORSDOF 16
ENDMDL
