MODEL 1
REMARK VINA RESULT:    -3.095      0.000      0.000
REMARK INTER + INTRA:          -8.756
REMARK INTER:                  -5.990
REMARK INTRA:                  -2.765
REMARK UNBOUND:                -2.765
REMARK SMILES CCCCCCCCCCCCCCCCCC(=O)[O-]
REMARK SMILES IDX 10 1 11 2 12 3 13 4 14 5 15 6 16 7 17 8 18 9 19 10 20 11
REMARK SMILES IDX 9 12 8 13 7 14 6 15 5 16 4 17 3 18 2 19 1 20
REMARK H PARENT
REMARK Flexibility Score: inf
ROOT
ATOM      1  C   UNL     1      56.746  54.098  49.524  1.00  0.00     0.000 C 
ENDROOT
BRANCH   1   2
ATOM      2  C   UNL     1      55.915  52.804  49.579  1.00  0.00     0.000 C 
BRANCH   2   3
ATOM      3  C   UNL     1      55.461  52.336  48.187  1.00  0.00     0.000 C 
BRANCH   3   4
ATOM      4  C   UNL     1      53.933  52.344  48.025  1.00  0.00     0.000 C 
BRANCH   4   5
ATOM      5  C   UNL     1      53.490  53.462  47.070  1.00  0.00     0.000 C 
BRANCH   5   6
ATOM      6  C   UNL     1      54.653  54.031  46.241  1.00  0.00     0.000 C 
BRANCH   6   7
ATOM      7  C   UNL     1      54.269  55.317  45.488  1.00  0.00     0.006 C 
BRANCH   7   8
ATOM      8  C   UNL     1      53.131  56.077  46.184  1.00  0.00     0.053 C 
BRANCH   8   9
ATOM      9  C   UNL     1      51.997  56.364  45.248  1.00  0.00     0.041 C 
ATOM     10  O   UNL     1      50.857  56.648  45.702  1.00  0.00    -0.550 OA
ATOM     11  O   UNL     1      52.205  56.347  43.875  1.00  0.00    -0.550 OA
ENDBRANCH   8   9
ENDBRANCH   7   8
ENDBRANCH   6   7
ENDBRANCH   5   6
ENDBRANCH   4   5
ENDBRANCH   3   4
ENDBRANCH   2   3
ENDBRANCH   1   2
BRANCH   1  12
ATOM     12  C   UNL     1      55.874  55.362  49.415  1.00  0.00     0.000 C 
BRANCH  12  13
ATOM     13  C   UNL     1      54.834  55.545  50.540  1.00  0.00    -0.000 C 
BRANCH  13  14
ATOM     14  C   UNL     1      53.371  55.651  50.073  1.00  0.00    -0.000 C 
BRANCH  14  15
ATOM     15  C   UNL     1      52.381  55.018  51.065  1.00  0.00    -0.000 C 
BRANCH  15  16
ATOM     16  C   UNL     1      52.972  53.804  51.798  1.00  0.00    -0.000 C 
BRANCH  16  17
ATOM     17  C   UNL     1      52.394  52.467  51.302  1.00  0.00    -0.000 C 
BRANCH  17  18
ATOM     18  C   UNL     1      53.355  51.286  51.560  1.00  0.00    -0.000 C 
BRANCH  18  19
ATOM     19  C   UNL     1      53.007  50.025  50.752  1.00  0.00    -0.003 C 
ATOM     20  C   UNL     1      53.134  48.739  51.566  1.00  0.00     0.004 C 
ENDBRANCH  18  19
ENDBRANCH  17  18
ENDBRANCH  16  17
ENDBRANCH  15  16
ENDBRANCH  14  15
ENDBRANCH  13  14
ENDBRANCH  12  13
ENDBRANCH   1  12
TORSDOF 16
ENDMDL
MODEL 2
REMARK VINA RESULT:    -3.071      2.128      3.990
REMARK INTER + INTRA:          -8.709
REMARK INTER:                  -6.011
REMARK INTRA:                  -2.698
REMARK UNBOUND:                -2.765
REMARK SMILES CCCCCCCCCCCCCCCCCC(=O)[O-]
REMARK SMILES IDX 10 1 11 2 12 3 13 4 14 5 15 6 16 7 17 8 18 9 19 10 20 11
REMARK SMILES IDX 9 12 8 13 7 14 6 15 5 16 4 17 3 18 2 19 1 20
REMARK H PARENT
REMARK Flexibility Score: inf
ROOT
ATOM      1  C   UNL     1      54.920  53.125  48.057  1.00  0.00     0.000 C 
ENDROOT
BRANCH   1   2
ATOM      2  C   UNL     1      55.696  54.100  47.155  1.00  0.00     0.000 C 
BRANCH   2   3
ATOM      3  C   UNL     1      55.075  54.227  45.755  1.00  0.00     0.000 C 
BRANCH   3   4
ATOM      4  C   UNL     1      55.467  55.533  45.046  1.00  0.00     0.000 C 
BRANCH   4   5
ATOM      5  C   UNL     1      54.222  56.365  44.704  1.00  0.00     0.000 C 
BRANCH   5   6
ATOM      6  C   UNL     1      52.929  55.766  45.282  1.00  0.00     0.000 C 
BRANCH   6   7
ATOM      7  C   UNL     1      52.262  56.688  46.317  1.00  0.00     0.006 C 
BRANCH   7   8
ATOM      8  C   UNL     1      53.014  56.697  47.655  1.00  0.00     0.053 C 
BRANCH   8   9
ATOM      9  C   UNL     1      53.003  58.053  48.292  1.00  0.00     0.041 C 
ATOM     10  O   UNL     1      53.949  58.406  49.046  1.00  0.00    -0.550 OA
ATOM     11  O   UNL     1      51.966  58.938  48.031  1.00  0.00    -0.550 OA
ENDBRANCH   8   9
ENDBRANCH   7   8
ENDBRANCH   6   7
ENDBRANCH   5   6
ENDBRANCH   4   5
ENDBRANCH   3   4
ENDBRANCH   2   3
ENDBRANCH   1   2
BRANCH   1  12
ATOM     12  C   UNL     1      53.517  52.798  47.514  1.00  0.00     0.000 C 
BRANCH  12  13
ATOM     13  C   UNL     1      52.360  52.989  48.517  1.00  0.00    -0.000 C 
BRANCH  13  14
ATOM     14  C   UNL     1      52.529  52.262  49.863  1.00  0.00    -0.000 C 
BRANCH  14  15
ATOM     15  C   UNL     1      51.955  53.058  51.048  1.00  0.00    -0.000 C 
BRANCH  15  16
ATOM     16  C   UNL     1      52.993  53.304  52.154  1.00  0.00    -0.000 C 
BRANCH  16  17
ATOM     17  C   UNL     1      54.256  54.016  51.639  1.00  0.00    -0.000 C 
BRANCH  17  18
ATOM     18  C   UNL     1      53.933  55.381  50.994  1.00  0.00    -0.000 C 
BRANCH  18  19
ATOM     19  C   UNL     1      53.402  56.422  51.993  1.00  0.00    -0.003 C 
ATOM     20  C   UNL     1      51.949  56.814  51.734  1.00  0.00     0.004 C 
ENDBRANCH  18  19
ENDBRANCH  17  18
ENDBRANCH  16  17
ENDBRANCH  15  16
ENDBRANCH  14  15
ENDBRANCH  13  14
ENDBRANCH  12  13
ENDBRANCH   1  12
TORSDOF 16
ENDMDL
MODEL 3
REMARK VINA RESULT:    -3.068      3.255      6.857
REMARK INTER + INTRA:          -8.703
REMARK INTER:                  -6.025
REMARK INTRA:                  -2.679
REMARK UNBOUND:                -2.765
REMARK SMILES CCCCCCCCCCCCCCCCCC(=O)[O-]
REMARK SMILES IDX 10 1 11 2 12 3 13 4 14 5 15 6 16 7 17 8 18 9 19 10 20 11
REMARK SMILES IDX 9 12 8 13 7 14 6 15 5 16 4 17 3 18 2 19 1 20
REMARK H PARENT
REMARK Flexibility Score: inf
ROOT
ATOM      1  C   UNL     1      54.563  56.250  50.125  1.00  0.00     0.000 C 
ENDROOT
BRANCH   1   2
ATOM      2  C   UNL     1      53.127  56.715  50.423  1.00  0.00     0.000 C 
BRANCH   2   3
ATOM      3  C   UNL     1      52.491  55.949  51.594  1.00  0.00     0.000 C 
BRANCH   3   4
ATOM      4  C   UNL     1      53.506  55.091  52.365  1.00  0.00     0.000 C 
BRANCH   4   5
ATOM      5  C   UNL     1      53.157  53.599  52.253  1.00  0.00     0.000 C 
BRANCH   5   6
ATOM      6  C   UNL     1      51.915  53.342  51.384  1.00  0.00     0.000 C 
BRANCH   6   7
ATOM      7  C   UNL     1      52.252  52.610  50.073  1.00  0.00     0.006 C 
BRANCH   7   8
ATOM      8  C   UNL     1      53.638  51.952  50.117  1.00  0.00     0.053 C 
BRANCH   8   9
ATOM      9  C   UNL     1      53.555  50.496  50.460  1.00  0.00     0.041 C 
ATOM     10  O   UNL     1      52.457  49.991  50.816  1.00  0.00    -0.550 OA
ATOM     11  O   UNL     1      54.681  49.690  50.358  1.00  0.00    -0.550 OA
ENDBRANCH   8   9
ENDBRANCH   7   8
ENDBRANCH   6   7
ENDBRANCH   5   6
ENDBRANCH   4   5
ENDBRANCH   3   4
ENDBRANCH   2   3
ENDBRANCH   1   2
BRANCH   1  12
ATOM     12  C   UNL     1      54.687  55.526  48.772  1.00  0.00     0.000 C 
BRANCH  12  13
ATOM     13  C   UNL     1      53.357  55.289  48.027  1.00  0.00    -0.000 C 
BRANCH  13  14
ATOM     14  C   UNL     1      53.480  55.104  46.503  1.00  0.00    -0.000 C 
BRANCH  14  15
ATOM     15  C   UNL     1      52.358  55.809  45.723  1.00  0.00    -0.000 C 
BRANCH  15  16
ATOM     16  C   UNL     1      52.896  56.770  44.651  1.00  0.00    -0.000 C 
BRANCH  16  17
ATOM     17  C   UNL     1      54.380  57.120  44.855  1.00  0.00    -0.000 C 
BRANCH  17  18
ATOM     18  C   UNL     1      54.575  58.578  45.326  1.00  0.00    -0.000 C 
BRANCH  18  19
ATOM     19  C   UNL     1      54.684  58.721  46.853  1.00  0.00    -0.003 C 
ATOM     20  C   UNL     1      53.362  59.106  47.514  1.00  0.00     0.004 C 
ENDBRANCH  18  19
ENDBRANCH  17  18
ENDBRANCH  16  17
ENDBRANCH  15  16
ENDBRANCH  14  15
ENDBRANCH  13  14
ENDBRANCH  12  13
ENDBRANCH   1  12
TORSDOF 16
ENDMDL
MODEL 4
REMARK VINA RESULT:    -3.045      2.229      3.324
REMARK INTER + INTRA:          -8.659
REMARK INTER:                  -5.881
REMARK INTRA:                  -2.778
REMARK UNBOUND:                -2.765
REMARK SMILES CCCCCCCCCCCCCCCCCC(=O)[O-]
REMARK SMILES IDX 10 1 11 2 12 3 13 4 14 5 15 6 16 7 17 8 18 9 19 10 20 11
REMARK SMILES IDX 9 12 8 13 7 14 6 15 5 16 4 17 3 18 2 19 1 20
REMARK H PARENT
REMARK Flexibility Score: inf
ROOT
ATOM      1  C   UNL     1      55.102  53.320  48.258  1.00  0.00     0.000 C 
ENDROOT
BRANCH   1   2
ATOM      2  C   UNL     1      55.777  54.186  47.180  1.00  0.00     0.000 C 
BRANCH   2   3
ATOM      3  C   UNL     1      55.029  54.144  45.838  1.00  0.00     0.000 C 
BRANCH   3   4
ATOM      4  C   UNL     1      54.909  55.527  45.180  1.00  0.00     0.000 C 
BRANCH   4   5
ATOM      5  C   UNL     1      53.436  55.935  45.028  1.00  0.00     0.000 C 
BRANCH   5   6
ATOM      6  C   UNL     1      52.657  55.855  46.351  1.00  0.00     0.000 C 
BRANCH   6   7
ATOM      7  C   UNL     1      52.824  57.118  47.213  1.00  0.00     0.006 C 
BRANCH   7   8
ATOM      8  C   UNL     1      53.540  56.824  48.539  1.00  0.00     0.053 C 
BRANCH   8   9
ATOM      9  C   UNL     1      52.925  57.571  49.683  1.00  0.00     0.041 C 
ATOM     10  O   UNL     1      52.619  58.786  49.554  1.00  0.00    -0.550 OA
ATOM     11  O   UNL     1      52.662  56.919  50.880  1.00  0.00    -0.550 OA
ENDBRANCH   8   9
ENDBRANCH   7   8
ENDBRANCH   6   7
ENDBRANCH   5   6
ENDBRANCH   4   5
ENDBRANCH   3   4
ENDBRANCH   2   3
ENDBRANCH   1   2
BRANCH   1  12
ATOM     12  C   UNL     1      54.072  52.336  47.674  1.00  0.00     0.000 C 
BRANCH  12  13
ATOM     13  C   UNL     1      52.716  52.288  48.407  1.00  0.00    -0.000 C 
BRANCH  13  14
ATOM     14  C   UNL     1      52.397  53.514  49.282  1.00  0.00    -0.000 C 
BRANCH  14  15
ATOM     15  C   UNL     1      52.096  53.143  50.743  1.00  0.00    -0.000 C 
BRANCH  15  16
ATOM     16  C   UNL     1      53.230  53.543  51.701  1.00  0.00    -0.000 C 
BRANCH  16  17
ATOM     17  C   UNL     1      53.853  52.337  52.425  1.00  0.00    -0.000 C 
BRANCH  17  18
ATOM     18  C   UNL     1      54.687  51.453  51.473  1.00  0.00    -0.000 C 
BRANCH  18  19
ATOM     19  C   UNL     1      54.359  49.955  51.579  1.00  0.00    -0.003 C 
ATOM     20  C   UNL     1      52.994  49.598  50.994  1.00  0.00     0.004 C 
ENDBRANCH  18  19
ENDBRANCH  17  18
ENDBRANCH  16  17
ENDBRANCH  15  16
ENDBRANCH  14  15
ENDBRANCH  13  14
ENDBRANCH  12  13
ENDBRANCH   1  12
TORSDOF 16
ENDMDL
MODEL 5
REMARK VINA RESULT:    -3.036      1.505      2.312
REMARK INTER + INTRA:          -8.640
REMARK INTER:                  -6.131
REMARK INTRA:                  -2.510
REMARK UNBOUND:                -2.765
REMARK SMILES CCCCCCCCCCCCCCCCCC(=O)[O-]
REMARK SMILES IDX 10 1 11 2 12 3 13 4 14 5 15 6 16 7 17 8 18 9 19 10 20 11
REMARK SMILES IDX 9 12 8 13 7 14 6 15 5 16 4 17 3 18 2 19 1 20
REMARK H PARENT
REMARK Flexibility Score: inf
ROOT
ATOM      1  C   UNL     1      53.057  52.615  47.610  1.00  0.00     0.000 C 
ENDROOT
BRANCH   1   2
ATOM      2  C   UNL     1      54.523  52.199  47.821  1.00  0.00     0.000 C 
BRANCH   2   3
ATOM      3  C   UNL     1      55.327  52.192  46.511  1.00  0.00     0.000 C 
BRANCH   3   4
ATOM      4  C   UNL     1      56.628  53.004  46.606  1.00  0.00     0.000 C 
BRANCH   4   5
ATOM      5  C   UNL     1      56.351  54.503  46.421  1.00  0.00     0.000 C 
BRANCH   5   6
ATOM      6  C   UNL     1      55.321  54.785  45.316  1.00  0.00     0.000 C 
BRANCH   6   7
ATOM      7  C   UNL     1      54.480  56.042  45.599  1.00  0.00     0.006 C 
BRANCH   7   8
ATOM      8  C   UNL     1      53.133  56.016  44.863  1.00  0.00     0.053 C 
BRANCH   8   9
ATOM      9  C   UNL     1      52.049  56.679  45.657  1.00  0.00     0.041 C 
ATOM     10  O   UNL     1      50.849  56.596  45.283  1.00  0.00    -0.550 OA
ATOM     11  O   UNL     1      52.360  57.363  46.825  1.00  0.00    -0.550 OA
ENDBRANCH   8   9
ENDBRANCH   7   8
ENDBRANCH   6   7
ENDBRANCH   5   6
ENDBRANCH   4   5
ENDBRANCH   3   4
ENDBRANCH   2   3
ENDBRANCH   1   2
BRANCH   1  12
ATOM     12  C   UNL     1      52.780  54.064  48.052  1.00  0.00     0.000 C 
BRANCH  12  13
ATOM     13  C   UNL     1      53.533  54.523  49.318  1.00  0.00    -0.000 C 
BRANCH  13  14
ATOM     14  C   UNL     1      52.712  54.490  50.621  1.00  0.00    -0.000 C 
BRANCH  14  15
ATOM     15  C   UNL     1      52.953  53.216  51.447  1.00  0.00    -0.000 C 
BRANCH  15  16
ATOM     16  C   UNL     1      51.944  52.103  51.125  1.00  0.00    -0.000 C 
BRANCH  16  17
ATOM     17  C   UNL     1      52.619  50.746  50.854  1.00  0.00    -0.000 C 
BRANCH  17  18
ATOM     18  C   UNL     1      54.134  50.781  51.148  1.00  0.00    -0.000 C 
BRANCH  18  19
ATOM     19  C   UNL     1      54.574  49.773  52.223  1.00  0.00    -0.003 C 
ATOM     20  C   UNL     1      54.548  50.354  53.635  1.00  0.00     0.004 C 
ENDBRANCH  18  19
ENDBRANCH  17  18
ENDBRANCH  16  17
ENDBRANCH  15  16
ENDBRANCH  14  15
ENDBRANCH  13  14
ENDBRANCH  12  13
ENDBRANCH   1  12
TORSDOF 16
ENDMDL
MODEL 6
REMARK VINA RESULT:    -2.996      3.416      6.914
REMARK INTER + INTRA:          -8.563
REMARK INTER:                  -5.939
REMARK INTRA:                  -2.624
REMARK UNBOUND:                -2.765
REMARK SMILES CCCCCCCCCCCCCCCCCC(=O)[O-]
REMARK SMILES IDX 10 1 11 2 12 3 13 4 14 5 15 6 16 7 17 8 18 9 19 10 20 11
REMARK SMILES IDX 9 12 8 13 7 14 6 15 5 16 4 17 3 18 2 19 1 20
REMARK H PARENT
REMARK Flexibility Score: inf
ROOT
ATOM      1  C   UNL     1      52.977  54.525  47.772  1.00  0.00     0.000 C 
ENDROOT
BRANCH   1   2
ATOM      2  C   UNL     1      53.121  55.767  48.668  1.00  0.00     0.000 C 
BRANCH   2   3
ATOM      3  C   UNL     1      54.166  55.574  49.778  1.00  0.00     0.000 C 
BRANCH   3   4
ATOM      4  C   UNL     1      53.567  55.695  51.188  1.00  0.00     0.000 C 
BRANCH   4   5
ATOM      5  C   UNL     1      52.303  54.834  51.321  1.00  0.00     0.000 C 
BRANCH   5   6
ATOM      6  C   UNL     1      52.599  53.420  51.846  1.00  0.00     0.000 C 
BRANCH   6   7
ATOM      7  C   UNL     1      51.992  52.320  50.958  1.00  0.00     0.006 C 
BRANCH   7   8
ATOM      8  C   UNL     1      53.055  51.342  50.437  1.00  0.00     0.053 C 
BRANCH   8   9
ATOM      9  C   UNL     1      53.221  50.163  51.345  1.00  0.00     0.041 C 
ATOM     10  O   UNL     1      53.957  50.246  52.364  1.00  0.00    -0.550 OA
ATOM     11  O   UNL     1      52.541  48.981  51.084  1.00  0.00    -0.550 OA
ENDBRANCH   8   9
ENDBRANCH   7   8
ENDBRANCH   6   7
ENDBRANCH   5   6
ENDBRANCH   4   5
ENDBRANCH   3   4
ENDBRANCH   2   3
ENDBRANCH   1   2
BRANCH   1  12
ATOM     12  C   UNL     1      54.177  53.567  47.882  1.00  0.00     0.000 C 
BRANCH  12  13
ATOM     13  C   UNL     1      54.672  52.973  46.547  1.00  0.00    -0.000 C 
BRANCH  13  14
ATOM     14  C   UNL     1      55.814  53.749  45.865  1.00  0.00    -0.000 C 
BRANCH  14  15
ATOM     15  C   UNL     1      56.388  54.868  46.751  1.00  0.00    -0.000 C 
BRANCH  15  16
ATOM     16  C   UNL     1      56.064  56.271  46.214  1.00  0.00    -0.000 C 
BRANCH  16  17
ATOM     17  C   UNL     1      55.211  56.239  44.934  1.00  0.00    -0.000 C 
BRANCH  17  18
ATOM     18  C   UNL     1      53.874  56.990  45.106  1.00  0.00    -0.000 C 
BRANCH  18  19
ATOM     19  C   UNL     1      52.723  56.394  44.278  1.00  0.00    -0.003 C 
ATOM     20  C   UNL     1      51.383  56.421  45.009  1.00  0.00     0.004 C 
ENDBRANCH  18  19
ENDBRANCH  17  18
ENDBRANCH  16  17
ENDBRANCH  15  16
ENDBRANCH  14  15
ENDBRANCH  13  14
ENDBRANCH  12  13
ENDBRANCH   1  12
TORSDOF 16
ENDMDL
MODEL 7
REMARK VINA RESULT:    -2.965      2.759      5.633
REMARK INTER + INTRA:          -8.504
REMARK INTER:                  -5.504
REMARK INTRA:                  -3.000
REMARK UNBOUND:                -2.765
REMARK SMILES CCCCCCCCCCCCCCCCCC(=O)[O-]
REMARK SMILES IDX 10 1 11 2 12 3 13 4 14 5 15 6 16 7 17 8 18 9 19 10 20 11
REMARK SMILES IDX 9 12 8 13 7 14 6 15 5 16 4 17 3 18 2 19 1 20
REMARK H PARENT
REMARK Flexibility Score: inf
ROOT
ATOM      1  C   UNL     1      55.229  52.390  48.612  1.00  0.00     0.000 C 
ENDROOT
BRANCH   1   2
ATOM      2  C   UNL     1      54.150  52.633  47.542  1.00  0.00     0.000 C 
BRANCH   2   3
ATOM      3  C   UNL     1      52.727  52.434  48.087  1.00  0.00     0.000 C 
BRANCH   3   4
ATOM      4  C   UNL     1      52.385  53.404  49.228  1.00  0.00     0.000 C 
BRANCH   4   5
ATOM      5  C   UNL     1      52.019  52.638  50.507  1.00  0.00     0.000 C 
BRANCH   5   6
ATOM      6  C   UNL     1      52.830  53.099  51.729  1.00  0.00     0.000 C 
BRANCH   6   7
ATOM      7  C   UNL     1      53.686  54.343  51.435  1.00  0.00     0.006 C 
BRANCH   7   8
ATOM      8  C   UNL     1      53.533  55.420  52.518  1.00  0.00     0.053 C 
BRANCH   8   9
ATOM      9  C   UNL     1      52.894  56.664  51.982  1.00  0.00     0.041 C 
ATOM     10  O   UNL     1      51.657  56.690  51.749  1.00  0.00    -0.550 OA
ATOM     11  O   UNL     1      53.658  57.804  51.768  1.00  0.00    -0.550 OA
ENDBRANCH   8   9
ENDBRANCH   7   8
ENDBRANCH   6   7
ENDBRANCH   5   6
ENDBRANCH   4   5
ENDBRANCH   3   4
ENDBRANCH   2   3
ENDBRANCH   1   2
BRANCH   1  12
ATOM     12  C   UNL     1      56.191  53.581  48.769  1.00  0.00     0.000 C 
BRANCH  12  13
ATOM     13  C   UNL     1      55.776  54.868  48.026  1.00  0.00    -0.000 C 
BRANCH  13  14
ATOM     14  C   UNL     1      55.443  56.070  48.928  1.00  0.00    -0.000 C 
BRANCH  14  15
ATOM     15  C   UNL     1      54.660  57.170  48.192  1.00  0.00    -0.000 C 
BRANCH  15  16
ATOM     16  C   UNL     1      53.139  56.965  48.268  1.00  0.00    -0.000 C 
BRANCH  16  17
ATOM     17  C   UNL     1      52.450  57.090  46.898  1.00  0.00    -0.000 C 
BRANCH  17  18
ATOM     18  C   UNL     1      52.567  55.795  46.066  1.00  0.00    -0.000 C 
BRANCH  18  19
ATOM     19  C   UNL     1      53.085  56.027  44.637  1.00  0.00    -0.003 C 
ATOM     20  C   UNL     1      54.567  56.397  44.590  1.00  0.00     0.004 C 
ENDBRANCH  18  19
ENDBRANCH  17  18
ENDBRANCH  16  17
ENDBRANCH  15  16
ENDBRANCH  14  15
ENDBRANCH  13  14
ENDBRANCH  12  13
ENDBRANCH   1  12
TORSDOF 16
ENDMDL
MODEL 8
REMARK VINA RESULT:    -2.950      2.929      4.852
REMARK INTER + INTRA:          -8.475
REMARK INTER:                  -5.772
REMARK INTRA:                  -2.703
REMARK UNBOUND:                -2.765
REMARK SMILES CCCCCCCCCCCCCCCCCC(=O)[O-]
REMARK SMILES IDX 10 1 11 2 12 3 13 4 14 5 15 6 16 7 17 8 18 9 19 10 20 11
REMARK SMILES IDX 9 12 8 13 7 14 6 15 5 16 4 17 3 18 2 19 1 20
REMARK H PARENT
REMARK Flexibility Score: inf
ROOT
ATOM      1  C   UNL     1      52.907  56.358  44.903  1.00  0.00     0.000 C 
ENDROOT
BRANCH   1   2
ATOM      2  C   UNL     1      54.416  56.509  44.646  1.00  0.00     0.000 C 
BRANCH   2   3
ATOM      3  C   UNL     1      54.960  57.868  45.114  1.00  0.00     0.000 C 
BRANCH   3   4
ATOM      4  C   UNL     1      55.829  57.759  46.376  1.00  0.00     0.000 C 
BRANCH   4   5
ATOM      5  C   UNL     1      55.089  58.321  47.599  1.00  0.00     0.000 C 
BRANCH   5   6
ATOM      6  C   UNL     1      53.957  59.288  47.217  1.00  0.00     0.000 C 
BRANCH   6   7
ATOM      7  C   UNL     1      52.608  58.895  47.844  1.00  0.00     0.006 C 
BRANCH   7   8
ATOM      8  C   UNL     1      52.172  59.876  48.942  1.00  0.00     0.053 C 
BRANCH   8   9
ATOM      9  C   UNL     1      52.438  59.333  50.313  1.00  0.00     0.041 C 
ATOM     10  O   UNL     1      51.480  58.991  51.055  1.00  0.00    -0.550 OA
ATOM     11  O   UNL     1      53.744  59.178  50.760  1.00  0.00    -0.550 OA
ENDBRANCH   8   9
ENDBRANCH   7   8
ENDBRANCH   6   7
ENDBRANCH   5   6
ENDBRANCH   4   5
ENDBRANCH   3   4
ENDBRANCH   2   3
ENDBRANCH   1   2
BRANCH   1  12
ATOM     12  C   UNL     1      52.596  55.620  46.217  1.00  0.00     0.000 C 
BRANCH  12  13
ATOM     13  C   UNL     1      53.650  54.582  46.656  1.00  0.00    -0.000 C 
BRANCH  13  14
ATOM     14  C   UNL     1      53.952  54.549  48.166  1.00  0.00    -0.000 C 
BRANCH  14  15
ATOM     15  C   UNL     1      53.186  55.626  48.951  1.00  0.00    -0.000 C 
BRANCH  15  16
ATOM     16  C   UNL     1      53.569  55.657  50.439  1.00  0.00    -0.000 C 
BRANCH  16  17
ATOM     17  C   UNL     1      52.431  55.181  51.359  1.00  0.00    -0.000 C 
BRANCH  17  18
ATOM     18  C   UNL     1      52.627  53.720  51.819  1.00  0.00    -0.000 C 
BRANCH  18  19
ATOM     19  C   UNL     1      51.847  52.700  50.974  1.00  0.00    -0.003 C 
ATOM     20  C   UNL     1      52.731  51.591  50.407  1.00  0.00     0.004 C 
ENDBRANCH  18  19
ENDBRANCH  17  18
ENDBRANCH  16  17
ENDBRANCH  15  16
ENDBRANCH  14  15
ENDBRANCH  13  14
ENDBRANCH  12  13
ENDBRANCH   1  12
TORSDOF 16
ENDMDL
MODEL 9
REMARK VINA RESULT:    -2.934      1.319      3.795
REMARK INTER + INTRA:          -8.444
REMARK INTER:                  -5.521
REMARK INTRA:                  -2.923
REMARK UNBOUND:                -2.765
REMARK SMILES CCCCCCCCCCCCCCCCCC(=O)[O-]
REMARK SMILES IDX 10 1 11 2 12 3 13 4 14 5 15 6 16 7 17 8 18 9 19 10 20 11
REMARK SMILES IDX 9 12 8 13 7 14 6 15 5 16 4 17 3 18 2 19 1 20
REMARK H PARENT
REMARK Flexibility Score: inf
ROOT
ATOM      1  C   UNL     1      55.735  51.382  51.526  1.00  0.00     0.000 C 
ENDROOT
BRANCH   1   2
ATOM      2  C   UNL     1      55.883  52.726  50.792  1.00  0.00     0.000 C 
BRANCH   2   3
ATOM      3  C   UNL     1      56.265  52.550  49.314  1.00  0.00     0.000 C 
BRANCH   3   4
ATOM      4  C   UNL     1      55.330  51.586  48.568  1.00  0.00     0.000 C 
BRANCH   4   5
ATOM      5  C   UNL     1      54.486  52.337  47.528  1.00  0.00     0.000 C 
BRANCH   5   6
ATOM      6  C   UNL     1      54.846  53.829  47.435  1.00  0.00     0.000 C 
BRANCH   6   7
ATOM      7  C   UNL     1      54.139  54.536  46.265  1.00  0.00     0.006 C 
BRANCH   7   8
ATOM      8  C   UNL     1      52.770  55.098  46.671  1.00  0.00     0.053 C 
BRANCH   8   9
ATOM      9  C   UNL     1      52.386  56.285  45.842  1.00  0.00     0.041 C 
ATOM     10  O   UNL     1      51.259  56.327  45.280  1.00  0.00    -0.550 OA
ATOM     11  O   UNL     1      53.258  57.357  45.713  1.00  0.00    -0.550 OA
ENDBRANCH   8   9
ENDBRANCH   7   8
ENDBRANCH   6   7
ENDBRANCH   5   6
ENDBRANCH   4   5
ENDBRANCH   3   4
ENDBRANCH   2   3
ENDBRANCH   1   2
BRANCH   1  12
ATOM     12  C   UNL     1      54.360  51.218  52.199  1.00  0.00     0.000 C 
BRANCH  12  13
ATOM     13  C   UNL     1      53.332  50.385  51.405  1.00  0.00    -0.000 C 
BRANCH  13  14
ATOM     14  C   UNL     1      52.299  51.202  50.608  1.00  0.00    -0.000 C 
BRANCH  14  15
ATOM     15  C   UNL     1      52.030  52.586  51.222  1.00  0.00    -0.000 C 
BRANCH  15  16
ATOM     16  C   UNL     1      52.367  53.736  50.260  1.00  0.00    -0.000 C 
BRANCH  16  17
ATOM     17  C   UNL     1      52.705  55.046  50.991  1.00  0.00    -0.000 C 
BRANCH  17  18
ATOM     18  C   UNL     1      53.920  55.765  50.366  1.00  0.00    -0.000 C 
BRANCH  18  19
ATOM     19  C   UNL     1      53.538  56.980  49.503  1.00  0.00    -0.003 C 
ATOM     20  C   UNL     1      54.749  57.762  49.000  1.00  0.00     0.004 C 
ENDBRANCH  18  19
ENDBRANCH  17  18
ENDBRANCH  16  17
ENDBRANCH  15  16
ENDBRANCH  14  15
ENDBRANCH  13  14
ENDBRANCH  12  13
ENDBRANCH   1  12
TORSDOF 16
ENDMDL
