MODEL 1
REMARK VINA RESULT:    -5.868      0.000      0.000
REMARK INTER + INTRA:         -19.013
REMARK INTER:                 -14.788
REMARK INTRA:                  -4.225
REMARK UNBOUND:                -4.225
REMARK SMILES CCCCCCCCCCCCCCCCCCCCCCCCCCCC(=O)[O-]
REMARK SMILES IDX 15 1 16 2 17 3 18 4 19 5 20 6 21 7 22 8 23 9 24 10 25 11
REMARK SMILES IDX 26 12 27 13 28 14 29 15 30 16 14 17 13 18 12 19 11 20 10 21
REMARK SMILES IDX 9 22 8 23 7 24 6 25 5 26 4 27 3 28 2 29 1 30
REMARK H PARENT
REMARK Flexibility Score: inf
ROOT
ATOM      1  C   UNL     1     115.658 176.327 125.857  1.00  0.00     0.000 C 
ENDROOT
BRANCH   1   2
ATOM      2  C   UNL     1     115.123 177.572 126.590  1.00  0.00     0.000 C 
BRANCH   2   3
ATOM      3  C   UNL     1     115.357 178.908 125.864  1.00  0.00     0.000 C 
BRANCH   3   4
ATOM      4  C   UNL     1     116.474 179.754 126.500  1.00  0.00     0.000 C 
BRANCH   4   5
ATOM      5  C   UNL     1     117.826 179.023 126.533  1.00  0.00     0.000 C 
BRANCH   5   6
ATOM      6  C   UNL     1     118.710 179.230 125.289  1.00  0.00     0.000 C 
BRANCH   6   7
ATOM      7  C   UNL     1     118.462 178.198 124.168  1.00  0.00     0.000 C 
BRANCH   7   8
ATOM      8  C   UNL     1     119.272 178.506 122.900  1.00  0.00     0.000 C 
BRANCH   8   9
ATOM      9  C   UNL     1     120.640 177.802 122.879  1.00  0.00     0.000 C 
BRANCH   9  10
ATOM     10  C   UNL     1     121.184 177.551 121.456  1.00  0.00     0.000 C 
BRANCH  10  11
ATOM     11  C   UNL     1     122.653 177.092 121.468  1.00  0.00     0.000 C 
BRANCH  11  12
ATOM     12  C   UNL     1     122.972 176.076 120.352  1.00  0.00     0.006 C 
BRANCH  12  13
ATOM     13  C   UNL     1     122.594 176.559 118.945  1.00  0.00     0.053 C 
BRANCH  13  14
ATOM     14  C   UNL     1     123.781 177.026 118.161  1.00  0.00     0.041 C 
ATOM     15  O   UNL     1     123.657 177.948 117.313  1.00  0.00    -0.550 OA
ATOM     16  O   UNL     1     125.024 176.440 118.364  1.00  0.00    -0.550 OA
ENDBRANCH  13  14
ENDBRANCH  12  13
ENDBRANCH  11  12
ENDBRANCH  10  11
ENDBRANCH   9  10
ENDBRANCH   8   9
ENDBRANCH   7   8
ENDBRANCH   6   7
ENDBRANCH   5   6
ENDBRANCH   4   5
ENDBRANCH   3   4
ENDBRANCH   2   3
ENDBRANCH   1   2
BRANCH   1  17
ATOM     17  C   UNL     1     116.626 175.492 126.717  1.00  0.00     0.000 C 
BRANCH  17  18
ATOM     18  C   UNL     1     116.403 175.678 128.232  1.00  0.00     0.000 C 
BRANCH  18  19
ATOM     19  C   UNL     1     117.522 176.468 128.939  1.00  0.00     0.000 C 
BRANCH  19  20
ATOM     20  C   UNL     1     118.291 175.688 130.021  1.00  0.00     0.000 C 
BRANCH  20  21
ATOM     21  C   UNL     1     119.305 176.520 130.836  1.00  0.00     0.000 C 
BRANCH  21  22
ATOM     22  C   UNL     1     119.614 177.913 130.262  1.00  0.00    -0.000 C 
BRANCH  22  23
ATOM     23  C   UNL     1     121.117 178.243 130.267  1.00  0.00    -0.000 C 
BRANCH  23  24
ATOM     24  C   UNL     1     121.855 177.638 129.063  1.00  0.00    -0.000 C 
BRANCH  24  25
ATOM     25  C   UNL     1     121.650 178.456 127.776  1.00  0.00    -0.000 C 
BRANCH  25  26
ATOM     26  C   UNL     1     121.457 177.533 126.563  1.00  0.00    -0.000 C 
BRANCH  26  27
ATOM     27  C   UNL     1     120.499 176.366 126.853  1.00  0.00    -0.000 C 
BRANCH  27  28
ATOM     28  C   UNL     1     120.350 175.414 125.653  1.00  0.00    -0.000 C 
BRANCH  28  29
ATOM     29  C   UNL     1     120.501 173.937 126.049  1.00  0.00    -0.003 C 
ATOM     30  C   UNL     1     120.132 173.671 127.507  1.00  0.00     0.004 C 
ENDBRANCH  28  29
ENDBRANCH  27  28
ENDBRANCH  26  27
ENDBRANCH  25  26
ENDBRANCH  24  25
ENDBRANCH  23  24
ENDBRANCH  22  23
ENDBRANCH  21  22
ENDBRANCH  20  21
ENDBRANCH  19  20
ENDBRANCH  18  19
ENDBRANCH  17  18
ENDBRANCH   1  17
TORSDOF 26
ENDMDL
MODEL 2
REMARK VINA RESULT:    -5.804      3.191      5.835
REMARK INTER + INTRA:         -18.850
REMARK INTER:                 -14.453
REMARK INTRA:                  -4.397
REMARK UNBOUND:                -4.225
REMARK SMILES CCCCCCCCCCCCCCCCCCCCCCCCCCCC(=O)[O-]
REMARK SMILES IDX 15 1 16 2 17 3 18 4 19 5 20 6 21 7 22 8 23 9 24 10 25 11
REMARK SMILES IDX 26 12 27 13 28 14 29 15 30 16 14 17 13 18 12 19 11 20 10 21
REMARK SMILES IDX 9 22 8 23 7 24 6 25 5 26 4 27 3 28 2 29 1 30
REMARK H PARENT
REMARK Flexibility Score: inf
ROOT
ATOM      1  C   UNL     1     117.417 175.260 130.643  1.00  0.00     0.000 C 
ENDROOT
BRANCH   1   2
ATOM      2  C   UNL     1     116.234 175.604 129.719  1.00  0.00     0.000 C 
BRANCH   2   3
ATOM      3  C   UNL     1     116.611 176.340 128.420  1.00  0.00     0.000 C 
BRANCH   3   4
ATOM      4  C   UNL     1     115.429 177.096 127.789  1.00  0.00     0.000 C 
BRANCH   4   5
ATOM      5  C   UNL     1     115.500 177.132 126.253  1.00  0.00     0.000 C 
BRANCH   5   6
ATOM      6  C   UNL     1     115.715 178.529 125.643  1.00  0.00     0.000 C 
BRANCH   6   7
ATOM      7  C   UNL     1     116.732 179.397 126.414  1.00  0.00     0.000 C 
BRANCH   7   8
ATOM      8  C   UNL     1     118.173 178.887 126.260  1.00  0.00     0.000 C 
BRANCH   8   9
ATOM      9  C   UNL     1     118.579 178.680 124.790  1.00  0.00     0.000 C 
BRANCH   9  10
ATOM     10  C   UNL     1     118.922 177.215 124.444  1.00  0.00     0.000 C 
BRANCH  10  11
ATOM     11  C   UNL     1     118.952 176.315 125.693  1.00  0.00     0.000 C 
BRANCH  11  12
ATOM     12  C   UNL     1     119.809 175.048 125.496  1.00  0.00     0.006 C 
BRANCH  12  13
ATOM     13  C   UNL     1     119.966 174.200 126.766  1.00  0.00     0.053 C 
BRANCH  13  14
ATOM     14  C   UNL     1     119.023 173.037 126.800  1.00  0.00     0.041 C 
ATOM     15  O   UNL     1     119.305 171.975 126.185  1.00  0.00    -0.550 OA
ATOM     16  O   UNL     1     117.830 173.128 127.505  1.00  0.00    -0.550 OA
ENDBRANCH  13  14
ENDBRANCH  12  13
ENDBRANCH  11  12
ENDBRANCH  10  11
ENDBRANCH   9  10
ENDBRANCH   8   9
ENDBRANCH   7   8
ENDBRANCH   6   7
ENDBRANCH   5   6
ENDBRANCH   4   5
ENDBRANCH   3   4
ENDBRANCH   2   3
ENDBRANCH   1   2
BRANCH   1  17
ATOM     17  C   UNL     1     118.783 175.624 130.030  1.00  0.00     0.000 C 
BRANCH  17  18
ATOM     18  C   UNL     1     119.452 176.834 130.715  1.00  0.00     0.000 C 
BRANCH  18  19
ATOM     19  C   UNL     1     120.011 177.881 129.733  1.00  0.00     0.000 C 
BRANCH  19  20
ATOM     20  C   UNL     1     121.288 177.459 128.982  1.00  0.00     0.000 C 
BRANCH  20  21
ATOM     21  C   UNL     1     121.919 178.551 128.091  1.00  0.00     0.000 C 
BRANCH  21  22
ATOM     22  C   UNL     1     121.745 178.337 126.578  1.00  0.00    -0.000 C 
BRANCH  22  23
ATOM     23  C   UNL     1     123.046 177.906 125.881  1.00  0.00    -0.000 C 
BRANCH  23  24
ATOM     24  C   UNL     1     122.999 176.447 125.399  1.00  0.00    -0.000 C 
BRANCH  24  25
ATOM     25  C   UNL     1     123.369 176.306 123.913  1.00  0.00    -0.000 C 
BRANCH  25  26
ATOM     26  C   UNL     1     122.124 176.435 123.022  1.00  0.00    -0.000 C 
BRANCH  26  27
ATOM     27  C   UNL     1     122.456 176.951 121.611  1.00  0.00    -0.000 C 
BRANCH  27  28
ATOM     28  C   UNL     1     123.956 177.240 121.428  1.00  0.00    -0.000 C 
BRANCH  28  29
ATOM     29  C   UNL     1     124.611 176.323 120.383  1.00  0.00    -0.003 C 
ATOM     30  C   UNL     1     124.888 174.918 120.916  1.00  0.00     0.004 C 
ENDBRANCH  28  29
ENDBRANCH  27  28
ENDBRANCH  26  27
ENDBRANCH  25  26
ENDBRANCH  24  25
ENDBRANCH  23  24
ENDBRANCH  22  23
ENDBRANCH  21  22
ENDBRANCH  20  21
ENDBRANCH  19  20
ENDBRANCH  18  19
ENDBRANCH  17  18
ENDBRANCH   1  17
TORSDOF 26
ENDMDL
MODEL 3
REMARK VINA RESULT:    -5.795      1.748      3.817
REMARK INTER + INTRA:         -18.828
REMARK INTER:                 -13.517
REMARK INTRA:                  -5.311
REMARK UNBOUND:                -4.225
REMARK SMILES CCCCCCCCCCCCCCCCCCCCCCCCCCCC(=O)[O-]
REMARK SMILES IDX 15 1 16 2 17 3 18 4 19 5 20 6 21 7 22 8 23 9 24 10 25 11
REMARK SMILES IDX 26 12 27 13 28 14 29 15 30 16 14 17 13 18 12 19 11 20 10 21
REMARK SMILES IDX 9 22 8 23 7 24 6 25 5 26 4 27 3 28 2 29 1 30
REMARK H PARENT
REMARK Flexibility Score: inf
ROOT
ATOM      1  C   UNL     1     119.386 178.040 127.963  1.00  0.00     0.000 C 
ENDROOT
BRANCH   1   2
ATOM      2  C   UNL     1     119.667 178.664 126.583  1.00  0.00     0.000 C 
BRANCH   2   3
ATOM      3  C   UNL     1     118.449 178.756 125.647  1.00  0.00     0.000 C 
BRANCH   3   4
ATOM      4  C   UNL     1     118.534 177.797 124.447  1.00  0.00     0.000 C 
BRANCH   4   5
ATOM      5  C   UNL     1     119.575 178.241 123.405  1.00  0.00     0.000 C 
BRANCH   5   6
ATOM      6  C   UNL     1     120.844 177.372 123.340  1.00  0.00     0.000 C 
BRANCH   6   7
ATOM      7  C   UNL     1     120.726 176.036 124.103  1.00  0.00     0.000 C 
BRANCH   7   8
ATOM      8  C   UNL     1     121.845 175.854 125.141  1.00  0.00     0.000 C 
BRANCH   8   9
ATOM      9  C   UNL     1     122.716 177.111 125.306  1.00  0.00     0.000 C 
BRANCH   9  10
ATOM     10  C   UNL     1     124.221 176.855 125.074  1.00  0.00     0.000 C 
BRANCH  10  11
ATOM     11  C   UNL     1     124.498 176.237 123.691  1.00  0.00     0.000 C 
BRANCH  11  12
ATOM     12  C   UNL     1     124.385 177.261 122.544  1.00  0.00     0.006 C 
BRANCH  12  13
ATOM     13  C   UNL     1     124.522 176.646 121.144  1.00  0.00     0.053 C 
BRANCH  13  14
ATOM     14  C   UNL     1     123.449 177.108 120.208  1.00  0.00     0.041 C 
ATOM     15  O   UNL     1     123.672 178.052 119.405  1.00  0.00    -0.550 OA
ATOM     16  O   UNL     1     122.200 176.499 120.226  1.00  0.00    -0.550 OA
ENDBRANCH  13  14
ENDBRANCH  12  13
ENDBRANCH  11  12
ENDBRANCH  10  11
ENDBRANCH   9  10
ENDBRANCH   8   9
ENDBRANCH   7   8
ENDBRANCH   6   7
ENDBRANCH   5   6
ENDBRANCH   4   5
ENDBRANCH   3   4
ENDBRANCH   2   3
ENDBRANCH   1   2
BRANCH   1  17
ATOM     17  C   UNL     1     120.399 176.944 128.345  1.00  0.00     0.000 C 
BRANCH  17  18
ATOM     18  C   UNL     1     120.692 176.890 129.859  1.00  0.00     0.000 C 
BRANCH  18  19
ATOM     19  C   UNL     1     119.432 176.779 130.738  1.00  0.00     0.000 C 
BRANCH  19  20
ATOM     20  C   UNL     1     118.688 175.434 130.650  1.00  0.00     0.000 C 
BRANCH  20  21
ATOM     21  C   UNL     1     117.149 175.536 130.576  1.00  0.00     0.000 C 
BRANCH  21  22
ATOM     22  C   UNL     1     116.532 175.098 129.237  1.00  0.00    -0.000 C 
BRANCH  22  23
ATOM     23  C   UNL     1     116.164 176.284 128.330  1.00  0.00    -0.000 C 
BRANCH  23  24
ATOM     24  C   UNL     1     116.318 175.952 126.837  1.00  0.00    -0.000 C 
BRANCH  24  25
ATOM     25  C   UNL     1     116.953 174.570 126.605  1.00  0.00    -0.000 C 
BRANCH  25  26
ATOM     26  C   UNL     1     118.462 174.695 126.345  1.00  0.00    -0.000 C 
BRANCH  26  27
ATOM     27  C   UNL     1     119.215 173.376 126.583  1.00  0.00    -0.000 C 
BRANCH  27  28
ATOM     28  C   UNL     1     120.057 173.403 127.871  1.00  0.00    -0.000 C 
BRANCH  28  29
ATOM     29  C   UNL     1     119.791 172.189 128.776  1.00  0.00    -0.003 C 
ATOM     30  C   UNL     1     118.303 171.942 129.017  1.00  0.00     0.004 C 
ENDBRANCH  28  29
ENDBRANCH  27  28
ENDBRANCH  26  27
ENDBRANCH  25  26
ENDBRANCH  24  25
ENDBRANCH  23  24
ENDBRANCH  22  23
ENDBRANCH  21  22
ENDBRANCH  20  21
ENDBRANCH  19  20
ENDBRANCH  18  19
ENDBRANCH  17  18
ENDBRANCH   1  17
TORSDOF 26
ENDMDL
MODEL 4
REMARK VINA RESULT:    -5.793      1.684      4.239
REMARK INTER + INTRA:         -18.824
REMARK INTER:                 -13.851
REMARK INTRA:                  -4.973
REMARK UNBOUND:                -4.225
REMARK SMILES CCCCCCCCCCCCCCCCCCCCCCCCCCCC(=O)[O-]
REMARK SMILES IDX 15 1 16 2 17 3 18 4 19 5 20 6 21 7 22 8 23 9 24 10 25 11
REMARK SMILES IDX 26 12 27 13 28 14 29 15 30 16 14 17 13 18 12 19 11 20 10 21
REMARK SMILES IDX 9 22 8 23 7 24 6 25 5 26 4 27 3 28 2 29 1 30
REMARK H PARENT
REMARK Flexibility Score: inf
ROOT
ATOM      1  C   UNL     1     117.168 175.442 128.650  1.00  0.00     0.000 C 
ENDROOT
BRANCH   1   2
ATOM      2  C   UNL     1     116.935 175.370 130.171  1.00  0.00     0.000 C 
BRANCH   2   3
ATOM      3  C   UNL     1     118.210 175.242 131.023  1.00  0.00     0.000 C 
BRANCH   3   4
ATOM      4  C   UNL     1     119.080 176.511 131.003  1.00  0.00     0.000 C 
BRANCH   4   5
ATOM      5  C   UNL     1     120.180 176.458 129.929  1.00  0.00     0.000 C 
BRANCH   5   6
ATOM      6  C   UNL     1     120.721 177.829 129.481  1.00  0.00     0.000 C 
BRANCH   6   7
ATOM      7  C   UNL     1     121.968 177.743 128.576  1.00  0.00     0.000 C 
BRANCH   7   8
ATOM      8  C   UNL     1     122.028 178.888 127.553  1.00  0.00     0.000 C 
BRANCH   8   9
ATOM      9  C   UNL     1     122.224 178.391 126.111  1.00  0.00     0.000 C 
BRANCH   9  10
ATOM     10  C   UNL     1     123.094 177.119 126.008  1.00  0.00     0.000 C 
BRANCH  10  11
ATOM     11  C   UNL     1     123.932 177.092 124.717  1.00  0.00     0.000 C 
BRANCH  11  12
ATOM     12  C   UNL     1     123.249 176.312 123.576  1.00  0.00     0.006 C 
BRANCH  12  13
ATOM     13  C   UNL     1     124.151 176.073 122.357  1.00  0.00     0.053 C 
BRANCH  13  14
ATOM     14  C   UNL     1     124.338 177.308 121.532  1.00  0.00     0.041 C 
ATOM     15  O   UNL     1     125.325 178.064 121.736  1.00  0.00    -0.550 OA
ATOM     16  O   UNL     1     123.419 177.629 120.541  1.00  0.00    -0.550 OA
ENDBRANCH  13  14
ENDBRANCH  12  13
ENDBRANCH  11  12
ENDBRANCH  10  11
ENDBRANCH   9  10
ENDBRANCH   8   9
ENDBRANCH   7   8
ENDBRANCH   6   7
ENDBRANCH   5   6
ENDBRANCH   4   5
ENDBRANCH   3   4
ENDBRANCH   2   3
ENDBRANCH   1   2
BRANCH   1  17
ATOM     17  C   UNL     1     115.999 176.100 127.893  1.00  0.00     0.000 C 
BRANCH  17  18
ATOM     18  C   UNL     1     116.013 175.803 126.380  1.00  0.00     0.000 C 
BRANCH  18  19
ATOM     19  C   UNL     1     115.377 176.910 125.516  1.00  0.00     0.000 C 
BRANCH  19  20
ATOM     20  C   UNL     1     115.034 178.210 126.266  1.00  0.00     0.000 C 
BRANCH  20  21
ATOM     21  C   UNL     1     116.046 179.362 126.084  1.00  0.00     0.000 C 
BRANCH  21  22
ATOM     22  C   UNL     1     117.194 179.387 127.107  1.00  0.00    -0.000 C 
BRANCH  22  23
ATOM     23  C   UNL     1     118.438 178.617 126.632  1.00  0.00    -0.000 C 
BRANCH  23  24
ATOM     24  C   UNL     1     118.603 178.656 125.104  1.00  0.00    -0.000 C 
BRANCH  24  25
ATOM     25  C   UNL     1     119.079 177.311 124.530  1.00  0.00    -0.000 C 
BRANCH  25  26
ATOM     26  C   UNL     1     119.438 176.328 125.655  1.00  0.00    -0.000 C 
BRANCH  26  27
ATOM     27  C   UNL     1     120.176 175.081 125.140  1.00  0.00    -0.000 C 
BRANCH  27  28
ATOM     28  C   UNL     1     120.712 174.200 126.282  1.00  0.00    -0.000 C 
BRANCH  28  29
ATOM     29  C   UNL     1     119.589 173.518 127.078  1.00  0.00    -0.003 C 
ATOM     30  C   UNL     1     120.047 173.026 128.450  1.00  0.00     0.004 C 
ENDBRANCH  28  29
ENDBRANCH  27  28
ENDBRANCH  26  27
ENDBRANCH  25  26
ENDBRANCH  24  25
ENDBRANCH  23  24
ENDBRANCH  22  23
ENDBRANCH  21  22
ENDBRANCH  20  21
ENDBRANCH  19  20
ENDBRANCH  18  19
ENDBRANCH  17  18
ENDBRANCH   1  17
TORSDOF 26
ENDMDL
MODEL 5
REMARK VINA RESULT:    -5.769      3.521      6.147
REMARK INTER + INTRA:         -18.764
REMARK INTER:                 -14.143
REMARK INTRA:                  -4.620
REMARK UNBOUND:                -4.225
REMARK SMILES CCCCCCCCCCCCCCCCCCCCCCCCCCCC(=O)[O-]
REMARK SMILES IDX 15 1 16 2 17 3 18 4 19 5 20 6 21 7 22 8 23 9 24 10 25 11
REMARK SMILES IDX 26 12 27 13 28 14 29 15 30 16 14 17 13 18 12 19 11 20 10 21
REMARK SMILES IDX 9 22 8 23 7 24 6 25 5 26 4 27 3 28 2 29 1 30
REMARK H PARENT
REMARK Flexibility Score: inf
ROOT
ATOM      1  C   UNL     1     116.799 175.128 129.564  1.00  0.00     0.000 C 
ENDROOT
BRANCH   1   2
ATOM      2  C   UNL     1     117.774 174.970 128.382  1.00  0.00     0.000 C 
BRANCH   2   3
ATOM      3  C   UNL     1     117.393 173.883 127.361  1.00  0.00     0.000 C 
BRANCH   3   4
ATOM      4  C   UNL     1     118.614 173.211 126.710  1.00  0.00     0.000 C 
BRANCH   4   5
ATOM      5  C   UNL     1     119.948 173.761 127.241  1.00  0.00     0.000 C 
BRANCH   5   6
ATOM      6  C   UNL     1     120.821 174.478 126.195  1.00  0.00     0.000 C 
BRANCH   6   7
ATOM      7  C   UNL     1     120.034 174.988 124.969  1.00  0.00     0.000 C 
BRANCH   7   8
ATOM      8  C   UNL     1     119.300 176.308 125.253  1.00  0.00     0.000 C 
BRANCH   8   9
ATOM      9  C   UNL     1     119.438 177.326 124.109  1.00  0.00     0.000 C 
BRANCH   9  10
ATOM     10  C   UNL     1     118.535 178.568 124.274  1.00  0.00     0.000 C 
BRANCH  10  11
ATOM     11  C   UNL     1     118.606 179.153 125.696  1.00  0.00     0.000 C 
BRANCH  11  12
ATOM     12  C   UNL     1     117.213 179.423 126.302  1.00  0.00     0.006 C 
BRANCH  12  13
ATOM     13  C   UNL     1     116.650 178.249 127.114  1.00  0.00     0.053 C 
BRANCH  13  14
ATOM     14  C   UNL     1     115.514 177.564 126.419  1.00  0.00     0.041 C 
ATOM     15  O   UNL     1     115.739 176.621 125.616  1.00  0.00    -0.550 OA
ATOM     16  O   UNL     1     114.206 177.970 126.655  1.00  0.00    -0.550 OA
ENDBRANCH  13  14
ENDBRANCH  12  13
ENDBRANCH  11  12
ENDBRANCH  10  11
ENDBRANCH   9  10
ENDBRANCH   8   9
ENDBRANCH   7   8
ENDBRANCH   6   7
ENDBRANCH   5   6
ENDBRANCH   4   5
ENDBRANCH   3   4
ENDBRANCH   2   3
ENDBRANCH   1   2
BRANCH   1  17
ATOM     17  C   UNL     1     117.516 175.362 130.908  1.00  0.00     0.000 C 
BRANCH  17  18
ATOM     18  C   UNL     1     119.011 175.707 130.744  1.00  0.00     0.000 C 
BRANCH  18  19
ATOM     19  C   UNL     1     119.336 177.201 130.939  1.00  0.00     0.000 C 
BRANCH  19  20
ATOM     20  C   UNL     1     119.390 178.034 129.645  1.00  0.00     0.000 C 
BRANCH  20  21
ATOM     21  C   UNL     1     120.448 177.584 128.616  1.00  0.00     0.000 C 
BRANCH  21  22
ATOM     22  C   UNL     1     121.809 178.291 128.732  1.00  0.00    -0.000 C 
BRANCH  22  23
ATOM     23  C   UNL     1     122.248 178.964 127.420  1.00  0.00    -0.000 C 
BRANCH  23  24
ATOM     24  C   UNL     1     122.007 178.070 126.193  1.00  0.00    -0.000 C 
BRANCH  24  25
ATOM     25  C   UNL     1     123.179 177.111 125.923  1.00  0.00    -0.000 C 
BRANCH  25  26
ATOM     26  C   UNL     1     123.748 177.321 124.511  1.00  0.00    -0.000 C 
BRANCH  26  27
ATOM     27  C   UNL     1     123.215 176.292 123.500  1.00  0.00    -0.000 C 
BRANCH  27  28
ATOM     28  C   UNL     1     123.637 176.613 122.056  1.00  0.00    -0.000 C 
BRANCH  28  29
ATOM     29  C   UNL     1     124.397 175.455 121.390  1.00  0.00    -0.003 C 
ATOM     30  C   UNL     1     125.450 174.832 122.305  1.00  0.00     0.004 C 
ENDBRANCH  28  29
ENDBRANCH  27  28
ENDBRANCH  26  27
ENDBRANCH  25  26
ENDBRANCH  24  25
ENDBRANCH  23  24
ENDBRANCH  22  23
ENDBRANCH  21  22
ENDBRANCH  20  21
ENDBRANCH  19  20
ENDBRANCH  18  19
ENDBRANCH  17  18
ENDBRANCH   1  17
TORSDOF 26
ENDMDL
MODEL 6
REMARK VINA RESULT:    -5.769      1.450      4.006
REMARK INTER + INTRA:         -18.764
REMARK INTER:                 -14.500
REMARK INTRA:                  -4.264
REMARK UNBOUND:                -4.225
REMARK SMILES CCCCCCCCCCCCCCCCCCCCCCCCCCCC(=O)[O-]
REMARK SMILES IDX 15 1 16 2 17 3 18 4 19 5 20 6 21 7 22 8 23 9 24 10 25 11
REMARK SMILES IDX 26 12 27 13 28 14 29 15 30 16 14 17 13 18 12 19 11 20 10 21
REMARK SMILES IDX 9 22 8 23 7 24 6 25 5 26 4 27 3 28 2 29 1 30
REMARK H PARENT
REMARK Flexibility Score: inf
ROOT
ATOM      1  C   UNL     1     118.381 179.106 125.331  1.00  0.00     0.000 C 
ENDROOT
BRANCH   1   2
ATOM      2  C   UNL     1     118.471 178.028 124.235  1.00  0.00     0.000 C 
BRANCH   2   3
ATOM      3  C   UNL     1     119.437 178.349 123.081  1.00  0.00     0.000 C 
BRANCH   3   4
ATOM      4  C   UNL     1     120.711 177.486 123.101  1.00  0.00     0.000 C 
BRANCH   4   5
ATOM      5  C   UNL     1     120.607 176.297 124.071  1.00  0.00     0.000 C 
BRANCH   5   6
ATOM      6  C   UNL     1     121.953 175.755 124.586  1.00  0.00     0.000 C 
BRANCH   6   7
ATOM      7  C   UNL     1     123.179 176.542 124.076  1.00  0.00     0.000 C 
BRANCH   7   8
ATOM      8  C   UNL     1     124.183 175.644 123.337  1.00  0.00     0.000 C 
BRANCH   8   9
ATOM      9  C   UNL     1     124.192 175.881 121.817  1.00  0.00     0.000 C 
BRANCH   9  10
ATOM     10  C   UNL     1     124.155 177.374 121.424  1.00  0.00     0.000 C 
BRANCH  10  11
ATOM     11  C   UNL     1     123.188 177.643 120.256  1.00  0.00     0.000 C 
BRANCH  11  12
ATOM     12  C   UNL     1     123.674 177.035 118.925  1.00  0.00     0.006 C 
BRANCH  12  13
ATOM     13  C   UNL     1     123.952 178.076 117.831  1.00  0.00     0.053 C 
BRANCH  13  14
ATOM     14  C   UNL     1     123.056 177.910 116.642  1.00  0.00     0.041 C 
ATOM     15  O   UNL     1     123.060 178.769 115.721  1.00  0.00    -0.550 OA
ATOM     16  O   UNL     1     122.212 176.811 116.554  1.00  0.00    -0.550 OA
ENDBRANCH  13  14
ENDBRANCH  12  13
ENDBRANCH  11  12
ENDBRANCH  10  11
ENDBRANCH   9  10
ENDBRANCH   8   9
ENDBRANCH   7   8
ENDBRANCH   6   7
ENDBRANCH   5   6
ENDBRANCH   4   5
ENDBRANCH   3   4
ENDBRANCH   2   3
ENDBRANCH   1   2
BRANCH   1  17
ATOM     17  C   UNL     1     118.904 178.620 126.697  1.00  0.00     0.000 C 
BRANCH  17  18
ATOM     18  C   UNL     1     120.442 178.658 126.805  1.00  0.00     0.000 C 
BRANCH  18  19
ATOM     19  C   UNL     1     121.039 177.526 127.663  1.00  0.00     0.000 C 
BRANCH  19  20
ATOM     20  C   UNL     1     121.689 177.979 128.984  1.00  0.00     0.000 C 
BRANCH  20  21
ATOM     21  C   UNL     1     120.879 177.660 130.259  1.00  0.00     0.000 C 
BRANCH  21  22
ATOM     22  C   UNL     1     120.532 176.175 130.455  1.00  0.00    -0.000 C 
BRANCH  22  23
ATOM     23  C   UNL     1     119.044 175.870 130.210  1.00  0.00    -0.000 C 
BRANCH  23  24
ATOM     24  C   UNL     1     118.824 174.485 129.582  1.00  0.00    -0.000 C 
BRANCH  24  25
ATOM     25  C   UNL     1     119.810 174.194 128.438  1.00  0.00    -0.000 C 
BRANCH  25  26
ATOM     26  C   UNL     1     119.063 173.894 127.129  1.00  0.00    -0.000 C 
BRANCH  26  27
ATOM     27  C   UNL     1     118.301 175.115 126.589  1.00  0.00    -0.000 C 
BRANCH  27  28
ATOM     28  C   UNL     1     116.775 174.953 126.700  1.00  0.00    -0.000 C 
BRANCH  28  29
ATOM     29  C   UNL     1     116.014 176.214 126.263  1.00  0.00    -0.003 C 
ATOM     30  C   UNL     1     115.542 177.062 127.443  1.00  0.00     0.004 C 
ENDBRANCH  28  29
ENDBRANCH  27  28
ENDBRANCH  26  27
ENDBRANCH  25  26
ENDBRANCH  24  25
ENDBRANCH  23  24
ENDBRANCH  22  23
ENDBRANCH  21  22
ENDBRANCH  20  21
ENDBRANCH  19  20
ENDBRANCH  18  19
ENDBRANCH  17  18
ENDBRANCH   1  17
TORSDOF 26
ENDMDL
MODEL 7
REMARK VINA RESULT:    -5.731      1.372      4.477
REMARK INTER + INTRA:         -18.666
REMARK INTER:                 -14.413
REMARK INTRA:                  -4.253
REMARK UNBOUND:                -4.225
REMARK SMILES CCCCCCCCCCCCCCCCCCCCCCCCCCCC(=O)[O-]
REMARK SMILES IDX 15 1 16 2 17 3 18 4 19 5 20 6 21 7 22 8 23 9 24 10 25 11
REMARK SMILES IDX 26 12 27 13 28 14 29 15 30 16 14 17 13 18 12 19 11 20 10 21
REMARK SMILES IDX 9 22 8 23 7 24 6 25 5 26 4 27 3 28 2 29 1 30
REMARK H PARENT
REMARK Flexibility Score: inf
ROOT
ATOM      1  C   UNL     1     119.284 176.124 129.486  1.00  0.00     0.000 C 
ENDROOT
BRANCH   1   2
ATOM      2  C   UNL     1     119.777 177.550 129.797  1.00  0.00     0.000 C 
BRANCH   2   3
ATOM      3  C   UNL     1     121.305 177.734 129.771  1.00  0.00     0.000 C 
BRANCH   3   4
ATOM      4  C   UNL     1     121.809 178.414 128.487  1.00  0.00     0.000 C 
BRANCH   4   5
ATOM      5  C   UNL     1     121.776 177.477 127.267  1.00  0.00     0.000 C 
BRANCH   5   6
ATOM      6  C   UNL     1     122.682 177.899 126.096  1.00  0.00     0.000 C 
BRANCH   6   7
ATOM      7  C   UNL     1     123.323 176.714 125.344  1.00  0.00     0.000 C 
BRANCH   7   8
ATOM      8  C   UNL     1     124.452 177.160 124.401  1.00  0.00     0.000 C 
BRANCH   8   9
ATOM      9  C   UNL     1     124.041 177.127 122.919  1.00  0.00     0.000 C 
BRANCH   9  10
ATOM     10  C   UNL     1     122.557 176.764 122.697  1.00  0.00     0.000 C 
BRANCH  10  11
ATOM     11  C   UNL     1     122.030 177.276 121.344  1.00  0.00     0.000 C 
BRANCH  11  12
ATOM     12  C   UNL     1     122.298 176.292 120.187  1.00  0.00     0.006 C 
BRANCH  12  13
ATOM     13  C   UNL     1     123.781 176.166 119.809  1.00  0.00     0.053 C 
BRANCH  13  14
ATOM     14  C   UNL     1     124.274 177.341 119.022  1.00  0.00     0.041 C 
ATOM     15  O   UNL     1     123.686 177.686 117.963  1.00  0.00    -0.550 OA
ATOM     16  O   UNL     1     125.386 178.053 119.455  1.00  0.00    -0.550 OA
ENDBRANCH  13  14
ENDBRANCH  12  13
ENDBRANCH  11  12
ENDBRANCH  10  11
ENDBRANCH   9  10
ENDBRANCH   8   9
ENDBRANCH   7   8
ENDBRANCH   6   7
ENDBRANCH   5   6
ENDBRANCH   4   5
ENDBRANCH   3   4
ENDBRANCH   2   3
ENDBRANCH   1   2
BRANCH   1  17
ATOM     17  C   UNL     1     117.768 176.056 129.225  1.00  0.00     0.000 C 
BRANCH  17  18
ATOM     18  C   UNL     1     117.396 175.133 128.046  1.00  0.00     0.000 C 
BRANCH  18  19
ATOM     19  C   UNL     1     118.348 173.935 127.863  1.00  0.00     0.000 C 
BRANCH  19  20
ATOM     20  C   UNL     1     118.813 173.683 126.416  1.00  0.00     0.000 C 
BRANCH  20  21
ATOM     21  C   UNL     1     120.136 174.374 126.020  1.00  0.00     0.000 C 
BRANCH  21  22
ATOM     22  C   UNL     1     120.017 175.403 124.883  1.00  0.00    -0.000 C 
BRANCH  22  23
ATOM     23  C   UNL     1     118.931 176.460 125.144  1.00  0.00    -0.000 C 
BRANCH  23  24
ATOM     24  C   UNL     1     119.203 177.777 124.399  1.00  0.00    -0.000 C 
BRANCH  24  25
ATOM     25  C   UNL     1     118.749 179.010 125.199  1.00  0.00    -0.000 C 
BRANCH  25  26
ATOM     26  C   UNL     1     118.506 178.651 126.673  1.00  0.00    -0.000 C 
BRANCH  26  27
ATOM     27  C   UNL     1     117.064 178.940 127.123  1.00  0.00    -0.000 C 
BRANCH  27  28
ATOM     28  C   UNL     1     116.136 179.278 125.944  1.00  0.00    -0.000 C 
BRANCH  28  29
ATOM     29  C   UNL     1     115.214 178.109 125.565  1.00  0.00    -0.003 C 
ATOM     30  C   UNL     1     115.207 177.820 124.065  1.00  0.00     0.004 C 
ENDBRANCH  28  29
ENDBRANCH  27  28
ENDBRANCH  26  27
ENDBRANCH  25  26
ENDBRANCH  24  25
ENDBRANCH  23  24
ENDBRANCH  22  23
ENDBRANCH  21  22
ENDBRANCH  20  21
ENDBRANCH  19  20
ENDBRANCH  18  19
ENDBRANCH  17  18
ENDBRANCH   1  17
TORSDOF 26
ENDMDL
MODEL 8
REMARK VINA RESULT:    -5.641      2.765      6.843
REMARK INTER + INTRA:         -18.441
REMARK INTER:                 -14.131
REMARK INTRA:                  -4.310
REMARK UNBOUND:                -4.225
REMARK SMILES CCCCCCCCCCCCCCCCCCCCCCCCCCCC(=O)[O-]
REMARK SMILES IDX 15 1 16 2 17 3 18 4 19 5 20 6 21 7 22 8 23 9 24 10 25 11
REMARK SMILES IDX 26 12 27 13 28 14 29 15 30 16 14 17 13 18 12 19 11 20 10 21
REMARK SMILES IDX 9 22 8 23 7 24 6 25 5 26 4 27 3 28 2 29 1 30
REMARK H PARENT
REMARK Flexibility Score: inf
ROOT
ATOM      1  C   UNL     1     119.177 175.429 130.183  1.00  0.00     0.000 C 
ENDROOT
BRANCH   1   2
ATOM      2  C   UNL     1     117.758 174.849 130.328  1.00  0.00     0.000 C 
BRANCH   2   3
ATOM      3  C   UNL     1     117.542 173.475 129.669  1.00  0.00     0.000 C 
BRANCH   3   4
ATOM      4  C   UNL     1     118.853 172.811 129.214  1.00  0.00     0.000 C 
BRANCH   4   5
ATOM      5  C   UNL     1     118.687 171.995 127.921  1.00  0.00     0.000 C 
BRANCH   5   6
ATOM      6  C   UNL     1     118.488 172.831 126.643  1.00  0.00     0.000 C 
BRANCH   6   7
ATOM      7  C   UNL     1     119.459 174.025 126.521  1.00  0.00     0.000 C 
BRANCH   7   8
ATOM      8  C   UNL     1     118.725 175.374 126.488  1.00  0.00     0.000 C 
BRANCH   8   9
ATOM      9  C   UNL     1     117.199 175.222 126.361  1.00  0.00     0.000 C 
BRANCH   9  10
ATOM     10  C   UNL     1     116.404 176.239 127.208  1.00  0.00     0.000 C 
BRANCH  10  11
ATOM     11  C   UNL     1     117.274 177.428 127.657  1.00  0.00     0.000 C 
BRANCH  11  12
ATOM     12  C   UNL     1     117.077 178.679 126.777  1.00  0.00     0.006 C 
BRANCH  12  13
ATOM     13  C   UNL     1     118.311 179.054 125.944  1.00  0.00     0.053 C 
BRANCH  13  14
ATOM     14  C   UNL     1     118.288 178.443 124.578  1.00  0.00     0.041 C 
ATOM     15  O   UNL     1     117.235 177.908 124.141  1.00  0.00    -0.550 OA
ATOM     16  O   UNL     1     119.431 178.458 123.788  1.00  0.00    -0.550 OA
ENDBRANCH  13  14
ENDBRANCH  12  13
ENDBRANCH  11  12
ENDBRANCH  10  11
ENDBRANCH   9  10
ENDBRANCH   8   9
ENDBRANCH   7   8
ENDBRANCH   6   7
ENDBRANCH   5   6
ENDBRANCH   4   5
ENDBRANCH   3   4
ENDBRANCH   2   3
ENDBRANCH   1   2
BRANCH   1  17
ATOM     17  C   UNL     1     119.367 176.752 130.949  1.00  0.00     0.000 C 
BRANCH  17  18
ATOM     18  C   UNL     1     120.044 177.850 130.104  1.00  0.00     0.000 C 
BRANCH  18  19
ATOM     19  C   UNL     1     120.763 177.323 128.848  1.00  0.00     0.000 C 
BRANCH  19  20
ATOM     20  C   UNL     1     121.738 178.314 128.186  1.00  0.00     0.000 C 
BRANCH  20  21
ATOM     21  C   UNL     1     121.743 178.301 126.642  1.00  0.00     0.000 C 
BRANCH  21  22
ATOM     22  C   UNL     1     122.793 177.378 126.002  1.00  0.00    -0.000 C 
BRANCH  22  23
ATOM     23  C   UNL     1     122.236 176.563 124.823  1.00  0.00    -0.000 C 
BRANCH  23  24
ATOM     24  C   UNL     1     123.167 176.585 123.601  1.00  0.00    -0.000 C 
BRANCH  24  25
ATOM     25  C   UNL     1     122.397 176.729 122.277  1.00  0.00    -0.000 C 
BRANCH  25  26
ATOM     26  C   UNL     1     123.332 176.535 121.073  1.00  0.00    -0.000 C 
BRANCH  26  27
ATOM     27  C   UNL     1     123.230 177.681 120.053  1.00  0.00    -0.000 C 
BRANCH  27  28
ATOM     28  C   UNL     1     124.562 178.429 119.873  1.00  0.00    -0.000 C 
BRANCH  28  29
ATOM     29  C   UNL     1     125.460 178.344 121.118  1.00  0.00    -0.003 C 
ATOM     30  C   UNL     1     126.622 177.366 120.946  1.00  0.00     0.004 C 
ENDBRANCH  28  29
ENDBRANCH  27  28
ENDBRANCH  26  27
ENDBRANCH  25  26
ENDBRANCH  24  25
ENDBRANCH  23  24
ENDBRANCH  22  23
ENDBRANCH  21  22
ENDBRANCH  20  21
ENDBRANCH  19  20
ENDBRANCH  18  19
ENDBRANCH  17  18
ENDBRANCH   1  17
TORSDOF 26
ENDMDL
