MODEL 1
REMARK VINA RESULT:    -8.508      0.000      0.000
REMARK INTER + INTRA:         -10.429
REMARK INTER:                 -10.249
REMARK INTRA:                  -0.180
REMARK UNBOUND:                -0.180
REMARK SMILES O=c1c(O)c(-c2ccc(O)c(O)c2)oc2cc(O)cc(O)c12
REMARK SMILES IDX 5 1 3 2 2 3 1 4 22 5 20 6 19 7 17 8 16 9 15 10 14 11 6 12
REMARK SMILES IDX 7 13 8 14 9 15 13 16 11 17 10 18 12 20 4 22 21 24 18 26
REMARK H PARENT 10 19 12 21 4 23 21 25 18 27
REMARK Flexibility Score: inf
ROOT
ATOM      1  C   UNL     1     -34.459  44.290  39.935  1.00  0.00     0.180 A 
ATOM      2  C   UNL     1     -35.151  44.900  40.999  1.00  0.00     0.208 A 
ATOM      3  C   UNL     1     -35.484  44.126  42.123  1.00  0.00     0.238 A 
ATOM      4  O   UNL     1     -36.113  44.660  43.077  1.00  0.00    -0.285 OA
ATOM      5  C   UNL     1     -35.106  42.770  42.172  1.00  0.00     0.111 A 
ATOM      6  C   UNL     1     -35.400  41.923  43.268  1.00  0.00     0.134 A 
ATOM      7  C   UNL     1     -34.980  40.585  43.246  1.00  0.00     0.093 A 
ATOM      8  C   UNL     1     -34.274  40.078  42.153  1.00  0.00     0.123 A 
ATOM      9  C   UNL     1     -33.982  40.909  41.067  1.00  0.00     0.094 A 
ATOM     10  C   UNL     1     -34.392  42.245  41.070  1.00  0.00     0.146 A 
ATOM     11  O   UNL     1     -34.106  43.011  40.023  1.00  0.00    -0.452 OA
ENDROOT
BRANCH   1  12
ATOM     12  C   UNL     1     -34.089  45.033  38.708  1.00  0.00     0.025 A 
ATOM     13  C   UNL     1     -35.066  45.572  37.856  1.00  0.00     0.016 A 
ATOM     14  C   UNL     1     -34.693  46.248  36.694  1.00  0.00     0.051 A 
ATOM     15  C   UNL     1     -33.343  46.389  36.351  1.00  0.00     0.157 A 
ATOM     16  C   UNL     1     -32.736  45.154  38.357  1.00  0.00     0.062 A 
ATOM     17  C   UNL     1     -32.352  45.831  37.192  1.00  0.00     0.158 A 
BRANCH  15  18
ATOM     18  O   UNL     1     -33.037  47.080  35.177  1.00  0.00    -0.504 OA
ATOM     19  H   UNL     1     -32.383  46.749  34.481  1.00  0.00     0.293 HD
ENDBRANCH  15  18
BRANCH  17  20
ATOM     20  O   UNL     1     -30.986  45.923  36.911  1.00  0.00    -0.504 OA
ATOM     21  H   UNL     1     -30.372  46.615  37.314  1.00  0.00     0.293 HD
ENDBRANCH  17  20
ENDBRANCH   1  12
BRANCH   2  22
ATOM     22  O   UNL     1     -35.471  46.259  40.947  1.00  0.00    -0.502 OA
ATOM     23  H   UNL     1     -34.997  46.950  41.514  1.00  0.00     0.293 HD
ENDBRANCH   2  22
BRANCH   6  24
ATOM     24  O   UNL     1     -36.103  42.401  44.376  1.00  0.00    -0.507 OA
ATOM     25  H   UNL     1     -36.320  43.384  44.487  1.00  0.00     0.293 HD
ENDBRANCH   6  24
BRANCH   8  26
ATOM     26  O   UNL     1     -33.869  38.745  42.156  1.00  0.00    -0.508 OA
ATOM     27  H   UNL     1     -32.904  38.485  42.327  1.00  0.00     0.293 HD
ENDBRANCH   8  26
TORSDOF 6
ENDMDL
MODEL 2
REMARK VINA RESULT:    -7.986      4.471      9.895
REMARK INTER + INTRA:          -9.799
REMARK INTER:                  -9.506
REMARK INTRA:                  -0.294
REMARK UNBOUND:                -0.180
REMARK SMILES O=c1c(O)c(-c2ccc(O)c(O)c2)oc2cc(O)cc(O)c12
REMARK SMILES IDX 5 1 3 2 2 3 1 4 22 5 20 6 19 7 17 8 16 9 15 10 14 11 6 12
REMARK SMILES IDX 7 13 8 14 9 15 13 16 11 17 10 18 12 20 4 22 21 24 18 26
REMARK H PARENT 10 19 12 21 4 23 21 25 18 27
REMARK Flexibility Score: inf
ROOT
ATOM      1  C   UNL     1     -37.737  39.340  44.979  1.00  0.00     0.180 A 
ATOM      2  C   UNL     1     -36.974  38.395  44.266  1.00  0.00     0.208 A 
ATOM      3  C   UNL     1     -36.101  38.847  43.263  1.00  0.00     0.238 A 
ATOM      4  O   UNL     1     -35.420  38.010  42.611  1.00  0.00    -0.285 OA
ATOM      5  C   UNL     1     -35.993  40.228  43.004  1.00  0.00     0.111 A 
ATOM      6  C   UNL     1     -35.135  40.766  42.014  1.00  0.00     0.134 A 
ATOM      7  C   UNL     1     -35.076  42.154  41.823  1.00  0.00     0.093 A 
ATOM      8  C   UNL     1     -35.855  43.013  42.601  1.00  0.00     0.123 A 
ATOM      9  C   UNL     1     -36.705  42.489  43.580  1.00  0.00     0.094 A 
ATOM     10  C   UNL     1     -36.779  41.108  43.784  1.00  0.00     0.146 A 
ATOM     11  O   UNL     1     -37.598  40.636  44.717  1.00  0.00    -0.452 OA
ENDROOT
BRANCH   1  12
ATOM     12  C   UNL     1     -38.693  38.940  46.038  1.00  0.00     0.025 A 
ATOM     13  C   UNL     1     -40.076  38.897  45.797  1.00  0.00     0.016 A 
ATOM     14  C   UNL     1     -40.958  38.540  46.817  1.00  0.00     0.051 A 
ATOM     15  C   UNL     1     -40.484  38.235  48.099  1.00  0.00     0.157 A 
ATOM     16  C   UNL     1     -38.216  38.655  47.327  1.00  0.00     0.062 A 
ATOM     17  C   UNL     1     -39.094  38.297  48.357  1.00  0.00     0.158 A 
BRANCH  15  18
ATOM     18  O   UNL     1     -41.419  37.882  49.073  1.00  0.00    -0.504 OA
ATOM     19  H   UNL     1     -41.179  37.635  50.023  1.00  0.00     0.293 HD
ENDBRANCH  15  18
BRANCH  17  20
ATOM     20  O   UNL     1     -38.548  38.016  49.612  1.00  0.00    -0.504 OA
ATOM     21  H   UNL     1     -37.559  38.038  49.815  1.00  0.00     0.293 HD
ENDBRANCH  17  20
ENDBRANCH   1  12
BRANCH   2  22
ATOM     22  O   UNL     1     -37.063  37.035  44.575  1.00  0.00    -0.502 OA
ATOM     23  H   UNL     1     -36.251  36.477  44.804  1.00  0.00     0.293 HD
ENDBRANCH   2  22
BRANCH   6  24
ATOM     24  O   UNL     1     -34.342  39.933  41.221  1.00  0.00    -0.507 OA
ATOM     25  H   UNL     1     -33.370  39.756  41.442  1.00  0.00     0.293 HD
ENDBRANCH   6  24
BRANCH   8  26
ATOM     26  O   UNL     1     -35.778  44.389  42.391  1.00  0.00    -0.508 OA
ATOM     27  H   UNL     1     -36.246  45.045  43.005  1.00  0.00     0.293 HD
ENDBRANCH   8  26
TORSDOF 6
ENDMDL
MODEL 3
REMARK VINA RESULT:    -7.957      4.701      7.893
REMARK INTER + INTRA:          -9.764
REMARK INTER:                  -9.436
REMARK INTRA:                  -0.328
REMARK UNBOUND:                -0.180
REMARK SMILES O=c1c(O)c(-c2ccc(O)c(O)c2)oc2cc(O)cc(O)c12
REMARK SMILES IDX 5 1 3 2 2 3 1 4 22 5 20 6 19 7 17 8 16 9 15 10 14 11 6 12
REMARK SMILES IDX 7 13 8 14 9 15 13 16 11 17 10 18 12 20 4 22 21 24 18 26
REMARK H PARENT 10 19 12 21 4 23 21 25 18 27
REMARK Flexibility Score: inf
ROOT
ATOM      1  C   UNL     1     -37.158  38.876  43.927  1.00  0.00     0.180 A 
ATOM      2  C   UNL     1     -36.631  37.574  44.024  1.00  0.00     0.208 A 
ATOM      3  C   UNL     1     -37.060  36.746  45.074  1.00  0.00     0.238 A 
ATOM      4  O   UNL     1     -36.587  35.581  45.177  1.00  0.00    -0.285 OA
ATOM      5  C   UNL     1     -38.016  37.223  45.993  1.00  0.00     0.111 A 
ATOM      6  C   UNL     1     -38.503  36.452  47.075  1.00  0.00     0.134 A 
ATOM      7  C   UNL     1     -39.463  36.996  47.941  1.00  0.00     0.093 A 
ATOM      8  C   UNL     1     -39.945  38.292  47.746  1.00  0.00     0.123 A 
ATOM      9  C   UNL     1     -39.468  39.059  46.679  1.00  0.00     0.094 A 
ATOM     10  C   UNL     1     -38.510  38.535  45.806  1.00  0.00     0.146 A 
ATOM     11  O   UNL     1     -38.070  39.287  44.803  1.00  0.00    -0.452 OA
ENDROOT
BRANCH   1  12
ATOM     12  C   UNL     1     -36.742  39.815  42.859  1.00  0.00     0.025 A 
ATOM     13  C   UNL     1     -35.590  40.606  42.989  1.00  0.00     0.016 A 
ATOM     14  C   UNL     1     -35.232  41.501  41.980  1.00  0.00     0.051 A 
ATOM     15  C   UNL     1     -36.020  41.636  40.831  1.00  0.00     0.157 A 
ATOM     16  C   UNL     1     -37.546  39.963  41.718  1.00  0.00     0.062 A 
ATOM     17  C   UNL     1     -37.195  40.859  40.701  1.00  0.00     0.158 A 
BRANCH  15  18
ATOM     18  O   UNL     1     -35.603  42.546  39.857  1.00  0.00    -0.504 OA
ATOM     19  H   UNL     1     -36.231  43.024  39.226  1.00  0.00     0.293 HD
ENDBRANCH  15  18
BRANCH  17  20
ATOM     20  O   UNL     1     -38.036  40.945  39.588  1.00  0.00    -0.504 OA
ATOM     21  H   UNL     1     -38.869  40.389  39.466  1.00  0.00     0.293 HD
ENDBRANCH  17  20
ENDBRANCH   1  12
BRANCH   2  22
ATOM     22  O   UNL     1     -35.721  37.107  43.072  1.00  0.00    -0.502 OA
ATOM     23  H   UNL     1     -35.263  37.722  42.412  1.00  0.00     0.293 HD
ENDBRANCH   2  22
BRANCH   6  24
ATOM     24  O   UNL     1     -38.042  35.153  47.296  1.00  0.00    -0.507 OA
ATOM     25  H   UNL     1     -38.414  34.361  46.785  1.00  0.00     0.293 HD
ENDBRANCH   6  24
BRANCH   8  26
ATOM     26  O   UNL     1     -40.899  38.809  48.621  1.00  0.00    -0.508 OA
ATOM     27  H   UNL     1     -41.871  38.526  48.572  1.00  0.00     0.293 HD
ENDBRANCH   8  26
TORSDOF 6
ENDMDL
MODEL 4
REMARK VINA RESULT:    -7.952      6.129      8.260
REMARK INTER + INTRA:          -9.759
REMARK INTER:                  -9.427
REMARK INTRA:                  -0.332
REMARK UNBOUND:                -0.180
REMARK SMILES O=c1c(O)c(-c2ccc(O)c(O)c2)oc2cc(O)cc(O)c12
REMARK SMILES IDX 5 1 3 2 2 3 1 4 22 5 20 6 19 7 17 8 16 9 15 10 14 11 6 12
REMARK SMILES IDX 7 13 8 14 9 15 13 16 11 17 10 18 12 20 4 22 21 24 18 26
REMARK H PARENT 10 19 12 21 4 23 21 25 18 27
REMARK Flexibility Score: inf
ROOT
ATOM      1  C   UNL     1     -36.852  39.233  44.973  1.00  0.00     0.180 A 
ATOM      2  C   UNL     1     -38.001  39.549  44.222  1.00  0.00     0.208 A 
ATOM      3  C   UNL     1     -39.265  39.349  44.800  1.00  0.00     0.238 A 
ATOM      4  O   UNL     1     -40.301  39.619  44.133  1.00  0.00    -0.285 OA
ATOM      5  C   UNL     1     -39.359  38.857  46.118  1.00  0.00     0.111 A 
ATOM      6  C   UNL     1     -40.592  38.631  46.774  1.00  0.00     0.134 A 
ATOM      7  C   UNL     1     -40.602  38.149  48.091  1.00  0.00     0.093 A 
ATOM      8  C   UNL     1     -39.406  37.890  48.763  1.00  0.00     0.123 A 
ATOM      9  C   UNL     1     -38.184  38.110  48.120  1.00  0.00     0.094 A 
ATOM     10  C   UNL     1     -38.153  38.589  46.807  1.00  0.00     0.146 A 
ATOM     11  O   UNL     1     -36.979  38.785  46.218  1.00  0.00    -0.452 OA
ENDROOT
BRANCH   1  12
ATOM     12  C   UNL     1     -35.485  39.399  44.426  1.00  0.00     0.025 A 
ATOM     13  C   UNL     1     -34.844  38.361  43.731  1.00  0.00     0.016 A 
ATOM     14  C   UNL     1     -33.547  38.533  43.246  1.00  0.00     0.051 A 
ATOM     15  C   UNL     1     -32.859  39.734  43.456  1.00  0.00     0.157 A 
ATOM     16  C   UNL     1     -34.790  40.596  44.657  1.00  0.00     0.062 A 
ATOM     17  C   UNL     1     -33.488  40.777  44.174  1.00  0.00     0.158 A 
BRANCH  15  18
ATOM     18  O   UNL     1     -31.566  39.843  42.941  1.00  0.00    -0.504 OA
ATOM     19  H   UNL     1     -31.233  39.329  42.137  1.00  0.00     0.293 HD
ENDBRANCH  15  18
BRANCH  17  20
ATOM     20  O   UNL     1     -32.861  42.000  44.431  1.00  0.00    -0.504 OA
ATOM     21  H   UNL     1     -33.335  42.891  44.417  1.00  0.00     0.293 HD
ENDBRANCH  17  20
ENDBRANCH   1  12
BRANCH   2  22
ATOM     22  O   UNL     1     -37.880  40.082  42.935  1.00  0.00    -0.502 OA
ATOM     23  H   UNL     1     -37.016  40.039  42.410  1.00  0.00     0.293 HD
ENDBRANCH   2  22
BRANCH   6  24
ATOM     24  O   UNL     1     -41.806  38.882  46.129  1.00  0.00    -0.507 OA
ATOM     25  H   UNL     1     -42.693  38.785  46.608  1.00  0.00     0.293 HD
ENDBRANCH   6  24
BRANCH   8  26
ATOM     26  O   UNL     1     -39.443  37.411  50.071  1.00  0.00    -0.508 OA
ATOM     27  H   UNL     1     -40.114  37.763  50.745  1.00  0.00     0.293 HD
ENDBRANCH   8  26
TORSDOF 6
ENDMDL
MODEL 5
REMARK VINA RESULT:    -7.898      3.896      6.610
REMARK INTER + INTRA:          -9.694
REMARK INTER:                  -9.363
REMARK INTRA:                  -0.331
REMARK UNBOUND:                -0.180
REMARK SMILES O=c1c(O)c(-c2ccc(O)c(O)c2)oc2cc(O)cc(O)c12
REMARK SMILES IDX 5 1 3 2 2 3 1 4 22 5 20 6 19 7 17 8 16 9 15 10 14 11 6 12
REMARK SMILES IDX 7 13 8 14 9 15 13 16 11 17 10 18 12 20 4 22 21 24 18 26
REMARK H PARENT 10 19 12 21 4 23 21 25 18 27
REMARK Flexibility Score: inf
ROOT
ATOM      1  C   UNL     1     -36.426  40.266  43.919  1.00  0.00     0.180 A 
ATOM      2  C   UNL     1     -35.508  39.811  44.884  1.00  0.00     0.208 A 
ATOM      3  C   UNL     1     -35.997  39.215  46.058  1.00  0.00     0.238 A 
ATOM      4  O   UNL     1     -35.185  38.813  46.935  1.00  0.00    -0.285 OA
ATOM      5  C   UNL     1     -37.388  39.068  46.237  1.00  0.00     0.111 A 
ATOM      6  C   UNL     1     -37.962  38.477  47.387  1.00  0.00     0.134 A 
ATOM      7  C   UNL     1     -39.356  38.357  47.487  1.00  0.00     0.093 A 
ATOM      8  C   UNL     1     -40.185  38.817  46.461  1.00  0.00     0.123 A 
ATOM      9  C   UNL     1     -39.624  39.404  45.322  1.00  0.00     0.094 A 
ATOM     10  C   UNL     1     -38.237  39.532  45.205  1.00  0.00     0.146 A 
ATOM     11  O   UNL     1     -37.730  40.097  44.116  1.00  0.00    -0.452 OA
ENDROOT
BRANCH   1  12
ATOM     12  C   UNL     1     -35.988  40.921  42.664  1.00  0.00     0.025 A 
ATOM     13  C   UNL     1     -35.850  42.316  42.577  1.00  0.00     0.016 A 
ATOM     14  C   UNL     1     -35.459  42.912  41.377  1.00  0.00     0.051 A 
ATOM     15  C   UNL     1     -35.212  42.134  40.240  1.00  0.00     0.157 A 
ATOM     16  C   UNL     1     -35.762  40.141  41.520  1.00  0.00     0.062 A 
ATOM     17  C   UNL     1     -35.369  40.730  40.312  1.00  0.00     0.158 A 
BRANCH  15  18
ATOM     18  O   UNL     1     -34.819  42.792  39.073  1.00  0.00    -0.504 OA
ATOM     19  H   UNL     1     -34.932  43.784  38.919  1.00  0.00     0.293 HD
ENDBRANCH  15  18
BRANCH  17  20
ATOM     20  O   UNL     1     -35.150  39.890  39.217  1.00  0.00    -0.504 OA
ATOM     21  H   UNL     1     -34.472  40.072  38.493  1.00  0.00     0.293 HD
ENDBRANCH  17  20
ENDBRANCH   1  12
BRANCH   2  22
ATOM     22  O   UNL     1     -34.132  39.923  44.661  1.00  0.00    -0.502 OA
ATOM     23  H   UNL     1     -33.450  39.428  45.221  1.00  0.00     0.293 HD
ENDBRANCH   2  22
BRANCH   6  24
ATOM     24  O   UNL     1     -37.161  38.006  48.430  1.00  0.00    -0.507 OA
ATOM     25  H   UNL     1     -36.993  38.557  49.263  1.00  0.00     0.293 HD
ENDBRANCH   6  24
BRANCH   8  26
ATOM     26  O   UNL     1     -41.567  38.688  46.585  1.00  0.00    -0.508 OA
ATOM     27  H   UNL     1     -42.147  39.464  46.880  1.00  0.00     0.293 HD
ENDBRANCH   8  26
TORSDOF 6
ENDMDL
MODEL 6
REMARK VINA RESULT:    -7.859      1.853      7.114
REMARK INTER + INTRA:          -9.647
REMARK INTER:                  -9.315
REMARK INTRA:                  -0.332
REMARK UNBOUND:                -0.180
REMARK SMILES O=c1c(O)c(-c2ccc(O)c(O)c2)oc2cc(O)cc(O)c12
REMARK SMILES IDX 5 1 3 2 2 3 1 4 22 5 20 6 19 7 17 8 16 9 15 10 14 11 6 12
REMARK SMILES IDX 7 13 8 14 9 15 13 16 11 17 10 18 12 20 4 22 21 24 18 26
REMARK H PARENT 10 19 12 21 4 23 21 25 18 27
REMARK Flexibility Score: inf
ROOT
ATOM      1  C   UNL     1     -35.046  41.505  41.993  1.00  0.00     0.180 A 
ATOM      2  C   UNL     1     -35.500  42.587  42.771  1.00  0.00     0.208 A 
ATOM      3  C   UNL     1     -35.519  43.871  42.201  1.00  0.00     0.238 A 
ATOM      4  O   UNL     1     -35.914  44.850  42.892  1.00  0.00    -0.285 OA
ATOM      5  C   UNL     1     -35.103  44.047  40.866  1.00  0.00     0.111 A 
ATOM      6  C   UNL     1     -35.095  45.304  40.217  1.00  0.00     0.134 A 
ATOM      7  C   UNL     1     -34.676  45.396  38.881  1.00  0.00     0.093 A 
ATOM      8  C   UNL     1     -34.267  44.257  38.184  1.00  0.00     0.123 A 
ATOM      9  C   UNL     1     -34.272  43.012  38.820  1.00  0.00     0.094 A 
ATOM     10  C   UNL     1     -34.685  42.901  40.150  1.00  0.00     0.146 A 
ATOM     11  O   UNL     1     -34.675  41.707  40.732  1.00  0.00    -0.452 OA
ENDROOT
BRANCH   1  12
ATOM     12  C   UNL     1     -34.979  40.125  42.529  1.00  0.00     0.025 A 
ATOM     13  C   UNL     1     -33.823  39.642  43.162  1.00  0.00     0.016 A 
ATOM     14  C   UNL     1     -33.776  38.330  43.637  1.00  0.00     0.051 A 
ATOM     15  C   UNL     1     -34.871  37.472  43.479  1.00  0.00     0.157 A 
ATOM     16  C   UNL     1     -36.070  39.262  42.349  1.00  0.00     0.062 A 
ATOM     17  C   UNL     1     -36.032  37.944  42.822  1.00  0.00     0.158 A 
BRANCH  15  18
ATOM     18  O   UNL     1     -34.760  36.174  43.980  1.00  0.00    -0.504 OA
ATOM     19  H   UNL     1     -35.199  35.367  43.560  1.00  0.00     0.293 HD
ENDBRANCH  15  18
BRANCH  17  20
ATOM     20  O   UNL     1     -37.160  37.144  42.618  1.00  0.00    -0.504 OA
ATOM     21  H   UNL     1     -38.097  37.415  42.875  1.00  0.00     0.293 HD
ENDBRANCH  17  20
ENDBRANCH   1  12
BRANCH   2  22
ATOM     22  O   UNL     1     -35.954  42.379  44.077  1.00  0.00    -0.502 OA
ATOM     23  H   UNL     1     -36.894  42.066  44.280  1.00  0.00     0.293 HD
ENDBRANCH   2  22
BRANCH   6  24
ATOM     24  O   UNL     1     -35.499  46.461  40.886  1.00  0.00    -0.507 OA
ATOM     25  H   UNL     1     -34.861  47.229  41.056  1.00  0.00     0.293 HD
ENDBRANCH   6  24
BRANCH   8  26
ATOM     26  O   UNL     1     -33.855  44.376  36.858  1.00  0.00    -0.508 OA
ATOM     27  H   UNL     1     -32.963  44.791  36.616  1.00  0.00     0.293 HD
ENDBRANCH   8  26
TORSDOF 6
ENDMDL
MODEL 7
REMARK VINA RESULT:    -7.824      2.894      4.917
REMARK INTER + INTRA:          -9.604
REMARK INTER:                  -9.271
REMARK INTRA:                  -0.333
REMARK UNBOUND:                -0.180
REMARK SMILES O=c1c(O)c(-c2ccc(O)c(O)c2)oc2cc(O)cc(O)c12
REMARK SMILES IDX 5 1 3 2 2 3 1 4 22 5 20 6 19 7 17 8 16 9 15 10 14 11 6 12
REMARK SMILES IDX 7 13 8 14 9 15 13 16 11 17 10 18 12 20 4 22 21 24 18 26
REMARK H PARENT 10 19 12 21 4 23 21 25 18 27
REMARK Flexibility Score: inf
ROOT
ATOM      1  C   UNL     1     -35.856  41.931  43.153  1.00  0.00     0.180 A 
ATOM      2  C   UNL     1     -34.975  41.578  44.192  1.00  0.00     0.208 A 
ATOM      3  C   UNL     1     -35.457  40.793  45.252  1.00  0.00     0.238 A 
ATOM      4  O   UNL     1     -34.679  40.479  46.194  1.00  0.00    -0.285 OA
ATOM      5  C   UNL     1     -36.798  40.361  45.246  1.00  0.00     0.111 A 
ATOM      6  C   UNL     1     -37.360  39.565  46.272  1.00  0.00     0.134 A 
ATOM      7  C   UNL     1     -38.703  39.166  46.188  1.00  0.00     0.093 A 
ATOM      8  C   UNL     1     -39.491  39.547  45.100  1.00  0.00     0.123 A 
ATOM      9  C   UNL     1     -38.942  40.334  44.083  1.00  0.00     0.094 A 
ATOM     10  C   UNL     1     -37.607  40.742  44.149  1.00  0.00     0.146 A 
ATOM     11  O   UNL     1     -37.111  41.493  43.173  1.00  0.00    -0.452 OA
ENDROOT
BRANCH   1  12
ATOM     12  C   UNL     1     -35.428  42.772  42.010  1.00  0.00     0.025 A 
ATOM     13  C   UNL     1     -35.524  44.172  42.056  1.00  0.00     0.016 A 
ATOM     14  C   UNL     1     -35.137  44.941  40.958  1.00  0.00     0.051 A 
ATOM     15  C   UNL     1     -34.661  44.332  39.790  1.00  0.00     0.157 A 
ATOM     16  C   UNL     1     -34.971  42.158  40.834  1.00  0.00     0.062 A 
ATOM     17  C   UNL     1     -34.581  42.921  39.727  1.00  0.00     0.158 A 
BRANCH  15  18
ATOM     18  O   UNL     1     -34.285  45.159  38.730  1.00  0.00    -0.504 OA
ATOM     19  H   UNL     1     -34.085  46.145  38.826  1.00  0.00     0.293 HD
ENDBRANCH  15  18
BRANCH  17  20
ATOM     20  O   UNL     1     -34.125  42.242  38.594  1.00  0.00    -0.504 OA
ATOM     21  H   UNL     1     -34.378  41.292  38.365  1.00  0.00     0.293 HD
ENDBRANCH  17  20
ENDBRANCH   1  12
BRANCH   2  22
ATOM     22  O   UNL     1     -33.636  41.978  44.151  1.00  0.00    -0.502 OA
ATOM     23  H   UNL     1     -32.896  41.363  43.838  1.00  0.00     0.293 HD
ENDBRANCH   2  22
BRANCH   6  24
ATOM     24  O   UNL     1     -36.598  39.167  47.372  1.00  0.00    -0.507 OA
ATOM     25  H   UNL     1     -37.001  38.638  48.136  1.00  0.00     0.293 HD
ENDBRANCH   6  24
BRANCH   8  26
ATOM     26  O   UNL     1     -40.822  39.138  45.040  1.00  0.00    -0.508 OA
ATOM     27  H   UNL     1     -41.428  39.417  44.278  1.00  0.00     0.293 HD
ENDBRANCH   8  26
TORSDOF 6
ENDMDL
MODEL 8
REMARK VINA RESULT:    -7.787      2.308      3.961
REMARK INTER + INTRA:          -9.560
REMARK INTER:                  -9.263
REMARK INTRA:                  -0.297
REMARK UNBOUND:                -0.180
REMARK SMILES O=c1c(O)c(-c2ccc(O)c(O)c2)oc2cc(O)cc(O)c12
REMARK SMILES IDX 5 1 3 2 2 3 1 4 22 5 20 6 19 7 17 8 16 9 15 10 14 11 6 12
REMARK SMILES IDX 7 13 8 14 9 15 13 16 11 17 10 18 12 20 4 22 21 24 18 26
REMARK H PARENT 10 19 12 21 4 23 21 25 18 27
REMARK Flexibility Score: inf
ROOT
ATOM      1  C   UNL     1     -35.316  42.346  41.668  1.00  0.00     0.180 A 
ATOM      2  C   UNL     1     -36.248  41.382  41.240  1.00  0.00     0.208 A 
ATOM      3  C   UNL     1     -36.934  40.626  42.205  1.00  0.00     0.238 A 
ATOM      4  O   UNL     1     -37.764  39.753  41.833  1.00  0.00    -0.285 OA
ATOM      5  C   UNL     1     -36.692  40.859  43.574  1.00  0.00     0.111 A 
ATOM      6  C   UNL     1     -37.343  40.145  44.608  1.00  0.00     0.134 A 
ATOM      7  C   UNL     1     -37.054  40.443  45.948  1.00  0.00     0.093 A 
ATOM      8  C   UNL     1     -36.130  41.438  46.273  1.00  0.00     0.123 A 
ATOM      9  C   UNL     1     -35.483  42.146  45.256  1.00  0.00     0.094 A 
ATOM     10  C   UNL     1     -35.756  41.864  43.915  1.00  0.00     0.146 A 
ATOM     11  O   UNL     1     -35.124  42.548  42.968  1.00  0.00    -0.452 OA
ENDROOT
BRANCH   1  12
ATOM     12  C   UNL     1     -34.540  43.169  40.712  1.00  0.00     0.025 A 
ATOM     13  C   UNL     1     -33.202  42.869  40.407  1.00  0.00     0.016 A 
ATOM     14  C   UNL     1     -32.485  43.674  39.520  1.00  0.00     0.051 A 
ATOM     15  C   UNL     1     -33.078  44.797  38.932  1.00  0.00     0.157 A 
ATOM     16  C   UNL     1     -35.131  44.306  40.141  1.00  0.00     0.062 A 
ATOM     17  C   UNL     1     -34.419  45.119  39.251  1.00  0.00     0.158 A 
BRANCH  15  18
ATOM     18  O   UNL     1     -32.307  45.557  38.051  1.00  0.00    -0.504 OA
ATOM     19  H   UNL     1     -32.661  46.343  37.525  1.00  0.00     0.293 HD
ENDBRANCH  15  18
BRANCH  17  20
ATOM     20  O   UNL     1     -35.076  46.229  38.712  1.00  0.00    -0.504 OA
ATOM     21  H   UNL     1     -36.011  46.509  38.966  1.00  0.00     0.293 HD
ENDBRANCH  17  20
ENDBRANCH   1  12
BRANCH   2  22
ATOM     22  O   UNL     1     -36.507  41.204  39.878  1.00  0.00    -0.502 OA
ATOM     23  H   UNL     1     -36.070  40.470  39.335  1.00  0.00     0.293 HD
ENDBRANCH   2  22
BRANCH   6  24
ATOM     24  O   UNL     1     -38.273  39.145  44.316  1.00  0.00    -0.507 OA
ATOM     25  H   UNL     1     -38.231  38.234  44.756  1.00  0.00     0.293 HD
ENDBRANCH   6  24
BRANCH   8  26
ATOM     26  O   UNL     1     -35.861  41.714  47.612  1.00  0.00    -0.508 OA
ATOM     27  H   UNL     1     -36.018  42.635  48.005  1.00  0.00     0.293 HD
ENDBRANCH   8  26
TORSDOF 6
ENDMDL
MODEL 9
REMARK VINA RESULT:    -7.714      2.656      4.572
REMARK INTER + INTRA:          -9.472
REMARK INTER:                  -9.226
REMARK INTRA:                  -0.246
REMARK UNBOUND:                -0.180
REMARK SMILES O=c1c(O)c(-c2ccc(O)c(O)c2)oc2cc(O)cc(O)c12
REMARK SMILES IDX 5 1 3 2 2 3 1 4 22 5 20 6 19 7 17 8 16 9 15 10 14 11 6 12
REMARK SMILES IDX 7 13 8 14 9 15 13 16 11 17 10 18 12 20 4 22 21 24 18 26
REMARK H PARENT 10 19 12 21 4 23 21 25 18 27
REMARK Flexibility Score: inf
ROOT
ATOM      1  C   UNL     1     -35.202  41.287  43.139  1.00  0.00     0.180 A 
ATOM      2  C   UNL     1     -35.526  41.899  44.365  1.00  0.00     0.208 A 
ATOM      3  C   UNL     1     -36.121  41.124  45.373  1.00  0.00     0.238 A 
ATOM      4  O   UNL     1     -36.425  41.664  46.472  1.00  0.00    -0.285 OA
ATOM      5  C   UNL     1     -36.365  39.754  45.147  1.00  0.00     0.111 A 
ATOM      6  C   UNL     1     -36.957  38.904  46.110  1.00  0.00     0.134 A 
ATOM      7  C   UNL     1     -37.158  37.547  45.813  1.00  0.00     0.093 A 
ATOM      8  C   UNL     1     -36.778  37.027  44.574  1.00  0.00     0.123 A 
ATOM      9  C   UNL     1     -36.193  37.862  43.617  1.00  0.00     0.094 A 
ATOM     10  C   UNL     1     -35.986  39.216  43.895  1.00  0.00     0.146 A 
ATOM     11  O   UNL     1     -35.433  39.989  42.967  1.00  0.00    -0.452 OA
ENDROOT
BRANCH   1  12
ATOM     12  C   UNL     1     -34.589  42.042  42.021  1.00  0.00     0.025 A 
ATOM     13  C   UNL     1     -35.320  42.995  41.294  1.00  0.00     0.016 A 
ATOM     14  C   UNL     1     -34.728  43.676  40.230  1.00  0.00     0.051 A 
ATOM     15  C   UNL     1     -33.403  43.412  39.860  1.00  0.00     0.157 A 
ATOM     16  C   UNL     1     -33.269  41.759  41.639  1.00  0.00     0.062 A 
ATOM     17  C   UNL     1     -32.666  42.437  40.573  1.00  0.00     0.158 A 
BRANCH  15  18
ATOM     18  O   UNL     1     -32.869  44.131  38.790  1.00  0.00    -0.504 OA
ATOM     19  H   UNL     1     -32.941  43.842  37.824  1.00  0.00     0.293 HD
ENDBRANCH  15  18
BRANCH  17  20
ATOM     20  O   UNL     1     -31.344  42.112  40.256  1.00  0.00    -0.504 OA
ATOM     21  H   UNL     1     -31.070  41.266  39.779  1.00  0.00     0.293 HD
ENDBRANCH  17  20
ENDBRANCH   1  12
BRANCH   2  22
ATOM     22  O   UNL     1     -35.229  43.248  44.583  1.00  0.00    -0.502 OA
ATOM     23  H   UNL     1     -35.262  43.936  43.842  1.00  0.00     0.293 HD
ENDBRANCH   2  22
BRANCH   6  24
ATOM     24  O   UNL     1     -37.347  39.393  47.359  1.00  0.00    -0.507 OA
ATOM     25  H   UNL     1     -38.107  40.054  47.458  1.00  0.00     0.293 HD
ENDBRANCH   6  24
BRANCH   8  26
ATOM     26  O   UNL     1     -36.989  35.676  44.303  1.00  0.00    -0.508 OA
ATOM     27  H   UNL     1     -36.787  34.960  44.991  1.00  0.00     0.293 HD
ENDBRANCH   8  26
TORSDOF 6
ENDMDL
