MODEL 1
REMARK VINA RESULT:    -6.761      0.000      0.000
REMARK INTER + INTRA:          -8.404
REMARK INTER:                  -8.144
REMARK INTRA:                  -0.260
REMARK UNBOUND:                -0.260
REMARK SMILES O=c1c(O)c(-c2ccc(O)c(O)c2)oc2cc(O)cc(O)c12
REMARK SMILES IDX 5 1 3 2 2 3 1 4 22 5 20 6 19 7 17 8 16 9 15 10 14 11 6 12
REMARK SMILES IDX 7 13 8 14 9 15 13 16 11 17 10 18 12 20 4 22 21 24 18 26
REMARK H PARENT 10 19 12 21 4 23 21 25 18 27
REMARK Flexibility Score: inf
ROOT
ATOM      1  C   UNL     1      18.873  -1.653 -17.195  1.00  0.00     0.180 A 
ATOM      2  C   UNL     1      18.123  -0.915 -16.259  1.00  0.00     0.208 A 
ATOM      3  C   UNL     1      17.373  -1.606 -15.295  1.00  0.00     0.238 A 
ATOM      4  O   UNL     1      16.689  -0.956 -14.458  1.00  0.00    -0.285 OA
ATOM      5  C   UNL     1      17.400  -3.016 -15.269  1.00  0.00     0.111 A 
ATOM      6  C   UNL     1      16.677  -3.787 -14.328  1.00  0.00     0.134 A 
ATOM      7  C   UNL     1      16.764  -5.187 -14.362  1.00  0.00     0.093 A 
ATOM      8  C   UNL     1      17.560  -5.828 -15.317  1.00  0.00     0.123 A 
ATOM      9  C   UNL     1      18.274  -5.072 -16.248  1.00  0.00     0.094 A 
ATOM     10  C   UNL     1      18.200  -3.676 -16.232  1.00  0.00     0.146 A 
ATOM     11  O   UNL     1      18.886  -2.982 -17.130  1.00  0.00    -0.452 OA
ENDROOT
BRANCH   1  12
ATOM     12  C   UNL     1      19.674  -0.997 -18.253  1.00  0.00     0.025 A 
ATOM     13  C   UNL     1      19.184  -0.966 -19.569  1.00  0.00     0.016 A 
ATOM     14  C   UNL     1      19.913  -0.334 -20.581  1.00  0.00     0.051 A 
ATOM     15  C   UNL     1      21.131   0.288 -20.291  1.00  0.00     0.157 A 
ATOM     16  C   UNL     1      20.889  -0.353 -17.961  1.00  0.00     0.062 A 
ATOM     17  C   UNL     1      21.621   0.283 -18.975  1.00  0.00     0.158 A 
BRANCH  15  18
ATOM     18  O   UNL     1      21.836   0.908 -21.322  1.00  0.00    -0.504 OA
ATOM     19  H   UNL     1      21.808   0.566 -22.274  1.00  0.00     0.293 HD
ENDBRANCH  15  18
BRANCH  17  20
ATOM     20  O   UNL     1      22.828   0.913 -18.677  1.00  0.00    -0.504 OA
ATOM     21  H   UNL     1      23.018   1.864 -18.972  1.00  0.00     0.293 HD
ENDBRANCH  17  20
ENDBRANCH   1  12
BRANCH   2  22
ATOM     22  O   UNL     1      18.152   0.481 -16.274  1.00  0.00    -0.502 OA
ATOM     23  H   UNL     1      18.908   1.013 -15.859  1.00  0.00     0.293 HD
ENDBRANCH   2  22
BRANCH   6  24
ATOM     24  O   UNL     1      15.875  -3.176 -13.363  1.00  0.00    -0.507 OA
ATOM     25  H   UNL     1      15.727  -3.593 -12.451  1.00  0.00     0.293 HD
ENDBRANCH   6  24
BRANCH   8  26
ATOM     26  O   UNL     1      17.646  -7.218 -15.351  1.00  0.00    -0.508 OA
ATOM     27  H   UNL     1      18.540  -7.695 -15.333  1.00  0.00     0.293 HD
ENDBRANCH   8  26
TORSDOF 6
ENDMDL
MODEL 2
REMARK VINA RESULT:    -6.528     12.278     15.500
REMARK INTER + INTRA:          -8.123
REMARK INTER:                  -8.236
REMARK INTRA:                   0.112
REMARK UNBOUND:                -0.260
REMARK SMILES O=c1c(O)c(-c2ccc(O)c(O)c2)oc2cc(O)cc(O)c12
REMARK SMILES IDX 5 1 3 2 2 3 1 4 22 5 20 6 19 7 17 8 16 9 15 10 14 11 6 12
REMARK SMILES IDX 7 13 8 14 9 15 13 16 11 17 10 18 12 20 4 22 21 24 18 26
REMARK H PARENT 10 19 12 21 4 23 21 25 18 27
REMARK Flexibility Score: inf
ROOT
ATOM      1  C   UNL     1       8.273  -6.271  -8.540  1.00  0.00     0.180 A 
ATOM      2  C   UNL     1       8.689  -7.439  -9.208  1.00  0.00     0.208 A 
ATOM      3  C   UNL     1       8.715  -7.444 -10.611  1.00  0.00     0.238 A 
ATOM      4  O   UNL     1       9.076  -8.488 -11.221  1.00  0.00    -0.285 OA
ATOM      5  C   UNL     1       8.347  -6.283 -11.321  1.00  0.00     0.111 A 
ATOM      6  C   UNL     1       8.350  -6.204 -12.734  1.00  0.00     0.134 A 
ATOM      7  C   UNL     1       7.978  -5.007 -13.365  1.00  0.00     0.093 A 
ATOM      8  C   UNL     1       7.605  -3.890 -12.610  1.00  0.00     0.123 A 
ATOM      9  C   UNL     1       7.599  -3.963 -11.216  1.00  0.00     0.094 A 
ATOM     10  C   UNL     1       7.965  -5.146 -10.568  1.00  0.00     0.146 A 
ATOM     11  O   UNL     1       7.946  -5.190  -9.242  1.00  0.00    -0.452 OA
ENDROOT
BRANCH   1  12
ATOM     12  C   UNL     1       8.200  -6.194  -7.063  1.00  0.00     0.025 A 
ATOM     13  C   UNL     1       8.554  -4.999  -6.416  1.00  0.00     0.016 A 
ATOM     14  C   UNL     1       8.473  -4.896  -5.025  1.00  0.00     0.051 A 
ATOM     15  C   UNL     1       8.022  -5.977  -4.261  1.00  0.00     0.157 A 
ATOM     16  C   UNL     1       7.727  -7.273  -6.295  1.00  0.00     0.062 A 
ATOM     17  C   UNL     1       7.643  -7.171  -4.898  1.00  0.00     0.158 A 
BRANCH  15  18
ATOM     18  O   UNL     1       7.954  -5.846  -2.875  1.00  0.00    -0.504 OA
ATOM     19  H   UNL     1       7.621  -5.000  -2.430  1.00  0.00     0.293 HD
ENDBRANCH  15  18
BRANCH  17  20
ATOM     20  O   UNL     1       7.180  -8.248  -4.144  1.00  0.00    -0.504 OA
ATOM     21  H   UNL     1       7.262  -9.203  -4.475  1.00  0.00     0.293 HD
ENDBRANCH  17  20
ENDBRANCH   1  12
BRANCH   2  22
ATOM     22  O   UNL     1       9.097  -8.560  -8.482  1.00  0.00    -0.502 OA
ATOM     23  H   UNL     1       8.508  -9.376  -8.365  1.00  0.00     0.293 HD
ENDBRANCH   2  22
BRANCH   6  24
ATOM     24  O   UNL     1       8.719  -7.302 -13.513  1.00  0.00    -0.507 OA
ATOM     25  H   UNL     1       8.029  -7.876 -13.984  1.00  0.00     0.293 HD
ENDBRANCH   6  24
BRANCH   8  26
ATOM     26  O   UNL     1       7.236  -2.702 -13.237  1.00  0.00    -0.508 OA
ATOM     27  H   UNL     1       7.773  -1.851 -13.120  1.00  0.00     0.293 HD
ENDBRANCH   8  26
TORSDOF 6
ENDMDL
MODEL 3
REMARK VINA RESULT:    -6.389      1.169      2.832
REMARK INTER + INTRA:          -7.955
REMARK INTER:                  -7.730
REMARK INTRA:                  -0.226
REMARK UNBOUND:                -0.260
REMARK SMILES O=c1c(O)c(-c2ccc(O)c(O)c2)oc2cc(O)cc(O)c12
REMARK SMILES IDX 5 1 3 2 2 3 1 4 22 5 20 6 19 7 17 8 16 9 15 10 14 11 6 12
REMARK SMILES IDX 7 13 8 14 9 15 13 16 11 17 10 18 12 20 4 22 21 24 18 26
REMARK H PARENT 10 19 12 21 4 23 21 25 18 27
REMARK Flexibility Score: inf
ROOT
ATOM      1  C   UNL     1      18.944  -2.422 -17.475  1.00  0.00     0.180 A 
ATOM      2  C   UNL     1      18.883  -3.810 -17.704  1.00  0.00     0.208 A 
ATOM      3  C   UNL     1      18.245  -4.626 -16.757  1.00  0.00     0.238 A 
ATOM      4  O   UNL     1      18.192  -5.872 -16.946  1.00  0.00    -0.285 OA
ATOM      5  C   UNL     1      17.665  -4.043 -15.611  1.00  0.00     0.111 A 
ATOM      6  C   UNL     1      17.001  -4.793 -14.612  1.00  0.00     0.134 A 
ATOM      7  C   UNL     1      16.442  -4.136 -13.505  1.00  0.00     0.093 A 
ATOM      8  C   UNL     1      16.534  -2.746 -13.380  1.00  0.00     0.123 A 
ATOM      9  C   UNL     1      17.188  -2.002 -14.363  1.00  0.00     0.094 A 
ATOM     10  C   UNL     1      17.753  -2.637 -15.473  1.00  0.00     0.146 A 
ATOM     11  O   UNL     1      18.374  -1.906 -16.390  1.00  0.00    -0.452 OA
ENDROOT
BRANCH   1  12
ATOM     12  C   UNL     1      19.616  -1.499 -18.417  1.00  0.00     0.025 A 
ATOM     13  C   UNL     1      19.008  -1.206 -19.649  1.00  0.00     0.016 A 
ATOM     14  C   UNL     1      19.613  -0.322 -20.545  1.00  0.00     0.051 A 
ATOM     15  C   UNL     1      20.825   0.296 -20.220  1.00  0.00     0.157 A 
ATOM     16  C   UNL     1      20.824  -0.861 -18.084  1.00  0.00     0.062 A 
ATOM     17  C   UNL     1      21.433   0.029 -18.981  1.00  0.00     0.158 A 
BRANCH  15  18
ATOM     18  O   UNL     1      21.406   1.172 -21.135  1.00  0.00    -0.504 OA
ATOM     19  H   UNL     1      22.289   0.969 -21.588  1.00  0.00     0.293 HD
ENDBRANCH  15  18
BRANCH  17  20
ATOM     20  O   UNL     1      22.633   0.652 -18.645  1.00  0.00    -0.504 OA
ATOM     21  H   UNL     1      23.007   1.418 -19.195  1.00  0.00     0.293 HD
ENDBRANCH  17  20
ENDBRANCH   1  12
BRANCH   2  22
ATOM     22  O   UNL     1      19.420  -4.357 -18.872  1.00  0.00    -0.502 OA
ATOM     23  H   UNL     1      18.843  -4.645 -19.652  1.00  0.00     0.293 HD
ENDBRANCH   2  22
BRANCH   6  24
ATOM     24  O   UNL     1      16.893  -6.181 -14.709  1.00  0.00    -0.507 OA
ATOM     25  H   UNL     1      17.634  -6.746 -15.109  1.00  0.00     0.293 HD
ENDBRANCH   6  24
BRANCH   8  26
ATOM     26  O   UNL     1      15.978  -2.094 -12.282  1.00  0.00    -0.508 OA
ATOM     27  H   UNL     1      16.538  -1.512 -11.670  1.00  0.00     0.293 HD
ENDBRANCH   8  26
TORSDOF 6
ENDMDL
MODEL 4
REMARK VINA RESULT:    -6.021      7.663     11.156
REMARK INTER + INTRA:          -7.513
REMARK INTER:                  -7.204
REMARK INTRA:                  -0.309
REMARK UNBOUND:                -0.260
REMARK SMILES O=c1c(O)c(-c2ccc(O)c(O)c2)oc2cc(O)cc(O)c12
REMARK SMILES IDX 5 1 3 2 2 3 1 4 22 5 20 6 19 7 17 8 16 9 15 10 14 11 6 12
REMARK SMILES IDX 7 13 8 14 9 15 13 16 11 17 10 18 12 20 4 22 21 24 18 26
REMARK H PARENT 10 19 12 21 4 23 21 25 18 27
REMARK Flexibility Score: inf
ROOT
ATOM      1  C   UNL     1      11.196  -5.988 -10.781  1.00  0.00     0.180 A 
ATOM      2  C   UNL     1      10.930  -6.212  -9.417  1.00  0.00     0.208 A 
ATOM      3  C   UNL     1       9.794  -6.957  -9.062  1.00  0.00     0.238 A 
ATOM      4  O   UNL     1       9.539  -7.156  -7.842  1.00  0.00    -0.285 OA
ATOM      5  C   UNL     1       8.958  -7.479 -10.071  1.00  0.00     0.111 A 
ATOM      6  C   UNL     1       7.799  -8.243  -9.798  1.00  0.00     0.134 A 
ATOM      7  C   UNL     1       7.024  -8.735 -10.860  1.00  0.00     0.093 A 
ATOM      8  C   UNL     1       7.388  -8.479 -12.186  1.00  0.00     0.123 A 
ATOM      9  C   UNL     1       8.531  -7.725 -12.460  1.00  0.00     0.094 A 
ATOM     10  C   UNL     1       9.315  -7.225 -11.417  1.00  0.00     0.146 A 
ATOM     11  O   UNL     1      10.394  -6.508 -11.705  1.00  0.00    -0.452 OA
ENDROOT
BRANCH   1  12
ATOM     12  C   UNL     1      12.363  -5.197 -11.234  1.00  0.00     0.025 A 
ATOM     13  C   UNL     1      13.613  -5.823 -11.364  1.00  0.00     0.016 A 
ATOM     14  C   UNL     1      14.724  -5.101 -11.810  1.00  0.00     0.051 A 
ATOM     15  C   UNL     1      14.600  -3.750 -12.147  1.00  0.00     0.157 A 
ATOM     16  C   UNL     1      12.237  -3.843 -11.593  1.00  0.00     0.062 A 
ATOM     17  C   UNL     1      13.349  -3.117 -12.042  1.00  0.00     0.158 A 
BRANCH  15  18
ATOM     18  O   UNL     1      15.726  -3.055 -12.586  1.00  0.00    -0.504 OA
ATOM     19  H   UNL     1      15.756  -2.043 -12.614  1.00  0.00     0.293 HD
ENDBRANCH  15  18
BRANCH  17  20
ATOM     20  O   UNL     1      13.216  -1.774 -12.389  1.00  0.00    -0.504 OA
ATOM     21  H   UNL     1      12.319  -1.303 -12.356  1.00  0.00     0.293 HD
ENDBRANCH  17  20
ENDBRANCH   1  12
BRANCH   2  22
ATOM     22  O   UNL     1      11.800  -5.727  -8.438  1.00  0.00    -0.502 OA
ATOM     23  H   UNL     1      11.773  -4.768  -8.114  1.00  0.00     0.293 HD
ENDBRANCH   2  22
BRANCH   6  24
ATOM     24  O   UNL     1       7.410  -8.515  -8.485  1.00  0.00    -0.507 OA
ATOM     25  H   UNL     1       8.045  -8.941  -7.819  1.00  0.00     0.293 HD
ENDBRANCH   6  24
BRANCH   8  26
ATOM     26  O   UNL     1       6.620  -8.968 -13.239  1.00  0.00    -0.508 OA
ATOM     27  H   UNL     1       6.143  -8.347 -13.882  1.00  0.00     0.293 HD
ENDBRANCH   8  26
TORSDOF 6
ENDMDL
MODEL 5
REMARK VINA RESULT:    -5.914      1.321      3.101
REMARK INTER + INTRA:          -7.384
REMARK INTER:                  -7.111
REMARK INTRA:                  -0.273
REMARK UNBOUND:                -0.260
REMARK SMILES O=c1c(O)c(-c2ccc(O)c(O)c2)oc2cc(O)cc(O)c12
REMARK SMILES IDX 5 1 3 2 2 3 1 4 22 5 20 6 19 7 17 8 16 9 15 10 14 11 6 12
REMARK SMILES IDX 7 13 8 14 9 15 13 16 11 17 10 18 12 20 4 22 21 24 18 26
REMARK H PARENT 10 19 12 21 4 23 21 25 18 27
REMARK Flexibility Score: inf
ROOT
ATOM      1  C   UNL     1      18.631  -1.657 -16.967  1.00  0.00     0.180 A 
ATOM      2  C   UNL     1      18.502  -3.051 -16.812  1.00  0.00     0.208 A 
ATOM      3  C   UNL     1      17.709  -3.546 -15.765  1.00  0.00     0.238 A 
ATOM      4  O   UNL     1      17.594  -4.792 -15.609  1.00  0.00    -0.285 OA
ATOM      5  C   UNL     1      17.045  -2.645 -14.907  1.00  0.00     0.111 A 
ATOM      6  C   UNL     1      16.224  -3.061 -13.832  1.00  0.00     0.134 A 
ATOM      7  C   UNL     1      15.590  -2.101 -13.028  1.00  0.00     0.093 A 
ATOM      8  C   UNL     1      15.760  -0.735 -13.281  1.00  0.00     0.123 A 
ATOM      9  C   UNL     1      16.569  -0.320 -14.340  1.00  0.00     0.094 A 
ATOM     10  C   UNL     1      17.211  -1.261 -15.151  1.00  0.00     0.146 A 
ATOM     11  O   UNL     1      17.979  -0.838 -16.148  1.00  0.00    -0.452 OA
ENDROOT
BRANCH   1  12
ATOM     12  C   UNL     1      19.465  -1.060 -18.035  1.00  0.00     0.025 A 
ATOM     13  C   UNL     1      18.971  -1.007 -19.348  1.00  0.00     0.016 A 
ATOM     14  C   UNL     1      19.732  -0.429 -20.368  1.00  0.00     0.051 A 
ATOM     15  C   UNL     1      20.988   0.119 -20.089  1.00  0.00     0.157 A 
ATOM     16  C   UNL     1      20.720  -0.490 -17.753  1.00  0.00     0.062 A 
ATOM     17  C   UNL     1      21.484   0.093 -18.775  1.00  0.00     0.158 A 
BRANCH  15  18
ATOM     18  O   UNL     1      21.725   0.687 -21.127  1.00  0.00    -0.504 OA
ATOM     19  H   UNL     1      22.724   0.548 -21.217  1.00  0.00     0.293 HD
ENDBRANCH  15  18
BRANCH  17  20
ATOM     20  O   UNL     1      22.729   0.649 -18.488  1.00  0.00    -0.504 OA
ATOM     21  H   UNL     1      23.025   1.529 -18.897  1.00  0.00     0.293 HD
ENDBRANCH  17  20
ENDBRANCH   1  12
BRANCH   2  22
ATOM     22  O   UNL     1      19.129  -3.923 -17.705  1.00  0.00    -0.502 OA
ATOM     23  H   UNL     1      20.087  -4.229 -17.584  1.00  0.00     0.293 HD
ENDBRANCH   2  22
BRANCH   6  24
ATOM     24  O   UNL     1      16.035  -4.416 -13.556  1.00  0.00    -0.507 OA
ATOM     25  H   UNL     1      16.814  -5.032 -13.353  1.00  0.00     0.293 HD
ENDBRANCH   6  24
BRANCH   8  26
ATOM     26  O   UNL     1      15.130   0.217 -12.484  1.00  0.00    -0.508 OA
ATOM     27  H   UNL     1      14.996   0.073 -11.490  1.00  0.00     0.293 HD
ENDBRANCH   8  26
TORSDOF 6
ENDMDL
MODEL 6
REMARK VINA RESULT:    -5.894      8.950     12.829
REMARK INTER + INTRA:          -7.360
REMARK INTER:                  -7.269
REMARK INTRA:                  -0.092
REMARK UNBOUND:                -0.260
REMARK SMILES O=c1c(O)c(-c2ccc(O)c(O)c2)oc2cc(O)cc(O)c12
REMARK SMILES IDX 5 1 3 2 2 3 1 4 22 5 20 6 19 7 17 8 16 9 15 10 14 11 6 12
REMARK SMILES IDX 7 13 8 14 9 15 13 16 11 17 10 18 12 20 4 22 21 24 18 26
REMARK H PARENT 10 19 12 21 4 23 21 25 18 27
REMARK Flexibility Score: inf
ROOT
ATOM      1  C   UNL     1      10.600  -7.168  -9.686  1.00  0.00     0.180 A 
ATOM      2  C   UNL     1      10.414  -7.993  -8.560  1.00  0.00     0.208 A 
ATOM      3  C   UNL     1       9.393  -7.677  -7.650  1.00  0.00     0.238 A 
ATOM      4  O   UNL     1       9.223  -8.403  -6.632  1.00  0.00    -0.285 OA
ATOM      5  C   UNL     1       8.567  -6.559  -7.888  1.00  0.00     0.111 A 
ATOM      6  C   UNL     1       7.515  -6.175  -7.023  1.00  0.00     0.134 A 
ATOM      7  C   UNL     1       6.731  -5.053  -7.335  1.00  0.00     0.093 A 
ATOM      8  C   UNL     1       6.980  -4.311  -8.495  1.00  0.00     0.123 A 
ATOM      9  C   UNL     1       8.017  -4.686  -9.351  1.00  0.00     0.094 A 
ATOM     10  C   UNL     1       8.810  -5.799  -9.057  1.00  0.00     0.146 A 
ATOM     11  O   UNL     1       9.792  -6.130  -9.885  1.00  0.00    -0.452 OA
ENDROOT
BRANCH   1  12
ATOM     12  C   UNL     1      11.666  -7.424 -10.681  1.00  0.00     0.025 A 
ATOM     13  C   UNL     1      11.672  -8.637 -11.389  1.00  0.00     0.016 A 
ATOM     14  C   UNL     1      12.657  -8.892 -12.347  1.00  0.00     0.051 A 
ATOM     15  C   UNL     1      13.639  -7.936 -12.624  1.00  0.00     0.157 A 
ATOM     16  C   UNL     1      12.643  -6.456 -10.975  1.00  0.00     0.062 A 
ATOM     17  C   UNL     1      13.631  -6.710 -11.938  1.00  0.00     0.158 A 
BRANCH  15  18
ATOM     18  O   UNL     1      14.610  -8.220 -13.583  1.00  0.00    -0.504 OA
ATOM     19  H   UNL     1      15.166  -7.494 -14.017  1.00  0.00     0.293 HD
ENDBRANCH  15  18
BRANCH  17  20
ATOM     20  O   UNL     1      14.599  -5.747 -12.219  1.00  0.00    -0.504 OA
ATOM     21  H   UNL     1      15.075  -5.718 -13.113  1.00  0.00     0.293 HD
ENDBRANCH  17  20
ENDBRANCH   1  12
BRANCH   2  22
ATOM     22  O   UNL     1      11.212  -9.123  -8.373  1.00  0.00    -0.502 OA
ATOM     23  H   UNL     1      11.854  -9.458  -9.081  1.00  0.00     0.293 HD
ENDBRANCH   2  22
BRANCH   6  24
ATOM     24  O   UNL     1       7.243  -6.896  -5.859  1.00  0.00    -0.507 OA
ATOM     25  H   UNL     1       6.711  -6.493  -5.095  1.00  0.00     0.293 HD
ENDBRANCH   6  24
BRANCH   8  26
ATOM     26  O   UNL     1       6.202  -3.199  -8.805  1.00  0.00    -0.508 OA
ATOM     27  H   UNL     1       6.265  -2.341  -8.270  1.00  0.00     0.293 HD
ENDBRANCH   8  26
TORSDOF 6
ENDMDL
MODEL 7
REMARK VINA RESULT:    -5.833      6.597      9.091
REMARK INTER + INTRA:          -7.286
REMARK INTER:                  -7.017
REMARK INTRA:                  -0.269
REMARK UNBOUND:                -0.260
REMARK SMILES O=c1c(O)c(-c2ccc(O)c(O)c2)oc2cc(O)cc(O)c12
REMARK SMILES IDX 5 1 3 2 2 3 1 4 22 5 20 6 19 7 17 8 16 9 15 10 14 11 6 12
REMARK SMILES IDX 7 13 8 14 9 15 13 16 11 17 10 18 12 20 4 22 21 24 18 26
REMARK H PARENT 10 19 12 21 4 23 21 25 18 27
REMARK Flexibility Score: inf
ROOT
ATOM      1  C   UNL     1      17.997  -1.920  -9.158  1.00  0.00     0.180 A 
ATOM      2  C   UNL     1      17.202  -0.760  -9.096  1.00  0.00     0.208 A 
ATOM      3  C   UNL     1      16.160  -0.602 -10.024  1.00  0.00     0.238 A 
ATOM      4  O   UNL     1      15.447   0.438  -9.985  1.00  0.00    -0.285 OA
ATOM      5  C   UNL     1      15.919  -1.610 -10.980  1.00  0.00     0.111 A 
ATOM      6  C   UNL     1      14.887  -1.530 -11.946  1.00  0.00     0.134 A 
ATOM      7  C   UNL     1      14.706  -2.581 -12.858  1.00  0.00     0.093 A 
ATOM      8  C   UNL     1      15.534  -3.708 -12.821  1.00  0.00     0.123 A 
ATOM      9  C   UNL     1      16.553  -3.790 -11.871  1.00  0.00     0.094 A 
ATOM     10  C   UNL     1      16.752  -2.754 -10.954  1.00  0.00     0.146 A 
ATOM     11  O   UNL     1      17.731  -2.856 -10.064  1.00  0.00    -0.452 OA
ENDROOT
BRANCH   1  12
ATOM     12  C   UNL     1      19.126  -2.150  -8.228  1.00  0.00     0.025 A 
ATOM     13  C   UNL     1      20.440  -1.919  -8.666  1.00  0.00     0.016 A 
ATOM     14  C   UNL     1      21.519  -2.109  -7.799  1.00  0.00     0.051 A 
ATOM     15  C   UNL     1      21.303  -2.516  -6.479  1.00  0.00     0.157 A 
ATOM     16  C   UNL     1      18.910  -2.540  -6.894  1.00  0.00     0.062 A 
ATOM     17  C   UNL     1      19.991  -2.729  -6.021  1.00  0.00     0.158 A 
BRANCH  15  18
ATOM     18  O   UNL     1      22.399  -2.700  -5.638  1.00  0.00    -0.504 OA
ATOM     19  H   UNL     1      23.320  -2.349  -5.871  1.00  0.00     0.293 HD
ENDBRANCH  15  18
BRANCH  17  20
ATOM     20  O   UNL     1      19.768  -3.122  -4.703  1.00  0.00    -0.504 OA
ATOM     21  H   UNL     1      18.846  -3.077  -4.284  1.00  0.00     0.293 HD
ENDBRANCH  17  20
ENDBRANCH   1  12
BRANCH   2  22
ATOM     22  O   UNL     1      17.429   0.201  -8.108  1.00  0.00    -0.502 OA
ATOM     23  H   UNL     1      16.771   0.375  -7.358  1.00  0.00     0.293 HD
ENDBRANCH   2  22
BRANCH   6  24
ATOM     24  O   UNL     1      14.045  -0.419 -12.006  1.00  0.00    -0.507 OA
ATOM     25  H   UNL     1      14.379   0.515 -11.798  1.00  0.00     0.293 HD
ENDBRANCH   6  24
BRANCH   8  26
ATOM     26  O   UNL     1      15.353  -4.751 -13.726  1.00  0.00    -0.508 OA
ATOM     27  H   UNL     1      14.442  -5.162 -13.887  1.00  0.00     0.293 HD
ENDBRANCH   8  26
TORSDOF 6
ENDMDL
MODEL 8
REMARK VINA RESULT:    -5.782     10.733     12.125
REMARK INTER + INTRA:          -7.225
REMARK INTER:                  -6.909
REMARK INTRA:                  -0.316
REMARK UNBOUND:                -0.260
REMARK SMILES O=c1c(O)c(-c2ccc(O)c(O)c2)oc2cc(O)cc(O)c12
REMARK SMILES IDX 5 1 3 2 2 3 1 4 22 5 20 6 19 7 17 8 16 9 15 10 14 11 6 12
REMARK SMILES IDX 7 13 8 14 9 15 13 16 11 17 10 18 12 20 4 22 21 24 18 26
REMARK H PARENT 10 19 12 21 4 23 21 25 18 27
REMARK Flexibility Score: inf
ROOT
ATOM      1  C   UNL     1       9.396   3.489 -18.889  1.00  0.00     0.180 A 
ATOM      2  C   UNL     1       8.908   2.743 -19.978  1.00  0.00     0.208 A 
ATOM      3  C   UNL     1       7.532   2.477 -20.055  1.00  0.00     0.238 A 
ATOM      4  O   UNL     1       7.083   1.801 -21.021  1.00  0.00    -0.285 OA
ATOM      5  C   UNL     1       6.668   2.974 -19.057  1.00  0.00     0.111 A 
ATOM      6  C   UNL     1       5.270   2.754 -19.062  1.00  0.00     0.134 A 
ATOM      7  C   UNL     1       4.477   3.291 -18.036  1.00  0.00     0.093 A 
ATOM      8  C   UNL     1       5.056   4.043 -17.008  1.00  0.00     0.123 A 
ATOM      9  C   UNL     1       6.435   4.261 -16.998  1.00  0.00     0.094 A 
ATOM     10  C   UNL     1       7.242   3.734 -18.010  1.00  0.00     0.146 A 
ATOM     11  O   UNL     1       8.550   3.954 -17.974  1.00  0.00    -0.452 OA
ENDROOT
BRANCH   1  12
ATOM     12  C   UNL     1      10.836   3.794 -18.728  1.00  0.00     0.025 A 
ATOM     13  C   UNL     1      11.313   5.071 -19.065  1.00  0.00     0.016 A 
ATOM     14  C   UNL     1      12.664   5.389 -18.902  1.00  0.00     0.051 A 
ATOM     15  C   UNL     1      13.555   4.443 -18.385  1.00  0.00     0.157 A 
ATOM     16  C   UNL     1      11.730   2.852 -18.189  1.00  0.00     0.062 A 
ATOM     17  C   UNL     1      13.087   3.169 -18.023  1.00  0.00     0.158 A 
BRANCH  15  18
ATOM     18  O   UNL     1      14.898   4.788 -18.236  1.00  0.00    -0.504 OA
ATOM     19  H   UNL     1      15.466   5.089 -19.019  1.00  0.00     0.293 HD
ENDBRANCH  15  18
BRANCH  17  20
ATOM     20  O   UNL     1      13.967   2.226 -17.495  1.00  0.00    -0.504 OA
ATOM     21  H   UNL     1      13.840   1.233 -17.654  1.00  0.00     0.293 HD
ENDBRANCH  17  20
ENDBRANCH   1  12
BRANCH   2  22
ATOM     22  O   UNL     1       9.776   2.305 -20.981  1.00  0.00    -0.502 OA
ATOM     23  H   UNL     1       9.645   1.427 -21.468  1.00  0.00     0.293 HD
ENDBRANCH   2  22
BRANCH   6  24
ATOM     24  O   UNL     1       4.664   2.009 -20.075  1.00  0.00    -0.507 OA
ATOM     25  H   UNL     1       5.092   1.905 -20.988  1.00  0.00     0.293 HD
ENDBRANCH   6  24
BRANCH   8  26
ATOM     26  O   UNL     1       4.269   4.576 -15.990  1.00  0.00    -0.508 OA
ATOM     27  H   UNL     1       4.161   5.576 -15.871  1.00  0.00     0.293 HD
ENDBRANCH   8  26
TORSDOF 6
ENDMDL
MODEL 9
REMARK VINA RESULT:    -5.591     10.500     12.932
REMARK INTER + INTRA:          -6.994
REMARK INTER:                  -6.702
REMARK INTRA:                  -0.293
REMARK UNBOUND:                -0.260
REMARK SMILES O=c1c(O)c(-c2ccc(O)c(O)c2)oc2cc(O)cc(O)c12
REMARK SMILES IDX 5 1 3 2 2 3 1 4 22 5 20 6 19 7 17 8 16 9 15 10 14 11 6 12
REMARK SMILES IDX 7 13 8 14 9 15 13 16 11 17 10 18 12 20 4 22 21 24 18 26
REMARK H PARENT 10 19 12 21 4 23 21 25 18 27
REMARK Flexibility Score: inf
ROOT
ATOM      1  C   UNL     1       8.482   3.493 -18.017  1.00  0.00     0.180 A 
ATOM      2  C   UNL     1       8.200   4.864 -17.866  1.00  0.00     0.208 A 
ATOM      3  C   UNL     1       9.269   5.767 -17.753  1.00  0.00     0.238 A 
ATOM      4  O   UNL     1       9.030   6.997 -17.607  1.00  0.00    -0.285 OA
ATOM      5  C   UNL     1      10.595   5.290 -17.812  1.00  0.00     0.111 A 
ATOM      6  C   UNL     1      11.727   6.133 -17.711  1.00  0.00     0.134 A 
ATOM      7  C   UNL     1      13.015   5.581 -17.789  1.00  0.00     0.093 A 
ATOM      8  C   UNL     1      13.191   4.205 -17.967  1.00  0.00     0.123 A 
ATOM      9  C   UNL     1      12.077   3.369 -18.066  1.00  0.00     0.094 A 
ATOM     10  C   UNL     1      10.786   3.899 -17.990  1.00  0.00     0.146 A 
ATOM     11  O   UNL     1       9.745   3.081 -18.083  1.00  0.00    -0.452 OA
ENDROOT
BRANCH   1  12
ATOM     12  C   UNL     1       7.409   2.478 -18.123  1.00  0.00     0.025 A 
ATOM     13  C   UNL     1       6.766   2.280 -19.355  1.00  0.00     0.016 A 
ATOM     14  C   UNL     1       5.765   1.313 -19.484  1.00  0.00     0.051 A 
ATOM     15  C   UNL     1       5.404   0.519 -18.391  1.00  0.00     0.157 A 
ATOM     16  C   UNL     1       7.058   1.664 -17.031  1.00  0.00     0.062 A 
ATOM     17  C   UNL     1       6.056   0.692 -17.158  1.00  0.00     0.158 A 
BRANCH  15  18
ATOM     18  O   UNL     1       4.400  -0.435 -18.549  1.00  0.00    -0.504 OA
ATOM     19  H   UNL     1       3.851  -0.503 -19.397  1.00  0.00     0.293 HD
ENDBRANCH  15  18
BRANCH  17  20
ATOM     20  O   UNL     1       5.710  -0.105 -16.069  1.00  0.00    -0.504 OA
ATOM     21  H   UNL     1       6.339  -0.814 -15.708  1.00  0.00     0.293 HD
ENDBRANCH  17  20
ENDBRANCH   1  12
BRANCH   2  22
ATOM     22  O   UNL     1       6.879   5.318 -17.861  1.00  0.00    -0.502 OA
ATOM     23  H   UNL     1       6.642   6.298 -17.770  1.00  0.00     0.293 HD
ENDBRANCH   2  22
BRANCH   6  24
ATOM     24  O   UNL     1      11.583   7.510 -17.534  1.00  0.00    -0.507 OA
ATOM     25  H   UNL     1      11.486   7.921 -16.612  1.00  0.00     0.293 HD
ENDBRANCH   6  24
BRANCH   8  26
ATOM     26  O   UNL     1      14.469   3.657 -18.045  1.00  0.00    -0.508 OA
ATOM     27  H   UNL     1      14.990   3.646 -18.914  1.00  0.00     0.293 HD
ENDBRANCH   8  26
TORSDOF 6
ENDMDL
