MODEL 1
REMARK VINA RESULT:    25.765      0.000      0.000
REMARK INTER + INTRA:          30.081
REMARK INTER:                  30.283
REMARK INTRA:                  -0.202
REMARK UNBOUND:                -0.202
REMARK SMILES O=c1c(O)c(-c2ccc(O)cc2)oc2cc(O)cc(O)c12
REMARK SMILES IDX 5 1 3 2 2 3 1 4 21 5 19 6 18 7 16 8 15 9 14 10 13 11 6 12
REMARK SMILES IDX 7 13 8 14 9 15 12 16 11 17 10 18 4 20 20 22 17 24
REMARK H PARENT 10 19 4 21 20 23 17 25
REMARK Flexibility Score: inf
ROOT
ATOM      1  C   UNL     1      17.792  97.562   8.949  1.00  0.00     0.180 A 
ATOM      2  C   UNL     1      16.472  97.262   9.329  1.00  0.00     0.208 A 
ATOM      3  C   UNL     1      16.013  95.940   9.206  1.00  0.00     0.238 A 
ATOM      4  O   UNL     1      14.814  95.688   9.496  1.00  0.00    -0.285 OA
ATOM      5  C   UNL     1      16.882  94.934   8.721  1.00  0.00     0.111 A 
ATOM      6  C   UNL     1      16.536  93.555   8.593  1.00  0.00     0.134 A 
ATOM      7  C   UNL     1      17.431  92.671   7.979  1.00  0.00     0.093 A 
ATOM      8  C   UNL     1      18.688  93.104   7.547  1.00  0.00     0.123 A 
ATOM      9  C   UNL     1      19.058  94.435   7.722  1.00  0.00     0.094 A 
ATOM     10  C   UNL     1      18.173  95.348   8.299  1.00  0.00     0.146 A 
ATOM     11  O   UNL     1      18.562  96.610   8.437  1.00  0.00    -0.452 OA
ENDROOT
BRANCH   1  12
ATOM     12  C   UNL     1      18.356  98.925   9.073  1.00  0.00     0.021 A 
ATOM     13  C   UNL     1      19.329  99.232  10.042  1.00  0.00     0.016 A 
ATOM     14  C   UNL     1      19.864 100.521  10.124  1.00  0.00     0.047 A 
ATOM     15  C   UNL     1      19.445 101.515   9.231  1.00  0.00     0.115 A 
ATOM     16  C   UNL     1      17.957  99.923   8.168  1.00  0.00     0.016 A 
ATOM     17  C   UNL     1      18.494 101.212   8.252  1.00  0.00     0.047 A 
BRANCH  15  18
ATOM     18  O   UNL     1      19.971 102.804   9.303  1.00  0.00    -0.508 OA
ATOM     19  H   UNL     1      20.908 102.974   9.650  1.00  0.00     0.293 HD
ENDBRANCH  15  18
ENDBRANCH   1  12
BRANCH   2  20
ATOM     20  O   UNL     1      15.624  98.274   9.784  1.00  0.00    -0.502 OA
ATOM     21  H   UNL     1      15.963  99.076  10.303  1.00  0.00     0.293 HD
ENDBRANCH   2  20
BRANCH   6  22
ATOM     22  O   UNL     1      15.345  93.003   9.074  1.00  0.00    -0.507 OA
ATOM     23  H   UNL     1      15.287  92.279   9.774  1.00  0.00     0.293 HD
ENDBRANCH   6  22
BRANCH   8  24
ATOM     24  O   UNL     1      19.579  92.214   6.952  1.00  0.00    -0.508 OA
ATOM     25  H   UNL     1      20.392  92.539   6.442  1.00  0.00     0.293 HD
ENDBRANCH   8  24
TORSDOF 5
ENDMDL
MODEL 2
REMARK VINA RESULT:    27.105      2.395      6.351
REMARK INTER + INTRA:          31.657
REMARK INTER:                  31.891
REMARK INTRA:                  -0.233
REMARK UNBOUND:                -0.202
REMARK SMILES O=c1c(O)c(-c2ccc(O)cc2)oc2cc(O)cc(O)c12
REMARK SMILES IDX 5 1 3 2 2 3 1 4 21 5 19 6 18 7 16 8 15 9 14 10 13 11 6 12
REMARK SMILES IDX 7 13 8 14 9 15 12 16 11 17 10 18 4 20 20 22 17 24
REMARK H PARENT 10 19 4 21 20 23 17 25
REMARK Flexibility Score: inf
ROOT
ATOM      1  C   UNL     1      17.645  95.339   8.922  1.00  0.00     0.180 A 
ATOM      2  C   UNL     1      18.077  96.662   8.711  1.00  0.00     0.208 A 
ATOM      3  C   UNL     1      17.158  97.711   8.879  1.00  0.00     0.238 A 
ATOM      4  O   UNL     1      17.535  98.888   8.636  1.00  0.00    -0.285 OA
ATOM      5  C   UNL     1      15.828  97.428   9.270  1.00  0.00     0.111 A 
ATOM      6  C   UNL     1      14.825  98.415   9.509  1.00  0.00     0.134 A 
ATOM      7  C   UNL     1      13.508  98.015   9.764  1.00  0.00     0.093 A 
ATOM      8  C   UNL     1      13.171  96.661   9.854  1.00  0.00     0.123 A 
ATOM      9  C   UNL     1      14.155  95.691   9.683  1.00  0.00     0.094 A 
ATOM     10  C   UNL     1      15.470  96.059   9.391  1.00  0.00     0.146 A 
ATOM     11  O   UNL     1      16.375  95.102   9.224  1.00  0.00    -0.452 OA
ENDROOT
BRANCH   1  12
ATOM     12  C   UNL     1      18.561  94.183   8.789  1.00  0.00     0.021 A 
ATOM     13  C   UNL     1      18.958  93.702   7.527  1.00  0.00     0.016 A 
ATOM     14  C   UNL     1      19.842  92.625   7.428  1.00  0.00     0.047 A 
ATOM     15  C   UNL     1      20.353  92.023   8.585  1.00  0.00     0.115 A 
ATOM     16  C   UNL     1      19.093  93.587   9.944  1.00  0.00     0.016 A 
ATOM     17  C   UNL     1      19.978  92.509   9.841  1.00  0.00     0.047 A 
BRANCH  15  18
ATOM     18  O   UNL     1      21.234  90.947   8.498  1.00  0.00    -0.508 OA
ATOM     19  H   UNL     1      21.621  90.512   9.327  1.00  0.00     0.293 HD
ENDBRANCH  15  18
ENDBRANCH   1  12
BRANCH   2  20
ATOM     20  O   UNL     1      19.388  96.917   8.303  1.00  0.00    -0.502 OA
ATOM     21  H   UNL     1      20.192  96.645   8.857  1.00  0.00     0.293 HD
ENDBRANCH   2  20
BRANCH   6  22
ATOM     22  O   UNL     1      15.075  99.790   9.532  1.00  0.00    -0.507 OA
ATOM     23  H   UNL     1      15.610 100.290   8.838  1.00  0.00     0.293 HD
ENDBRANCH   6  22
BRANCH   8  24
ATOM     24  O   UNL     1      11.861  96.272  10.125  1.00  0.00    -0.508 OA
ATOM     25  H   UNL     1      11.150  96.946  10.383  1.00  0.00     0.293 HD
ENDBRANCH   8  24
TORSDOF 5
ENDMDL
MODEL 3
REMARK VINA RESULT:    28.319      1.235      1.631
REMARK INTER + INTRA:          33.084
REMARK INTER:                  32.764
REMARK INTRA:                   0.319
REMARK UNBOUND:                -0.202
REMARK SMILES O=c1c(O)c(-c2ccc(O)cc2)oc2cc(O)cc(O)c12
REMARK SMILES IDX 5 1 3 2 2 3 1 4 21 5 19 6 18 7 16 8 15 9 14 10 13 11 6 12
REMARK SMILES IDX 7 13 8 14 9 15 12 16 11 17 10 18 4 20 20 22 17 24
REMARK H PARENT 10 19 4 21 20 23 17 25
REMARK Flexibility Score: inf
ROOT
ATOM      1  C   UNL     1      17.749  97.207   9.036  1.00  0.00     0.180 A 
ATOM      2  C   UNL     1      16.423  96.984   8.623  1.00  0.00     0.208 A 
ATOM      3  C   UNL     1      15.919  95.672   8.635  1.00  0.00     0.238 A 
ATOM      4  O   UNL     1      14.750  95.471   8.213  1.00  0.00    -0.285 OA
ATOM      5  C   UNL     1      16.739  94.606   9.073  1.00  0.00     0.111 A 
ATOM      6  C   UNL     1      16.319  93.244   9.164  1.00  0.00     0.134 A 
ATOM      7  C   UNL     1      17.253  92.253   9.487  1.00  0.00     0.093 A 
ATOM      8  C   UNL     1      18.578  92.582   9.785  1.00  0.00     0.123 A 
ATOM      9  C   UNL     1      18.983  93.914   9.757  1.00  0.00     0.094 A 
ATOM     10  C   UNL     1      18.083  94.921   9.404  1.00  0.00     0.146 A 
ATOM     11  O   UNL     1      18.513  96.177   9.380  1.00  0.00    -0.452 OA
ENDROOT
BRANCH   1  12
ATOM     12  C   UNL     1      18.343  98.562   9.076  1.00  0.00     0.021 A 
ATOM     13  C   UNL     1      17.921  99.575   8.194  1.00  0.00     0.016 A 
ATOM     14  C   UNL     1      18.479 100.854   8.267  1.00  0.00     0.047 A 
ATOM     15  C   UNL     1      19.455 101.143   9.230  1.00  0.00     0.115 A 
ATOM     16  C   UNL     1      19.307  98.866  10.051  1.00  0.00     0.016 A 
ATOM     17  C   UNL     1      19.864 100.147  10.122  1.00  0.00     0.047 A 
BRANCH  15  18
ATOM     18  O   UNL     1      20.020 102.414   9.311  1.00  0.00    -0.508 OA
ATOM     19  H   UNL     1      20.306 102.810  10.199  1.00  0.00     0.293 HD
ENDBRANCH  15  18
ENDBRANCH   1  12
BRANCH   2  20
ATOM     20  O   UNL     1      15.638  98.048   8.173  1.00  0.00    -0.502 OA
ATOM     21  H   UNL     1      14.747  98.283   8.594  1.00  0.00     0.293 HD
ENDBRANCH   2  20
BRANCH   6  22
ATOM     22  O   UNL     1      15.000  92.822   8.976  1.00  0.00    -0.507 OA
ATOM     23  H   UNL     1      14.656  91.897   9.187  1.00  0.00     0.293 HD
ENDBRANCH   6  22
BRANCH   8  24
ATOM     24  O   UNL     1      19.498  91.590  10.120  1.00  0.00    -0.508 OA
ATOM     25  H   UNL     1      19.546  90.717   9.609  1.00  0.00     0.293 HD
ENDBRANCH   8  24
TORSDOF 5
ENDMDL
