MODEL 1
REMARK VINA RESULT:    -4.580      0.000      0.000
REMARK INTER + INTRA:          -9.672
REMARK INTER:                  -8.329
REMARK INTRA:                  -1.344
REMARK UNBOUND:                -1.344
REMARK SMILES CCCCCCCCCCCCCCCC(=O)[O-]
REMARK SMILES IDX 9 1 10 2 11 3 12 4 13 5 14 6 15 7 16 8 17 9 18 10 8 11 7 12
REMARK SMILES IDX 6 13 5 14 4 15 3 16 2 17 1 18
REMARK H PARENT
REMARK Flexibility Score: inf
ROOT
ATOM      1  C   UNL     1      45.984   8.074  19.429  1.00  0.00     0.000 C 
ENDROOT
BRANCH   1   2
ATOM      2  C   UNL     1      45.969   7.658  17.949  1.00  0.00     0.000 C 
BRANCH   2   3
ATOM      3  C   UNL     1      44.559   7.707  17.337  1.00  0.00     0.000 C 
BRANCH   3   4
ATOM      4  C   UNL     1      44.469   6.984  15.981  1.00  0.00     0.000 C 
BRANCH   4   5
ATOM      5  C   UNL     1      45.113   7.727  14.796  1.00  0.00     0.000 C 
BRANCH   5   6
ATOM      6  C   UNL     1      46.270   6.945  14.153  1.00  0.00     0.006 C 
BRANCH   6   7
ATOM      7  C   UNL     1      46.144   5.432  14.381  1.00  0.00     0.053 C 
BRANCH   7   8
ATOM      8  C   UNL     1      47.385   4.854  14.990  1.00  0.00     0.041 C 
ATOM      9  O   UNL     1      48.060   3.998  14.359  1.00  0.00    -0.550 OA
ATOM     10  O   UNL     1      47.780   5.239  16.265  1.00  0.00    -0.550 OA
ENDBRANCH   7   8
ENDBRANCH   6   7
ENDBRANCH   5   6
ENDBRANCH   4   5
ENDBRANCH   3   4
ENDBRANCH   2   3
ENDBRANCH   1   2
BRANCH   1  11
ATOM     11  C   UNL     1      45.458   9.501  19.650  1.00  0.00     0.000 C 
BRANCH  11  12
ATOM     12  C   UNL     1      44.150   9.486  20.449  1.00  0.00    -0.000 C 
BRANCH  12  13
ATOM     13  C   UNL     1      44.404   9.819  21.926  1.00  0.00    -0.000 C 
BRANCH  13  14
ATOM     14  C   UNL     1      44.602   8.564  22.796  1.00  0.00    -0.000 C 
BRANCH  14  15
ATOM     15  C   UNL     1      45.903   8.543  23.623  1.00  0.00    -0.000 C 
BRANCH  15  16
ATOM     16  C   UNL     1      47.170   8.983  22.863  1.00  0.00    -0.000 C 
BRANCH  16  17
ATOM     17  C   UNL     1      48.315   7.955  22.867  1.00  0.00    -0.003 C 
ATOM     18  C   UNL     1      47.930   6.634  22.200  1.00  0.00     0.004 C 
ENDBRANCH  16  17
ENDBRANCH  15  16
ENDBRANCH  14  15
ENDBRANCH  13  14
ENDBRANCH  12  13
ENDBRANCH  11  12
ENDBRANCH   1  11
TORSDOF 14
ENDMDL
MODEL 2
REMARK VINA RESULT:    -4.485      3.181      7.694
REMARK INTER + INTRA:          -9.500
REMARK INTER:                  -8.148
REMARK INTRA:                  -1.353
REMARK UNBOUND:                -1.344
REMARK SMILES CCCCCCCCCCCCCCCC(=O)[O-]
REMARK SMILES IDX 9 1 10 2 11 3 12 4 13 5 14 6 15 7 16 8 17 9 18 10 8 11 7 12
REMARK SMILES IDX 6 13 5 14 4 15 3 16 2 17 1 18
REMARK H PARENT
REMARK Flexibility Score: inf
ROOT
ATOM      1  C   UNL     1      46.680   7.007  19.010  1.00  0.00     0.000 C 
ENDROOT
BRANCH   1   2
ATOM      2  C   UNL     1      46.675   7.551  20.448  1.00  0.00     0.000 C 
BRANCH   2   3
ATOM      3  C   UNL     1      47.484   6.669  21.415  1.00  0.00     0.000 C 
BRANCH   3   4
ATOM      4  C   UNL     1      47.641   7.299  22.811  1.00  0.00     0.000 C 
BRANCH   4   5
ATOM      5  C   UNL     1      47.779   8.832  22.827  1.00  0.00     0.000 C 
BRANCH   5   6
ATOM      6  C   UNL     1      46.711   9.523  23.693  1.00  0.00     0.006 C 
BRANCH   6   7
ATOM      7  C   UNL     1      45.470   8.643  23.892  1.00  0.00     0.053 C 
BRANCH   7   8
ATOM      8  C   UNL     1      44.338   9.065  23.005  1.00  0.00     0.041 C 
ATOM      9  O   UNL     1      43.801   8.234  22.226  1.00  0.00    -0.550 OA
ATOM     10  O   UNL     1      43.897  10.382  23.019  1.00  0.00    -0.550 OA
ENDBRANCH   7   8
ENDBRANCH   6   7
ENDBRANCH   5   6
ENDBRANCH   4   5
ENDBRANCH   3   4
ENDBRANCH   2   3
ENDBRANCH   1   2
BRANCH   1  11
ATOM     11  C   UNL     1      46.130   8.018  17.992  1.00  0.00     0.000 C 
BRANCH  11  12
ATOM     12  C   UNL     1      44.917   7.446  17.250  1.00  0.00    -0.000 C 
BRANCH  12  13
ATOM     13  C   UNL     1      44.491   8.367  16.098  1.00  0.00    -0.000 C 
BRANCH  13  14
ATOM     14  C   UNL     1      44.286   7.610  14.773  1.00  0.00    -0.000 C 
BRANCH  14  15
ATOM     15  C   UNL     1      44.196   6.077  14.905  1.00  0.00    -0.000 C 
BRANCH  15  16
ATOM     16  C   UNL     1      45.310   5.290  14.185  1.00  0.00    -0.000 C 
BRANCH  16  17
ATOM     17  C   UNL     1      46.715   5.907  14.303  1.00  0.00    -0.003 C 
ATOM     18  C   UNL     1      47.491   5.390  15.514  1.00  0.00     0.004 C 
ENDBRANCH  16  17
ENDBRANCH  15  16
ENDBRANCH  14  15
ENDBRANCH  13  14
ENDBRANCH  12  13
ENDBRANCH  11  12
ENDBRANCH   1  11
TORSDOF 14
ENDMDL
MODEL 3
REMARK VINA RESULT:    -4.465      1.148      2.039
REMARK INTER + INTRA:          -9.463
REMARK INTER:                  -8.068
REMARK INTRA:                  -1.396
REMARK UNBOUND:                -1.344
REMARK SMILES CCCCCCCCCCCCCCCC(=O)[O-]
REMARK SMILES IDX 9 1 10 2 11 3 12 4 13 5 14 6 15 7 16 8 17 9 18 10 8 11 7 12
REMARK SMILES IDX 6 13 5 14 4 15 3 16 2 17 1 18
REMARK H PARENT
REMARK Flexibility Score: inf
ROOT
ATOM      1  C   UNL     1      44.302   9.269  20.580  1.00  0.00     0.000 C 
ENDROOT
BRANCH   1   2
ATOM      2  C   UNL     1      45.091   9.449  19.273  1.00  0.00     0.000 C 
BRANCH   2   3
ATOM      3  C   UNL     1      45.162   8.156  18.444  1.00  0.00     0.000 C 
BRANCH   3   4
ATOM      4  C   UNL     1      46.418   7.318  18.746  1.00  0.00     0.000 C 
BRANCH   4   5
ATOM      5  C   UNL     1      46.821   6.320  17.644  1.00  0.00     0.000 C 
BRANCH   5   6
ATOM      6  C   UNL     1      46.939   6.972  16.256  1.00  0.00     0.006 C 
BRANCH   6   7
ATOM      7  C   UNL     1      46.195   6.174  15.177  1.00  0.00     0.053 C 
BRANCH   7   8
ATOM      8  C   UNL     1      47.011   5.023  14.672  1.00  0.00     0.041 C 
ATOM      9  O   UNL     1      48.265   5.043  14.776  1.00  0.00    -0.550 OA
ATOM     10  O   UNL     1      46.386   3.944  14.059  1.00  0.00    -0.550 OA
ENDBRANCH   7   8
ENDBRANCH   6   7
ENDBRANCH   5   6
ENDBRANCH   4   5
ENDBRANCH   3   4
ENDBRANCH   2   3
ENDBRANCH   1   2
BRANCH   1  11
ATOM     11  C   UNL     1      43.858  10.606  21.194  1.00  0.00     0.000 C 
BRANCH  11  12
ATOM     12  C   UNL     1      44.044  10.601  22.716  1.00  0.00    -0.000 C 
BRANCH  12  13
ATOM     13  C   UNL     1      44.040   9.168  23.266  1.00  0.00    -0.000 C 
BRANCH  13  14
ATOM     14  C   UNL     1      45.288   8.848  24.108  1.00  0.00    -0.000 C 
BRANCH  14  15
ATOM     15  C   UNL     1      46.542   9.674  23.755  1.00  0.00    -0.000 C 
BRANCH  15  16
ATOM     16  C   UNL     1      47.630   8.913  22.972  1.00  0.00    -0.000 C 
BRANCH  16  17
ATOM     17  C   UNL     1      47.138   7.647  22.249  1.00  0.00    -0.003 C 
ATOM     18  C   UNL     1      48.158   6.509  22.284  1.00  0.00     0.004 C 
ENDBRANCH  16  17
ENDBRANCH  15  16
ENDBRANCH  14  15
ENDBRANCH  13  14
ENDBRANCH  12  13
ENDBRANCH  11  12
ENDBRANCH   1  11
TORSDOF 14
ENDMDL
MODEL 4
REMARK VINA RESULT:    -4.459      2.753      6.594
REMARK INTER + INTRA:          -9.452
REMARK INTER:                  -7.504
REMARK INTRA:                  -1.948
REMARK UNBOUND:                -1.344
REMARK SMILES CCCCCCCCCCCCCCCC(=O)[O-]
REMARK SMILES IDX 9 1 10 2 11 3 12 4 13 5 14 6 15 7 16 8 17 9 18 10 8 11 7 12
REMARK SMILES IDX 6 13 5 14 4 15 3 16 2 17 1 18
REMARK H PARENT
REMARK Flexibility Score: inf
ROOT
ATOM      1  C   UNL     1      46.109  10.001  17.274  1.00  0.00     0.000 C 
ENDROOT
BRANCH   1   2
ATOM      2  C   UNL     1      44.647   9.528  17.307  1.00  0.00     0.000 C 
BRANCH   2   3
ATOM      3  C   UNL     1      44.322   8.702  18.563  1.00  0.00     0.000 C 
BRANCH   3   4
ATOM      4  C   UNL     1      44.130   9.572  19.819  1.00  0.00     0.000 C 
BRANCH   4   5
ATOM      5  C   UNL     1      44.502   8.893  21.150  1.00  0.00     0.000 C 
BRANCH   5   6
ATOM      6  C   UNL     1      46.003   8.987  21.473  1.00  0.00     0.006 C 
BRANCH   6   7
ATOM      7  C   UNL     1      46.750   7.690  21.135  1.00  0.00     0.053 C 
BRANCH   7   8
ATOM      8  C   UNL     1      47.839   7.399  22.122  1.00  0.00     0.041 C 
ATOM      9  O   UNL     1      48.257   6.222  22.276  1.00  0.00    -0.550 OA
ATOM     10  O   UNL     1      48.370   8.425  22.894  1.00  0.00    -0.550 OA
ENDBRANCH   7   8
ENDBRANCH   6   7
ENDBRANCH   5   6
ENDBRANCH   4   5
ENDBRANCH   3   4
ENDBRANCH   2   3
ENDBRANCH   1   2
BRANCH   1  11
ATOM     11  C   UNL     1      46.805   9.683  15.941  1.00  0.00     0.000 C 
BRANCH  11  12
ATOM     12  C   UNL     1      45.799   9.671  14.784  1.00  0.00    -0.000 C 
BRANCH  12  13
ATOM     13  C   UNL     1      45.871   8.350  14.006  1.00  0.00    -0.000 C 
BRANCH  13  14
ATOM     14  C   UNL     1      44.702   7.402  14.329  1.00  0.00    -0.000 C 
BRANCH  14  15
ATOM     15  C   UNL     1      45.066   6.198  15.220  1.00  0.00    -0.000 C 
BRANCH  15  16
ATOM     16  C   UNL     1      46.490   5.642  15.021  1.00  0.00    -0.000 C 
BRANCH  16  17
ATOM     17  C   UNL     1      47.466   5.940  16.173  1.00  0.00    -0.003 C 
ATOM     18  C   UNL     1      46.754   6.264  17.487  1.00  0.00     0.004 C 
ENDBRANCH  16  17
ENDBRANCH  15  16
ENDBRANCH  14  15
ENDBRANCH  13  14
ENDBRANCH  12  13
ENDBRANCH  11  12
ENDBRANCH   1  11
TORSDOF 14
ENDMDL
MODEL 5
REMARK VINA RESULT:    -4.406      4.237      8.574
REMARK INTER + INTRA:          -9.356
REMARK INTER:                  -8.420
REMARK INTRA:                  -0.935
REMARK UNBOUND:                -1.344
REMARK SMILES CCCCCCCCCCCCCCCC(=O)[O-]
REMARK SMILES IDX 9 1 10 2 11 3 12 4 13 5 14 6 15 7 16 8 17 9 18 10 8 11 7 12
REMARK SMILES IDX 6 13 5 14 4 15 3 16 2 17 1 18
REMARK H PARENT
REMARK Flexibility Score: inf
ROOT
ATOM      1  C   UNL     1      46.013   7.861  20.459  1.00  0.00     0.000 C 
ENDROOT
BRANCH   1   2
ATOM      2  C   UNL     1      47.162   7.077  21.114  1.00  0.00     0.000 C 
BRANCH   2   3
ATOM      3  C   UNL     1      47.482   7.576  22.533  1.00  0.00     0.000 C 
BRANCH   3   4
ATOM      4  C   UNL     1      46.615   8.776  22.957  1.00  0.00     0.000 C 
BRANCH   4   5
ATOM      5  C   UNL     1      45.521   8.461  23.993  1.00  0.00     0.000 C 
BRANCH   5   6
ATOM      6  C   UNL     1      45.136   9.679  24.850  1.00  0.00     0.006 C 
BRANCH   6   7
ATOM      7  C   UNL     1      43.898   9.411  25.715  1.00  0.00     0.053 C 
BRANCH   7   8
ATOM      8  C   UNL     1      42.644   9.916  25.069  1.00  0.00     0.041 C 
ATOM      9  O   UNL     1      41.520   9.512  25.465  1.00  0.00    -0.550 OA
ATOM     10  O   UNL     1      42.721  10.812  24.009  1.00  0.00    -0.550 OA
ENDBRANCH   7   8
ENDBRANCH   6   7
ENDBRANCH   5   6
ENDBRANCH   4   5
ENDBRANCH   3   4
ENDBRANCH   2   3
ENDBRANCH   1   2
BRANCH   1  11
ATOM     11  C   UNL     1      46.109   7.882  18.925  1.00  0.00     0.000 C 
BRANCH  11  12
ATOM     12  C   UNL     1      46.708   6.575  18.394  1.00  0.00    -0.000 C 
BRANCH  12  13
ATOM     13  C   UNL     1      46.774   6.583  16.860  1.00  0.00    -0.000 C 
BRANCH  13  14
ATOM     14  C   UNL     1      45.430   6.954  16.207  1.00  0.00    -0.000 C 
BRANCH  14  15
ATOM     15  C   UNL     1      45.470   7.103  14.673  1.00  0.00    -0.000 C 
BRANCH  15  16
ATOM     16  C   UNL     1      45.701   8.538  14.159  1.00  0.00    -0.000 C 
BRANCH  16  17
ATOM     17  C   UNL     1      45.732   9.619  15.254  1.00  0.00    -0.003 C 
ATOM     18  C   UNL     1      47.130  10.192  15.484  1.00  0.00     0.004 C 
ENDBRANCH  16  17
ENDBRANCH  15  16
ENDBRANCH  14  15
ENDBRANCH  13  14
ENDBRANCH  12  13
ENDBRANCH  11  12
ENDBRANCH   1  11
TORSDOF 14
ENDMDL
MODEL 6
REMARK VINA RESULT:    -4.379      3.626      7.474
REMARK INTER + INTRA:          -9.307
REMARK INTER:                  -7.711
REMARK INTRA:                  -1.596
REMARK UNBOUND:                -1.344
REMARK SMILES CCCCCCCCCCCCCCCC(=O)[O-]
REMARK SMILES IDX 9 1 10 2 11 3 12 4 13 5 14 6 15 7 16 8 17 9 18 10 8 11 7 12
REMARK SMILES IDX 6 13 5 14 4 15 3 16 2 17 1 18
REMARK H PARENT
REMARK Flexibility Score: inf
ROOT
ATOM      1  C   UNL     1      44.765   8.347  18.462  1.00  0.00     0.000 C 
ENDROOT
BRANCH   1   2
ATOM      2  C   UNL     1      46.061   7.649  18.020  1.00  0.00     0.000 C 
BRANCH   2   3
ATOM      3  C   UNL     1      46.739   6.882  19.167  1.00  0.00     0.000 C 
BRANCH   3   4
ATOM      4  C   UNL     1      46.417   7.469  20.554  1.00  0.00     0.000 C 
BRANCH   4   5
ATOM      5  C   UNL     1      47.491   7.234  21.631  1.00  0.00     0.000 C 
BRANCH   5   6
ATOM      6  C   UNL     1      47.363   8.194  22.826  1.00  0.00     0.006 C 
BRANCH   6   7
ATOM      7  C   UNL     1      46.169   9.146  22.679  1.00  0.00     0.053 C 
BRANCH   7   8
ATOM      8  C   UNL     1      45.064   8.807  23.634  1.00  0.00     0.041 C 
ATOM      9  O   UNL     1      45.329   8.506  24.827  1.00  0.00    -0.550 OA
ATOM     10  O   UNL     1      43.746   8.794  23.196  1.00  0.00    -0.550 OA
ENDBRANCH   7   8
ENDBRANCH   6   7
ENDBRANCH   5   6
ENDBRANCH   4   5
ENDBRANCH   3   4
ENDBRANCH   2   3
ENDBRANCH   1   2
BRANCH   1  11
ATOM     11  C   UNL     1      44.687   9.807  17.989  1.00  0.00     0.000 C 
BRANCH  11  12
ATOM     12  C   UNL     1      46.001  10.241  17.327  1.00  0.00    -0.000 C 
BRANCH  12  13
ATOM     13  C   UNL     1      45.769  10.661  15.868  1.00  0.00    -0.000 C 
BRANCH  13  14
ATOM     14  C   UNL     1      46.685   9.917  14.880  1.00  0.00    -0.000 C 
BRANCH  14  15
ATOM     15  C   UNL     1      45.961   8.956  13.916  1.00  0.00    -0.000 C 
BRANCH  15  16
ATOM     16  C   UNL     1      45.565   7.595  14.521  1.00  0.00    -0.000 C 
BRANCH  16  17
ATOM     17  C   UNL     1      44.051   7.323  14.565  1.00  0.00    -0.003 C 
ATOM     18  C   UNL     1      43.692   6.087  15.390  1.00  0.00     0.004 C 
ENDBRANCH  16  17
ENDBRANCH  15  16
ENDBRANCH  14  15
ENDBRANCH  13  14
ENDBRANCH  12  13
ENDBRANCH  11  12
ENDBRANCH   1  11
TORSDOF 14
ENDMDL
MODEL 7
REMARK VINA RESULT:    -4.351      4.197      8.385
REMARK INTER + INTRA:          -9.255
REMARK INTER:                  -8.061
REMARK INTRA:                  -1.194
REMARK UNBOUND:                -1.344
REMARK SMILES CCCCCCCCCCCCCCCC(=O)[O-]
REMARK SMILES IDX 9 1 10 2 11 3 12 4 13 5 14 6 15 7 16 8 17 9 18 10 8 11 7 12
REMARK SMILES IDX 6 13 5 14 4 15 3 16 2 17 1 18
REMARK H PARENT
REMARK Flexibility Score: inf
ROOT
ATOM      1  C   UNL     1      46.813   7.051  20.795  1.00  0.00     0.000 C 
ENDROOT
BRANCH   1   2
ATOM      2  C   UNL     1      47.505   7.536  22.079  1.00  0.00     0.000 C 
BRANCH   2   3
ATOM      3  C   UNL     1      46.510   8.104  23.106  1.00  0.00     0.000 C 
BRANCH   3   4
ATOM      4  C   UNL     1      46.659   9.623  23.308  1.00  0.00     0.000 C 
BRANCH   4   5
ATOM      5  C   UNL     1      45.529  10.479  22.707  1.00  0.00     0.000 C 
BRANCH   5   6
ATOM      6  C   UNL     1      44.141   9.834  22.860  1.00  0.00     0.006 C 
BRANCH   6   7
ATOM      7  C   UNL     1      43.275  10.561  23.897  1.00  0.00     0.053 C 
BRANCH   7   8
ATOM      8  C   UNL     1      42.990   9.699  25.089  1.00  0.00     0.041 C 
ATOM      9  O   UNL     1      43.934   9.140  25.707  1.00  0.00    -0.550 OA
ATOM     10  O   UNL     1      41.678   9.489  25.498  1.00  0.00    -0.550 OA
ENDBRANCH   7   8
ENDBRANCH   6   7
ENDBRANCH   5   6
ENDBRANCH   4   5
ENDBRANCH   3   4
ENDBRANCH   2   3
ENDBRANCH   1   2
BRANCH   1  11
ATOM     11  C   UNL     1      46.321   8.208  19.912  1.00  0.00     0.000 C 
BRANCH  11  12
ATOM     12  C   UNL     1      45.752   7.685  18.587  1.00  0.00    -0.000 C 
BRANCH  12  13
ATOM     13  C   UNL     1      46.709   6.676  17.938  1.00  0.00    -0.000 C 
BRANCH  13  14
ATOM     14  C   UNL     1      47.039   7.022  16.475  1.00  0.00    -0.000 C 
BRANCH  14  15
ATOM     15  C   UNL     1      47.260   5.807  15.551  1.00  0.00    -0.000 C 
BRANCH  15  16
ATOM     16  C   UNL     1      46.081   5.471  14.617  1.00  0.00    -0.000 C 
BRANCH  16  17
ATOM     17  C   UNL     1      45.025   6.583  14.484  1.00  0.00    -0.003 C 
ATOM     18  C   UNL     1      43.689   6.215  15.129  1.00  0.00     0.004 C 
ENDBRANCH  16  17
ENDBRANCH  15  16
ENDBRANCH  14  15
ENDBRANCH  13  14
ENDBRANCH  12  13
ENDBRANCH  11  12
ENDBRANCH   1  11
TORSDOF 14
ENDMDL
MODEL 8
REMARK VINA RESULT:    -4.347      3.932      7.415
REMARK INTER + INTRA:          -9.249
REMARK INTER:                  -7.516
REMARK INTRA:                  -1.733
REMARK UNBOUND:                -1.344
REMARK SMILES CCCCCCCCCCCCCCCC(=O)[O-]
REMARK SMILES IDX 9 1 10 2 11 3 12 4 13 5 14 6 15 7 16 8 17 9 18 10 8 11 7 12
REMARK SMILES IDX 6 13 5 14 4 15 3 16 2 17 1 18
REMARK H PARENT
REMARK Flexibility Score: inf
ROOT
ATOM      1  C   UNL     1      44.879   8.173  20.662  1.00  0.00     0.000 C 
ENDROOT
BRANCH   1   2
ATOM      2  C   UNL     1      46.354   8.130  20.230  1.00  0.00     0.000 C 
BRANCH   2   3
ATOM      3  C   UNL     1      47.161   7.064  20.990  1.00  0.00     0.000 C 
BRANCH   3   4
ATOM      4  C   UNL     1      47.263   7.352  22.499  1.00  0.00     0.000 C 
BRANCH   4   5
ATOM      5  C   UNL     1      47.712   8.779  22.864  1.00  0.00     0.000 C 
BRANCH   5   6
ATOM      6  C   UNL     1      46.637   9.570  23.629  1.00  0.00     0.006 C 
BRANCH   6   7
ATOM      7  C   UNL     1      45.546   8.656  24.205  1.00  0.00     0.053 C 
BRANCH   7   8
ATOM      8  C   UNL     1      44.394   9.441  24.754  1.00  0.00     0.041 C 
ATOM      9  O   UNL     1      44.543  10.149  25.784  1.00  0.00    -0.550 OA
ATOM     10  O   UNL     1      43.147   9.365  24.144  1.00  0.00    -0.550 OA
ENDBRANCH   7   8
ENDBRANCH   6   7
ENDBRANCH   5   6
ENDBRANCH   4   5
ENDBRANCH   3   4
ENDBRANCH   2   3
ENDBRANCH   1   2
BRANCH   1  11
ATOM     11  C   UNL     1      44.253   9.567  20.495  1.00  0.00     0.000 C 
BRANCH  11  12
ATOM     12  C   UNL     1      44.655  10.192  19.154  1.00  0.00    -0.000 C 
BRANCH  12  13
ATOM     13  C   UNL     1      43.574   9.956  18.090  1.00  0.00    -0.000 C 
BRANCH  13  14
ATOM     14  C   UNL     1      44.105   9.208  16.854  1.00  0.00    -0.000 C 
BRANCH  14  15
ATOM     15  C   UNL     1      44.441   7.722  17.086  1.00  0.00    -0.000 C 
BRANCH  15  16
ATOM     16  C   UNL     1      45.599   7.170  16.230  1.00  0.00    -0.000 C 
BRANCH  16  17
ATOM     17  C   UNL     1      46.755   6.548  17.032  1.00  0.00    -0.003 C 
ATOM     18  C   UNL     1      47.524   5.489  16.243  1.00  0.00     0.004 C 
ENDBRANCH  16  17
ENDBRANCH  15  16
ENDBRANCH  14  15
ENDBRANCH  13  14
ENDBRANCH  12  13
ENDBRANCH  11  12
ENDBRANCH   1  11
TORSDOF 14
ENDMDL
MODEL 9
REMARK VINA RESULT:    -4.328      2.844      6.839
REMARK INTER + INTRA:          -9.213
REMARK INTER:                  -7.334
REMARK INTRA:                  -1.879
REMARK UNBOUND:                -1.344
REMARK SMILES CCCCCCCCCCCCCCCC(=O)[O-]
REMARK SMILES IDX 9 1 10 2 11 3 12 4 13 5 14 6 15 7 16 8 17 9 18 10 8 11 7 12
REMARK SMILES IDX 6 13 5 14 4 15 3 16 2 17 1 18
REMARK H PARENT
REMARK Flexibility Score: inf
ROOT
ATOM      1  C   UNL     1      45.259  10.315  16.937  1.00  0.00     0.000 C 
ENDROOT
BRANCH   1   2
ATOM      2  C   UNL     1      43.832   9.748  17.012  1.00  0.00     0.000 C 
BRANCH   2   3
ATOM      3  C   UNL     1      43.043  10.293  18.215  1.00  0.00     0.000 C 
BRANCH   3   4
ATOM      4  C   UNL     1      43.936  10.582  19.436  1.00  0.00     0.000 C 
BRANCH   4   5
ATOM      5  C   UNL     1      44.289   9.355  20.295  1.00  0.00     0.000 C 
BRANCH   5   6
ATOM      6  C   UNL     1      45.777   9.297  20.678  1.00  0.00     0.006 C 
BRANCH   6   7
ATOM      7  C   UNL     1      46.230   7.875  21.035  1.00  0.00     0.053 C 
BRANCH   7   8
ATOM      8  C   UNL     1      47.153   7.862  22.215  1.00  0.00     0.041 C 
ATOM      9  O   UNL     1      48.187   7.145  22.201  1.00  0.00    -0.550 OA
ATOM     10  O   UNL     1      46.854   8.620  23.340  1.00  0.00    -0.550 OA
ENDBRANCH   7   8
ENDBRANCH   6   7
ENDBRANCH   5   6
ENDBRANCH   4   5
ENDBRANCH   3   4
ENDBRANCH   2   3
ENDBRANCH   1   2
BRANCH   1  11
ATOM     11  C   UNL     1      46.332   9.215  16.899  1.00  0.00     0.000 C 
BRANCH  11  12
ATOM     12  C   UNL     1      45.714   7.835  17.148  1.00  0.00    -0.000 C 
BRANCH  12  13
ATOM     13  C   UNL     1      46.790   6.813  17.541  1.00  0.00    -0.000 C 
BRANCH  13  14
ATOM     14  C   UNL     1      47.192   5.891  16.375  1.00  0.00    -0.000 C 
BRANCH  14  15
ATOM     15  C   UNL     1      46.711   6.351  14.985  1.00  0.00    -0.000 C 
BRANCH  15  16
ATOM     16  C   UNL     1      45.777   5.365  14.255  1.00  0.00    -0.000 C 
BRANCH  16  17
ATOM     17  C   UNL     1      44.275   5.617  14.473  1.00  0.00    -0.003 C 
ATOM     18  C   UNL     1      43.841   7.024  14.061  1.00  0.00     0.004 C 
ENDBRANCH  16  17
ENDBRANCH  15  16
ENDBRANCH  14  15
ENDBRANCH  13  14
ENDBRANCH  12  13
ENDBRANCH  11  12
ENDBRANCH   1  11
TORSDOF 14
ENDMDL
