MODEL 1
REMARK VINA RESULT:    -6.140      0.000      0.000
REMARK INTER + INTRA:         -15.522
REMARK INTER:                 -14.036
REMARK INTRA:                  -1.487
REMARK UNBOUND:                -1.487
REMARK SMILES CCCCCCCCCCCCCCCCCCCCCCCC(=O)[O-]
REMARK SMILES IDX 13 1 14 2 15 3 16 4 17 5 18 6 19 7 20 8 21 9 22 10 23 11
REMARK SMILES IDX 24 12 25 13 26 14 12 15 11 16 10 17 9 18 8 19 7 20 6 21 5 22
REMARK SMILES IDX 4 23 3 24 2 25 1 26
REMARK H PARENT
REMARK Flexibility Score: inf
ROOT
ATOM      1  C   UNL     1      -9.054  62.751  45.843  1.00  0.00     0.000 C 
ENDROOT
BRANCH   1   2
ATOM      2  C   UNL     1      -9.253  61.518  44.940  1.00  0.00     0.000 C 
BRANCH   2   3
ATOM      3  C   UNL     1     -10.340  61.708  43.866  1.00  0.00     0.000 C 
BRANCH   3   4
ATOM      4  C   UNL     1      -9.813  62.319  42.554  1.00  0.00     0.000 C 
BRANCH   4   5
ATOM      5  C   UNL     1      -9.813  63.862  42.523  1.00  0.00     0.000 C 
BRANCH   5   6
ATOM      6  C   UNL     1      -9.535  64.506  41.149  1.00  0.00     0.000 C 
BRANCH   6   7
ATOM      7  C   UNL     1      -9.037  63.547  40.051  1.00  0.00     0.000 C 
BRANCH   7   8
ATOM      8  C   UNL     1      -9.716  63.779  38.692  1.00  0.00     0.000 C 
BRANCH   8   9
ATOM      9  C   UNL     1     -10.660  62.619  38.343  1.00  0.00     0.000 C 
BRANCH   9  10
ATOM     10  C   UNL     1     -11.818  62.476  39.343  1.00  0.00     0.006 C 
BRANCH  10  11
ATOM     11  C   UNL     1     -11.984  61.041  39.858  1.00  0.00     0.053 C 
BRANCH  11  12
ATOM     12  C   UNL     1     -13.277  60.461  39.378  1.00  0.00     0.041 C 
ATOM     13  O   UNL     1     -13.318  59.806  38.304  1.00  0.00    -0.550 OA
ATOM     14  O   UNL     1     -14.427  60.600  40.145  1.00  0.00    -0.550 OA
ENDBRANCH  11  12
ENDBRANCH  10  11
ENDBRANCH   9  10
ENDBRANCH   8   9
ENDBRANCH   7   8
ENDBRANCH   6   7
ENDBRANCH   5   6
ENDBRANCH   4   5
ENDBRANCH   3   4
ENDBRANCH   2   3
ENDBRANCH   1   2
BRANCH   1  15
ATOM     15  C   UNL     1      -8.921  62.432  47.347  1.00  0.00     0.000 C 
BRANCH  15  16
ATOM     16  C   UNL     1      -9.529  63.473  48.307  1.00  0.00     0.000 C 
BRANCH  16  17
ATOM     17  C   UNL     1      -8.492  64.449  48.883  1.00  0.00     0.000 C 
BRANCH  17  18
ATOM     18  C   UNL     1      -7.483  63.712  49.778  1.00  0.00    -0.000 C 
BRANCH  18  19
ATOM     19  C   UNL     1      -6.803  64.645  50.794  1.00  0.00    -0.000 C 
BRANCH  19  20
ATOM     20  C   UNL     1      -7.584  64.744  52.117  1.00  0.00    -0.000 C 
BRANCH  20  21
ATOM     21  C   UNL     1      -6.888  63.996  53.267  1.00  0.00    -0.000 C 
BRANCH  21  22
ATOM     22  C   UNL     1      -7.853  63.082  54.043  1.00  0.00    -0.000 C 
BRANCH  22  23
ATOM     23  C   UNL     1      -7.765  61.614  53.598  1.00  0.00    -0.000 C 
BRANCH  23  24
ATOM     24  C   UNL     1      -6.458  60.938  54.045  1.00  0.00    -0.000 C 
BRANCH  24  25
ATOM     25  C   UNL     1      -6.378  60.758  55.568  1.00  0.00    -0.003 C 
ATOM     26  C   UNL     1      -6.215  59.297  55.987  1.00  0.00     0.004 C 
ENDBRANCH  24  25
ENDBRANCH  23  24
ENDBRANCH  22  23
ENDBRANCH  21  22
ENDBRANCH  20  21
ENDBRANCH  19  20
ENDBRANCH  18  19
ENDBRANCH  17  18
ENDBRANCH  16  17
ENDBRANCH  15  16
ENDBRANCH   1  15
TORSDOF 22
ENDMDL
MODEL 2
REMARK VINA RESULT:    -6.139      4.809     12.852
REMARK INTER + INTRA:         -15.520
REMARK INTER:                 -14.097
REMARK INTRA:                  -1.423
REMARK UNBOUND:                -1.487
REMARK SMILES CCCCCCCCCCCCCCCCCCCCCCCC(=O)[O-]
REMARK SMILES IDX 13 1 14 2 15 3 16 4 17 5 18 6 19 7 20 8 21 9 22 10 23 11
REMARK SMILES IDX 24 12 25 13 26 14 12 15 11 16 10 17 9 18 8 19 7 20 6 21 5 22
REMARK SMILES IDX 4 23 3 24 2 25 1 26
REMARK H PARENT
REMARK Flexibility Score: inf
ROOT
ATOM      1  C   UNL     1      -9.184  62.261  46.972  1.00  0.00     0.000 C 
ENDROOT
BRANCH   1   2
ATOM      2  C   UNL     1      -9.183  63.569  47.786  1.00  0.00     0.000 C 
BRANCH   2   3
ATOM      3  C   UNL     1      -8.417  63.467  49.118  1.00  0.00     0.000 C 
BRANCH   3   4
ATOM      4  C   UNL     1      -7.960  64.829  49.674  1.00  0.00     0.000 C 
BRANCH   4   5
ATOM      5  C   UNL     1      -6.439  65.075  49.591  1.00  0.00     0.000 C 
BRANCH   5   6
ATOM      6  C   UNL     1      -5.720  65.295  50.937  1.00  0.00     0.000 C 
BRANCH   6   7
ATOM      7  C   UNL     1      -6.450  66.204  51.944  1.00  0.00     0.000 C 
BRANCH   7   8
ATOM      8  C   UNL     1      -6.603  65.567  53.334  1.00  0.00     0.000 C 
BRANCH   8   9
ATOM      9  C   UNL     1      -7.860  64.687  53.400  1.00  0.00     0.000 C 
BRANCH   9  10
ATOM     10  C   UNL     1      -7.536  63.186  53.331  1.00  0.00     0.006 C 
BRANCH  10  11
ATOM     11  C   UNL     1      -7.862  62.448  54.635  1.00  0.00     0.053 C 
BRANCH  11  12
ATOM     12  C   UNL     1      -6.894  61.330  54.858  1.00  0.00     0.041 C 
ATOM     13  O   UNL     1      -6.614  60.957  56.028  1.00  0.00    -0.550 OA
ATOM     14  O   UNL     1      -6.340  60.664  53.773  1.00  0.00    -0.550 OA
ENDBRANCH  11  12
ENDBRANCH  10  11
ENDBRANCH   9  10
ENDBRANCH   8   9
ENDBRANCH   7   8
ENDBRANCH   6   7
ENDBRANCH   5   6
ENDBRANCH   4   5
ENDBRANCH   3   4
ENDBRANCH   2   3
ENDBRANCH   1   2
BRANCH   1  15
ATOM     15  C   UNL     1      -9.157  62.455  45.441  1.00  0.00     0.000 C 
BRANCH  15  16
ATOM     16  C   UNL     1      -9.609  61.242  44.605  1.00  0.00     0.000 C 
BRANCH  16  17
ATOM     17  C   UNL     1     -10.529  61.618  43.434  1.00  0.00     0.000 C 
BRANCH  17  18
ATOM     18  C   UNL     1      -9.943  62.788  42.629  1.00  0.00    -0.000 C 
BRANCH  18  19
ATOM     19  C   UNL     1      -9.660  62.414  41.164  1.00  0.00    -0.000 C 
BRANCH  19  20
ATOM     20  C   UNL     1     -10.669  63.047  40.189  1.00  0.00    -0.000 C 
BRANCH  20  21
ATOM     21  C   UNL     1     -11.496  61.994  39.432  1.00  0.00    -0.000 C 
BRANCH  21  22
ATOM     22  C   UNL     1     -11.489  60.624  40.134  1.00  0.00    -0.000 C 
BRANCH  22  23
ATOM     23  C   UNL     1     -12.737  59.787  39.811  1.00  0.00    -0.000 C 
BRANCH  23  24
ATOM     24  C   UNL     1     -14.034  60.609  39.883  1.00  0.00    -0.000 C 
BRANCH  24  25
ATOM     25  C   UNL     1     -14.851  60.538  38.584  1.00  0.00    -0.003 C 
ATOM     26  C   UNL     1     -16.316  60.172  38.821  1.00  0.00     0.004 C 
ENDBRANCH  24  25
ENDBRANCH  23  24
ENDBRANCH  22  23
ENDBRANCH  21  22
ENDBRANCH  20  21
ENDBRANCH  19  20
ENDBRANCH  18  19
ENDBRANCH  17  18
ENDBRANCH  16  17
ENDBRANCH  15  16
ENDBRANCH   1  15
TORSDOF 22
ENDMDL
MODEL 3
REMARK VINA RESULT:    -6.061      5.104     12.632
REMARK INTER + INTRA:         -15.344
REMARK INTER:                 -13.443
REMARK INTRA:                  -1.901
REMARK UNBOUND:                -1.487
REMARK SMILES CCCCCCCCCCCCCCCCCCCCCCCC(=O)[O-]
REMARK SMILES IDX 13 1 14 2 15 3 16 4 17 5 18 6 19 7 20 8 21 9 22 10 23 11
REMARK SMILES IDX 24 12 25 13 26 14 12 15 11 16 10 17 9 18 8 19 7 20 6 21 5 22
REMARK SMILES IDX 4 23 3 24 2 25 1 26
REMARK H PARENT
REMARK Flexibility Score: inf
ROOT
ATOM      1  C   UNL     1      -9.056  62.741  47.231  1.00  0.00     0.000 C 
ENDROOT
BRANCH   1   2
ATOM      2  C   UNL     1      -9.305  64.126  47.858  1.00  0.00     0.000 C 
BRANCH   2   3
ATOM      3  C   UNL     1      -8.583  64.335  49.202  1.00  0.00     0.000 C 
BRANCH   3   4
ATOM      4  C   UNL     1      -7.436  63.336  49.448  1.00  0.00     0.000 C 
BRANCH   4   5
ATOM      5  C   UNL     1      -6.247  63.912  50.245  1.00  0.00     0.000 C 
BRANCH   5   6
ATOM      6  C   UNL     1      -6.356  65.401  50.632  1.00  0.00     0.000 C 
BRANCH   6   7
ATOM      7  C   UNL     1      -6.800  65.684  52.080  1.00  0.00     0.000 C 
BRANCH   7   8
ATOM      8  C   UNL     1      -6.504  64.522  53.041  1.00  0.00     0.000 C 
BRANCH   8   9
ATOM      9  C   UNL     1      -7.801  63.958  53.639  1.00  0.00     0.000 C 
BRANCH   9  10
ATOM     10  C   UNL     1      -7.665  62.490  54.073  1.00  0.00     0.006 C 
BRANCH  10  11
ATOM     11  C   UNL     1      -6.343  61.858  53.616  1.00  0.00     0.053 C 
BRANCH  11  12
ATOM     12  C   UNL     1      -5.675  61.163  54.760  1.00  0.00     0.041 C 
ATOM     13  O   UNL     1      -6.296  60.980  55.841  1.00  0.00    -0.550 OA
ATOM     14  O   UNL     1      -4.384  60.672  54.616  1.00  0.00    -0.550 OA
ENDBRANCH  11  12
ENDBRANCH  10  11
ENDBRANCH   9  10
ENDBRANCH   8   9
ENDBRANCH   7   8
ENDBRANCH   6   7
ENDBRANCH   5   6
ENDBRANCH   4   5
ENDBRANCH   3   4
ENDBRANCH   2   3
ENDBRANCH   1   2
BRANCH   1  15
ATOM     15  C   UNL     1      -8.890  62.750  45.696  1.00  0.00     0.000 C 
BRANCH  15  16
ATOM     16  C   UNL     1      -9.622  61.626  44.939  1.00  0.00     0.000 C 
BRANCH  16  17
ATOM     17  C   UNL     1     -10.161  62.065  43.569  1.00  0.00     0.000 C 
BRANCH  17  18
ATOM     18  C   UNL     1      -9.615  63.447  43.182  1.00  0.00    -0.000 C 
BRANCH  18  19
ATOM     19  C   UNL     1     -10.139  63.930  41.819  1.00  0.00    -0.000 C 
BRANCH  19  20
ATOM     20  C   UNL     1      -9.036  63.982  40.748  1.00  0.00    -0.000 C 
BRANCH  20  21
ATOM     21  C   UNL     1      -9.534  63.524  39.367  1.00  0.00    -0.000 C 
BRANCH  21  22
ATOM     22  C   UNL     1     -11.053  63.280  39.341  1.00  0.00    -0.000 C 
BRANCH  22  23
ATOM     23  C   UNL     1     -11.414  61.833  38.968  1.00  0.00    -0.000 C 
BRANCH  23  24
ATOM     24  C   UNL     1     -11.555  60.923  40.200  1.00  0.00    -0.000 C 
BRANCH  24  25
ATOM     25  C   UNL     1     -12.604  59.819  40.001  1.00  0.00    -0.003 C 
ATOM     26  C   UNL     1     -13.388  59.971  38.698  1.00  0.00     0.004 C 
ENDBRANCH  24  25
ENDBRANCH  23  24
ENDBRANCH  22  23
ENDBRANCH  21  22
ENDBRANCH  20  21
ENDBRANCH  19  20
ENDBRANCH  18  19
ENDBRANCH  17  18
ENDBRANCH  16  17
ENDBRANCH  15  16
ENDBRANCH   1  15
TORSDOF 22
ENDMDL
MODEL 4
REMARK VINA RESULT:    -6.023      5.200     12.963
REMARK INTER + INTRA:         -15.255
REMARK INTER:                 -13.766
REMARK INTRA:                  -1.489
REMARK UNBOUND:                -1.487
REMARK SMILES CCCCCCCCCCCCCCCCCCCCCCCC(=O)[O-]
REMARK SMILES IDX 13 1 14 2 15 3 16 4 17 5 18 6 19 7 20 8 21 9 22 10 23 11
REMARK SMILES IDX 24 12 25 13 26 14 12 15 11 16 10 17 9 18 8 19 7 20 6 21 5 22
REMARK SMILES IDX 4 23 3 24 2 25 1 26
REMARK H PARENT
REMARK Flexibility Score: inf
ROOT
ATOM      1  C   UNL     1      -9.599  63.265  47.949  1.00  0.00     0.000 C 
ENDROOT
BRANCH   1   2
ATOM      2  C   UNL     1      -8.886  64.557  48.392  1.00  0.00     0.000 C 
BRANCH   2   3
ATOM      3  C   UNL     1      -8.109  64.411  49.714  1.00  0.00     0.000 C 
BRANCH   3   4
ATOM      4  C   UNL     1      -6.693  65.015  49.668  1.00  0.00     0.000 C 
BRANCH   4   5
ATOM      5  C   UNL     1      -6.211  65.617  51.005  1.00  0.00     0.000 C 
BRANCH   5   6
ATOM      6  C   UNL     1      -7.164  65.437  52.205  1.00  0.00     0.000 C 
BRANCH   6   7
ATOM      7  C   UNL     1      -6.651  64.521  53.332  1.00  0.00     0.000 C 
BRANCH   7   8
ATOM      8  C   UNL     1      -6.686  63.030  52.963  1.00  0.00     0.000 C 
BRANCH   8   9
ATOM      9  C   UNL     1      -7.663  62.263  53.867  1.00  0.00     0.000 C 
BRANCH   9  10
ATOM     10  C   UNL     1      -6.992  61.727  55.142  1.00  0.00     0.006 C 
BRANCH  10  11
ATOM     11  C   UNL     1      -5.600  61.140  54.878  1.00  0.00     0.053 C 
BRANCH  11  12
ATOM     12  C   UNL     1      -5.378  59.924  55.720  1.00  0.00     0.041 C 
ATOM     13  O   UNL     1      -5.921  58.830  55.411  1.00  0.00    -0.550 OA
ATOM     14  O   UNL     1      -4.530  59.985  56.818  1.00  0.00    -0.550 OA
ENDBRANCH  11  12
ENDBRANCH  10  11
ENDBRANCH   9  10
ENDBRANCH   8   9
ENDBRANCH   7   8
ENDBRANCH   6   7
ENDBRANCH   5   6
ENDBRANCH   4   5
ENDBRANCH   3   4
ENDBRANCH   2   3
ENDBRANCH   1   2
BRANCH   1  15
ATOM     15  C   UNL     1      -8.858  62.463  46.857  1.00  0.00     0.000 C 
BRANCH  15  16
ATOM     16  C   UNL     1      -9.220  62.822  45.403  1.00  0.00     0.000 C 
BRANCH  16  17
ATOM     17  C   UNL     1      -9.561  61.597  44.541  1.00  0.00     0.000 C 
BRANCH  17  18
ATOM     18  C   UNL     1     -10.067  62.025  43.155  1.00  0.00    -0.000 C 
BRANCH  18  19
ATOM     19  C   UNL     1      -9.738  63.492  42.833  1.00  0.00    -0.000 C 
BRANCH  19  20
ATOM     20  C   UNL     1      -9.386  63.705  41.349  1.00  0.00    -0.000 C 
BRANCH  20  21
ATOM     21  C   UNL     1      -9.612  62.440  40.504  1.00  0.00    -0.000 C 
BRANCH  21  22
ATOM     22  C   UNL     1     -10.500  62.705  39.275  1.00  0.00    -0.000 C 
BRANCH  22  23
ATOM     23  C   UNL     1     -11.848  61.969  39.350  1.00  0.00    -0.000 C 
BRANCH  23  24
ATOM     24  C   UNL     1     -11.792  60.723  40.249  1.00  0.00    -0.000 C 
BRANCH  24  25
ATOM     25  C   UNL     1     -12.708  59.595  39.752  1.00  0.00    -0.003 C 
ATOM     26  C   UNL     1     -13.520  59.988  38.518  1.00  0.00     0.004 C 
ENDBRANCH  24  25
ENDBRANCH  23  24
ENDBRANCH  22  23
ENDBRANCH  21  22
ENDBRANCH  20  21
ENDBRANCH  19  20
ENDBRANCH  18  19
ENDBRANCH  17  18
ENDBRANCH  16  17
ENDBRANCH  15  16
ENDBRANCH   1  15
TORSDOF 22
ENDMDL
MODEL 5
REMARK VINA RESULT:    -6.020      4.652     12.212
REMARK INTER + INTRA:         -15.249
REMARK INTER:                 -13.291
REMARK INTRA:                  -1.958
REMARK UNBOUND:                -1.487
REMARK SMILES CCCCCCCCCCCCCCCCCCCCCCCC(=O)[O-]
REMARK SMILES IDX 13 1 14 2 15 3 16 4 17 5 18 6 19 7 20 8 21 9 22 10 23 11
REMARK SMILES IDX 24 12 25 13 26 14 12 15 11 16 10 17 9 18 8 19 7 20 6 21 5 22
REMARK SMILES IDX 4 23 3 24 2 25 1 26
REMARK H PARENT
REMARK Flexibility Score: inf
ROOT
ATOM      1  C   UNL     1      -9.679  61.487  44.545  1.00  0.00     0.000 C 
ENDROOT
BRANCH   1   2
ATOM      2  C   UNL     1      -9.224  62.685  45.401  1.00  0.00     0.000 C 
BRANCH   2   3
ATOM      3  C   UNL     1      -8.919  62.317  46.865  1.00  0.00     0.000 C 
BRANCH   3   4
ATOM      4  C   UNL     1      -9.266  63.435  47.867  1.00  0.00     0.000 C 
BRANCH   4   5
ATOM      5  C   UNL     1      -8.342  63.495  49.101  1.00  0.00     0.000 C 
BRANCH   5   6
ATOM      6  C   UNL     1      -7.814  64.895  49.478  1.00  0.00     0.000 C 
BRANCH   6   7
ATOM      7  C   UNL     1      -6.297  64.992  49.726  1.00  0.00     0.000 C 
BRANCH   7   8
ATOM      8  C   UNL     1      -5.935  65.134  51.213  1.00  0.00     0.000 C 
BRANCH   8   9
ATOM      9  C   UNL     1      -7.166  65.523  52.044  1.00  0.00     0.000 C 
BRANCH   9  10
ATOM     10  C   UNL     1      -7.594  64.416  53.021  1.00  0.00     0.006 C 
BRANCH  10  11
ATOM     11  C   UNL     1      -6.682  63.184  52.958  1.00  0.00     0.053 C 
BRANCH  11  12
ATOM     12  C   UNL     1      -7.210  62.099  53.842  1.00  0.00     0.041 C 
ATOM     13  O   UNL     1      -8.172  62.329  54.622  1.00  0.00    -0.550 OA
ATOM     14  O   UNL     1      -6.676  60.820  53.766  1.00  0.00    -0.550 OA
ENDBRANCH  11  12
ENDBRANCH  10  11
ENDBRANCH   9  10
ENDBRANCH   8   9
ENDBRANCH   7   8
ENDBRANCH   6   7
ENDBRANCH   5   6
ENDBRANCH   4   5
ENDBRANCH   3   4
ENDBRANCH   2   3
ENDBRANCH   1   2
BRANCH   1  15
ATOM     15  C   UNL     1     -10.369  61.870  43.218  1.00  0.00     0.000 C 
BRANCH  15  16
ATOM     16  C   UNL     1      -9.526  62.716  42.246  1.00  0.00     0.000 C 
BRANCH  16  17
ATOM     17  C   UNL     1     -10.057  64.146  42.064  1.00  0.00     0.000 C 
BRANCH  17  18
ATOM     18  C   UNL     1      -9.098  64.983  41.205  1.00  0.00    -0.000 C 
BRANCH  18  19
ATOM     19  C   UNL     1      -8.324  64.133  40.185  1.00  0.00    -0.000 C 
BRANCH  19  20
ATOM     20  C   UNL     1      -8.631  64.532  38.730  1.00  0.00    -0.000 C 
BRANCH  20  21
ATOM     21  C   UNL     1      -9.992  64.002  38.249  1.00  0.00    -0.000 C 
BRANCH  21  22
ATOM     22  C   UNL     1     -10.174  62.501  38.539  1.00  0.00    -0.000 C 
BRANCH  22  23
ATOM     23  C   UNL     1     -11.573  62.169  39.083  1.00  0.00    -0.000 C 
BRANCH  23  24
ATOM     24  C   UNL     1     -11.585  60.892  39.941  1.00  0.00    -0.000 C 
BRANCH  24  25
ATOM     25  C   UNL     1     -12.812  60.010  39.668  1.00  0.00    -0.003 C 
ATOM     26  C   UNL     1     -14.123  60.662  40.107  1.00  0.00     0.004 C 
ENDBRANCH  24  25
ENDBRANCH  23  24
ENDBRANCH  22  23
ENDBRANCH  21  22
ENDBRANCH  20  21
ENDBRANCH  19  20
ENDBRANCH  18  19
ENDBRANCH  17  18
ENDBRANCH  16  17
ENDBRANCH  15  16
ENDBRANCH   1  15
TORSDOF 22
ENDMDL
MODEL 6
REMARK VINA RESULT:    -5.965      1.007      1.753
REMARK INTER + INTRA:         -15.122
REMARK INTER:                 -13.779
REMARK INTRA:                  -1.344
REMARK UNBOUND:                -1.487
REMARK SMILES CCCCCCCCCCCCCCCCCCCCCCCC(=O)[O-]
REMARK SMILES IDX 13 1 14 2 15 3 16 4 17 5 18 6 19 7 20 8 21 9 22 10 23 11
REMARK SMILES IDX 24 12 25 13 26 14 12 15 11 16 10 17 9 18 8 19 7 20 6 21 5 22
REMARK SMILES IDX 4 23 3 24 2 25 1 26
REMARK H PARENT
REMARK Flexibility Score: inf
ROOT
ATOM      1  C   UNL     1      -9.199  63.388  47.908  1.00  0.00     0.000 C 
ENDROOT
BRANCH   1   2
ATOM      2  C   UNL     1      -8.920  62.288  46.865  1.00  0.00     0.000 C 
BRANCH   2   3
ATOM      3  C   UNL     1      -9.279  62.698  45.424  1.00  0.00     0.000 C 
BRANCH   3   4
ATOM      4  C   UNL     1      -9.661  61.510  44.521  1.00  0.00     0.000 C 
BRANCH   4   5
ATOM      5  C   UNL     1     -10.186  61.911  43.127  1.00  0.00     0.000 C 
BRANCH   5   6
ATOM      6  C   UNL     1      -9.811  63.329  42.649  1.00  0.00     0.000 C 
BRANCH   6   7
ATOM      7  C   UNL     1      -9.633  63.495  41.128  1.00  0.00     0.000 C 
BRANCH   7   8
ATOM      8  C   UNL     1      -9.637  62.159  40.369  1.00  0.00     0.000 C 
BRANCH   8   9
ATOM      9  C   UNL     1     -10.539  62.235  39.128  1.00  0.00     0.000 C 
BRANCH   9  10
ATOM     10  C   UNL     1     -12.033  62.140  39.476  1.00  0.00     0.006 C 
BRANCH  10  11
ATOM     11  C   UNL     1     -12.666  60.820  39.016  1.00  0.00     0.053 C 
BRANCH  11  12
ATOM     12  C   UNL     1     -13.699  60.367  39.998  1.00  0.00     0.041 C 
ATOM     13  O   UNL     1     -13.367  60.071  41.176  1.00  0.00    -0.550 OA
ATOM     14  O   UNL     1     -15.037  60.323  39.628  1.00  0.00    -0.550 OA
ENDBRANCH  11  12
ENDBRANCH  10  11
ENDBRANCH   9  10
ENDBRANCH   8   9
ENDBRANCH   7   8
ENDBRANCH   6   7
ENDBRANCH   5   6
ENDBRANCH   4   5
ENDBRANCH   3   4
ENDBRANCH   2   3
ENDBRANCH   1   2
BRANCH   1  15
ATOM     15  C   UNL     1      -8.208  63.418  49.091  1.00  0.00     0.000 C 
BRANCH  15  16
ATOM     16  C   UNL     1      -7.912  64.811  49.679  1.00  0.00     0.000 C 
BRANCH  16  17
ATOM     17  C   UNL     1      -6.427  65.196  49.613  1.00  0.00     0.000 C 
BRANCH  17  18
ATOM     18  C   UNL     1      -5.907  65.620  50.995  1.00  0.00    -0.000 C 
BRANCH  18  19
ATOM     19  C   UNL     1      -6.995  65.561  52.079  1.00  0.00    -0.000 C 
BRANCH  19  20
ATOM     20  C   UNL     1      -6.662  64.555  53.195  1.00  0.00    -0.000 C 
BRANCH  20  21
ATOM     21  C   UNL     1      -7.384  63.210  53.010  1.00  0.00    -0.000 C 
BRANCH  21  22
ATOM     22  C   UNL     1      -7.613  62.477  54.344  1.00  0.00    -0.000 C 
BRANCH  22  23
ATOM     23  C   UNL     1      -7.027  61.056  54.346  1.00  0.00    -0.000 C 
BRANCH  23  24
ATOM     24  C   UNL     1      -5.508  61.043  54.591  1.00  0.00    -0.000 C 
BRANCH  24  25
ATOM     25  C   UNL     1      -5.066  59.880  55.491  1.00  0.00    -0.003 C 
ATOM     26  C   UNL     1      -6.240  59.155  56.146  1.00  0.00     0.004 C 
ENDBRANCH  24  25
ENDBRANCH  23  24
ENDBRANCH  22  23
ENDBRANCH  21  22
ENDBRANCH  20  21
ENDBRANCH  19  20
ENDBRANCH  18  19
ENDBRANCH  17  18
ENDBRANCH  16  17
ENDBRANCH  15  16
ENDBRANCH   1  15
TORSDOF 22
ENDMDL
MODEL 7
REMARK VINA RESULT:    -5.928      5.228     13.013
REMARK INTER + INTRA:         -15.039
REMARK INTER:                 -13.603
REMARK INTRA:                  -1.436
REMARK UNBOUND:                -1.487
REMARK SMILES CCCCCCCCCCCCCCCCCCCCCCCC(=O)[O-]
REMARK SMILES IDX 13 1 14 2 15 3 16 4 17 5 18 6 19 7 20 8 21 9 22 10 23 11
REMARK SMILES IDX 24 12 25 13 26 14 12 15 11 16 10 17 9 18 8 19 7 20 6 21 5 22
REMARK SMILES IDX 4 23 3 24 2 25 1 26
REMARK H PARENT
REMARK Flexibility Score: inf
ROOT
ATOM      1  C   UNL     1      -8.973  62.562  47.358  1.00  0.00     0.000 C 
ENDROOT
BRANCH   1   2
ATOM      2  C   UNL     1      -9.367  63.738  48.271  1.00  0.00     0.000 C 
BRANCH   2   3
ATOM      3  C   UNL     1      -8.169  64.588  48.734  1.00  0.00     0.000 C 
BRANCH   3   4
ATOM      4  C   UNL     1      -7.279  63.885  49.776  1.00  0.00     0.000 C 
BRANCH   4   5
ATOM      5  C   UNL     1      -6.195  64.786  50.404  1.00  0.00     0.000 C 
BRANCH   5   6
ATOM      6  C   UNL     1      -6.362  65.092  51.907  1.00  0.00     0.000 C 
BRANCH   6   7
ATOM      7  C   UNL     1      -7.764  64.830  52.489  1.00  0.00     0.000 C 
BRANCH   7   8
ATOM      8  C   UNL     1      -7.759  63.822  53.648  1.00  0.00     0.000 C 
BRANCH   8   9
ATOM      9  C   UNL     1      -6.931  62.578  53.292  1.00  0.00     0.000 C 
BRANCH   9  10
ATOM     10  C   UNL     1      -7.134  61.427  54.290  1.00  0.00     0.006 C 
BRANCH  10  11
ATOM     11  C   UNL     1      -5.945  60.458  54.326  1.00  0.00     0.053 C 
BRANCH  11  12
ATOM     12  C   UNL     1      -5.714  59.968  55.720  1.00  0.00     0.041 C 
ATOM     13  O   UNL     1      -4.777  60.446  56.413  1.00  0.00    -0.550 OA
ATOM     14  O   UNL     1      -6.565  59.020  56.274  1.00  0.00    -0.550 OA
ENDBRANCH  11  12
ENDBRANCH  10  11
ENDBRANCH   9  10
ENDBRANCH   8   9
ENDBRANCH   7   8
ENDBRANCH   6   7
ENDBRANCH   5   6
ENDBRANCH   4   5
ENDBRANCH   3   4
ENDBRANCH   2   3
ENDBRANCH   1   2
BRANCH   1  15
ATOM     15  C   UNL     1      -9.212  62.808  45.852  1.00  0.00     0.000 C 
BRANCH  15  16
ATOM     16  C   UNL     1      -9.599  61.567  45.025  1.00  0.00     0.000 C 
BRANCH  16  17
ATOM     17  C   UNL     1      -9.822  61.874  43.537  1.00  0.00     0.000 C 
BRANCH  17  18
ATOM     18  C   UNL     1      -9.674  63.377  43.257  1.00  0.00    -0.000 C 
BRANCH  18  19
ATOM     19  C   UNL     1      -9.627  63.697  41.754  1.00  0.00    -0.000 C 
BRANCH  19  20
ATOM     20  C   UNL     1      -9.630  62.429  40.881  1.00  0.00    -0.000 C 
BRANCH  20  21
ATOM     21  C   UNL     1     -10.212  62.681  39.480  1.00  0.00    -0.000 C 
BRANCH  21  22
ATOM     22  C   UNL     1     -11.481  61.852  39.212  1.00  0.00    -0.000 C 
BRANCH  22  23
ATOM     23  C   UNL     1     -11.695  60.743  40.255  1.00  0.00    -0.000 C 
BRANCH  23  24
ATOM     24  C   UNL     1     -12.750  59.714  39.815  1.00  0.00    -0.000 C 
BRANCH  24  25
ATOM     25  C   UNL     1     -13.497  60.143  38.542  1.00  0.00    -0.003 C 
ATOM     26  C   UNL     1     -15.001  60.306  38.762  1.00  0.00     0.004 C 
ENDBRANCH  24  25
ENDBRANCH  23  24
ENDBRANCH  22  23
ENDBRANCH  21  22
ENDBRANCH  20  21
ENDBRANCH  19  20
ENDBRANCH  18  19
ENDBRANCH  17  18
ENDBRANCH  16  17
ENDBRANCH  15  16
ENDBRANCH   1  15
TORSDOF 22
ENDMDL
MODEL 8
REMARK VINA RESULT:    -5.620      1.128      2.233
REMARK INTER + INTRA:         -14.335
REMARK INTER:                 -12.602
REMARK INTRA:                  -1.733
REMARK UNBOUND:                -1.487
REMARK SMILES CCCCCCCCCCCCCCCCCCCCCCCC(=O)[O-]
REMARK SMILES IDX 13 1 14 2 15 3 16 4 17 5 18 6 19 7 20 8 21 9 22 10 23 11
REMARK SMILES IDX 24 12 25 13 26 14 12 15 11 16 10 17 9 18 8 19 7 20 6 21 5 22
REMARK SMILES IDX 4 23 3 24 2 25 1 26
REMARK H PARENT
REMARK Flexibility Score: inf
ROOT
ATOM      1  C   UNL     1      -9.541  62.094  44.763  1.00  0.00     0.000 C 
ENDROOT
BRANCH   1   2
ATOM      2  C   UNL     1      -9.944  62.427  43.314  1.00  0.00     0.000 C 
BRANCH   2   3
ATOM      3  C   UNL     1      -9.562  63.853  42.878  1.00  0.00     0.000 C 
BRANCH   3   4
ATOM      4  C   UNL     1     -10.324  64.344  41.632  1.00  0.00     0.000 C 
BRANCH   4   5
ATOM      5  C   UNL     1      -9.548  64.190  40.307  1.00  0.00     0.000 C 
BRANCH   5   6
ATOM      6  C   UNL     1      -9.307  62.742  39.834  1.00  0.00     0.000 C 
BRANCH   6   7
ATOM      7  C   UNL     1     -10.252  62.234  38.729  1.00  0.00     0.000 C 
BRANCH   7   8
ATOM      8  C   UNL     1     -11.694  62.021  39.218  1.00  0.00     0.000 C 
BRANCH   8   9
ATOM      9  C   UNL     1     -11.778  60.827  40.179  1.00  0.00     0.000 C 
BRANCH   9  10
ATOM     10  C   UNL     1     -13.052  59.992  39.976  1.00  0.00     0.006 C 
BRANCH  10  11
ATOM     11  C   UNL     1     -13.606  60.093  38.549  1.00  0.00     0.053 C 
BRANCH  11  12
ATOM     12  C   UNL     1     -14.962  60.727  38.559  1.00  0.00     0.041 C 
ATOM     13  O   UNL     1     -15.094  61.945  38.267  1.00  0.00    -0.550 OA
ATOM     14  O   UNL     1     -16.085  59.960  38.841  1.00  0.00    -0.550 OA
ENDBRANCH  11  12
ENDBRANCH  10  11
ENDBRANCH   9  10
ENDBRANCH   8   9
ENDBRANCH   7   8
ENDBRANCH   6   7
ENDBRANCH   5   6
ENDBRANCH   4   5
ENDBRANCH   3   4
ENDBRANCH   2   3
ENDBRANCH   1   2
BRANCH   1  15
ATOM     15  C   UNL     1      -9.095  63.310  45.603  1.00  0.00     0.000 C 
BRANCH  15  16
ATOM     16  C   UNL     1      -9.134  63.118  47.131  1.00  0.00     0.000 C 
BRANCH  16  17
ATOM     17  C   UNL     1      -9.458  64.409  47.898  1.00  0.00     0.000 C 
BRANCH  17  18
ATOM     18  C   UNL     1      -8.499  64.599  49.083  1.00  0.00    -0.000 C 
BRANCH  18  19
ATOM     19  C   UNL     1      -7.665  63.341  49.376  1.00  0.00    -0.000 C 
BRANCH  19  20
ATOM     20  C   UNL     1      -6.360  63.660  50.127  1.00  0.00    -0.000 C 
BRANCH  20  21
ATOM     21  C   UNL     1      -6.487  64.902  51.024  1.00  0.00    -0.000 C 
BRANCH  21  22
ATOM     22  C   UNL     1      -6.413  64.556  52.522  1.00  0.00    -0.000 C 
BRANCH  22  23
ATOM     23  C   UNL     1      -7.729  63.971  53.060  1.00  0.00    -0.000 C 
BRANCH  23  24
ATOM     24  C   UNL     1      -7.578  62.515  53.533  1.00  0.00    -0.000 C 
BRANCH  24  25
ATOM     25  C   UNL     1      -6.110  62.112  53.742  1.00  0.00    -0.003 C 
ATOM     26  C   UNL     1      -5.958  60.803  54.517  1.00  0.00     0.004 C 
ENDBRANCH  24  25
ENDBRANCH  23  24
ENDBRANCH  22  23
ENDBRANCH  21  22
ENDBRANCH  20  21
ENDBRANCH  19  20
ENDBRANCH  18  19
ENDBRANCH  17  18
ENDBRANCH  16  17
ENDBRANCH  15  16
ENDBRANCH   1  15
TORSDOF 22
ENDMDL
MODEL 9
REMARK VINA RESULT:    -5.531      2.392      3.361
REMARK INTER + INTRA:         -14.132
REMARK INTER:                 -12.679
REMARK INTRA:                  -1.453
REMARK UNBOUND:                -1.487
REMARK SMILES CCCCCCCCCCCCCCCCCCCCCCCC(=O)[O-]
REMARK SMILES IDX 13 1 14 2 15 3 16 4 17 5 18 6 19 7 20 8 21 9 22 10 23 11
REMARK SMILES IDX 24 12 25 13 26 14 12 15 11 16 10 17 9 18 8 19 7 20 6 21 5 22
REMARK SMILES IDX 4 23 3 24 2 25 1 26
REMARK H PARENT
REMARK Flexibility Score: inf
ROOT
ATOM      1  C   UNL     1      -9.222  63.350  47.793  1.00  0.00     0.000 C 
ENDROOT
BRANCH   1   2
ATOM      2  C   UNL     1      -9.001  62.248  46.739  1.00  0.00     0.000 C 
BRANCH   2   3
ATOM      3  C   UNL     1      -9.244  62.719  45.293  1.00  0.00     0.000 C 
BRANCH   3   4
ATOM      4  C   UNL     1      -9.593  61.575  44.322  1.00  0.00     0.000 C 
BRANCH   4   5
ATOM      5  C   UNL     1     -10.564  61.972  43.190  1.00  0.00     0.000 C 
BRANCH   5   6
ATOM      6  C   UNL     1     -10.018  61.829  41.754  1.00  0.00     0.000 C 
BRANCH   6   7
ATOM      7  C   UNL     1     -11.008  61.269  40.717  1.00  0.00     0.000 C 
BRANCH   7   8
ATOM      8  C   UNL     1     -11.313  62.254  39.577  1.00  0.00     0.000 C 
BRANCH   8   9
ATOM      9  C   UNL     1     -10.027  62.656  38.839  1.00  0.00     0.000 C 
BRANCH   9  10
ATOM     10  C   UNL     1      -9.756  64.167  38.903  1.00  0.00     0.006 C 
BRANCH  10  11
ATOM     11  C   UNL     1      -8.547  64.516  39.780  1.00  0.00     0.053 C 
BRANCH  11  12
ATOM     12  C   UNL     1      -8.914  65.564  40.782  1.00  0.00     0.041 C 
ATOM     13  O   UNL     1      -9.113  65.247  41.985  1.00  0.00    -0.550 OA
ATOM     14  O   UNL     1      -8.985  66.897  40.400  1.00  0.00    -0.550 OA
ENDBRANCH  11  12
ENDBRANCH  10  11
ENDBRANCH   9  10
ENDBRANCH   8   9
ENDBRANCH   7   8
ENDBRANCH   6   7
ENDBRANCH   5   6
ENDBRANCH   4   5
ENDBRANCH   3   4
ENDBRANCH   2   3
ENDBRANCH   1   2
BRANCH   1  15
ATOM     15  C   UNL     1      -8.283  63.268  49.016  1.00  0.00     0.000 C 
BRANCH  15  16
ATOM     16  C   UNL     1      -7.894  64.617  49.651  1.00  0.00     0.000 C 
BRANCH  16  17
ATOM     17  C   UNL     1      -6.376  64.849  49.707  1.00  0.00     0.000 C 
BRANCH  17  18
ATOM     18  C   UNL     1      -5.997  65.711  50.920  1.00  0.00    -0.000 C 
BRANCH  18  19
ATOM     19  C   UNL     1      -7.048  65.650  52.040  1.00  0.00    -0.000 C 
BRANCH  19  20
ATOM     20  C   UNL     1      -6.575  64.824  53.249  1.00  0.00    -0.000 C 
BRANCH  20  21
ATOM     21  C   UNL     1      -6.734  63.310  53.026  1.00  0.00    -0.000 C 
BRANCH  21  22
ATOM     22  C   UNL     1      -7.751  62.676  53.992  1.00  0.00    -0.000 C 
BRANCH  22  23
ATOM     23  C   UNL     1      -7.078  61.880  55.121  1.00  0.00    -0.000 C 
BRANCH  23  24
ATOM     24  C   UNL     1      -6.701  60.452  54.694  1.00  0.00    -0.000 C 
BRANCH  24  25
ATOM     25  C   UNL     1      -5.337  60.011  55.247  1.00  0.00    -0.003 C 
ATOM     26  C   UNL     1      -4.297  61.130  55.226  1.00  0.00     0.004 C 
ENDBRANCH  24  25
ENDBRANCH  23  24
ENDBRANCH  22  23
ENDBRANCH  21  22
ENDBRANCH  20  21
ENDBRANCH  19  20
ENDBRANCH  18  19
ENDBRANCH  17  18
ENDBRANCH  16  17
ENDBRANCH  15  16
ENDBRANCH   1  15
TORSDOF 22
ENDMDL
