MODEL 1
REMARK VINA RESULT:    -4.581      0.000      0.000
REMARK INTER + INTRA:          -8.710
REMARK INTER:                  -7.795
REMARK INTRA:                  -0.914
REMARK UNBOUND:                -0.914
REMARK SMILES CCCCCCCCCCCCCC(=O)[O-]
REMARK SMILES IDX 8 1 9 2 10 3 11 4 12 5 13 6 14 7 15 8 16 9 7 10 6 11 5 12
REMARK SMILES IDX 4 13 3 14 2 15 1 16
REMARK H PARENT
REMARK Flexibility Score: inf
ROOT
ATOM      1  C   UNL     1      11.872  14.052  23.710  1.00  0.00     0.000 C 
ENDROOT
BRANCH   1   2
ATOM      2  C   UNL     1      11.502  15.254  24.597  1.00  0.00     0.000 C 
BRANCH   2   3
ATOM      3  C   UNL     1      12.719  15.936  25.255  1.00  0.00     0.000 C 
BRANCH   3   4
ATOM      4  C   UNL     1      12.843  17.416  24.850  1.00  0.00     0.000 C 
BRANCH   4   5
ATOM      5  C   UNL     1      14.105  17.699  24.020  1.00  0.00     0.006 C 
BRANCH   5   6
ATOM      6  C   UNL     1      13.891  17.460  22.519  1.00  0.00     0.053 C 
BRANCH   6   7
ATOM      7  C   UNL     1      12.712  18.240  22.030  1.00  0.00     0.041 C 
ATOM      8  O   UNL     1      12.735  19.498  22.042  1.00  0.00    -0.550 OA
ATOM      9  O   UNL     1      11.567  17.576  21.606  1.00  0.00    -0.550 OA
ENDBRANCH   6   7
ENDBRANCH   5   6
ENDBRANCH   4   5
ENDBRANCH   3   4
ENDBRANCH   2   3
ENDBRANCH   1   2
BRANCH   1  10
ATOM     10  C   UNL     1      11.328  14.178  22.278  1.00  0.00     0.000 C 
BRANCH  10  11
ATOM     11  C   UNL     1       9.841  14.568  22.244  1.00  0.00    -0.000 C 
BRANCH  11  12
ATOM     12  C   UNL     1       8.907  13.358  22.408  1.00  0.00    -0.000 C 
BRANCH  12  13
ATOM     13  C   UNL     1       7.434  13.796  22.385  1.00  0.00    -0.000 C 
BRANCH  13  14
ATOM     14  C   UNL     1       6.535  12.864  23.225  1.00  0.00    -0.000 C 
BRANCH  14  15
ATOM     15  C   UNL     1       6.399  11.448  22.641  1.00  0.00    -0.003 C 
ATOM     16  C   UNL     1       4.955  10.953  22.601  1.00  0.00     0.004 C 
ENDBRANCH  14  15
ENDBRANCH  13  14
ENDBRANCH  12  13
ENDBRANCH  11  12
ENDBRANCH  10  11
ENDBRANCH   1  10
TORSDOF 12
ENDMDL
MODEL 2
REMARK VINA RESULT:    -4.528      1.977      2.860
REMARK INTER + INTRA:          -8.618
REMARK INTER:                  -7.476
REMARK INTRA:                  -1.142
REMARK UNBOUND:                -0.914
REMARK SMILES CCCCCCCCCCCCCC(=O)[O-]
REMARK SMILES IDX 8 1 9 2 10 3 11 4 12 5 13 6 14 7 15 8 16 9 7 10 6 11 5 12
REMARK SMILES IDX 4 13 3 14 2 15 1 16
REMARK H PARENT
REMARK Flexibility Score: inf
ROOT
ATOM      1  C   UNL     1      10.387  13.501  21.983  1.00  0.00     0.000 C 
ENDROOT
BRANCH   1   2
ATOM      2  C   UNL     1      11.649  13.472  22.862  1.00  0.00     0.000 C 
BRANCH   2   3
ATOM      3  C   UNL     1      11.535  14.334  24.138  1.00  0.00     0.000 C 
BRANCH   3   4
ATOM      4  C   UNL     1      12.806  15.165  24.391  1.00  0.00     0.000 C 
BRANCH   4   5
ATOM      5  C   UNL     1      12.538  16.410  25.250  1.00  0.00     0.006 C 
BRANCH   5   6
ATOM      6  C   UNL     1      11.620  17.423  24.552  1.00  0.00     0.053 C 
BRANCH   6   7
ATOM      7  C   UNL     1      11.489  18.663  25.378  1.00  0.00     0.041 C 
ATOM      8  O   UNL     1      10.725  19.593  25.009  1.00  0.00    -0.550 OA
ATOM      9  O   UNL     1      12.249  18.814  26.531  1.00  0.00    -0.550 OA
ENDBRANCH   6   7
ENDBRANCH   5   6
ENDBRANCH   4   5
ENDBRANCH   3   4
ENDBRANCH   2   3
ENDBRANCH   1   2
BRANCH   1  10
ATOM     10  C   UNL     1       9.249  14.330  22.600  1.00  0.00     0.000 C 
BRANCH  10  11
ATOM     11  C   UNL     1       7.863  13.900  22.090  1.00  0.00    -0.000 C 
BRANCH  11  12
ATOM     12  C   UNL     1       6.920  13.474  23.226  1.00  0.00    -0.000 C 
BRANCH  12  13
ATOM     13  C   UNL     1       6.358  12.066  22.973  1.00  0.00    -0.000 C 
BRANCH  13  14
ATOM     14  C   UNL     1       6.998  11.395  21.740  1.00  0.00    -0.000 C 
BRANCH  14  15
ATOM     15  C   UNL     1       7.776  10.111  22.072  1.00  0.00    -0.003 C 
ATOM     16  C   UNL     1       8.745  10.283  23.239  1.00  0.00     0.004 C 
ENDBRANCH  14  15
ENDBRANCH  13  14
ENDBRANCH  12  13
ENDBRANCH  11  12
ENDBRANCH  10  11
ENDBRANCH   1  10
TORSDOF 12
ENDMDL
MODEL 3
REMARK VINA RESULT:    -4.497      1.164      1.653
REMARK INTER + INTRA:          -8.565
REMARK INTER:                  -7.756
REMARK INTRA:                  -0.810
REMARK UNBOUND:                -0.914
REMARK SMILES CCCCCCCCCCCCCC(=O)[O-]
REMARK SMILES IDX 8 1 9 2 10 3 11 4 12 5 13 6 14 7 15 8 16 9 7 10 6 11 5 12
REMARK SMILES IDX 4 13 3 14 2 15 1 16
REMARK H PARENT
REMARK Flexibility Score: inf
ROOT
ATOM      1  C   UNL     1      10.963  15.746  22.921  1.00  0.00     0.000 C 
ENDROOT
BRANCH   1   2
ATOM      2  C   UNL     1      11.665  15.024  24.084  1.00  0.00     0.000 C 
BRANCH   2   3
ATOM      3  C   UNL     1      12.374  15.979  25.068  1.00  0.00     0.000 C 
BRANCH   3   4
ATOM      4  C   UNL     1      11.981  17.448  24.833  1.00  0.00     0.000 C 
BRANCH   4   5
ATOM      5  C   UNL     1      13.174  18.409  24.961  1.00  0.00     0.006 C 
BRANCH   5   6
ATOM      6  C   UNL     1      14.381  17.967  24.123  1.00  0.00     0.053 C 
BRANCH   6   7
ATOM      7  C   UNL     1      14.160  18.291  22.679  1.00  0.00     0.041 C 
ATOM      8  O   UNL     1      13.906  17.374  21.856  1.00  0.00    -0.550 OA
ATOM      9  O   UNL     1      14.282  19.602  22.234  1.00  0.00    -0.550 OA
ENDBRANCH   6   7
ENDBRANCH   5   6
ENDBRANCH   4   5
ENDBRANCH   3   4
ENDBRANCH   2   3
ENDBRANCH   1   2
BRANCH   1  10
ATOM     10  C   UNL     1       9.854  14.899  22.276  1.00  0.00     0.000 C 
BRANCH  10  11
ATOM     11  C   UNL     1      10.170  13.394  22.303  1.00  0.00    -0.000 C 
BRANCH  11  12
ATOM     12  C   UNL     1       9.295  12.588  21.331  1.00  0.00    -0.000 C 
BRANCH  12  13
ATOM     13  C   UNL     1       7.809  12.936  21.512  1.00  0.00    -0.000 C 
BRANCH  13  14
ATOM     14  C   UNL     1       6.911  11.681  21.514  1.00  0.00    -0.000 C 
BRANCH  14  15
ATOM     15  C   UNL     1       6.065  11.531  22.789  1.00  0.00    -0.003 C 
ATOM     16  C   UNL     1       4.940  10.508  22.645  1.00  0.00     0.004 C 
ENDBRANCH  14  15
ENDBRANCH  13  14
ENDBRANCH  12  13
ENDBRANCH  11  12
ENDBRANCH  10  11
ENDBRANCH   1  10
TORSDOF 12
ENDMDL
MODEL 4
REMARK VINA RESULT:    -4.486      3.835      5.802
REMARK INTER + INTRA:          -8.547
REMARK INTER:                  -6.612
REMARK INTRA:                  -1.935
REMARK UNBOUND:                -0.914
REMARK SMILES CCCCCCCCCCCCCC(=O)[O-]
REMARK SMILES IDX 8 1 9 2 10 3 11 4 12 5 13 6 14 7 15 8 16 9 7 10 6 11 5 12
REMARK SMILES IDX 4 13 3 14 2 15 1 16
REMARK H PARENT
REMARK Flexibility Score: inf
ROOT
ATOM      1  C   UNL     1      11.012  17.572  21.915  1.00  0.00     0.000 C 
ENDROOT
BRANCH   1   2
ATOM      2  C   UNL     1      11.938  18.523  21.136  1.00  0.00     0.000 C 
BRANCH   2   3
ATOM      3  C   UNL     1      12.191  19.866  21.853  1.00  0.00     0.000 C 
BRANCH   3   4
ATOM      4  C   UNL     1      13.684  20.089  22.154  1.00  0.00     0.000 C 
BRANCH   4   5
ATOM      5  C   UNL     1      14.569  18.939  21.648  1.00  0.00     0.006 C 
BRANCH   5   6
ATOM      6  C   UNL     1      15.787  19.435  20.857  1.00  0.00     0.053 C 
BRANCH   6   7
ATOM      7  C   UNL     1      15.369  19.917  19.504  1.00  0.00     0.041 C 
ATOM      8  O   UNL     1      14.520  19.271  18.836  1.00  0.00    -0.550 OA
ATOM      9  O   UNL     1      15.954  21.054  18.960  1.00  0.00    -0.550 OA
ENDBRANCH   6   7
ENDBRANCH   5   6
ENDBRANCH   4   5
ENDBRANCH   3   4
ENDBRANCH   2   3
ENDBRANCH   1   2
BRANCH   1  10
ATOM     10  C   UNL     1      11.708  16.263  22.320  1.00  0.00     0.000 C 
BRANCH  10  11
ATOM     11  C   UNL     1      11.373  15.838  23.760  1.00  0.00    -0.000 C 
BRANCH  11  12
ATOM     12  C   UNL     1      12.624  15.698  24.642  1.00  0.00    -0.000 C 
BRANCH  12  13
ATOM     13  C   UNL     1      13.291  17.063  24.868  1.00  0.00    -0.000 C 
BRANCH  13  14
ATOM     14  C   UNL     1      12.566  17.896  25.945  1.00  0.00    -0.000 C 
BRANCH  14  15
ATOM     15  C   UNL     1      12.199  19.316  25.482  1.00  0.00    -0.003 C 
ATOM     16  C   UNL     1      10.716  19.475  25.155  1.00  0.00     0.004 C 
ENDBRANCH  14  15
ENDBRANCH  13  14
ENDBRANCH  12  13
ENDBRANCH  11  12
ENDBRANCH  10  11
ENDBRANCH   1  10
TORSDOF 12
ENDMDL
MODEL 5
REMARK VINA RESULT:    -4.422      3.314      5.522
REMARK INTER + INTRA:          -8.438
REMARK INTER:                  -6.615
REMARK INTRA:                  -1.824
REMARK UNBOUND:                -0.914
REMARK SMILES CCCCCCCCCCCCCC(=O)[O-]
REMARK SMILES IDX 8 1 9 2 10 3 11 4 12 5 13 6 14 7 15 8 16 9 7 10 6 11 5 12
REMARK SMILES IDX 4 13 3 14 2 15 1 16
REMARK H PARENT
REMARK Flexibility Score: inf
ROOT
ATOM      1  C   UNL     1      11.035  15.320  22.371  1.00  0.00     0.000 C 
ENDROOT
BRANCH   1   2
ATOM      2  C   UNL     1      10.414  16.716  22.561  1.00  0.00     0.000 C 
BRANCH   2   3
ATOM      3  C   UNL     1      11.032  17.798  21.652  1.00  0.00     0.000 C 
BRANCH   3   4
ATOM      4  C   UNL     1      12.491  17.476  21.278  1.00  0.00     0.000 C 
BRANCH   4   5
ATOM      5  C   UNL     1      13.178  18.627  20.527  1.00  0.00     0.006 C 
BRANCH   5   6
ATOM      6  C   UNL     1      12.581  19.998  20.873  1.00  0.00     0.053 C 
BRANCH   6   7
ATOM      7  C   UNL     1      13.331  20.622  22.007  1.00  0.00     0.041 C 
ATOM      8  O   UNL     1      12.776  21.489  22.733  1.00  0.00    -0.550 OA
ATOM      9  O   UNL     1      14.659  20.283  22.233  1.00  0.00    -0.550 OA
ENDBRANCH   6   7
ENDBRANCH   5   6
ENDBRANCH   4   5
ENDBRANCH   3   4
ENDBRANCH   2   3
ENDBRANCH   1   2
BRANCH   1  10
ATOM     10  C   UNL     1      11.841  14.855  23.594  1.00  0.00     0.000 C 
BRANCH  10  11
ATOM     11  C   UNL     1      11.458  15.613  24.876  1.00  0.00    -0.000 C 
BRANCH  11  12
ATOM     12  C   UNL     1      12.674  16.229  25.586  1.00  0.00    -0.000 C 
BRANCH  12  13
ATOM     13  C   UNL     1      13.462  17.141  24.633  1.00  0.00    -0.000 C 
BRANCH  13  14
ATOM     14  C   UNL     1      13.273  18.635  24.966  1.00  0.00    -0.000 C 
BRANCH  14  15
ATOM     15  C   UNL     1      12.032  18.923  25.827  1.00  0.00    -0.003 C 
ATOM     16  C   UNL     1      10.869  19.503  25.027  1.00  0.00     0.004 C 
ENDBRANCH  14  15
ENDBRANCH  13  14
ENDBRANCH  12  13
ENDBRANCH  11  12
ENDBRANCH  10  11
ENDBRANCH   1  10
TORSDOF 12
ENDMDL
MODEL 6
REMARK VINA RESULT:    -4.338      1.784      3.075
REMARK INTER + INTRA:          -8.296
REMARK INTER:                  -7.040
REMARK INTRA:                  -1.256
REMARK UNBOUND:                -0.914
REMARK SMILES CCCCCCCCCCCCCC(=O)[O-]
REMARK SMILES IDX 8 1 9 2 10 3 11 4 12 5 13 6 14 7 15 8 16 9 7 10 6 11 5 12
REMARK SMILES IDX 4 13 3 14 2 15 1 16
REMARK H PARENT
REMARK Flexibility Score: inf
ROOT
ATOM      1  C   UNL     1      10.538  12.605  21.373  1.00  0.00     0.000 C 
ENDROOT
BRANCH   1   2
ATOM      2  C   UNL     1      10.973  13.055  22.779  1.00  0.00     0.000 C 
BRANCH   2   3
ATOM      3  C   UNL     1      10.735  14.555  23.050  1.00  0.00     0.000 C 
BRANCH   3   4
ATOM      4  C   UNL     1      11.263  14.984  24.431  1.00  0.00     0.000 C 
BRANCH   4   5
ATOM      5  C   UNL     1      11.543  16.492  24.517  1.00  0.00     0.006 C 
BRANCH   5   6
ATOM      6  C   UNL     1      12.942  16.804  25.066  1.00  0.00     0.053 C 
BRANCH   6   7
ATOM      7  C   UNL     1      13.780  17.461  24.016  1.00  0.00     0.041 C 
ATOM      8  O   UNL     1      13.779  17.021  22.836  1.00  0.00    -0.550 OA
ATOM      9  O   UNL     1      14.600  18.532  24.350  1.00  0.00    -0.550 OA
ENDBRANCH   6   7
ENDBRANCH   5   6
ENDBRANCH   4   5
ENDBRANCH   3   4
ENDBRANCH   2   3
ENDBRANCH   1   2
BRANCH   1  10
ATOM     10  C   UNL     1      10.131  11.124  21.319  1.00  0.00     0.000 C 
BRANCH  10  11
ATOM     11  C   UNL     1       9.916  10.521  22.718  1.00  0.00    -0.000 C 
BRANCH  11  12
ATOM     12  C   UNL     1       8.431  10.447  23.109  1.00  0.00    -0.000 C 
BRANCH  12  13
ATOM     13  C   UNL     1       7.533  10.518  21.864  1.00  0.00    -0.000 C 
BRANCH  13  14
ATOM     14  C   UNL     1       6.383  11.533  22.032  1.00  0.00    -0.000 C 
BRANCH  14  15
ATOM     15  C   UNL     1       6.646  12.590  23.117  1.00  0.00    -0.003 C 
ATOM     16  C   UNL     1       7.195  13.900  22.556  1.00  0.00     0.004 C 
ENDBRANCH  14  15
ENDBRANCH  13  14
ENDBRANCH  12  13
ENDBRANCH  11  12
ENDBRANCH  10  11
ENDBRANCH   1  10
TORSDOF 12
ENDMDL
MODEL 7
REMARK VINA RESULT:    -4.313      2.099      3.573
REMARK INTER + INTRA:          -8.252
REMARK INTER:                  -7.102
REMARK INTRA:                  -1.150
REMARK UNBOUND:                -0.914
REMARK SMILES CCCCCCCCCCCCCC(=O)[O-]
REMARK SMILES IDX 8 1 9 2 10 3 11 4 12 5 13 6 14 7 15 8 16 9 7 10 6 11 5 12
REMARK SMILES IDX 4 13 3 14 2 15 1 16
REMARK H PARENT
REMARK Flexibility Score: inf
ROOT
ATOM      1  C   UNL     1       8.410  14.313  22.270  1.00  0.00     0.000 C 
ENDROOT
BRANCH   1   2
ATOM      2  C   UNL     1       9.867  13.831  22.385  1.00  0.00     0.000 C 
BRANCH   2   3
ATOM      3  C   UNL     1      10.753  14.742  23.260  1.00  0.00     0.000 C 
BRANCH   3   4
ATOM      4  C   UNL     1      10.947  16.135  22.634  1.00  0.00     0.000 C 
BRANCH   4   5
ATOM      5  C   UNL     1      11.029  17.252  23.687  1.00  0.00     0.006 C 
BRANCH   5   6
ATOM      6  C   UNL     1      11.977  16.906  24.843  1.00  0.00     0.053 C 
BRANCH   6   7
ATOM      7  C   UNL     1      13.194  17.774  24.796  1.00  0.00     0.041 C 
ATOM      8  O   UNL     1      13.166  18.931  25.292  1.00  0.00    -0.550 OA
ATOM      9  O   UNL     1      14.345  17.325  24.162  1.00  0.00    -0.550 OA
ENDBRANCH   6   7
ENDBRANCH   5   6
ENDBRANCH   4   5
ENDBRANCH   3   4
ENDBRANCH   2   3
ENDBRANCH   1   2
BRANCH   1  10
ATOM     10  C   UNL     1       7.441  13.191  21.863  1.00  0.00     0.000 C 
BRANCH  10  11
ATOM     11  C   UNL     1       6.536  12.744  23.023  1.00  0.00    -0.000 C 
BRANCH  11  12
ATOM     12  C   UNL     1       6.316  11.223  23.050  1.00  0.00    -0.000 C 
BRANCH  12  13
ATOM     13  C   UNL     1       7.476  10.489  22.360  1.00  0.00    -0.000 C 
BRANCH  13  14
ATOM     14  C   UNL     1       8.549  10.019  23.364  1.00  0.00    -0.000 C 
BRANCH  14  15
ATOM     15  C   UNL     1       9.980  10.064  22.803  1.00  0.00    -0.003 C 
ATOM     16  C   UNL     1      10.024  10.269  21.291  1.00  0.00     0.004 C 
ENDBRANCH  14  15
ENDBRANCH  13  14
ENDBRANCH  12  13
ENDBRANCH  11  12
ENDBRANCH  10  11
ENDBRANCH   1  10
TORSDOF 12
ENDMDL
MODEL 8
REMARK VINA RESULT:    -4.273      2.651      4.628
REMARK INTER + INTRA:          -8.184
REMARK INTER:                  -6.437
REMARK INTRA:                  -1.747
REMARK UNBOUND:                -0.914
REMARK SMILES CCCCCCCCCCCCCC(=O)[O-]
REMARK SMILES IDX 8 1 9 2 10 3 11 4 12 5 13 6 14 7 15 8 16 9 7 10 6 11 5 12
REMARK SMILES IDX 4 13 3 14 2 15 1 16
REMARK H PARENT
REMARK Flexibility Score: inf
ROOT
ATOM      1  C   UNL     1      11.395  18.765  24.703  1.00  0.00     0.000 C 
ENDROOT
BRANCH   1   2
ATOM      2  C   UNL     1      11.749  20.046  23.928  1.00  0.00     0.000 C 
BRANCH   2   3
ATOM      3  C   UNL     1      12.333  19.780  22.525  1.00  0.00     0.000 C 
BRANCH   3   4
ATOM      4  C   UNL     1      11.804  18.469  21.917  1.00  0.00     0.000 C 
BRANCH   4   5
ATOM      5  C   UNL     1      12.777  17.853  20.900  1.00  0.00     0.006 C 
BRANCH   5   6
ATOM      6  C   UNL     1      14.236  17.899  21.375  1.00  0.00     0.053 C 
BRANCH   6   7
ATOM      7  C   UNL     1      15.094  18.579  20.355  1.00  0.00     0.041 C 
ATOM      8  O   UNL     1      15.950  19.430  20.714  1.00  0.00    -0.550 OA
ATOM      9  O   UNL     1      14.916  18.308  19.004  1.00  0.00    -0.550 OA
ENDBRANCH   6   7
ENDBRANCH   5   6
ENDBRANCH   4   5
ENDBRANCH   3   4
ENDBRANCH   2   3
ENDBRANCH   1   2
BRANCH   1  10
ATOM     10  C   UNL     1      12.532  18.289  25.621  1.00  0.00     0.000 C 
BRANCH  10  11
ATOM     11  C   UNL     1      12.651  16.757  25.668  1.00  0.00    -0.000 C 
BRANCH  11  12
ATOM     12  C   UNL     1      13.459  16.189  24.490  1.00  0.00    -0.000 C 
BRANCH  12  13
ATOM     13  C   UNL     1      12.782  14.936  23.914  1.00  0.00    -0.000 C 
BRANCH  13  14
ATOM     14  C   UNL     1      11.251  14.960  24.102  1.00  0.00    -0.000 C 
BRANCH  14  15
ATOM     15  C   UNL     1      10.474  15.228  22.802  1.00  0.00    -0.003 C 
ATOM     16  C   UNL     1       9.784  13.984  22.250  1.00  0.00     0.004 C 
ENDBRANCH  14  15
ENDBRANCH  13  14
ENDBRANCH  12  13
ENDBRANCH  11  12
ENDBRANCH  10  11
ENDBRANCH   1  10
TORSDOF 12
ENDMDL
MODEL 9
REMARK VINA RESULT:    -4.239      3.365      6.939
REMARK INTER + INTRA:          -8.127
REMARK INTER:                  -6.329
REMARK INTRA:                  -1.798
REMARK UNBOUND:                -0.914
REMARK SMILES CCCCCCCCCCCCCC(=O)[O-]
REMARK SMILES IDX 8 1 9 2 10 3 11 4 12 5 13 6 14 7 15 8 16 9 7 10 6 11 5 12
REMARK SMILES IDX 4 13 3 14 2 15 1 16
REMARK H PARENT
REMARK Flexibility Score: inf
ROOT
ATOM      1  C   UNL     1      14.338  18.495  22.678  1.00  0.00     0.000 C 
ENDROOT
BRANCH   1   2
ATOM      2  C   UNL     1      14.307  17.960  24.121  1.00  0.00     0.000 C 
BRANCH   2   3
ATOM      3  C   UNL     1      13.176  18.563  24.981  1.00  0.00     0.000 C 
BRANCH   3   4
ATOM      4  C   UNL     1      12.064  17.540  25.274  1.00  0.00     0.000 C 
BRANCH   4   5
ATOM      5  C   UNL     1      12.484  16.098  24.948  1.00  0.00     0.006 C 
BRANCH   5   6
ATOM      6  C   UNL     1      11.293  15.206  24.572  1.00  0.00     0.053 C 
BRANCH   6   7
ATOM      7  C   UNL     1      11.171  15.099  23.085  1.00  0.00     0.041 C 
ATOM      8  O   UNL     1      10.181  15.601  22.492  1.00  0.00    -0.550 OA
ATOM      9  O   UNL     1      12.127  14.400  22.358  1.00  0.00    -0.550 OA
ENDBRANCH   6   7
ENDBRANCH   5   6
ENDBRANCH   4   5
ENDBRANCH   3   4
ENDBRANCH   2   3
ENDBRANCH   1   2
BRANCH   1  10
ATOM     10  C   UNL     1      13.548  17.612  21.698  1.00  0.00     0.000 C 
BRANCH  10  11
ATOM     11  C   UNL     1      12.188  18.221  21.321  1.00  0.00    -0.000 C 
BRANCH  11  12
ATOM     12  C   UNL     1      12.107  19.725  21.626  1.00  0.00    -0.000 C 
BRANCH  12  13
ATOM     13  C   UNL     1      12.089  20.548  20.329  1.00  0.00    -0.000 C 
BRANCH  13  14
ATOM     14  C   UNL     1      13.458  21.194  20.029  1.00  0.00    -0.000 C 
BRANCH  14  15
ATOM     15  C   UNL     1      14.343  20.355  19.092  1.00  0.00    -0.003 C 
ATOM     16  C   UNL     1      15.752  20.133  19.638  1.00  0.00     0.004 C 
ENDBRANCH  14  15
ENDBRANCH  13  14
ENDBRANCH  12  13
ENDBRANCH  11  12
ENDBRANCH  10  11
ENDBRANCH   1  10
TORSDOF 12
ENDMDL
