MODEL 1
REMARK VINA RESULT:    -0.989      0.000      0.000
REMARK INTER + INTRA:          -2.839
REMARK INTER:                  -1.798
REMARK INTRA:                  -1.041
REMARK UNBOUND:                -1.041
REMARK SMILES CCCCCCCCCCCCCCCC(=O)[O-]
REMARK SMILES IDX 9 1 10 2 11 3 12 4 13 5 14 6 15 7 16 8 17 9 18 10 8 11 7 12
REMARK SMILES IDX 6 13 5 14 4 15 3 16 2 17 1 18
REMARK H PARENT
REMARK Flexibility Score: inf
ROOT
ATOM      1  C   UNL     1      35.940 105.028 264.567  1.00  0.00     0.000 C 
ENDROOT
BRANCH   1   2
ATOM      2  C   UNL     1      35.168 104.138 265.555  1.00  0.00     0.000 C 
BRANCH   2   3
ATOM      3  C   UNL     1      34.897 104.841 266.895  1.00  0.00     0.000 C 
BRANCH   3   4
ATOM      4  C   UNL     1      34.875 106.373 266.765  1.00  0.00     0.000 C 
BRANCH   4   5
ATOM      5  C   UNL     1      35.279 107.086 268.065  1.00  0.00     0.000 C 
BRANCH   5   6
ATOM      6  C   UNL     1      35.813 106.083 269.096  1.00  0.00     0.006 C 
BRANCH   6   7
ATOM      7  C   UNL     1      36.413 106.805 270.306  1.00  0.00     0.053 C 
BRANCH   7   8
ATOM      8  C   UNL     1      37.668 106.124 270.752  1.00  0.00     0.041 C 
ATOM      9  O   UNL     1      37.662 104.893 271.017  1.00  0.00    -0.550 OA
ATOM     10  O   UNL     1      38.834 106.860 270.925  1.00  0.00    -0.550 OA
ENDBRANCH   7   8
ENDBRANCH   6   7
ENDBRANCH   5   6
ENDBRANCH   4   5
ENDBRANCH   3   4
ENDBRANCH   2   3
ENDBRANCH   1   2
BRANCH   1  11
ATOM     11  C   UNL     1      35.239 105.151 263.202  1.00  0.00     0.000 C 
BRANCH  11  12
ATOM     12  C   UNL     1      36.006 106.081 262.239  1.00  0.00    -0.000 C 
BRANCH  12  13
ATOM     13  C   UNL     1      37.529 106.074 262.454  1.00  0.00    -0.000 C 
BRANCH  13  14
ATOM     14  C   UNL     1      38.317 106.118 261.135  1.00  0.00    -0.000 C 
BRANCH  14  15
ATOM     15  C   UNL     1      38.007 104.926 260.210  1.00  0.00    -0.000 C 
BRANCH  15  16
ATOM     16  C   UNL     1      37.706 105.293 258.744  1.00  0.00    -0.000 C 
BRANCH  16  17
ATOM     17  C   UNL     1      36.214 105.549 258.483  1.00  0.00    -0.003 C 
ATOM     18  C   UNL     1      35.954 107.021 258.172  1.00  0.00     0.004 C 
ENDBRANCH  16  17
ENDBRANCH  15  16
ENDBRANCH  14  15
ENDBRANCH  13  14
ENDBRANCH  12  13
ENDBRANCH  11  12
ENDBRANCH   1  11
TORSDOF 14
ENDMDL
MODEL 2
REMARK VINA RESULT:    -0.860      4.175      7.846
REMARK INTER + INTRA:          -2.605
REMARK INTER:                  -3.381
REMARK INTRA:                   0.775
REMARK UNBOUND:                -1.041
REMARK SMILES CCCCCCCCCCCCCCCC(=O)[O-]
REMARK SMILES IDX 9 1 10 2 11 3 12 4 13 5 14 6 15 7 16 8 17 9 18 10 8 11 7 12
REMARK SMILES IDX 6 13 5 14 4 15 3 16 2 17 1 18
REMARK H PARENT
REMARK Flexibility Score: inf
ROOT
ATOM      1  C   UNL     1      35.629 103.684 266.022  1.00  0.00     0.000 C 
ENDROOT
BRANCH   1   2
ATOM      2  C   UNL     1      34.945 104.373 264.830  1.00  0.00     0.000 C 
BRANCH   2   3
ATOM      3  C   UNL     1      34.876 105.901 264.991  1.00  0.00     0.000 C 
BRANCH   3   4
ATOM      4  C   UNL     1      35.051 106.645 263.657  1.00  0.00     0.000 C 
BRANCH   4   5
ATOM      5  C   UNL     1      36.458 106.476 263.062  1.00  0.00     0.000 C 
BRANCH   5   6
ATOM      6  C   UNL     1      36.407 105.683 261.751  1.00  0.00     0.006 C 
BRANCH   6   7
ATOM      7  C   UNL     1      37.421 106.226 260.740  1.00  0.00     0.053 C 
BRANCH   7   8
ATOM      8  C   UNL     1      37.747 105.186 259.715  1.00  0.00     0.041 C 
ATOM      9  O   UNL     1      37.509 105.400 258.497  1.00  0.00    -0.550 OA
ATOM     10  O   UNL     1      38.265 103.960 260.111  1.00  0.00    -0.550 OA
ENDBRANCH   7   8
ENDBRANCH   6   7
ENDBRANCH   5   6
ENDBRANCH   4   5
ENDBRANCH   3   4
ENDBRANCH   2   3
ENDBRANCH   1   2
BRANCH   1  11
ATOM     11  C   UNL     1      34.905 103.941 267.355  1.00  0.00     0.000 C 
BRANCH  11  12
ATOM     12  C   UNL     1      34.895 105.439 267.731  1.00  0.00    -0.000 C 
BRANCH  12  13
ATOM     13  C   UNL     1      35.489 105.731 269.119  1.00  0.00    -0.000 C 
BRANCH  13  14
ATOM     14  C   UNL     1      35.281 107.189 269.560  1.00  0.00    -0.000 C 
BRANCH  14  15
ATOM     15  C   UNL     1      34.875 108.117 268.400  1.00  0.00    -0.000 C 
BRANCH  15  16
ATOM     16  C   UNL     1      35.756 108.017 267.139  1.00  0.00    -0.000 C 
BRANCH  16  17
ATOM     17  C   UNL     1      35.521 109.167 266.150  1.00  0.00    -0.003 C 
ATOM     18  C   UNL     1      34.876 110.365 266.841  1.00  0.00     0.004 C 
ENDBRANCH  16  17
ENDBRANCH  15  16
ENDBRANCH  14  15
ENDBRANCH  13  14
ENDBRANCH  12  13
ENDBRANCH  11  12
ENDBRANCH   1  11
TORSDOF 14
ENDMDL
MODEL 3
REMARK VINA RESULT:    -0.242      2.427      3.209
REMARK INTER + INTRA:          -1.481
REMARK INTER:                  -1.103
REMARK INTRA:                  -0.378
REMARK UNBOUND:                -1.041
REMARK SMILES CCCCCCCCCCCCCCCC(=O)[O-]
REMARK SMILES IDX 9 1 10 2 11 3 12 4 13 5 14 6 15 7 16 8 17 9 18 10 8 11 7 12
REMARK SMILES IDX 6 13 5 14 4 15 3 16 2 17 1 18
REMARK H PARENT
REMARK Flexibility Score: inf
ROOT
ATOM      1  C   UNL     1      36.359 103.626 266.273  1.00  0.00     0.000 C 
ENDROOT
BRANCH   1   2
ATOM      2  C   UNL     1      35.193 103.649 267.274  1.00  0.00     0.000 C 
BRANCH   2   3
ATOM      3  C   UNL     1      34.875 105.067 267.778  1.00  0.00     0.000 C 
BRANCH   3   4
ATOM      4  C   UNL     1      34.904 105.169 269.312  1.00  0.00     0.000 C 
BRANCH   4   5
ATOM      5  C   UNL     1      35.230 106.588 269.806  1.00  0.00     0.000 C 
BRANCH   5   6
ATOM      6  C   UNL     1      35.986 107.381 268.734  1.00  0.00     0.006 C 
BRANCH   6   7
ATOM      7  C   UNL     1      35.225 108.655 268.353  1.00  0.00     0.053 C 
BRANCH   7   8
ATOM      8  C   UNL     1      35.067 108.747 266.868  1.00  0.00     0.041 C 
ATOM      9  O   UNL     1      34.875 109.864 266.319  1.00  0.00    -0.550 OA
ATOM     10  O   UNL     1      35.080 107.592 266.096  1.00  0.00    -0.550 OA
ENDBRANCH   7   8
ENDBRANCH   6   7
ENDBRANCH   5   6
ENDBRANCH   4   5
ENDBRANCH   3   4
ENDBRANCH   2   3
ENDBRANCH   1   2
BRANCH   1  11
ATOM     11  C   UNL     1      36.359 104.841 265.328  1.00  0.00     0.000 C 
BRANCH  11  12
ATOM     12  C   UNL     1      35.192 104.791 264.319  1.00  0.00    -0.000 C 
BRANCH  12  13
ATOM     13  C   UNL     1      35.432 105.635 263.056  1.00  0.00    -0.000 C 
BRANCH  13  14
ATOM     14  C   UNL     1      35.934 104.799 261.867  1.00  0.00    -0.000 C 
BRANCH  14  15
ATOM     15  C   UNL     1      36.673 105.640 260.810  1.00  0.00    -0.000 C 
BRANCH  15  16
ATOM     16  C   UNL     1      37.726 104.878 259.983  1.00  0.00    -0.000 C 
BRANCH  16  17
ATOM     17  C   UNL     1      37.743 105.292 258.504  1.00  0.00    -0.003 C 
ATOM     18  C   UNL     1      36.471 106.048 258.129  1.00  0.00     0.004 C 
ENDBRANCH  16  17
ENDBRANCH  15  16
ENDBRANCH  14  15
ENDBRANCH  13  14
ENDBRANCH  12  13
ENDBRANCH  11  12
ENDBRANCH   1  11
TORSDOF 14
ENDMDL
MODEL 4
REMARK VINA RESULT:    -0.138      4.249      8.713
REMARK INTER + INTRA:          -1.291
REMARK INTER:                  -1.922
REMARK INTRA:                   0.631
REMARK UNBOUND:                -1.041
REMARK SMILES CCCCCCCCCCCCCCCC(=O)[O-]
REMARK SMILES IDX 9 1 10 2 11 3 12 4 13 5 14 6 15 7 16 8 17 9 18 10 8 11 7 12
REMARK SMILES IDX 6 13 5 14 4 15 3 16 2 17 1 18
REMARK H PARENT
REMARK Flexibility Score: inf
ROOT
ATOM      1  C   UNL     1      35.728 104.617 266.017  1.00  0.00     0.000 C 
ENDROOT
BRANCH   1   2
ATOM      2  C   UNL     1      34.875 103.698 265.127  1.00  0.00     0.000 C 
BRANCH   2   3
ATOM      3  C   UNL     1      34.959 104.075 263.639  1.00  0.00     0.000 C 
BRANCH   3   4
ATOM      4  C   UNL     1      34.991 105.597 263.415  1.00  0.00     0.000 C 
BRANCH   4   5
ATOM      5  C   UNL     1      36.296 106.073 262.759  1.00  0.00     0.000 C 
BRANCH   5   6
ATOM      6  C   UNL     1      36.554 105.324 261.446  1.00  0.00     0.006 C 
BRANCH   6   7
ATOM      7  C   UNL     1      36.843 106.301 260.303  1.00  0.00     0.053 C 
BRANCH   7   8
ATOM      8  C   UNL     1      37.372 105.570 259.109  1.00  0.00     0.041 C 
ATOM      9  O   UNL     1      36.902 105.802 257.964  1.00  0.00    -0.550 OA
ATOM     10  O   UNL     1      38.347 104.594 259.269  1.00  0.00    -0.550 OA
ENDBRANCH   7   8
ENDBRANCH   6   7
ENDBRANCH   5   6
ENDBRANCH   4   5
ENDBRANCH   3   4
ENDBRANCH   2   3
ENDBRANCH   1   2
BRANCH   1  11
ATOM     11  C   UNL     1      34.878 105.543 266.906  1.00  0.00     0.000 C 
BRANCH  11  12
ATOM     12  C   UNL     1      35.004 107.024 266.489  1.00  0.00    -0.000 C 
BRANCH  12  13
ATOM     13  C   UNL     1      35.163 107.989 267.676  1.00  0.00    -0.000 C 
BRANCH  13  14
ATOM     14  C   UNL     1      34.875 107.320 269.029  1.00  0.00    -0.000 C 
BRANCH  14  15
ATOM     15  C   UNL     1      35.657 106.009 269.231  1.00  0.00    -0.000 C 
BRANCH  15  16
ATOM     16  C   UNL     1      36.557 105.966 270.481  1.00  0.00    -0.000 C 
BRANCH  16  17
ATOM     17  C   UNL     1      37.841 106.794 270.326  1.00  0.00    -0.003 C 
ATOM     18  C   UNL     1      38.879 106.400 271.373  1.00  0.00     0.004 C 
ENDBRANCH  16  17
ENDBRANCH  15  16
ENDBRANCH  14  15
ENDBRANCH  13  14
ENDBRANCH  12  13
ENDBRANCH  11  12
ENDBRANCH   1  11
TORSDOF 14
ENDMDL
MODEL 5
REMARK VINA RESULT:     0.149      4.268      8.949
REMARK INTER + INTRA:          -0.769
REMARK INTER:                  -0.323
REMARK INTRA:                  -0.446
REMARK UNBOUND:                -1.041
REMARK SMILES CCCCCCCCCCCCCCCC(=O)[O-]
REMARK SMILES IDX 9 1 10 2 11 3 12 4 13 5 14 6 15 7 16 8 17 9 18 10 8 11 7 12
REMARK SMILES IDX 6 13 5 14 4 15 3 16 2 17 1 18
REMARK H PARENT
REMARK Flexibility Score: inf
ROOT
ATOM      1  C   UNL     1      35.645 104.025 264.386  1.00  0.00     0.000 C 
ENDROOT
BRANCH   1   2
ATOM      2  C   UNL     1      35.227 104.651 263.046  1.00  0.00     0.000 C 
BRANCH   2   3
ATOM      3  C   UNL     1      35.732 106.094 262.885  1.00  0.00     0.000 C 
BRANCH   3   4
ATOM      4  C   UNL     1      37.233 106.162 262.554  1.00  0.00     0.000 C 
BRANCH   4   5
ATOM      5  C   UNL     1      37.500 106.418 261.063  1.00  0.00     0.000 C 
BRANCH   5   6
ATOM      6  C   UNL     1      38.682 105.575 260.566  1.00  0.00     0.006 C 
BRANCH   6   7
ATOM      7  C   UNL     1      38.390 104.979 259.186  1.00  0.00     0.053 C 
BRANCH   7   8
ATOM      8  C   UNL     1      36.977 105.260 258.782  1.00  0.00     0.041 C 
ATOM      9  O   UNL     1      36.041 104.527 259.198  1.00  0.00    -0.550 OA
ATOM     10  O   UNL     1      36.700 106.300 257.904  1.00  0.00    -0.550 OA
ENDBRANCH   7   8
ENDBRANCH   6   7
ENDBRANCH   5   6
ENDBRANCH   4   5
ENDBRANCH   3   4
ENDBRANCH   2   3
ENDBRANCH   1   2
BRANCH   1  11
ATOM     11  C   UNL     1      35.052 104.763 265.600  1.00  0.00     0.000 C 
BRANCH  11  12
ATOM     12  C   UNL     1      35.154 103.927 266.894  1.00  0.00    -0.000 C 
BRANCH  12  13
ATOM     13  C   UNL     1      34.889 104.737 268.174  1.00  0.00    -0.000 C 
BRANCH  13  14
ATOM     14  C   UNL     1      34.875 106.254 267.927  1.00  0.00    -0.000 C 
BRANCH  14  15
ATOM     15  C   UNL     1      35.953 107.004 268.732  1.00  0.00    -0.000 C 
BRANCH  15  16
ATOM     16  C   UNL     1      35.940 106.742 270.250  1.00  0.00    -0.000 C 
BRANCH  16  17
ATOM     17  C   UNL     1      37.121 105.881 270.722  1.00  0.00    -0.003 C 
ATOM     18  C   UNL     1      38.430 106.665 270.667  1.00  0.00     0.004 C 
ENDBRANCH  16  17
ENDBRANCH  15  16
ENDBRANCH  14  15
ENDBRANCH  13  14
ENDBRANCH  12  13
ENDBRANCH  11  12
ENDBRANCH   1  11
TORSDOF 14
ENDMDL
MODEL 6
REMARK VINA RESULT:     0.218      4.628      9.448
REMARK INTER + INTRA:          -0.644
REMARK INTER:                  -0.490
REMARK INTRA:                  -0.154
REMARK UNBOUND:                -1.041
REMARK SMILES CCCCCCCCCCCCCCCC(=O)[O-]
REMARK SMILES IDX 9 1 10 2 11 3 12 4 13 5 14 6 15 7 16 8 17 9 18 10 8 11 7 12
REMARK SMILES IDX 6 13 5 14 4 15 3 16 2 17 1 18
REMARK H PARENT
REMARK Flexibility Score: inf
ROOT
ATOM      1  C   UNL     1      36.229 106.819 264.599  1.00  0.00     0.000 C 
ENDROOT
BRANCH   1   2
ATOM      2  C   UNL     1      36.102 106.112 263.240  1.00  0.00     0.000 C 
BRANCH   2   3
ATOM      3  C   UNL     1      37.396 106.188 262.412  1.00  0.00     0.000 C 
BRANCH   3   4
ATOM      4  C   UNL     1      37.135 106.117 260.898  1.00  0.00     0.000 C 
BRANCH   4   5
ATOM      5  C   UNL     1      38.007 105.066 260.194  1.00  0.00     0.000 C 
BRANCH   5   6
ATOM      6  C   UNL     1      37.369 104.622 258.872  1.00  0.00     0.006 C 
BRANCH   6   7
ATOM      7  C   UNL     1      37.304 105.782 257.875  1.00  0.00     0.053 C 
BRANCH   7   8
ATOM      8  C   UNL     1      35.975 106.465 257.951  1.00  0.00     0.041 C 
ATOM      9  O   UNL     1      34.913 105.792 257.885  1.00  0.00    -0.550 OA
ATOM     10  O   UNL     1      35.910 107.849 258.042  1.00  0.00    -0.550 OA
ENDBRANCH   7   8
ENDBRANCH   6   7
ENDBRANCH   5   6
ENDBRANCH   4   5
ENDBRANCH   3   4
ENDBRANCH   2   3
ENDBRANCH   1   2
BRANCH   1  11
ATOM     11  C   UNL     1      34.875 107.305 265.147  1.00  0.00     0.000 C 
BRANCH  11  12
ATOM     12  C   UNL     1      35.014 108.610 265.960  1.00  0.00    -0.000 C 
BRANCH  12  13
ATOM     13  C   UNL     1      35.056 108.388 267.481  1.00  0.00    -0.000 C 
BRANCH  13  14
ATOM     14  C   UNL     1      36.012 107.257 267.892  1.00  0.00    -0.000 C 
BRANCH  14  15
ATOM     15  C   UNL     1      35.387 106.277 268.902  1.00  0.00    -0.000 C 
BRANCH  15  16
ATOM     16  C   UNL     1      35.964 106.348 270.329  1.00  0.00    -0.000 C 
BRANCH  16  17
ATOM     17  C   UNL     1      37.325 105.651 270.463  1.00  0.00    -0.003 C 
ATOM     18  C   UNL     1      38.304 106.504 271.265  1.00  0.00     0.004 C 
ENDBRANCH  16  17
ENDBRANCH  15  16
ENDBRANCH  14  15
ENDBRANCH  13  14
ENDBRANCH  12  13
ENDBRANCH  11  12
ENDBRANCH   1  11
TORSDOF 14
ENDMDL
MODEL 7
REMARK VINA RESULT:     0.373      1.400      2.027
REMARK INTER + INTRA:          -0.362
REMARK INTER:                  -1.416
REMARK INTRA:                   1.054
REMARK UNBOUND:                -1.041
REMARK SMILES CCCCCCCCCCCCCCCC(=O)[O-]
REMARK SMILES IDX 9 1 10 2 11 3 12 4 13 5 14 6 15 7 16 8 17 9 18 10 8 11 7 12
REMARK SMILES IDX 6 13 5 14 4 15 3 16 2 17 1 18
REMARK H PARENT
REMARK Flexibility Score: inf
ROOT
ATOM      1  C   UNL     1      35.664 105.883 265.267  1.00  0.00     0.000 C 
ENDROOT
BRANCH   1   2
ATOM      2  C   UNL     1      34.964 107.119 264.677  1.00  0.00     0.000 C 
BRANCH   2   3
ATOM      3  C   UNL     1      35.463 108.433 265.300  1.00  0.00     0.000 C 
BRANCH   3   4
ATOM      4  C   UNL     1      34.875 108.685 266.699  1.00  0.00     0.000 C 
BRANCH   4   5
ATOM      5  C   UNL     1      35.251 107.589 267.707  1.00  0.00     0.000 C 
BRANCH   5   6
ATOM      6  C   UNL     1      35.211 108.128 269.143  1.00  0.00     0.006 C 
BRANCH   6   7
ATOM      7  C   UNL     1      35.085 106.986 270.156  1.00  0.00     0.053 C 
BRANCH   7   8
ATOM      8  C   UNL     1      36.134 105.948 269.908  1.00  0.00     0.041 C 
ATOM      9  O   UNL     1      37.192 105.940 270.591  1.00  0.00    -0.550 OA
ATOM     10  O   UNL     1      35.966 105.022 268.886  1.00  0.00    -0.550 OA
ENDBRANCH   7   8
ENDBRANCH   6   7
ENDBRANCH   5   6
ENDBRANCH   4   5
ENDBRANCH   3   4
ENDBRANCH   2   3
ENDBRANCH   1   2
BRANCH   1  11
ATOM     11  C   UNL     1      35.209 104.569 264.608  1.00  0.00     0.000 C 
BRANCH  11  12
ATOM     12  C   UNL     1      35.356 104.609 263.071  1.00  0.00    -0.000 C 
BRANCH  12  13
ATOM     13  C   UNL     1      35.924 105.936 262.540  1.00  0.00    -0.000 C 
BRANCH  13  14
ATOM     14  C   UNL     1      37.401 105.828 262.127  1.00  0.00    -0.000 C 
BRANCH  14  15
ATOM     15  C   UNL     1      37.626 106.085 260.626  1.00  0.00    -0.000 C 
BRANCH  15  16
ATOM     16  C   UNL     1      37.617 104.829 259.735  1.00  0.00    -0.000 C 
BRANCH  16  17
ATOM     17  C   UNL     1      37.176 105.118 258.292  1.00  0.00    -0.003 C 
ATOM     18  C   UNL     1      36.150 106.247 258.246  1.00  0.00     0.004 C 
ENDBRANCH  16  17
ENDBRANCH  15  16
ENDBRANCH  14  15
ENDBRANCH  13  14
ENDBRANCH  12  13
ENDBRANCH  11  12
ENDBRANCH   1  11
TORSDOF 14
ENDMDL
