MODEL 1
REMARK VINA RESULT:    -6.177      0.000      0.000
REMARK INTER + INTRA:          -7.774
REMARK INTER:                  -7.441
REMARK INTRA:                  -0.334
REMARK UNBOUND:                -0.334
REMARK SMILES O=c1c(O)c(-c2ccc(O)c(O)c2)oc2cc(O)cc(O)c12
REMARK SMILES IDX 5 1 3 2 2 3 1 4 22 5 20 6 19 7 17 8 16 9 15 10 14 11 6 12
REMARK SMILES IDX 7 13 8 14 9 15 13 16 11 17 10 18 12 20 4 22 21 24 18 26
REMARK H PARENT 10 19 12 21 4 23 21 25 18 27
REMARK Flexibility Score: inf
ROOT
ATOM      1  C   UNL     1      32.295 -65.319  -6.529  1.00  0.00     0.180 A 
ATOM      2  C   UNL     1      31.250 -65.490  -5.605  1.00  0.00     0.208 A 
ATOM      3  C   UNL     1      30.748 -66.782  -5.375  1.00  0.00     0.238 A 
ATOM      4  O   UNL     1      29.776 -66.921  -4.588  1.00  0.00    -0.285 OA
ATOM      5  C   UNL     1      31.309 -67.888  -6.059  1.00  0.00     0.111 A 
ATOM      6  C   UNL     1      30.906 -69.244  -5.874  1.00  0.00     0.134 A 
ATOM      7  C   UNL     1      31.440 -70.241  -6.699  1.00  0.00     0.093 A 
ATOM      8  C   UNL     1      32.409 -69.941  -7.659  1.00  0.00     0.123 A 
ATOM      9  C   UNL     1      32.853 -68.628  -7.806  1.00  0.00     0.094 A 
ATOM     10  C   UNL     1      32.312 -67.605  -7.022  1.00  0.00     0.146 A 
ATOM     11  O   UNL     1      32.755 -66.367  -7.202  1.00  0.00    -0.452 OA
ENDROOT
BRANCH   1  12
ATOM     12  C   UNL     1      32.893 -63.993  -6.806  1.00  0.00     0.025 A 
ATOM     13  C   UNL     1      33.956 -63.494  -6.033  1.00  0.00     0.016 A 
ATOM     14  C   UNL     1      34.521 -62.250  -6.328  1.00  0.00     0.051 A 
ATOM     15  C   UNL     1      34.041 -61.494  -7.407  1.00  0.00     0.157 A 
ATOM     16  C   UNL     1      32.430 -63.240  -7.898  1.00  0.00     0.062 A 
ATOM     17  C   UNL     1      32.996 -61.992  -8.194  1.00  0.00     0.158 A 
BRANCH  15  18
ATOM     18  O   UNL     1      34.600 -60.253  -7.703  1.00  0.00    -0.504 OA
ATOM     19  H   UNL     1      34.455 -59.449  -7.102  1.00  0.00     0.293 HD
ENDBRANCH  15  18
BRANCH  17  20
ATOM     20  O   UNL     1      32.525 -61.242  -9.270  1.00  0.00    -0.504 OA
ATOM     21  H   UNL     1      32.777 -61.468 -10.225  1.00  0.00     0.293 HD
ENDBRANCH  17  20
ENDBRANCH   1  12
BRANCH   2  22
ATOM     22  O   UNL     1      30.696 -64.383  -4.957  1.00  0.00    -0.502 OA
ATOM     23  H   UNL     1      30.133 -63.694  -5.441  1.00  0.00     0.293 HD
ENDBRANCH   2  22
BRANCH   6  24
ATOM     24  O   UNL     1      30.014 -69.665  -4.884  1.00  0.00    -0.507 OA
ATOM     25  H   UNL     1      30.278 -69.928  -3.946  1.00  0.00     0.293 HD
ENDBRANCH   6  24
BRANCH   8  26
ATOM     26  O   UNL     1      32.947 -70.941  -8.465  1.00  0.00    -0.508 OA
ATOM     27  H   UNL     1      33.761 -70.774  -9.045  1.00  0.00     0.293 HD
ENDBRANCH   8  26
TORSDOF 6
ENDMDL
MODEL 2
REMARK VINA RESULT:    -5.887      9.362     12.823
REMARK INTER + INTRA:          -7.425
REMARK INTER:                  -7.222
REMARK INTRA:                  -0.203
REMARK UNBOUND:                -0.334
REMARK SMILES O=c1c(O)c(-c2ccc(O)c(O)c2)oc2cc(O)cc(O)c12
REMARK SMILES IDX 5 1 3 2 2 3 1 4 22 5 20 6 19 7 17 8 16 9 15 10 14 11 6 12
REMARK SMILES IDX 7 13 8 14 9 15 13 16 11 17 10 18 12 20 4 22 21 24 18 26
REMARK H PARENT 10 19 12 21 4 23 21 25 18 27
REMARK Flexibility Score: inf
ROOT
ATOM      1  C   UNL     1      30.885 -56.928 -12.833  1.00  0.00     0.180 A 
ATOM      2  C   UNL     1      31.775 -55.847 -12.960  1.00  0.00     0.208 A 
ATOM      3  C   UNL     1      31.412 -54.599 -12.428  1.00  0.00     0.238 A 
ATOM      4  O   UNL     1      32.189 -53.623 -12.593  1.00  0.00    -0.285 OA
ATOM      5  C   UNL     1      30.171 -54.451 -11.762  1.00  0.00     0.111 A 
ATOM      6  C   UNL     1      29.719 -53.244 -11.150  1.00  0.00     0.134 A 
ATOM      7  C   UNL     1      28.419 -53.177 -10.634  1.00  0.00     0.093 A 
ATOM      8  C   UNL     1      27.579 -54.292 -10.649  1.00  0.00     0.123 A 
ATOM      9  C   UNL     1      28.033 -55.493 -11.190  1.00  0.00     0.094 A 
ATOM     10  C   UNL     1      29.312 -55.581 -11.746  1.00  0.00     0.146 A 
ATOM     11  O   UNL     1      29.701 -56.741 -12.261  1.00  0.00    -0.452 OA
ENDROOT
BRANCH   1  12
ATOM     12  C   UNL     1      31.207 -58.279 -13.346  1.00  0.00     0.025 A 
ATOM     13  C   UNL     1      32.254 -59.040 -12.795  1.00  0.00     0.016 A 
ATOM     14  C   UNL     1      32.525 -60.322 -13.279  1.00  0.00     0.051 A 
ATOM     15  C   UNL     1      31.746 -60.868 -14.309  1.00  0.00     0.157 A 
ATOM     16  C   UNL     1      30.418 -58.839 -14.364  1.00  0.00     0.062 A 
ATOM     17  C   UNL     1      30.690 -60.126 -14.850  1.00  0.00     0.158 A 
BRANCH  15  18
ATOM     18  O   UNL     1      32.015 -62.146 -14.795  1.00  0.00    -0.504 OA
ATOM     19  H   UNL     1      32.640 -62.778 -14.309  1.00  0.00     0.293 HD
ENDBRANCH  15  18
BRANCH  17  20
ATOM     20  O   UNL     1      29.913 -60.673 -15.870  1.00  0.00    -0.504 OA
ATOM     21  H   UNL     1      29.276 -61.442 -15.697  1.00  0.00     0.293 HD
ENDBRANCH  17  20
ENDBRANCH   1  12
BRANCH   2  22
ATOM     22  O   UNL     1      32.985 -56.009 -13.640  1.00  0.00    -0.502 OA
ATOM     23  H   UNL     1      33.635 -56.756 -13.424  1.00  0.00     0.293 HD
ENDBRANCH   2  22
BRANCH   6  24
ATOM     24  O   UNL     1      30.510 -52.101 -11.000  1.00  0.00    -0.507 OA
ATOM     25  H   UNL     1      30.213 -51.164 -11.226  1.00  0.00     0.293 HD
ENDBRANCH   6  24
BRANCH   8  26
ATOM     26  O   UNL     1      26.293 -54.221 -10.118  1.00  0.00    -0.508 OA
ATOM     27  H   UNL     1      26.054 -53.552  -9.395  1.00  0.00     0.293 HD
ENDBRANCH   8  26
TORSDOF 6
ENDMDL
MODEL 3
REMARK VINA RESULT:    -5.873     10.591     13.496
REMARK INTER + INTRA:          -7.408
REMARK INTER:                  -7.498
REMARK INTRA:                   0.090
REMARK UNBOUND:                -0.334
REMARK SMILES O=c1c(O)c(-c2ccc(O)c(O)c2)oc2cc(O)cc(O)c12
REMARK SMILES IDX 5 1 3 2 2 3 1 4 22 5 20 6 19 7 17 8 16 9 15 10 14 11 6 12
REMARK SMILES IDX 7 13 8 14 9 15 13 16 11 17 10 18 12 20 4 22 21 24 18 26
REMARK H PARENT 10 19 12 21 4 23 21 25 18 27
REMARK Flexibility Score: inf
ROOT
ATOM      1  C   UNL     1      29.455 -56.061 -12.419  1.00  0.00     0.180 A 
ATOM      2  C   UNL     1      28.300 -55.903 -11.634  1.00  0.00     0.208 A 
ATOM      3  C   UNL     1      28.124 -54.711 -10.912  1.00  0.00     0.238 A 
ATOM      4  O   UNL     1      27.115 -54.598 -10.169  1.00  0.00    -0.285 OA
ATOM      5  C   UNL     1      29.098 -53.686 -10.996  1.00  0.00     0.111 A 
ATOM      6  C   UNL     1      29.003 -52.423 -10.339  1.00  0.00     0.134 A 
ATOM      7  C   UNL     1      30.087 -51.537 -10.388  1.00  0.00     0.093 A 
ATOM      8  C   UNL     1      31.234 -51.841 -11.124  1.00  0.00     0.123 A 
ATOM      9  C   UNL     1      31.312 -53.047 -11.817  1.00  0.00     0.094 A 
ATOM     10  C   UNL     1      30.262 -53.967 -11.758  1.00  0.00     0.146 A 
ATOM     11  O   UNL     1      30.381 -55.109 -12.425  1.00  0.00    -0.452 OA
ENDROOT
BRANCH   1  12
ATOM     12  C   UNL     1      29.699 -57.278 -13.227  1.00  0.00     0.025 A 
ATOM     13  C   UNL     1      30.938 -57.941 -13.194  1.00  0.00     0.016 A 
ATOM     14  C   UNL     1      31.138 -59.102 -13.947  1.00  0.00     0.051 A 
ATOM     15  C   UNL     1      30.099 -59.623 -14.731  1.00  0.00     0.157 A 
ATOM     16  C   UNL     1      28.655 -57.816 -13.998  1.00  0.00     0.062 A 
ATOM     17  C   UNL     1      28.856 -58.980 -14.754  1.00  0.00     0.158 A 
BRANCH  15  18
ATOM     18  O   UNL     1      30.295 -60.778 -15.484  1.00  0.00    -0.504 OA
ATOM     19  H   UNL     1      30.660 -60.740 -16.429  1.00  0.00     0.293 HD
ENDBRANCH  15  18
BRANCH  17  20
ATOM     20  O   UNL     1      27.822 -59.504 -15.529  1.00  0.00    -0.504 OA
ATOM     21  H   UNL     1      27.886 -60.424 -15.947  1.00  0.00     0.293 HD
ENDBRANCH  17  20
ENDBRANCH   1  12
BRANCH   2  22
ATOM     22  O   UNL     1      27.362 -56.935 -11.548  1.00  0.00    -0.502 OA
ATOM     23  H   UNL     1      27.322 -57.570 -10.759  1.00  0.00     0.293 HD
ENDBRANCH   2  22
BRANCH   6  24
ATOM     24  O   UNL     1      27.867 -51.983  -9.655  1.00  0.00    -0.507 OA
ATOM     25  H   UNL     1      27.079 -52.565  -9.415  1.00  0.00     0.293 HD
ENDBRANCH   6  24
BRANCH   8  26
ATOM     26  O   UNL     1      32.301 -50.947 -11.180  1.00  0.00    -0.508 OA
ATOM     27  H   UNL     1      33.195 -51.214 -11.575  1.00  0.00     0.293 HD
ENDBRANCH   8  26
TORSDOF 6
ENDMDL
MODEL 4
REMARK VINA RESULT:    -5.687      1.958      2.248
REMARK INTER + INTRA:          -7.185
REMARK INTER:                  -6.852
REMARK INTRA:                  -0.332
REMARK UNBOUND:                -0.334
REMARK SMILES O=c1c(O)c(-c2ccc(O)c(O)c2)oc2cc(O)cc(O)c12
REMARK SMILES IDX 5 1 3 2 2 3 1 4 22 5 20 6 19 7 17 8 16 9 15 10 14 11 6 12
REMARK SMILES IDX 7 13 8 14 9 15 13 16 11 17 10 18 12 20 4 22 21 24 18 26
REMARK H PARENT 10 19 12 21 4 23 21 25 18 27
REMARK Flexibility Score: inf
ROOT
ATOM      1  C   UNL     1      32.777 -65.835  -6.210  1.00  0.00     0.180 A 
ATOM      2  C   UNL     1      33.332 -65.984  -4.928  1.00  0.00     0.208 A 
ATOM      3  C   UNL     1      33.167 -67.204  -4.251  1.00  0.00     0.238 A 
ATOM      4  O   UNL     1      33.620 -67.313  -3.082  1.00  0.00    -0.285 OA
ATOM      5  C   UNL     1      32.462 -68.264  -4.872  1.00  0.00     0.111 A 
ATOM      6  C   UNL     1      32.269 -69.555  -4.296  1.00  0.00     0.134 A 
ATOM      7  C   UNL     1      31.444 -70.483  -4.944  1.00  0.00     0.093 A 
ATOM      8  C   UNL     1      30.859 -70.190  -6.177  1.00  0.00     0.123 A 
ATOM      9  C   UNL     1      31.091 -68.954  -6.776  1.00  0.00     0.094 A 
ATOM     10  C   UNL     1      31.879 -67.993  -6.137  1.00  0.00     0.146 A 
ATOM     11  O   UNL     1      32.065 -66.824  -6.738  1.00  0.00    -0.452 OA
ENDROOT
BRANCH   1  12
ATOM     12  C   UNL     1      32.930 -64.588  -6.995  1.00  0.00     0.025 A 
ATOM     13  C   UNL     1      34.050 -64.375  -7.817  1.00  0.00     0.016 A 
ATOM     14  C   UNL     1      34.163 -63.202  -8.568  1.00  0.00     0.051 A 
ATOM     15  C   UNL     1      33.151 -62.232  -8.519  1.00  0.00     0.157 A 
ATOM     16  C   UNL     1      31.910 -63.622  -6.966  1.00  0.00     0.062 A 
ATOM     17  C   UNL     1      32.023 -62.445  -7.719  1.00  0.00     0.158 A 
BRANCH  15  18
ATOM     18  O   UNL     1      33.260 -61.061  -9.264  1.00  0.00    -0.504 OA
ATOM     19  H   UNL     1      33.847 -60.291  -8.961  1.00  0.00     0.293 HD
ENDBRANCH  15  18
BRANCH  17  20
ATOM     20  O   UNL     1      31.015 -61.483  -7.677  1.00  0.00    -0.504 OA
ATOM     21  H   UNL     1      30.488 -61.303  -6.831  1.00  0.00     0.293 HD
ENDBRANCH  17  20
ENDBRANCH   1  12
BRANCH   2  22
ATOM     22  O   UNL     1      34.005 -64.918  -4.324  1.00  0.00    -0.502 OA
ATOM     23  H   UNL     1      34.939 -64.638  -4.600  1.00  0.00     0.293 HD
ENDBRANCH   2  22
BRANCH   6  24
ATOM     24  O   UNL     1      32.881 -69.982  -3.114  1.00  0.00    -0.507 OA
ATOM     25  H   UNL     1      33.742 -69.607  -2.745  1.00  0.00     0.293 HD
ENDBRANCH   6  24
BRANCH   8  26
ATOM     26  O   UNL     1      30.053 -71.125  -6.822  1.00  0.00    -0.508 OA
ATOM     27  H   UNL     1      30.417 -72.025  -7.117  1.00  0.00     0.293 HD
ENDBRANCH   8  26
TORSDOF 6
ENDMDL
MODEL 5
REMARK VINA RESULT:    -5.614      8.827     11.054
REMARK INTER + INTRA:          -7.096
REMARK INTER:                  -6.803
REMARK INTRA:                  -0.293
REMARK UNBOUND:                -0.334
REMARK SMILES O=c1c(O)c(-c2ccc(O)c(O)c2)oc2cc(O)cc(O)c12
REMARK SMILES IDX 5 1 3 2 2 3 1 4 22 5 20 6 19 7 17 8 16 9 15 10 14 11 6 12
REMARK SMILES IDX 7 13 8 14 9 15 13 16 11 17 10 18 12 20 4 22 21 24 18 26
REMARK H PARENT 10 19 12 21 4 23 21 25 18 27
REMARK Flexibility Score: inf
ROOT
ATOM      1  C   UNL     1      30.407 -57.877 -13.795  1.00  0.00     0.180 A 
ATOM      2  C   UNL     1      29.947 -57.896 -15.123  1.00  0.00     0.208 A 
ATOM      3  C   UNL     1      30.256 -58.999 -15.936  1.00  0.00     0.238 A 
ATOM      4  O   UNL     1      29.888 -58.984 -17.139  1.00  0.00    -0.285 OA
ATOM      5  C   UNL     1      31.007 -60.076 -15.406  1.00  0.00     0.111 A 
ATOM      6  C   UNL     1      31.343 -61.260 -16.127  1.00  0.00     0.134 A 
ATOM      7  C   UNL     1      32.200 -62.203 -15.545  1.00  0.00     0.093 A 
ATOM      8  C   UNL     1      32.681 -62.034 -14.245  1.00  0.00     0.123 A 
ATOM      9  C   UNL     1      32.309 -60.910 -13.511  1.00  0.00     0.094 A 
ATOM     10  C   UNL     1      31.485 -59.934 -14.077  1.00  0.00     0.146 A 
ATOM     11  O   UNL     1      31.164 -58.872 -13.347  1.00  0.00    -0.452 OA
ENDROOT
BRANCH   1  12
ATOM     12  C   UNL     1      30.101 -56.762 -12.870  1.00  0.00     0.025 A 
ATOM     13  C   UNL     1      31.028 -55.731 -12.636  1.00  0.00     0.016 A 
ATOM     14  C   UNL     1      30.709 -54.675 -11.778  1.00  0.00     0.051 A 
ATOM     15  C   UNL     1      29.455 -54.628 -11.153  1.00  0.00     0.157 A 
ATOM     16  C   UNL     1      28.839 -56.698 -12.257  1.00  0.00     0.062 A 
ATOM     17  C   UNL     1      28.519 -55.639 -11.395  1.00  0.00     0.158 A 
BRANCH  15  18
ATOM     18  O   UNL     1      29.134 -53.578 -10.295  1.00  0.00    -0.504 OA
ATOM     19  H   UNL     1      29.696 -52.735 -10.255  1.00  0.00     0.293 HD
ENDBRANCH  15  18
BRANCH  17  20
ATOM     20  O   UNL     1      27.270 -55.586 -10.777  1.00  0.00    -0.504 OA
ATOM     21  H   UNL     1      27.164 -55.738  -9.782  1.00  0.00     0.293 HD
ENDBRANCH  17  20
ENDBRANCH   1  12
BRANCH   2  22
ATOM     22  O   UNL     1      29.226 -56.812 -15.632  1.00  0.00    -0.502 OA
ATOM     23  H   UNL     1      29.675 -56.026 -16.088  1.00  0.00     0.293 HD
ENDBRANCH   2  22
BRANCH   6  24
ATOM     24  O   UNL     1      30.844 -61.570 -17.395  1.00  0.00    -0.507 OA
ATOM     25  H   UNL     1      30.057 -62.177 -17.571  1.00  0.00     0.293 HD
ENDBRANCH   6  24
BRANCH   8  26
ATOM     26  O   UNL     1      33.520 -62.984 -13.668  1.00  0.00    -0.508 OA
ATOM     27  H   UNL     1      34.471 -62.758 -13.400  1.00  0.00     0.293 HD
ENDBRANCH   8  26
TORSDOF 6
ENDMDL
MODEL 6
REMARK VINA RESULT:    -5.590     13.850     15.638
REMARK INTER + INTRA:          -7.067
REMARK INTER:                  -6.773
REMARK INTRA:                  -0.295
REMARK UNBOUND:                -0.334
REMARK SMILES O=c1c(O)c(-c2ccc(O)c(O)c2)oc2cc(O)cc(O)c12
REMARK SMILES IDX 5 1 3 2 2 3 1 4 22 5 20 6 19 7 17 8 16 9 15 10 14 11 6 12
REMARK SMILES IDX 7 13 8 14 9 15 13 16 11 17 10 18 12 20 4 22 21 24 18 26
REMARK H PARENT 10 19 12 21 4 23 21 25 18 27
REMARK Flexibility Score: inf
ROOT
ATOM      1  C   UNL     1      30.520 -51.947 -11.075  1.00  0.00     0.180 A 
ATOM      2  C   UNL     1      31.339 -51.681  -9.965  1.00  0.00     0.208 A 
ATOM      3  C   UNL     1      32.726 -51.560 -10.155  1.00  0.00     0.238 A 
ATOM      4  O   UNL     1      33.459 -51.376  -9.148  1.00  0.00    -0.285 OA
ATOM      5  C   UNL     1      33.273 -51.691 -11.454  1.00  0.00     0.111 A 
ATOM      6  C   UNL     1      34.658 -51.548 -11.768  1.00  0.00     0.134 A 
ATOM      7  C   UNL     1      35.104 -51.827 -13.066  1.00  0.00     0.093 A 
ATOM      8  C   UNL     1      34.206 -52.181 -14.076  1.00  0.00     0.123 A 
ATOM      9  C   UNL     1      32.845 -52.265 -13.793  1.00  0.00     0.094 A 
ATOM     10  C   UNL     1      32.374 -52.028 -12.499  1.00  0.00     0.146 A 
ATOM     11  O   UNL     1      31.070 -52.129 -12.270  1.00  0.00    -0.452 OA
ENDROOT
BRANCH   1  12
ATOM     12  C   UNL     1      29.048 -52.063 -10.959  1.00  0.00     0.025 A 
ATOM     13  C   UNL     1      28.199 -51.005 -11.330  1.00  0.00     0.016 A 
ATOM     14  C   UNL     1      26.812 -51.145 -11.234  1.00  0.00     0.051 A 
ATOM     15  C   UNL     1      26.254 -52.349 -10.781  1.00  0.00     0.157 A 
ATOM     16  C   UNL     1      28.482 -53.273 -10.525  1.00  0.00     0.062 A 
ATOM     17  C   UNL     1      27.090 -53.414 -10.428  1.00  0.00     0.158 A 
BRANCH  15  18
ATOM     18  O   UNL     1      24.871 -52.492 -10.683  1.00  0.00    -0.504 OA
ATOM     19  H   UNL     1      24.307 -51.841 -10.148  1.00  0.00     0.293 HD
ENDBRANCH  15  18
BRANCH  17  20
ATOM     20  O   UNL     1      26.532 -54.612  -9.984  1.00  0.00    -0.504 OA
ATOM     21  H   UNL     1      26.926 -55.124  -9.204  1.00  0.00     0.293 HD
ENDBRANCH  17  20
ENDBRANCH   1  12
BRANCH   2  22
ATOM     22  O   UNL     1      30.781 -51.577  -8.688  1.00  0.00    -0.502 OA
ATOM     23  H   UNL     1      30.411 -50.707  -8.325  1.00  0.00     0.293 HD
ENDBRANCH   2  22
BRANCH   6  24
ATOM     24  O   UNL     1      35.623 -51.111 -10.857  1.00  0.00    -0.507 OA
ATOM     25  H   UNL     1      36.441 -51.638 -10.589  1.00  0.00     0.293 HD
ENDBRANCH   6  24
BRANCH   8  26
ATOM     26  O   UNL     1      34.656 -52.442 -15.367  1.00  0.00    -0.508 OA
ATOM     27  H   UNL     1      35.336 -53.170 -15.555  1.00  0.00     0.293 HD
ENDBRANCH   8  26
TORSDOF 6
ENDMDL
MODEL 7
REMARK VINA RESULT:    -5.494      2.274      3.519
REMARK INTER + INTRA:          -6.951
REMARK INTER:                  -6.617
REMARK INTRA:                  -0.335
REMARK UNBOUND:                -0.334
REMARK SMILES O=c1c(O)c(-c2ccc(O)c(O)c2)oc2cc(O)cc(O)c12
REMARK SMILES IDX 5 1 3 2 2 3 1 4 22 5 20 6 19 7 17 8 16 9 15 10 14 11 6 12
REMARK SMILES IDX 7 13 8 14 9 15 13 16 11 17 10 18 12 20 4 22 21 24 18 26
REMARK H PARENT 10 19 12 21 4 23 21 25 18 27
REMARK Flexibility Score: inf
ROOT
ATOM      1  C   UNL     1      34.711 -64.754  -6.727  1.00  0.00     0.180 A 
ATOM      2  C   UNL     1      35.754 -65.593  -6.298  1.00  0.00     0.208 A 
ATOM      3  C   UNL     1      35.543 -66.982  -6.269  1.00  0.00     0.238 A 
ATOM      4  O   UNL     1      36.462 -67.723  -5.831  1.00  0.00    -0.285 OA
ATOM      5  C   UNL     1      34.299 -67.514  -6.685  1.00  0.00     0.111 A 
ATOM      6  C   UNL     1      33.990 -68.906  -6.734  1.00  0.00     0.134 A 
ATOM      7  C   UNL     1      32.684 -69.313  -7.037  1.00  0.00     0.093 A 
ATOM      8  C   UNL     1      31.694 -68.381  -7.356  1.00  0.00     0.123 A 
ATOM      9  C   UNL     1      32.002 -67.022  -7.368  1.00  0.00     0.094 A 
ATOM     10  C   UNL     1      33.287 -66.583  -7.035  1.00  0.00     0.146 A 
ATOM     11  O   UNL     1      33.535 -65.279  -7.049  1.00  0.00    -0.452 OA
ENDROOT
BRANCH   1  12
ATOM     12  C   UNL     1      34.866 -63.284  -6.809  1.00  0.00     0.025 A 
ATOM     13  C   UNL     1      35.365 -62.664  -7.968  1.00  0.00     0.016 A 
ATOM     14  C   UNL     1      35.480 -61.273  -8.032  1.00  0.00     0.051 A 
ATOM     15  C   UNL     1      35.084 -60.481  -6.945  1.00  0.00     0.157 A 
ATOM     16  C   UNL     1      34.452 -62.484  -5.731  1.00  0.00     0.062 A 
ATOM     17  C   UNL     1      34.567 -61.087  -5.794  1.00  0.00     0.158 A 
BRANCH  15  18
ATOM     18  O   UNL     1      35.199 -59.094  -7.004  1.00  0.00    -0.504 OA
ATOM     19  H   UNL     1      35.602 -58.628  -7.809  1.00  0.00     0.293 HD
ENDBRANCH  15  18
BRANCH  17  20
ATOM     20  O   UNL     1      34.168 -60.298  -4.717  1.00  0.00    -0.504 OA
ATOM     21  H   UNL     1      34.430 -60.526  -3.766  1.00  0.00     0.293 HD
ENDBRANCH  17  20
ENDBRANCH   1  12
BRANCH   2  22
ATOM     22  O   UNL     1      36.967 -65.045  -5.871  1.00  0.00    -0.502 OA
ATOM     23  H   UNL     1      37.158 -64.051  -5.907  1.00  0.00     0.293 HD
ENDBRANCH   2  22
BRANCH   6  24
ATOM     24  O   UNL     1      34.927 -69.922  -6.523  1.00  0.00    -0.507 OA
ATOM     25  H   UNL     1      35.867 -69.921  -6.888  1.00  0.00     0.293 HD
ENDBRANCH   6  24
BRANCH   8  26
ATOM     26  O   UNL     1      30.403 -68.795  -7.672  1.00  0.00    -0.508 OA
ATOM     27  H   UNL     1      29.760 -69.116  -6.957  1.00  0.00     0.293 HD
ENDBRANCH   8  26
TORSDOF 6
ENDMDL
MODEL 8
REMARK VINA RESULT:    -5.437      1.853      6.567
REMARK INTER + INTRA:          -6.883
REMARK INTER:                  -6.569
REMARK INTRA:                  -0.314
REMARK UNBOUND:                -0.334
REMARK SMILES O=c1c(O)c(-c2ccc(O)c(O)c2)oc2cc(O)cc(O)c12
REMARK SMILES IDX 5 1 3 2 2 3 1 4 22 5 20 6 19 7 17 8 16 9 15 10 14 11 6 12
REMARK SMILES IDX 7 13 8 14 9 15 13 16 11 17 10 18 12 20 4 22 21 24 18 26
REMARK H PARENT 10 19 12 21 4 23 21 25 18 27
REMARK Flexibility Score: inf
ROOT
ATOM      1  C   UNL     1      32.393 -65.950  -6.181  1.00  0.00     0.180 A 
ATOM      2  C   UNL     1      31.405 -64.951  -6.185  1.00  0.00     0.208 A 
ATOM      3  C   UNL     1      31.637 -63.766  -6.905  1.00  0.00     0.238 A 
ATOM      4  O   UNL     1      30.772 -62.853  -6.860  1.00  0.00    -0.285 OA
ATOM      5  C   UNL     1      32.846 -63.604  -7.624  1.00  0.00     0.111 A 
ATOM      6  C   UNL     1      33.169 -62.464  -8.419  1.00  0.00     0.134 A 
ATOM      7  C   UNL     1      34.447 -62.354  -8.980  1.00  0.00     0.093 A 
ATOM      8  C   UNL     1      35.391 -63.372  -8.829  1.00  0.00     0.123 A 
ATOM      9  C   UNL     1      35.064 -64.517  -8.104  1.00  0.00     0.094 A 
ATOM     10  C   UNL     1      33.809 -64.639  -7.502  1.00  0.00     0.146 A 
ATOM     11  O   UNL     1      33.543 -65.742  -6.811  1.00  0.00    -0.452 OA
ENDROOT
BRANCH   1  12
ATOM     12  C   UNL     1      32.211 -67.235  -5.467  1.00  0.00     0.025 A 
ATOM     13  C   UNL     1      32.685 -67.416  -4.156  1.00  0.00     0.016 A 
ATOM     14  C   UNL     1      32.482 -68.628  -3.492  1.00  0.00     0.051 A 
ATOM     15  C   UNL     1      31.789 -69.671  -4.122  1.00  0.00     0.157 A 
ATOM     16  C   UNL     1      31.499 -68.276  -6.086  1.00  0.00     0.062 A 
ATOM     17  C   UNL     1      31.295 -69.493  -5.420  1.00  0.00     0.158 A 
BRANCH  15  18
ATOM     18  O   UNL     1      31.585 -70.882  -3.465  1.00  0.00    -0.504 OA
ATOM     19  H   UNL     1      30.653 -71.249  -3.304  1.00  0.00     0.293 HD
ENDBRANCH  15  18
BRANCH  17  20
ATOM     20  O   UNL     1      30.601 -70.529  -6.043  1.00  0.00    -0.504 OA
ATOM     21  H   UNL     1      30.403 -71.399  -5.563  1.00  0.00     0.293 HD
ENDBRANCH  17  20
ENDBRANCH   1  12
BRANCH   2  22
ATOM     22  O   UNL     1      30.228 -65.121  -5.451  1.00  0.00    -0.502 OA
ATOM     23  H   UNL     1      29.325 -64.814  -5.792  1.00  0.00     0.293 HD
ENDBRANCH   2  22
BRANCH   6  24
ATOM     24  O   UNL     1      32.269 -61.435  -8.709  1.00  0.00    -0.507 OA
ATOM     25  H   UNL     1      31.387 -61.559  -9.181  1.00  0.00     0.293 HD
ENDBRANCH   6  24
BRANCH   8  26
ATOM     26  O   UNL     1      36.655 -63.262  -9.404  1.00  0.00    -0.508 OA
ATOM     27  H   UNL     1      37.206 -64.081  -9.634  1.00  0.00     0.293 HD
ENDBRANCH   8  26
TORSDOF 6
ENDMDL
MODEL 9
REMARK VINA RESULT:    -5.334      2.446      3.215
REMARK INTER + INTRA:          -6.760
REMARK INTER:                  -6.472
REMARK INTRA:                  -0.287
REMARK UNBOUND:                -0.334
REMARK SMILES O=c1c(O)c(-c2ccc(O)c(O)c2)oc2cc(O)cc(O)c12
REMARK SMILES IDX 5 1 3 2 2 3 1 4 22 5 20 6 19 7 17 8 16 9 15 10 14 11 6 12
REMARK SMILES IDX 7 13 8 14 9 15 13 16 11 17 10 18 12 20 4 22 21 24 18 26
REMARK H PARENT 10 19 12 21 4 23 21 25 18 27
REMARK Flexibility Score: inf
ROOT
ATOM      1  C   UNL     1      32.552 -66.461  -6.199  1.00  0.00     0.180 A 
ATOM      2  C   UNL     1      31.781 -67.484  -6.777  1.00  0.00     0.208 A 
ATOM      3  C   UNL     1      31.639 -68.701  -6.091  1.00  0.00     0.238 A 
ATOM      4  O   UNL     1      30.992 -69.632  -6.639  1.00  0.00    -0.285 OA
ATOM      5  C   UNL     1      32.256 -68.875  -4.828  1.00  0.00     0.111 A 
ATOM      6  C   UNL     1      32.146 -70.050  -4.027  1.00  0.00     0.134 A 
ATOM      7  C   UNL     1      32.905 -70.161  -2.856  1.00  0.00     0.093 A 
ATOM      8  C   UNL     1      33.720 -69.113  -2.423  1.00  0.00     0.123 A 
ATOM      9  C   UNL     1      33.788 -67.937  -3.167  1.00  0.00     0.094 A 
ATOM     10  C   UNL     1      33.070 -67.811  -4.360  1.00  0.00     0.146 A 
ATOM     11  O   UNL     1      33.172 -66.678  -5.044  1.00  0.00    -0.452 OA
ENDROOT
BRANCH   1  12
ATOM     12  C   UNL     1      32.728 -65.142  -6.849  1.00  0.00     0.025 A 
ATOM     13  C   UNL     1      33.892 -64.835  -7.576  1.00  0.00     0.016 A 
ATOM     14  C   UNL     1      34.026 -63.593  -8.202  1.00  0.00     0.051 A 
ATOM     15  C   UNL     1      32.995 -62.647  -8.123  1.00  0.00     0.157 A 
ATOM     16  C   UNL     1      31.689 -64.198  -6.791  1.00  0.00     0.062 A 
ATOM     17  C   UNL     1      31.824 -62.952  -7.419  1.00  0.00     0.158 A 
BRANCH  15  18
ATOM     18  O   UNL     1      33.125 -61.407  -8.744  1.00  0.00    -0.504 OA
ATOM     19  H   UNL     1      32.631 -60.589  -8.405  1.00  0.00     0.293 HD
ENDBRANCH  15  18
BRANCH  17  20
ATOM     20  O   UNL     1      30.797 -62.012  -7.348  1.00  0.00    -0.504 OA
ATOM     21  H   UNL     1      30.025 -62.118  -6.700  1.00  0.00     0.293 HD
ENDBRANCH  17  20
ENDBRANCH   1  12
BRANCH   2  22
ATOM     22  O   UNL     1      31.198 -67.300  -8.034  1.00  0.00    -0.502 OA
ATOM     23  H   UNL     1      30.352 -67.779  -8.317  1.00  0.00     0.293 HD
ENDBRANCH   2  22
BRANCH   6  24
ATOM     24  O   UNL     1      31.291 -71.117  -4.321  1.00  0.00    -0.507 OA
ATOM     25  H   UNL     1      30.927 -71.327  -5.238  1.00  0.00     0.293 HD
ENDBRANCH   6  24
BRANCH   8  26
ATOM     26  O   UNL     1      34.459 -69.225  -1.248  1.00  0.00    -0.508 OA
ATOM     27  H   UNL     1      34.344 -70.015  -0.623  1.00  0.00     0.293 HD
ENDBRANCH   8  26
TORSDOF 6
ENDMDL
