MODEL 1
REMARK VINA RESULT:    -6.444      0.000      0.000
REMARK INTER + INTRA:          -8.057
REMARK INTER:                  -7.763
REMARK INTRA:                  -0.294
REMARK UNBOUND:                -0.294
REMARK SMILES Oc1cc(O)c2cc(O)c(-c3ccc(O)c(O)c3)[o+]c2c1
REMARK SMILES IDX 10 1 19 2 20 3 21 4 2 5 3 6 4 7 6 8 7 9 8 10 11 11 12 12
REMARK SMILES IDX 13 13 14 14 18 15 16 16 15 17 17 19 9 21 1 23 5 25
REMARK H PARENT 15 18 17 20 9 22 1 24 5 26
REMARK Flexibility Score: inf
ROOT
ATOM      1  C   UNL     1      17.571  45.845  39.573  1.00  0.00     0.402 A 
ATOM      2  O   UNL     1      16.948  46.931  40.025  1.00  0.00    -0.202 OA
ATOM      3  C   UNL     1      17.078  47.379  41.270  1.00  0.00     0.368 A 
ATOM      4  C   UNL     1      16.394  48.532  41.666  1.00  0.00     0.162 A 
ATOM      5  C   UNL     1      16.524  49.016  42.974  1.00  0.00     0.128 A 
ATOM      6  C   UNL     1      17.343  48.343  43.888  1.00  0.00     0.093 A 
ATOM      7  C   UNL     1      18.034  47.183  43.506  1.00  0.00     0.136 A 
ATOM      8  C   UNL     1      17.902  46.698  42.191  1.00  0.00     0.125 A 
ATOM      9  C   UNL     1      18.562  45.542  41.757  1.00  0.00     0.078 A 
ATOM     10  C   UNL     1      18.393  45.098  40.442  1.00  0.00     0.223 A 
ENDROOT
BRANCH   1  11
ATOM     11  C   UNL     1      17.354  45.450  38.161  1.00  0.00     0.087 A 
ATOM     12  C   UNL     1      16.101  44.955  37.768  1.00  0.00     0.022 A 
ATOM     13  C   UNL     1      15.868  44.595  36.438  1.00  0.00     0.051 A 
ATOM     14  C   UNL     1      16.880  44.740  35.480  1.00  0.00     0.157 A 
ATOM     15  C   UNL     1      18.361  45.614  37.192  1.00  0.00     0.068 A 
ATOM     16  C   UNL     1      18.126  45.254  35.857  1.00  0.00     0.158 A 
BRANCH  14  17
ATOM     17  O   UNL     1      16.652  44.381  34.152  1.00  0.00    -0.504 OA
ATOM     18  H   UNL     1      15.898  44.792  33.615  1.00  0.00     0.293 HD
ENDBRANCH  14  17
BRANCH  16  19
ATOM     19  O   UNL     1      19.126  45.411  34.898  1.00  0.00    -0.504 OA
ATOM     20  H   UNL     1      19.794  44.673  34.704  1.00  0.00     0.293 HD
ENDBRANCH  16  19
ENDBRANCH   1  11
BRANCH  10  21
ATOM     21  O   UNL     1      19.007  43.920  40.017  1.00  0.00    -0.500 OA
ATOM     22  H   UNL     1      18.468  43.135  39.673  1.00  0.00     0.294 HD
ENDBRANCH  10  21
BRANCH   5  23
ATOM     23  O   UNL     1      15.847  50.164  43.376  1.00  0.00    -0.507 OA
ATOM     24  H   UNL     1      16.295  50.871  43.948  1.00  0.00     0.293 HD
ENDBRANCH   5  23
BRANCH   7  25
ATOM     25  O   UNL     1      18.845  46.521  44.428  1.00  0.00    -0.507 OA
ATOM     26  H   UNL     1      18.864  46.785  45.405  1.00  0.00     0.293 HD
ENDBRANCH   7  25
TORSDOF 6
ENDMDL
MODEL 2
REMARK VINA RESULT:    -6.347      3.237      8.362
REMARK INTER + INTRA:          -7.940
REMARK INTER:                  -7.600
REMARK INTRA:                  -0.340
REMARK UNBOUND:                -0.294
REMARK SMILES Oc1cc(O)c2cc(O)c(-c3ccc(O)c(O)c3)[o+]c2c1
REMARK SMILES IDX 10 1 19 2 20 3 21 4 2 5 3 6 4 7 6 8 7 9 8 10 11 11 12 12
REMARK SMILES IDX 13 13 14 14 18 15 16 16 15 17 17 19 9 21 1 23 5 25
REMARK H PARENT 15 18 17 20 9 22 1 24 5 26
REMARK Flexibility Score: inf
ROOT
ATOM      1  C   UNL     1      19.642  47.491  44.420  1.00  0.00     0.402 A 
ATOM      2  O   UNL     1      18.511  47.836  43.810  1.00  0.00    -0.202 OA
ATOM      3  C   UNL     1      18.064  47.236  42.711  1.00  0.00     0.368 A 
ATOM      4  C   UNL     1      16.862  47.654  42.132  1.00  0.00     0.162 A 
ATOM      5  C   UNL     1      16.379  47.028  40.977  1.00  0.00     0.128 A 
ATOM      6  C   UNL     1      17.103  45.980  40.397  1.00  0.00     0.093 A 
ATOM      7  C   UNL     1      18.312  45.550  40.964  1.00  0.00     0.136 A 
ATOM      8  C   UNL     1      18.797  46.180  42.127  1.00  0.00     0.125 A 
ATOM      9  C   UNL     1      20.000  45.798  42.731  1.00  0.00     0.078 A 
ATOM     10  C   UNL     1      20.440  46.460  43.881  1.00  0.00     0.223 A 
ENDROOT
BRANCH   1  11
ATOM     11  C   UNL     1      20.031  48.228  45.644  1.00  0.00     0.087 A 
ATOM     12  C   UNL     1      20.885  49.337  45.541  1.00  0.00     0.022 A 
ATOM     13  C   UNL     1      21.249  50.059  46.679  1.00  0.00     0.051 A 
ATOM     14  C   UNL     1      20.751  49.693  47.936  1.00  0.00     0.157 A 
ATOM     15  C   UNL     1      19.516  47.876  46.906  1.00  0.00     0.068 A 
ATOM     16  C   UNL     1      19.880  48.602  48.049  1.00  0.00     0.158 A 
BRANCH  14  17
ATOM     17  O   UNL     1      21.112  50.410  49.076  1.00  0.00    -0.504 OA
ATOM     18  H   UNL     1      22.083  50.593  49.300  1.00  0.00     0.293 HD
ENDBRANCH  14  17
BRANCH  16  19
ATOM     19  O   UNL     1      19.375  48.249  49.300  1.00  0.00    -0.504 OA
ATOM     20  H   UNL     1      18.392  48.355  49.523  1.00  0.00     0.293 HD
ENDBRANCH  16  19
ENDBRANCH   1  11
BRANCH  10  21
ATOM     21  O   UNL     1      21.663  46.119  44.459  1.00  0.00    -0.500 OA
ATOM     22  H   UNL     1      21.716  45.687  45.374  1.00  0.00     0.294 HD
ENDBRANCH  10  21
BRANCH   5  23
ATOM     23  O   UNL     1      15.182  47.438  40.395  1.00  0.00    -0.507 OA
ATOM     24  H   UNL     1      14.783  48.349  40.590  1.00  0.00     0.293 HD
ENDBRANCH   5  23
BRANCH   7  25
ATOM     25  O   UNL     1      19.025  44.505  40.375  1.00  0.00    -0.507 OA
ATOM     26  H   UNL     1      20.036  44.468  40.408  1.00  0.00     0.293 HD
ENDBRANCH   7  25
TORSDOF 6
ENDMDL
MODEL 3
REMARK VINA RESULT:    -6.307      2.817      7.776
REMARK INTER + INTRA:          -7.892
REMARK INTER:                  -7.839
REMARK INTRA:                  -0.053
REMARK UNBOUND:                -0.294
REMARK SMILES Oc1cc(O)c2cc(O)c(-c3ccc(O)c(O)c3)[o+]c2c1
REMARK SMILES IDX 10 1 19 2 20 3 21 4 2 5 3 6 4 7 6 8 7 9 8 10 11 11 12 12
REMARK SMILES IDX 13 13 14 14 18 15 16 16 15 17 17 19 9 21 1 23 5 25
REMARK H PARENT 15 18 17 20 9 22 1 24 5 26
REMARK Flexibility Score: inf
ROOT
ATOM      1  C   UNL     1      18.889  47.617  43.690  1.00  0.00     0.402 A 
ATOM      2  O   UNL     1      17.739  47.717  43.029  1.00  0.00    -0.202 OA
ATOM      3  C   UNL     1      17.428  46.949  41.989  1.00  0.00     0.368 A 
ATOM      4  C   UNL     1      16.195  47.113  41.350  1.00  0.00     0.162 A 
ATOM      5  C   UNL     1      15.855  46.309  40.256  1.00  0.00     0.128 A 
ATOM      6  C   UNL     1      16.752  45.338  39.799  1.00  0.00     0.093 A 
ATOM      7  C   UNL     1      17.994  45.162  40.427  1.00  0.00     0.136 A 
ATOM      8  C   UNL     1      18.335  45.971  41.528  1.00  0.00     0.125 A 
ATOM      9  C   UNL     1      19.563  45.845  42.189  1.00  0.00     0.078 A 
ATOM     10  C   UNL     1      19.856  46.678  43.274  1.00  0.00     0.223 A 
ENDROOT
BRANCH   1  11
ATOM     11  C   UNL     1      19.117  48.523  44.840  1.00  0.00     0.087 A 
ATOM     12  C   UNL     1      19.523  47.986  46.072  1.00  0.00     0.022 A 
ATOM     13  C   UNL     1      19.763  48.822  47.165  1.00  0.00     0.051 A 
ATOM     14  C   UNL     1      19.616  50.209  47.037  1.00  0.00     0.157 A 
ATOM     15  C   UNL     1      18.991  49.918  44.710  1.00  0.00     0.068 A 
ATOM     16  C   UNL     1      19.233  50.758  45.807  1.00  0.00     0.158 A 
BRANCH  14  17
ATOM     17  O   UNL     1      19.853  51.048  48.125  1.00  0.00    -0.504 OA
ATOM     18  H   UNL     1      20.768  51.447  48.296  1.00  0.00     0.293 HD
ENDBRANCH  14  17
BRANCH  16  19
ATOM     19  O   UNL     1      19.101  52.140  45.679  1.00  0.00    -0.504 OA
ATOM     20  H   UNL     1      19.898  52.760  45.779  1.00  0.00     0.293 HD
ENDBRANCH  16  19
ENDBRANCH   1  11
BRANCH  10  21
ATOM     21  O   UNL     1      21.097  46.593  43.905  1.00  0.00    -0.500 OA
ATOM     22  H   UNL     1      21.960  46.565  43.377  1.00  0.00     0.294 HD
ENDBRANCH  10  21
BRANCH   5  23
ATOM     23  O   UNL     1      14.629  46.466  39.614  1.00  0.00    -0.507 OA
ATOM     24  H   UNL     1      14.091  45.667  39.297  1.00  0.00     0.293 HD
ENDBRANCH   5  23
BRANCH   7  25
ATOM     25  O   UNL     1      18.880  44.191  39.960  1.00  0.00    -0.507 OA
ATOM     26  H   UNL     1      18.580  43.456  39.331  1.00  0.00     0.293 HD
ENDBRANCH   7  25
TORSDOF 6
ENDMDL
MODEL 4
REMARK VINA RESULT:    -6.305      3.874      8.314
REMARK INTER + INTRA:          -7.889
REMARK INTER:                  -7.613
REMARK INTRA:                  -0.276
REMARK UNBOUND:                -0.294
REMARK SMILES Oc1cc(O)c2cc(O)c(-c3ccc(O)c(O)c3)[o+]c2c1
REMARK SMILES IDX 10 1 19 2 20 3 21 4 2 5 3 6 4 7 6 8 7 9 8 10 11 11 12 12
REMARK SMILES IDX 13 13 14 14 18 15 16 16 15 17 17 19 9 21 1 23 5 25
REMARK H PARENT 15 18 17 20 9 22 1 24 5 26
REMARK Flexibility Score: inf
ROOT
ATOM      1  C   UNL     1      20.128  48.320  44.257  1.00  0.00     0.402 A 
ATOM      2  O   UNL     1      19.091  48.981  43.748  1.00  0.00    -0.202 OA
ATOM      3  C   UNL     1      18.162  48.405  42.991  1.00  0.00     0.368 A 
ATOM      4  C   UNL     1      17.099  49.167  42.498  1.00  0.00     0.162 A 
ATOM      5  C   UNL     1      16.112  48.572  41.703  1.00  0.00     0.128 A 
ATOM      6  C   UNL     1      16.191  47.208  41.399  1.00  0.00     0.093 A 
ATOM      7  C   UNL     1      17.253  46.430  41.885  1.00  0.00     0.136 A 
ATOM      8  C   UNL     1      18.244  47.029  42.685  1.00  0.00     0.125 A 
ATOM      9  C   UNL     1      19.329  46.304  43.190  1.00  0.00     0.078 A 
ATOM     10  C   UNL     1      20.290  46.948  43.975  1.00  0.00     0.223 A 
ENDROOT
BRANCH   1  11
ATOM     11  C   UNL     1      21.093  49.071  45.094  1.00  0.00     0.087 A 
ATOM     12  C   UNL     1      22.342  49.424  44.560  1.00  0.00     0.022 A 
ATOM     13  C   UNL     1      23.260  50.149  45.324  1.00  0.00     0.051 A 
ATOM     14  C   UNL     1      22.936  50.544  46.628  1.00  0.00     0.157 A 
ATOM     15  C   UNL     1      20.764  49.487  46.397  1.00  0.00     0.068 A 
ATOM     16  C   UNL     1      21.685  50.216  47.164  1.00  0.00     0.158 A 
BRANCH  14  17
ATOM     17  O   UNL     1      23.849  51.266  47.395  1.00  0.00    -0.504 OA
ATOM     18  H   UNL     1      24.747  51.550  47.021  1.00  0.00     0.293 HD
ENDBRANCH  14  17
BRANCH  16  19
ATOM     19  O   UNL     1      21.360  50.623  48.458  1.00  0.00    -0.504 OA
ATOM     20  H   UNL     1      20.452  51.017  48.677  1.00  0.00     0.293 HD
ENDBRANCH  16  19
ENDBRANCH   1  11
BRANCH  10  21
ATOM     21  O   UNL     1      21.401  46.244  44.439  1.00  0.00    -0.500 OA
ATOM     22  H   UNL     1      22.323  46.661  44.461  1.00  0.00     0.294 HD
ENDBRANCH  10  21
BRANCH   5  23
ATOM     23  O   UNL     1      15.050  49.324  41.208  1.00  0.00    -0.507 OA
ATOM     24  H   UNL     1      14.134  48.915  41.063  1.00  0.00     0.293 HD
ENDBRANCH   5  23
BRANCH   7  25
ATOM     25  O   UNL     1      17.320  45.071  41.573  1.00  0.00    -0.507 OA
ATOM     26  H   UNL     1      16.627  44.626  40.983  1.00  0.00     0.293 HD
ENDBRANCH   7  25
TORSDOF 6
ENDMDL
MODEL 5
REMARK VINA RESULT:    -6.221      3.635      8.518
REMARK INTER + INTRA:          -7.789
REMARK INTER:                  -7.519
REMARK INTRA:                  -0.269
REMARK UNBOUND:                -0.294
REMARK SMILES Oc1cc(O)c2cc(O)c(-c3ccc(O)c(O)c3)[o+]c2c1
REMARK SMILES IDX 10 1 19 2 20 3 21 4 2 5 3 6 4 7 6 8 7 9 8 10 11 11 12 12
REMARK SMILES IDX 13 13 14 14 18 15 16 16 15 17 17 19 9 21 1 23 5 25
REMARK H PARENT 15 18 17 20 9 22 1 24 5 26
REMARK Flexibility Score: inf
ROOT
ATOM      1  C   UNL     1      19.143  49.411  43.914  1.00  0.00     0.402 A 
ATOM      2  O   UNL     1      18.946  48.176  43.459  1.00  0.00    -0.202 OA
ATOM      3  C   UNL     1      17.919  47.841  42.685  1.00  0.00     0.368 A 
ATOM      4  C   UNL     1      17.785  46.521  42.243  1.00  0.00     0.162 A 
ATOM      5  C   UNL     1      16.709  46.156  41.425  1.00  0.00     0.128 A 
ATOM      6  C   UNL     1      15.763  47.116  41.048  1.00  0.00     0.093 A 
ATOM      7  C   UNL     1      15.882  48.444  41.485  1.00  0.00     0.136 A 
ATOM      8  C   UNL     1      16.964  48.810  42.308  1.00  0.00     0.125 A 
ATOM      9  C   UNL     1      17.129  50.118  42.779  1.00  0.00     0.078 A 
ATOM     10  C   UNL     1      18.218  50.429  43.598  1.00  0.00     0.223 A 
ENDROOT
BRANCH   1  11
ATOM     11  C   UNL     1      20.331  49.664  44.762  1.00  0.00     0.087 A 
ATOM     12  C   UNL     1      21.600  49.743  44.167  1.00  0.00     0.022 A 
ATOM     13  C   UNL     1      22.732  50.000  44.943  1.00  0.00     0.051 A 
ATOM     14  C   UNL     1      22.609  50.199  46.324  1.00  0.00     0.157 A 
ATOM     15  C   UNL     1      20.210  49.884  46.147  1.00  0.00     0.068 A 
ATOM     16  C   UNL     1      21.346  50.145  46.926  1.00  0.00     0.158 A 
BRANCH  14  17
ATOM     17  O   UNL     1      23.737  50.454  47.104  1.00  0.00    -0.504 OA
ATOM     18  H   UNL     1      24.658  50.539  46.691  1.00  0.00     0.293 HD
ENDBRANCH  14  17
BRANCH  16  19
ATOM     19  O   UNL     1      21.227  50.356  48.299  1.00  0.00    -0.504 OA
ATOM     20  H   UNL     1      21.146  49.583  48.950  1.00  0.00     0.293 HD
ENDBRANCH  16  19
ENDBRANCH   1  11
BRANCH  10  21
ATOM     21  O   UNL     1      18.361  51.717  44.113  1.00  0.00    -0.500 OA
ATOM     22  H   UNL     1      18.649  52.493  43.530  1.00  0.00     0.294 HD
ENDBRANCH  10  21
BRANCH   5  23
ATOM     23  O   UNL     1      16.569  44.844  40.981  1.00  0.00    -0.507 OA
ATOM     24  H   UNL     1      17.346  44.337  40.574  1.00  0.00     0.293 HD
ENDBRANCH   5  23
BRANCH   7  25
ATOM     25  O   UNL     1      14.930  49.390  41.103  1.00  0.00    -0.507 OA
ATOM     26  H   UNL     1      14.022  49.117  40.747  1.00  0.00     0.293 HD
ENDBRANCH   7  25
TORSDOF 6
ENDMDL
MODEL 6
REMARK VINA RESULT:    -6.172      5.282     10.491
REMARK INTER + INTRA:          -7.729
REMARK INTER:                  -7.870
REMARK INTRA:                   0.141
REMARK UNBOUND:                -0.294
REMARK SMILES Oc1cc(O)c2cc(O)c(-c3ccc(O)c(O)c3)[o+]c2c1
REMARK SMILES IDX 10 1 19 2 20 3 21 4 2 5 3 6 4 7 6 8 7 9 8 10 11 11 12 12
REMARK SMILES IDX 13 13 14 14 18 15 16 16 15 17 17 19 9 21 1 23 5 25
REMARK H PARENT 15 18 17 20 9 22 1 24 5 26
REMARK Flexibility Score: inf
ROOT
ATOM      1  C   UNL     1      20.674  49.903  46.041  1.00  0.00     0.402 A 
ATOM      2  O   UNL     1      21.097  48.665  45.799  1.00  0.00    -0.202 OA
ATOM      3  C   UNL     1      20.582  47.891  44.849  1.00  0.00     0.368 A 
ATOM      4  C   UNL     1      21.086  46.602  44.653  1.00  0.00     0.162 A 
ATOM      5  C   UNL     1      20.553  45.779  43.654  1.00  0.00     0.128 A 
ATOM      6  C   UNL     1      19.511  46.248  42.847  1.00  0.00     0.093 A 
ATOM      7  C   UNL     1      18.992  47.538  43.032  1.00  0.00     0.136 A 
ATOM      8  C   UNL     1      19.529  48.366  44.037  1.00  0.00     0.125 A 
ATOM      9  C   UNL     1      19.045  49.658  44.271  1.00  0.00     0.078 A 
ATOM     10  C   UNL     1      19.609  50.437  45.286  1.00  0.00     0.223 A 
ENDROOT
BRANCH   1  11
ATOM     11  C   UNL     1      21.335  50.670  47.122  1.00  0.00     0.087 A 
ATOM     12  C   UNL     1      22.728  50.595  47.269  1.00  0.00     0.022 A 
ATOM     13  C   UNL     1      23.376  51.325  48.269  1.00  0.00     0.051 A 
ATOM     14  C   UNL     1      22.640  52.155  49.125  1.00  0.00     0.157 A 
ATOM     15  C   UNL     1      20.602  51.521  47.970  1.00  0.00     0.068 A 
ATOM     16  C   UNL     1      21.252  52.256  48.973  1.00  0.00     0.158 A 
BRANCH  14  17
ATOM     17  O   UNL     1      23.281  52.885  50.124  1.00  0.00    -0.504 OA
ATOM     18  H   UNL     1      23.215  53.895  50.167  1.00  0.00     0.293 HD
ENDBRANCH  14  17
BRANCH  16  19
ATOM     19  O   UNL     1      20.524  53.093  49.817  1.00  0.00    -0.504 OA
ATOM     20  H   UNL     1      20.359  54.066  49.585  1.00  0.00     0.293 HD
ENDBRANCH  16  19
ENDBRANCH   1  11
BRANCH  10  21
ATOM     21  O   UNL     1      19.099  51.706  45.559  1.00  0.00    -0.500 OA
ATOM     22  H   UNL     1      18.102  51.887  45.570  1.00  0.00     0.294 HD
ENDBRANCH  10  21
BRANCH   5  23
ATOM     23  O   UNL     1      21.051  44.494  43.453  1.00  0.00    -0.507 OA
ATOM     24  H   UNL     1      20.879  43.988  42.592  1.00  0.00     0.293 HD
ENDBRANCH   5  23
BRANCH   7  25
ATOM     25  O   UNL     1      17.951  47.993  42.221  1.00  0.00    -0.507 OA
ATOM     26  H   UNL     1      18.044  48.041  41.214  1.00  0.00     0.293 HD
ENDBRANCH   7  25
TORSDOF 6
ENDMDL
MODEL 7
REMARK VINA RESULT:    -6.156      5.259      8.225
REMARK INTER + INTRA:          -7.709
REMARK INTER:                  -7.534
REMARK INTRA:                  -0.175
REMARK UNBOUND:                -0.294
REMARK SMILES Oc1cc(O)c2cc(O)c(-c3ccc(O)c(O)c3)[o+]c2c1
REMARK SMILES IDX 10 1 19 2 20 3 21 4 2 5 3 6 4 7 6 8 7 9 8 10 11 11 12 12
REMARK SMILES IDX 13 13 14 14 18 15 16 16 15 17 17 19 9 21 1 23 5 25
REMARK H PARENT 15 18 17 20 9 22 1 24 5 26
REMARK Flexibility Score: inf
ROOT
ATOM      1  C   UNL     1      20.360  48.730  46.069  1.00  0.00     0.402 A 
ATOM      2  O   UNL     1      21.554  49.310  46.171  1.00  0.00    -0.202 OA
ATOM      3  C   UNL     1      21.861  50.181  47.127  1.00  0.00     0.368 A 
ATOM      4  C   UNL     1      23.140  50.743  47.169  1.00  0.00     0.162 A 
ATOM      5  C   UNL     1      23.477  51.659  48.172  1.00  0.00     0.128 A 
ATOM      6  C   UNL     1      22.528  52.015  49.138  1.00  0.00     0.093 A 
ATOM      7  C   UNL     1      21.240  51.462  49.109  1.00  0.00     0.136 A 
ATOM      8  C   UNL     1      20.902  50.540  48.099  1.00  0.00     0.125 A 
ATOM      9  C   UNL     1      19.630  49.962  48.017  1.00  0.00     0.078 A 
ATOM     10  C   UNL     1      19.344  49.057  46.991  1.00  0.00     0.223 A 
ENDROOT
BRANCH   1  11
ATOM     11  C   UNL     1      20.141  47.767  44.965  1.00  0.00     0.087 A 
ATOM     12  C   UNL     1      19.211  48.071  43.959  1.00  0.00     0.022 A 
ATOM     13  C   UNL     1      19.002  47.188  42.897  1.00  0.00     0.051 A 
ATOM     14  C   UNL     1      19.732  45.995  42.818  1.00  0.00     0.157 A 
ATOM     15  C   UNL     1      20.887  46.578  44.871  1.00  0.00     0.068 A 
ATOM     16  C   UNL     1      20.679  45.692  43.804  1.00  0.00     0.158 A 
BRANCH  14  17
ATOM     17  O   UNL     1      19.527  45.110  41.760  1.00  0.00    -0.504 OA
ATOM     18  H   UNL     1      20.300  44.638  41.307  1.00  0.00     0.293 HD
ENDBRANCH  14  17
BRANCH  16  19
ATOM     19  O   UNL     1      21.414  44.510  43.714  1.00  0.00    -0.504 OA
ATOM     20  H   UNL     1      21.181  43.698  44.274  1.00  0.00     0.293 HD
ENDBRANCH  16  19
ENDBRANCH   1  11
BRANCH  10  21
ATOM     21  O   UNL     1      18.064  48.516  46.872  1.00  0.00    -0.500 OA
ATOM     22  H   UNL     1      17.237  49.051  47.109  1.00  0.00     0.294 HD
ENDBRANCH  10  21
BRANCH   5  23
ATOM     23  O   UNL     1      24.749  52.223  48.221  1.00  0.00    -0.507 OA
ATOM     24  H   UNL     1      25.202  52.581  47.388  1.00  0.00     0.293 HD
ENDBRANCH   5  23
BRANCH   7  25
ATOM     25  O   UNL     1      20.303  51.826  50.077  1.00  0.00    -0.507 OA
ATOM     26  H   UNL     1      20.543  51.864  51.060  1.00  0.00     0.293 HD
ENDBRANCH   7  25
TORSDOF 6
ENDMDL
MODEL 8
REMARK VINA RESULT:    -6.143      6.190      7.451
REMARK INTER + INTRA:          -7.695
REMARK INTER:                  -7.402
REMARK INTRA:                  -0.293
REMARK UNBOUND:                -0.294
REMARK SMILES Oc1cc(O)c2cc(O)c(-c3ccc(O)c(O)c3)[o+]c2c1
REMARK SMILES IDX 10 1 19 2 20 3 21 4 2 5 3 6 4 7 6 8 7 9 8 10 11 11 12 12
REMARK SMILES IDX 13 13 14 14 18 15 16 16 15 17 17 19 9 21 1 23 5 25
REMARK H PARENT 15 18 17 20 9 22 1 24 5 26
REMARK Flexibility Score: inf
ROOT
ATOM      1  C   UNL     1      18.290  48.142  45.212  1.00  0.00     0.402 A 
ATOM      2  O   UNL     1      17.305  48.734  44.541  1.00  0.00    -0.202 OA
ATOM      3  C   UNL     1      16.033  48.357  44.632  1.00  0.00     0.368 A 
ATOM      4  C   UNL     1      15.055  49.034  43.898  1.00  0.00     0.162 A 
ATOM      5  C   UNL     1      13.712  48.649  43.988  1.00  0.00     0.128 A 
ATOM      6  C   UNL     1      13.347  47.581  44.815  1.00  0.00     0.093 A 
ATOM      7  C   UNL     1      14.317  46.890  45.556  1.00  0.00     0.136 A 
ATOM      8  C   UNL     1      15.667  47.278  45.466  1.00  0.00     0.125 A 
ATOM      9  C   UNL     1      16.678  46.621  46.177  1.00  0.00     0.078 A 
ATOM     10  C   UNL     1      18.005  47.042  46.047  1.00  0.00     0.223 A 
ENDROOT
BRANCH   1  11
ATOM     11  C   UNL     1      19.667  48.660  45.035  1.00  0.00     0.087 A 
ATOM     12  C   UNL     1      20.262  49.405  46.065  1.00  0.00     0.022 A 
ATOM     13  C   UNL     1      21.566  49.887  45.929  1.00  0.00     0.051 A 
ATOM     14  C   UNL     1      22.300  49.615  44.767  1.00  0.00     0.157 A 
ATOM     15  C   UNL     1      20.415  48.371  43.879  1.00  0.00     0.068 A 
ATOM     16  C   UNL     1      21.725  48.853  43.742  1.00  0.00     0.158 A 
BRANCH  14  17
ATOM     17  O   UNL     1      23.602  50.094  44.626  1.00  0.00    -0.504 OA
ATOM     18  H   UNL     1      24.315  49.555  44.149  1.00  0.00     0.293 HD
ENDBRANCH  14  17
BRANCH  16  19
ATOM     19  O   UNL     1      22.464  48.572  42.594  1.00  0.00    -0.504 OA
ATOM     20  H   UNL     1      22.746  47.626  42.363  1.00  0.00     0.293 HD
ENDBRANCH  16  19
ENDBRANCH   1  11
BRANCH  10  21
ATOM     21  O   UNL     1      19.023  46.360  46.712  1.00  0.00    -0.500 OA
ATOM     22  H   UNL     1      19.517  46.773  47.493  1.00  0.00     0.294 HD
ENDBRANCH  10  21
BRANCH   5  23
ATOM     23  O   UNL     1      12.731  49.319  43.260  1.00  0.00    -0.507 OA
ATOM     24  H   UNL     1      11.745  49.141  43.412  1.00  0.00     0.293 HD
ENDBRANCH   5  23
BRANCH   7  25
ATOM     25  O   UNL     1      13.940  45.825  46.376  1.00  0.00    -0.507 OA
ATOM     26  H   UNL     1      13.779  44.898  46.002  1.00  0.00     0.293 HD
ENDBRANCH   7  25
TORSDOF 6
ENDMDL
MODEL 9
REMARK VINA RESULT:    -6.132      2.985      5.171
REMARK INTER + INTRA:          -7.681
REMARK INTER:                  -7.351
REMARK INTRA:                  -0.330
REMARK UNBOUND:                -0.294
REMARK SMILES Oc1cc(O)c2cc(O)c(-c3ccc(O)c(O)c3)[o+]c2c1
REMARK SMILES IDX 10 1 19 2 20 3 21 4 2 5 3 6 4 7 6 8 7 9 8 10 11 11 12 12
REMARK SMILES IDX 13 13 14 14 18 15 16 16 15 17 17 19 9 21 1 23 5 25
REMARK H PARENT 15 18 17 20 9 22 1 24 5 26
REMARK Flexibility Score: inf
ROOT
ATOM      1  C   UNL     1      18.093  47.752  43.396  1.00  0.00     0.402 A 
ATOM      2  O   UNL     1      18.479  47.367  44.610  1.00  0.00    -0.202 OA
ATOM      3  C   UNL     1      18.890  48.216  45.547  1.00  0.00     0.368 A 
ATOM      4  C   UNL     1      19.276  47.732  46.801  1.00  0.00     0.162 A 
ATOM      5  C   UNL     1      19.707  48.616  47.797  1.00  0.00     0.128 A 
ATOM      6  C   UNL     1      19.753  49.990  47.536  1.00  0.00     0.093 A 
ATOM      7  C   UNL     1      19.371  50.492  46.283  1.00  0.00     0.136 A 
ATOM      8  C   UNL     1      18.937  49.602  45.282  1.00  0.00     0.125 A 
ATOM      9  C   UNL     1      18.552  50.045  44.011  1.00  0.00     0.078 A 
ATOM     10  C   UNL     1      18.135  49.119  43.050  1.00  0.00     0.223 A 
ENDROOT
BRANCH   1  11
ATOM     11  C   UNL     1      17.646  46.712  42.440  1.00  0.00     0.087 A 
ATOM     12  C   UNL     1      16.273  46.503  42.239  1.00  0.00     0.022 A 
ATOM     13  C   UNL     1      15.829  45.541  41.329  1.00  0.00     0.051 A 
ATOM     14  C   UNL     1      16.752  44.786  40.594  1.00  0.00     0.157 A 
ATOM     15  C   UNL     1      18.570  45.966  41.686  1.00  0.00     0.068 A 
ATOM     16  C   UNL     1      18.125  45.002  40.769  1.00  0.00     0.158 A 
BRANCH  14  17
ATOM     17  O   UNL     1      16.314  43.824  39.684  1.00  0.00    -0.504 OA
ATOM     18  H   UNL     1      15.334  43.581  39.603  1.00  0.00     0.293 HD
ENDBRANCH  14  17
BRANCH  16  19
ATOM     19  O   UNL     1      19.040  44.258  40.026  1.00  0.00    -0.504 OA
ATOM     20  H   UNL     1      20.034  44.290  40.225  1.00  0.00     0.293 HD
ENDBRANCH  16  19
ENDBRANCH   1  11
BRANCH  10  21
ATOM     21  O   UNL     1      17.798  49.547  41.766  1.00  0.00    -0.500 OA
ATOM     22  H   UNL     1      17.485  50.493  41.587  1.00  0.00     0.294 HD
ENDBRANCH  10  21
BRANCH   5  23
ATOM     23  O   UNL     1      20.092  48.142  49.048  1.00  0.00    -0.507 OA
ATOM     24  H   UNL     1      19.596  48.408  49.891  1.00  0.00     0.293 HD
ENDBRANCH   5  23
BRANCH   7  25
ATOM     25  O   UNL     1      19.424  51.864  46.036  1.00  0.00    -0.507 OA
ATOM     26  H   UNL     1      18.585  52.406  45.866  1.00  0.00     0.293 HD
ENDBRANCH   7  25
TORSDOF 6
ENDMDL
