MODEL 1
REMARK VINA RESULT:    -6.187      0.000      0.000
REMARK INTER + INTRA:         -18.395
REMARK INTER:                 -14.143
REMARK INTRA:                  -4.251
REMARK UNBOUND:                -4.251
REMARK SMILES CCCCCCCCCCCCCCCCCCCCCCCC(=O)[O-]
REMARK SMILES IDX 13 1 14 2 15 3 16 4 17 5 18 6 19 7 20 8 21 9 22 10 23 11
REMARK SMILES IDX 24 12 25 13 26 14 12 15 11 16 10 17 9 18 8 19 7 20 6 21 5 22
REMARK SMILES IDX 4 23 3 24 2 25 1 26
REMARK H PARENT
REMARK Flexibility Score: inf
ROOT
ATOM      1  C   UNL     1      16.832  -2.827  18.574  1.00  0.00     0.000 C 
ENDROOT
BRANCH   1   2
ATOM      2  C   UNL     1      15.908  -2.336  17.447  1.00  0.00     0.000 C 
BRANCH   2   3
ATOM      3  C   UNL     1      14.710  -3.273  17.213  1.00  0.00     0.000 C 
BRANCH   3   4
ATOM      4  C   UNL     1      14.290  -3.336  15.736  1.00  0.00     0.000 C 
BRANCH   4   5
ATOM      5  C   UNL     1      12.763  -3.312  15.550  1.00  0.00     0.000 C 
BRANCH   5   6
ATOM      6  C   UNL     1      12.392  -3.177  14.069  1.00  0.00     0.000 C 
BRANCH   6   7
ATOM      7  C   UNL     1      12.312  -1.699  13.659  1.00  0.00     0.000 C 
BRANCH   7   8
ATOM      8  C   UNL     1      13.023  -1.414  12.326  1.00  0.00     0.000 C 
BRANCH   8   9
ATOM      9  C   UNL     1      14.376  -2.135  12.212  1.00  0.00     0.000 C 
BRANCH   9  10
ATOM     10  C   UNL     1      15.533  -1.194  12.573  1.00  0.00     0.006 C 
BRANCH  10  11
ATOM     11  C   UNL     1      16.513  -1.873  13.535  1.00  0.00     0.053 C 
BRANCH  11  12
ATOM     12  C   UNL     1      17.914  -1.433  13.252  1.00  0.00     0.041 C 
ATOM     13  O   UNL     1      18.801  -2.283  12.978  1.00  0.00    -0.550 OA
ATOM     14  O   UNL     1      18.231  -0.080  13.248  1.00  0.00    -0.550 OA
ENDBRANCH  11  12
ENDBRANCH  10  11
ENDBRANCH   9  10
ENDBRANCH   8   9
ENDBRANCH   7   8
ENDBRANCH   6   7
ENDBRANCH   5   6
ENDBRANCH   4   5
ENDBRANCH   3   4
ENDBRANCH   2   3
ENDBRANCH   1   2
BRANCH   1  15
ATOM     15  C   UNL     1      18.188  -3.325  18.053  1.00  0.00     0.000 C 
BRANCH  15  16
ATOM     16  C   UNL     1      18.292  -3.146  16.534  1.00  0.00     0.000 C 
BRANCH  16  17
ATOM     17  C   UNL     1      18.570  -4.484  15.838  1.00  0.00     0.000 C 
BRANCH  17  18
ATOM     18  C   UNL     1      17.274  -5.100  15.297  1.00  0.00    -0.000 C 
BRANCH  18  19
ATOM     19  C   UNL     1      16.762  -6.210  16.228  1.00  0.00    -0.000 C 
BRANCH  19  20
ATOM     20  C   UNL     1      15.436  -6.825  15.750  1.00  0.00    -0.000 C 
BRANCH  20  21
ATOM     21  C   UNL     1      15.442  -7.140  14.244  1.00  0.00    -0.000 C 
BRANCH  21  22
ATOM     22  C   UNL     1      14.184  -6.630  13.516  1.00  0.00    -0.000 C 
BRANCH  22  23
ATOM     23  C   UNL     1      14.447  -5.831  12.226  1.00  0.00    -0.000 C 
BRANCH  23  24
ATOM     24  C   UNL     1      15.945  -5.596  11.960  1.00  0.00    -0.000 C 
BRANCH  24  25
ATOM     25  C   UNL     1      16.294  -5.649  10.463  1.00  0.00    -0.003 C 
ATOM     26  C   UNL     1      15.096  -5.345   9.563  1.00  0.00     0.004 C 
ENDBRANCH  24  25
ENDBRANCH  23  24
ENDBRANCH  22  23
ENDBRANCH  21  22
ENDBRANCH  20  21
ENDBRANCH  19  20
ENDBRANCH  18  19
ENDBRANCH  17  18
ENDBRANCH  16  17
ENDBRANCH  15  16
ENDBRANCH   1  15
TORSDOF 22
ENDMDL
MODEL 2
REMARK VINA RESULT:    -5.915      1.305      4.978
REMARK INTER + INTRA:         -17.774
REMARK INTER:                 -13.548
REMARK INTRA:                  -4.226
REMARK UNBOUND:                -4.251
REMARK SMILES CCCCCCCCCCCCCCCCCCCCCCCC(=O)[O-]
REMARK SMILES IDX 13 1 14 2 15 3 16 4 17 5 18 6 19 7 20 8 21 9 22 10 23 11
REMARK SMILES IDX 24 12 25 13 26 14 12 15 11 16 10 17 9 18 8 19 7 20 6 21 5 22
REMARK SMILES IDX 4 23 3 24 2 25 1 26
REMARK H PARENT
REMARK Flexibility Score: inf
ROOT
ATOM      1  C   UNL     1      13.477  -3.034  15.098  1.00  0.00     0.000 C 
ENDROOT
BRANCH   1   2
ATOM      2  C   UNL     1      13.772  -4.047  16.216  1.00  0.00     0.000 C 
BRANCH   2   3
ATOM      3  C   UNL     1      15.208  -3.932  16.756  1.00  0.00     0.000 C 
BRANCH   3   4
ATOM      4  C   UNL     1      15.412  -2.683  17.629  1.00  0.00     0.000 C 
BRANCH   4   5
ATOM      5  C   UNL     1      16.844  -2.570  18.182  1.00  0.00     0.000 C 
BRANCH   5   6
ATOM      6  C   UNL     1      17.739  -3.680  17.621  1.00  0.00     0.000 C 
BRANCH   6   7
ATOM      7  C   UNL     1      19.135  -3.137  17.284  1.00  0.00     0.000 C 
BRANCH   7   8
ATOM      8  C   UNL     1      19.317  -2.858  15.783  1.00  0.00     0.000 C 
BRANCH   8   9
ATOM      9  C   UNL     1      18.493  -3.810  14.901  1.00  0.00     0.000 C 
BRANCH   9  10
ATOM     10  C   UNL     1      17.926  -3.076  13.680  1.00  0.00     0.006 C 
BRANCH  10  11
ATOM     11  C   UNL     1      16.830  -2.088  14.093  1.00  0.00     0.053 C 
BRANCH  11  12
ATOM     12  C   UNL     1      16.787  -0.928  13.150  1.00  0.00     0.041 C 
ATOM     13  O   UNL     1      17.674  -0.036  13.203  1.00  0.00    -0.550 OA
ATOM     14  O   UNL     1      15.792  -0.854  12.183  1.00  0.00    -0.550 OA
ENDBRANCH  11  12
ENDBRANCH  10  11
ENDBRANCH   9  10
ENDBRANCH   8   9
ENDBRANCH   7   8
ENDBRANCH   6   7
ENDBRANCH   5   6
ENDBRANCH   4   5
ENDBRANCH   3   4
ENDBRANCH   2   3
ENDBRANCH   1   2
BRANCH   1  15
ATOM     15  C   UNL     1      12.638  -3.634  13.961  1.00  0.00     0.000 C 
BRANCH  15  16
ATOM     16  C   UNL     1      12.875  -2.880  12.647  1.00  0.00     0.000 C 
BRANCH  16  17
ATOM     17  C   UNL     1      12.296  -3.650  11.455  1.00  0.00     0.000 C 
BRANCH  17  18
ATOM     18  C   UNL     1      12.909  -5.053  11.359  1.00  0.00    -0.000 C 
BRANCH  18  19
ATOM     19  C   UNL     1      13.342  -5.366   9.919  1.00  0.00    -0.000 C 
BRANCH  19  20
ATOM     20  C   UNL     1      14.869  -5.342   9.736  1.00  0.00    -0.000 C 
BRANCH  20  21
ATOM     21  C   UNL     1      15.614  -5.010  11.041  1.00  0.00    -0.000 C 
BRANCH  21  22
ATOM     22  C   UNL     1      16.780  -5.973  11.331  1.00  0.00    -0.000 C 
BRANCH  22  23
ATOM     23  C   UNL     1      16.786  -6.595  12.740  1.00  0.00    -0.000 C 
BRANCH  23  24
ATOM     24  C   UNL     1      15.679  -6.033  13.649  1.00  0.00    -0.000 C 
BRANCH  24  25
ATOM     25  C   UNL     1      14.654  -7.103  14.060  1.00  0.00    -0.003 C 
ATOM     26  C   UNL     1      14.760  -7.493  15.534  1.00  0.00     0.004 C 
ENDBRANCH  24  25
ENDBRANCH  23  24
ENDBRANCH  22  23
ENDBRANCH  21  22
ENDBRANCH  20  21
ENDBRANCH  19  20
ENDBRANCH  18  19
ENDBRANCH  17  18
ENDBRANCH  16  17
ENDBRANCH  15  16
ENDBRANCH   1  15
TORSDOF 22
ENDMDL
MODEL 3
REMARK VINA RESULT:    -5.884      2.236      4.113
REMARK INTER + INTRA:         -17.702
REMARK INTER:                 -13.479
REMARK INTRA:                  -4.223
REMARK UNBOUND:                -4.251
REMARK SMILES CCCCCCCCCCCCCCCCCCCCCCCC(=O)[O-]
REMARK SMILES IDX 13 1 14 2 15 3 16 4 17 5 18 6 19 7 20 8 21 9 22 10 23 11
REMARK SMILES IDX 24 12 25 13 26 14 12 15 11 16 10 17 9 18 8 19 7 20 6 21 5 22
REMARK SMILES IDX 4 23 3 24 2 25 1 26
REMARK H PARENT
REMARK Flexibility Score: inf
ROOT
ATOM      1  C   UNL     1      16.537  -1.741  13.234  1.00  0.00     0.000 C 
ENDROOT
BRANCH   1   2
ATOM      2  C   UNL     1      15.634  -0.776  12.449  1.00  0.00     0.000 C 
BRANCH   2   3
ATOM      3  C   UNL     1      14.155  -1.198  12.473  1.00  0.00     0.000 C 
BRANCH   3   4
ATOM      4  C   UNL     1      13.878  -2.323  13.483  1.00  0.00     0.000 C 
BRANCH   4   5
ATOM      5  C   UNL     1      12.441  -2.290  14.032  1.00  0.00     0.000 C 
BRANCH   5   6
ATOM      6  C   UNL     1      12.278  -3.265  15.203  1.00  0.00     0.000 C 
BRANCH   6   7
ATOM      7  C   UNL     1      13.580  -3.371  16.011  1.00  0.00     0.000 C 
BRANCH   7   8
ATOM      8  C   UNL     1      13.984  -4.827  16.298  1.00  0.00     0.000 C 
BRANCH   8   9
ATOM      9  C   UNL     1      15.455  -5.111  15.957  1.00  0.00     0.000 C 
BRANCH   9  10
ATOM     10  C   UNL     1      16.293  -3.828  16.026  1.00  0.00     0.006 C 
BRANCH  10  11
ATOM     11  C   UNL     1      17.387  -3.943  17.092  1.00  0.00     0.053 C 
BRANCH  11  12
ATOM     12  C   UNL     1      17.156  -2.954  18.189  1.00  0.00     0.041 C 
ATOM     13  O   UNL     1      17.967  -2.872  19.149  1.00  0.00    -0.550 OA
ATOM     14  O   UNL     1      16.068  -2.091  18.130  1.00  0.00    -0.550 OA
ENDBRANCH  11  12
ENDBRANCH  10  11
ENDBRANCH   9  10
ENDBRANCH   8   9
ENDBRANCH   7   8
ENDBRANCH   6   7
ENDBRANCH   5   6
ENDBRANCH   4   5
ENDBRANCH   3   4
ENDBRANCH   2   3
ENDBRANCH   1   2
BRANCH   1  15
ATOM     15  C   UNL     1      18.004  -1.286  13.266  1.00  0.00     0.000 C 
BRANCH  15  16
ATOM     16  C   UNL     1      18.943  -2.439  12.893  1.00  0.00     0.000 C 
BRANCH  16  17
ATOM     17  C   UNL     1      19.301  -3.280  14.124  1.00  0.00     0.000 C 
BRANCH  17  18
ATOM     18  C   UNL     1      19.224  -4.778  13.806  1.00  0.00    -0.000 C 
BRANCH  18  19
ATOM     19  C   UNL     1      18.877  -5.009  12.327  1.00  0.00    -0.000 C 
BRANCH  19  20
ATOM     20  C   UNL     1      17.839  -6.126  12.125  1.00  0.00    -0.000 C 
BRANCH  20  21
ATOM     21  C   UNL     1      16.807  -5.782  11.038  1.00  0.00    -0.000 C 
BRANCH  21  22
ATOM     22  C   UNL     1      15.649  -4.911  11.559  1.00  0.00    -0.000 C 
BRANCH  22  23
ATOM     23  C   UNL     1      14.711  -5.597  12.570  1.00  0.00    -0.000 C 
BRANCH  23  24
ATOM     24  C   UNL     1      13.309  -5.871  11.997  1.00  0.00    -0.000 C 
BRANCH  24  25
ATOM     25  C   UNL     1      13.075  -5.169  10.649  1.00  0.00    -0.003 C 
ATOM     26  C   UNL     1      12.044  -4.044  10.735  1.00  0.00     0.004 C 
ENDBRANCH  24  25
ENDBRANCH  23  24
ENDBRANCH  22  23
ENDBRANCH  21  22
ENDBRANCH  20  21
ENDBRANCH  19  20
ENDBRANCH  18  19
ENDBRANCH  17  18
ENDBRANCH  16  17
ENDBRANCH  15  16
ENDBRANCH   1  15
TORSDOF 22
ENDMDL
MODEL 4
REMARK VINA RESULT:    -5.882      1.278      4.530
REMARK INTER + INTRA:         -17.699
REMARK INTER:                 -13.337
REMARK INTRA:                  -4.362
REMARK UNBOUND:                -4.251
REMARK SMILES CCCCCCCCCCCCCCCCCCCCCCCC(=O)[O-]
REMARK SMILES IDX 13 1 14 2 15 3 16 4 17 5 18 6 19 7 20 8 21 9 22 10 23 11
REMARK SMILES IDX 24 12 25 13 26 14 12 15 11 16 10 17 9 18 8 19 7 20 6 21 5 22
REMARK SMILES IDX 4 23 3 24 2 25 1 26
REMARK H PARENT
REMARK Flexibility Score: inf
ROOT
ATOM      1  C   UNL     1      14.602  -5.453  14.770  1.00  0.00     0.000 C 
ENDROOT
BRANCH   1   2
ATOM      2  C   UNL     1      14.534  -5.034  16.247  1.00  0.00     0.000 C 
BRANCH   2   3
ATOM      3  C   UNL     1      14.273  -3.528  16.424  1.00  0.00     0.000 C 
BRANCH   3   4
ATOM      4  C   UNL     1      14.958  -2.953  17.675  1.00  0.00     0.000 C 
BRANCH   4   5
ATOM      5  C   UNL     1      16.357  -2.384  17.379  1.00  0.00     0.000 C 
BRANCH   5   6
ATOM      6  C   UNL     1      17.452  -3.316  17.908  1.00  0.00     0.000 C 
BRANCH   6   7
ATOM      7  C   UNL     1      18.565  -3.498  16.865  1.00  0.00     0.000 C 
BRANCH   7   8
ATOM      8  C   UNL     1      18.030  -3.974  15.505  1.00  0.00     0.000 C 
BRANCH   8   9
ATOM      9  C   UNL     1      19.040  -3.760  14.365  1.00  0.00     0.000 C 
BRANCH   9  10
ATOM     10  C   UNL     1      18.417  -2.949  13.223  1.00  0.00     0.006 C 
BRANCH  10  11
ATOM     11  C   UNL     1      17.052  -2.384  13.631  1.00  0.00     0.053 C 
BRANCH  11  12
ATOM     12  C   UNL     1      16.862  -1.014  13.064  1.00  0.00     0.041 C 
ATOM     13  O   UNL     1      15.800  -0.723  12.455  1.00  0.00    -0.550 OA
ATOM     14  O   UNL     1      17.839  -0.043  13.249  1.00  0.00    -0.550 OA
ENDBRANCH  11  12
ENDBRANCH  10  11
ENDBRANCH   9  10
ENDBRANCH   8   9
ENDBRANCH   7   8
ENDBRANCH   6   7
ENDBRANCH   5   6
ENDBRANCH   4   5
ENDBRANCH   3   4
ENDBRANCH   2   3
ENDBRANCH   1   2
BRANCH   1  15
ATOM     15  C   UNL     1      14.543  -6.977  14.582  1.00  0.00     0.000 C 
BRANCH  15  16
ATOM     16  C   UNL     1      15.585  -7.443  13.558  1.00  0.00     0.000 C 
BRANCH  16  17
ATOM     17  C   UNL     1      16.608  -6.339  13.270  1.00  0.00     0.000 C 
BRANCH  17  18
ATOM     18  C   UNL     1      16.942  -6.278  11.774  1.00  0.00    -0.000 C 
BRANCH  18  19
ATOM     19  C   UNL     1      16.195  -5.122  11.091  1.00  0.00    -0.000 C 
BRANCH  19  20
ATOM     20  C   UNL     1      15.528  -5.541   9.770  1.00  0.00    -0.000 C 
BRANCH  20  21
ATOM     21  C   UNL     1      13.997  -5.392   9.810  1.00  0.00    -0.000 C 
BRANCH  21  22
ATOM     22  C   UNL     1      13.406  -5.606  11.215  1.00  0.00    -0.000 C 
BRANCH  22  23
ATOM     23  C   UNL     1      12.533  -4.453  11.746  1.00  0.00    -0.000 C 
BRANCH  23  24
ATOM     24  C   UNL     1      13.349  -3.200  12.109  1.00  0.00    -0.000 C 
BRANCH  24  25
ATOM     25  C   UNL     1      12.642  -2.316  13.149  1.00  0.00    -0.003 C 
ATOM     26  C   UNL     1      11.747  -3.114  14.098  1.00  0.00     0.004 C 
ENDBRANCH  24  25
ENDBRANCH  23  24
ENDBRANCH  22  23
ENDBRANCH  21  22
ENDBRANCH  20  21
ENDBRANCH  19  20
ENDBRANCH  18  19
ENDBRANCH  17  18
ENDBRANCH  16  17
ENDBRANCH  15  16
ENDBRANCH   1  15
TORSDOF 22
ENDMDL
MODEL 5
REMARK VINA RESULT:    -5.879      2.511      4.972
REMARK INTER + INTRA:         -17.691
REMARK INTER:                 -13.183
REMARK INTRA:                  -4.508
REMARK UNBOUND:                -4.251
REMARK SMILES CCCCCCCCCCCCCCCCCCCCCCCC(=O)[O-]
REMARK SMILES IDX 13 1 14 2 15 3 16 4 17 5 18 6 19 7 20 8 21 9 22 10 23 11
REMARK SMILES IDX 24 12 25 13 26 14 12 15 11 16 10 17 9 18 8 19 7 20 6 21 5 22
REMARK SMILES IDX 4 23 3 24 2 25 1 26
REMARK H PARENT
REMARK Flexibility Score: inf
ROOT
ATOM      1  C   UNL     1      14.323  -3.627  16.598  1.00  0.00     0.000 C 
ENDROOT
BRANCH   1   2
ATOM      2  C   UNL     1      14.149  -4.673  15.485  1.00  0.00     0.000 C 
BRANCH   2   3
ATOM      3  C   UNL     1      14.644  -6.069  15.901  1.00  0.00     0.000 C 
BRANCH   3   4
ATOM      4  C   UNL     1      15.390  -6.792  14.769  1.00  0.00     0.000 C 
BRANCH   4   5
ATOM      5  C   UNL     1      15.985  -5.823  13.733  1.00  0.00     0.000 C 
BRANCH   5   6
ATOM      6  C   UNL     1      16.609  -6.587  12.560  1.00  0.00     0.000 C 
BRANCH   6   7
ATOM      7  C   UNL     1      16.978  -5.628  11.418  1.00  0.00     0.000 C 
BRANCH   7   8
ATOM      8  C   UNL     1      15.990  -5.697  10.243  1.00  0.00     0.000 C 
BRANCH   8   9
ATOM      9  C   UNL     1      14.814  -4.720  10.401  1.00  0.00     0.000 C 
BRANCH   9  10
ATOM     10  C   UNL     1      13.494  -5.475  10.600  1.00  0.00     0.006 C 
BRANCH  10  11
ATOM     11  C   UNL     1      12.945  -5.260  12.014  1.00  0.00     0.053 C 
BRANCH  11  12
ATOM     12  C   UNL     1      11.701  -4.432  11.974  1.00  0.00     0.041 C 
ATOM     13  O   UNL     1      10.917  -4.419  12.959  1.00  0.00    -0.550 OA
ATOM     14  O   UNL     1      11.429  -3.639  10.866  1.00  0.00    -0.550 OA
ENDBRANCH  11  12
ENDBRANCH  10  11
ENDBRANCH   9  10
ENDBRANCH   8   9
ENDBRANCH   7   8
ENDBRANCH   6   7
ENDBRANCH   5   6
ENDBRANCH   4   5
ENDBRANCH   3   4
ENDBRANCH   2   3
ENDBRANCH   1   2
BRANCH   1  15
ATOM     15  C   UNL     1      15.624  -2.823  16.457  1.00  0.00     0.000 C 
BRANCH  15  16
ATOM     16  C   UNL     1      16.484  -2.944  17.721  1.00  0.00     0.000 C 
BRANCH  16  17
ATOM     17  C   UNL     1      17.924  -3.339  17.374  1.00  0.00     0.000 C 
BRANCH  17  18
ATOM     18  C   UNL     1      17.948  -4.555  16.439  1.00  0.00    -0.000 C 
BRANCH  18  19
ATOM     19  C   UNL     1      19.015  -4.388  15.347  1.00  0.00    -0.000 C 
BRANCH  19  20
ATOM     20  C   UNL     1      19.235  -2.918  14.948  1.00  0.00    -0.000 C 
BRANCH  20  21
ATOM     21  C   UNL     1      18.829  -2.635  13.492  1.00  0.00    -0.000 C 
BRANCH  21  22
ATOM     22  C   UNL     1      17.312  -2.437  13.316  1.00  0.00    -0.000 C 
BRANCH  22  23
ATOM     23  C   UNL     1      16.851  -0.976  13.158  1.00  0.00    -0.000 C 
BRANCH  23  24
ATOM     24  C   UNL     1      15.479  -0.850  12.473  1.00  0.00    -0.000 C 
BRANCH  24  25
ATOM     25  C   UNL     1      14.517  -1.983  12.869  1.00  0.00    -0.003 C 
ATOM     26  C   UNL     1      13.099  -1.488  13.151  1.00  0.00     0.004 C 
ENDBRANCH  24  25
ENDBRANCH  23  24
ENDBRANCH  22  23
ENDBRANCH  21  22
ENDBRANCH  20  21
ENDBRANCH  19  20
ENDBRANCH  18  19
ENDBRANCH  17  18
ENDBRANCH  16  17
ENDBRANCH  15  16
ENDBRANCH   1  15
TORSDOF 22
ENDMDL
MODEL 6
REMARK VINA RESULT:    -5.869      2.138      5.918
REMARK INTER + INTRA:         -17.669
REMARK INTER:                 -13.373
REMARK INTRA:                  -4.296
REMARK UNBOUND:                -4.251
REMARK SMILES CCCCCCCCCCCCCCCCCCCCCCCC(=O)[O-]
REMARK SMILES IDX 13 1 14 2 15 3 16 4 17 5 18 6 19 7 20 8 21 9 22 10 23 11
REMARK SMILES IDX 24 12 25 13 26 14 12 15 11 16 10 17 9 18 8 19 7 20 6 21 5 22
REMARK SMILES IDX 4 23 3 24 2 25 1 26
REMARK H PARENT
REMARK Flexibility Score: inf
ROOT
ATOM      1  C   UNL     1      13.460  -5.978  10.819  1.00  0.00     0.000 C 
ENDROOT
BRANCH   1   2
ATOM      2  C   UNL     1      14.450  -5.029  10.124  1.00  0.00     0.000 C 
BRANCH   2   3
ATOM      3  C   UNL     1      15.748  -4.836  10.927  1.00  0.00     0.000 C 
BRANCH   3   4
ATOM      4  C   UNL     1      16.764  -5.965  10.688  1.00  0.00     0.000 C 
BRANCH   4   5
ATOM      5  C   UNL     1      17.748  -6.138  11.857  1.00  0.00     0.000 C 
BRANCH   5   6
ATOM      6  C   UNL     1      18.090  -4.787  12.494  1.00  0.00     0.000 C 
BRANCH   6   7
ATOM      7  C   UNL     1      19.459  -4.840  13.187  1.00  0.00     0.000 C 
BRANCH   7   8
ATOM      8  C   UNL     1      19.388  -4.452  14.672  1.00  0.00     0.000 C 
BRANCH   8   9
ATOM      9  C   UNL     1      18.942  -2.996  14.882  1.00  0.00     0.000 C 
BRANCH   9  10
ATOM     10  C   UNL     1      17.709  -2.925  15.792  1.00  0.00     0.006 C 
BRANCH  10  11
ATOM     11  C   UNL     1      17.826  -3.915  16.954  1.00  0.00     0.053 C 
BRANCH  11  12
ATOM     12  C   UNL     1      17.670  -3.209  18.263  1.00  0.00     0.041 C 
ATOM     13  O   UNL     1      16.551  -2.744  18.602  1.00  0.00    -0.550 OA
ATOM     14  O   UNL     1      18.752  -3.104  19.129  1.00  0.00    -0.550 OA
ENDBRANCH  11  12
ENDBRANCH  10  11
ENDBRANCH   9  10
ENDBRANCH   8   9
ENDBRANCH   7   8
ENDBRANCH   6   7
ENDBRANCH   5   6
ENDBRANCH   4   5
ENDBRANCH   3   4
ENDBRANCH   2   3
ENDBRANCH   1   2
BRANCH   1  15
ATOM     15  C   UNL     1      13.159  -5.564  12.267  1.00  0.00     0.000 C 
BRANCH  15  16
ATOM     16  C   UNL     1      13.458  -6.712  13.238  1.00  0.00     0.000 C 
BRANCH  16  17
ATOM     17  C   UNL     1      14.667  -6.385  14.124  1.00  0.00     0.000 C 
BRANCH  17  18
ATOM     18  C   UNL     1      14.765  -4.876  14.381  1.00  0.00    -0.000 C 
BRANCH  18  19
ATOM     19  C   UNL     1      14.400  -4.541  15.835  1.00  0.00    -0.000 C 
BRANCH  19  20
ATOM     20  C   UNL     1      13.405  -3.373  15.946  1.00  0.00    -0.000 C 
BRANCH  20  21
ATOM     21  C   UNL     1      12.407  -3.336  14.775  1.00  0.00    -0.000 C 
BRANCH  21  22
ATOM     22  C   UNL     1      12.368  -1.973  14.059  1.00  0.00    -0.000 C 
BRANCH  22  23
ATOM     23  C   UNL     1      12.927  -1.967  12.624  1.00  0.00    -0.000 C 
BRANCH  23  24
ATOM     24  C   UNL     1      14.170  -1.073  12.468  1.00  0.00    -0.000 C 
BRANCH  24  25
ATOM     25  C   UNL     1      15.463  -1.779  12.910  1.00  0.00    -0.003 C 
ATOM     26  C   UNL     1      16.676  -0.849  12.919  1.00  0.00     0.004 C 
ENDBRANCH  24  25
ENDBRANCH  23  24
ENDBRANCH  22  23
ENDBRANCH  21  22
ENDBRANCH  20  21
ENDBRANCH  19  20
ENDBRANCH  18  19
ENDBRANCH  17  18
ENDBRANCH  16  17
ENDBRANCH  15  16
ENDBRANCH   1  15
TORSDOF 22
ENDMDL
MODEL 7
REMARK VINA RESULT:    -5.863      2.367      5.951
REMARK INTER + INTRA:         -17.654
REMARK INTER:                 -13.526
REMARK INTRA:                  -4.128
REMARK UNBOUND:                -4.251
REMARK SMILES CCCCCCCCCCCCCCCCCCCCCCCC(=O)[O-]
REMARK SMILES IDX 13 1 14 2 15 3 16 4 17 5 18 6 19 7 20 8 21 9 22 10 23 11
REMARK SMILES IDX 24 12 25 13 26 14 12 15 11 16 10 17 9 18 8 19 7 20 6 21 5 22
REMARK SMILES IDX 4 23 3 24 2 25 1 26
REMARK H PARENT
REMARK Flexibility Score: inf
ROOT
ATOM      1  C   UNL     1      16.807  -2.184  13.111  1.00  0.00     0.000 C 
ENDROOT
BRANCH   1   2
ATOM      2  C   UNL     1      18.254  -2.206  13.628  1.00  0.00     0.000 C 
BRANCH   2   3
ATOM      3  C   UNL     1      19.164  -3.133  12.803  1.00  0.00     0.000 C 
BRANCH   3   4
ATOM      4  C   UNL     1      19.364  -4.506  13.465  1.00  0.00     0.000 C 
BRANCH   4   5
ATOM      5  C   UNL     1      19.175  -5.674  12.482  1.00  0.00     0.000 C 
BRANCH   5   6
ATOM      6  C   UNL     1      17.850  -5.546  11.724  1.00  0.00     0.000 C 
BRANCH   6   7
ATOM      7  C   UNL     1      16.752  -6.384  12.397  1.00  0.00     0.000 C 
BRANCH   7   8
ATOM      8  C   UNL     1      15.715  -5.521  13.134  1.00  0.00     0.000 C 
BRANCH   8   9
ATOM      9  C   UNL     1      14.432  -6.297  13.471  1.00  0.00     0.000 C 
BRANCH   9  10
ATOM     10  C   UNL     1      13.667  -6.673  12.196  1.00  0.00     0.006 C 
BRANCH  10  11
ATOM     11  C   UNL     1      13.175  -5.422  11.461  1.00  0.00     0.053 C 
BRANCH  11  12
ATOM     12  C   UNL     1      13.522  -5.496  10.009  1.00  0.00     0.041 C 
ATOM     13  O   UNL     1      12.621  -5.690   9.151  1.00  0.00    -0.550 OA
ATOM     14  O   UNL     1      14.836  -5.305   9.597  1.00  0.00    -0.550 OA
ENDBRANCH  11  12
ENDBRANCH  10  11
ENDBRANCH   9  10
ENDBRANCH   8   9
ENDBRANCH   7   8
ENDBRANCH   6   7
ENDBRANCH   5   6
ENDBRANCH   4   5
ENDBRANCH   3   4
ENDBRANCH   2   3
ENDBRANCH   1   2
BRANCH   1  15
ATOM     15  C   UNL     1      16.265  -0.758  12.928  1.00  0.00     0.000 C 
BRANCH  15  16
ATOM     16  C   UNL     1      14.808  -0.783  12.450  1.00  0.00     0.000 C 
BRANCH  16  17
ATOM     17  C   UNL     1      14.123  -2.099  12.836  1.00  0.00     0.000 C 
BRANCH  17  18
ATOM     18  C   UNL     1      12.717  -1.842  13.393  1.00  0.00    -0.000 C 
BRANCH  18  19
ATOM     19  C   UNL     1      12.496  -2.613  14.703  1.00  0.00    -0.000 C 
BRANCH  19  20
ATOM     20  C   UNL     1      13.733  -3.415  15.140  1.00  0.00    -0.000 C 
BRANCH  20  21
ATOM     21  C   UNL     1      13.757  -3.685  16.655  1.00  0.00    -0.000 C 
BRANCH  21  22
ATOM     22  C   UNL     1      14.880  -2.928  17.385  1.00  0.00    -0.000 C 
BRANCH  22  23
ATOM     23  C   UNL     1      16.231  -2.878  16.646  1.00  0.00    -0.000 C 
BRANCH  23  24
ATOM     24  C   UNL     1      17.293  -3.798  17.273  1.00  0.00    -0.000 C 
BRANCH  24  25
ATOM     25  C   UNL     1      17.724  -4.931  16.328  1.00  0.00    -0.003 C 
ATOM     26  C   UNL     1      16.794  -6.143  16.389  1.00  0.00     0.004 C 
ENDBRANCH  24  25
ENDBRANCH  23  24
ENDBRANCH  22  23
ENDBRANCH  21  22
ENDBRANCH  20  21
ENDBRANCH  19  20
ENDBRANCH  18  19
ENDBRANCH  17  18
ENDBRANCH  16  17
ENDBRANCH  15  16
ENDBRANCH   1  15
TORSDOF 22
ENDMDL
MODEL 8
REMARK VINA RESULT:    -5.858      1.689      5.004
REMARK INTER + INTRA:         -17.643
REMARK INTER:                 -13.780
REMARK INTRA:                  -3.863
REMARK UNBOUND:                -4.251
REMARK SMILES CCCCCCCCCCCCCCCCCCCCCCCC(=O)[O-]
REMARK SMILES IDX 13 1 14 2 15 3 16 4 17 5 18 6 19 7 20 8 21 9 22 10 23 11
REMARK SMILES IDX 24 12 25 13 26 14 12 15 11 16 10 17 9 18 8 19 7 20 6 21 5 22
REMARK SMILES IDX 4 23 3 24 2 25 1 26
REMARK H PARENT
REMARK Flexibility Score: inf
ROOT
ATOM      1  C   UNL     1      16.997  -5.976  11.665  1.00  0.00     0.000 C 
ENDROOT
BRANCH   1   2
ATOM      2  C   UNL     1      15.928  -5.130  10.954  1.00  0.00     0.000 C 
BRANCH   2   3
ATOM      3  C   UNL     1      15.629  -5.630   9.530  1.00  0.00     0.000 C 
BRANCH   3   4
ATOM      4  C   UNL     1      14.122  -5.733   9.244  1.00  0.00     0.000 C 
BRANCH   4   5
ATOM      5  C   UNL     1      13.259  -5.437  10.483  1.00  0.00     0.000 C 
BRANCH   5   6
ATOM      6  C   UNL     1      12.056  -4.561  10.119  1.00  0.00     0.000 C 
BRANCH   6   7
ATOM      7  C   UNL     1      11.551  -3.789  11.347  1.00  0.00     0.000 C 
BRANCH   7   8
ATOM      8  C   UNL     1      12.254  -4.215  12.647  1.00  0.00     0.000 C 
BRANCH   8   9
ATOM      9  C   UNL     1      12.245  -3.109  13.714  1.00  0.00     0.000 C 
BRANCH   9  10
ATOM     10  C   UNL     1      12.960  -1.850  13.208  1.00  0.00     0.006 C 
BRANCH  10  11
ATOM     11  C   UNL     1      14.480  -2.042  13.211  1.00  0.00     0.053 C 
BRANCH  11  12
ATOM     12  C   UNL     1      15.146  -0.967  12.414  1.00  0.00     0.041 C 
ATOM     13  O   UNL     1      16.398  -0.841  12.444  1.00  0.00    -0.550 OA
ATOM     14  O   UNL     1      14.389  -0.132  11.602  1.00  0.00    -0.550 OA
ENDBRANCH  11  12
ENDBRANCH  10  11
ENDBRANCH   9  10
ENDBRANCH   8   9
ENDBRANCH   7   8
ENDBRANCH   6   7
ENDBRANCH   5   6
ENDBRANCH   4   5
ENDBRANCH   3   4
ENDBRANCH   2   3
ENDBRANCH   1   2
BRANCH   1  15
ATOM     15  C   UNL     1      16.446  -6.715  12.894  1.00  0.00     0.000 C 
BRANCH  15  16
ATOM     16  C   UNL     1      15.332  -5.905  13.567  1.00  0.00     0.000 C 
BRANCH  16  17
ATOM     17  C   UNL     1      14.723  -6.676  14.744  1.00  0.00     0.000 C 
BRANCH  17  18
ATOM     18  C   UNL     1      14.506  -5.754  15.950  1.00  0.00    -0.000 C 
BRANCH  18  19
ATOM     19  C   UNL     1      15.167  -4.386  15.722  1.00  0.00    -0.000 C 
BRANCH  19  20
ATOM     20  C   UNL     1      14.915  -3.402  16.877  1.00  0.00    -0.000 C 
BRANCH  20  21
ATOM     21  C   UNL     1      16.220  -2.884  17.506  1.00  0.00    -0.000 C 
BRANCH  21  22
ATOM     22  C   UNL     1      17.429  -3.794  17.222  1.00  0.00    -0.000 C 
BRANCH  22  23
ATOM     23  C   UNL     1      18.738  -3.062  16.873  1.00  0.00    -0.000 C 
BRANCH  23  24
ATOM     24  C   UNL     1      19.358  -3.540  15.548  1.00  0.00    -0.000 C 
BRANCH  24  25
ATOM     25  C   UNL     1      18.357  -3.504  14.382  1.00  0.00    -0.003 C 
ATOM     26  C   UNL     1      19.014  -3.169  13.043  1.00  0.00     0.004 C 
ENDBRANCH  24  25
ENDBRANCH  23  24
ENDBRANCH  22  23
ENDBRANCH  21  22
ENDBRANCH  20  21
ENDBRANCH  19  20
ENDBRANCH  18  19
ENDBRANCH  17  18
ENDBRANCH  16  17
ENDBRANCH  15  16
ENDBRANCH   1  15
TORSDOF 22
ENDMDL
MODEL 9
REMARK VINA RESULT:    -5.839      1.654      4.420
REMARK INTER + INTRA:         -17.599
REMARK INTER:                 -13.502
REMARK INTRA:                  -4.098
REMARK UNBOUND:                -4.251
REMARK SMILES CCCCCCCCCCCCCCCCCCCCCCCC(=O)[O-]
REMARK SMILES IDX 13 1 14 2 15 3 16 4 17 5 18 6 19 7 20 8 21 9 22 10 23 11
REMARK SMILES IDX 24 12 25 13 26 14 12 15 11 16 10 17 9 18 8 19 7 20 6 21 5 22
REMARK SMILES IDX 4 23 3 24 2 25 1 26
REMARK H PARENT
REMARK Flexibility Score: inf
ROOT
ATOM      1  C   UNL     1      17.716  -4.055  13.066  1.00  0.00     0.000 C 
ENDROOT
BRANCH   1   2
ATOM      2  C   UNL     1      18.303  -5.324  12.426  1.00  0.00     0.000 C 
BRANCH   2   3
ATOM      3  C   UNL     1      17.288  -6.060  11.534  1.00  0.00     0.000 C 
BRANCH   3   4
ATOM      4  C   UNL     1      16.001  -5.250  11.310  1.00  0.00     0.000 C 
BRANCH   4   5
ATOM      5  C   UNL     1      15.492  -5.327   9.861  1.00  0.00     0.000 C 
BRANCH   5   6
ATOM      6  C   UNL     1      13.981  -5.573   9.821  1.00  0.00     0.000 C 
BRANCH   6   7
ATOM      7  C   UNL     1      13.396  -5.611  11.241  1.00  0.00     0.000 C 
BRANCH   7   8
ATOM      8  C   UNL     1      12.425  -4.451  11.514  1.00  0.00     0.000 C 
BRANCH   8   9
ATOM      9  C   UNL     1      12.519  -3.928  12.957  1.00  0.00     0.000 C 
BRANCH   9  10
ATOM     10  C   UNL     1      12.936  -2.453  12.980  1.00  0.00     0.006 C 
BRANCH  10  11
ATOM     11  C   UNL     1      14.456  -2.312  13.108  1.00  0.00     0.053 C 
BRANCH  11  12
ATOM     12  C   UNL     1      14.924  -1.055  12.449  1.00  0.00     0.041 C 
ATOM     13  O   UNL     1      14.133  -0.378  11.743  1.00  0.00    -0.550 OA
ATOM     14  O   UNL     1      16.224  -0.606  12.651  1.00  0.00    -0.550 OA
ENDBRANCH  11  12
ENDBRANCH  10  11
ENDBRANCH   9  10
ENDBRANCH   8   9
ENDBRANCH   7   8
ENDBRANCH   6   7
ENDBRANCH   5   6
ENDBRANCH   4   5
ENDBRANCH   3   4
ENDBRANCH   2   3
ENDBRANCH   1   2
BRANCH   1  15
ATOM     15  C   UNL     1      18.748  -2.924  13.191  1.00  0.00     0.000 C 
BRANCH  15  16
ATOM     16  C   UNL     1      18.785  -2.373  14.622  1.00  0.00     0.000 C 
BRANCH  16  17
ATOM     17  C   UNL     1      19.480  -3.354  15.573  1.00  0.00     0.000 C 
BRANCH  17  18
ATOM     18  C   UNL     1      19.136  -3.039  17.033  1.00  0.00    -0.000 C 
BRANCH  18  19
ATOM     19  C   UNL     1      17.838  -3.743  17.457  1.00  0.00    -0.000 C 
BRANCH  19  20
ATOM     20  C   UNL     1      16.687  -2.759  17.729  1.00  0.00    -0.000 C 
BRANCH  20  21
ATOM     21  C   UNL     1      15.666  -2.715  16.579  1.00  0.00    -0.000 C 
BRANCH  21  22
ATOM     22  C   UNL     1      14.346  -3.434  16.917  1.00  0.00    -0.000 C 
BRANCH  22  23
ATOM     23  C   UNL     1      14.119  -4.772  16.187  1.00  0.00    -0.000 C 
BRANCH  23  24
ATOM     24  C   UNL     1      15.325  -5.201  15.333  1.00  0.00    -0.000 C 
BRANCH  24  25
ATOM     25  C   UNL     1      15.542  -6.723  15.343  1.00  0.00    -0.003 C 
ATOM     26  C   UNL     1      15.035  -7.406  14.073  1.00  0.00     0.004 C 
ENDBRANCH  24  25
ENDBRANCH  23  24
ENDBRANCH  22  23
ENDBRANCH  21  22
ENDBRANCH  20  21
ENDBRANCH  19  20
ENDBRANCH  18  19
ENDBRANCH  17  18
ENDBRANCH  16  17
ENDBRANCH  15  16
ENDBRANCH   1  15
TORSDOF 22
ENDMDL
