MODEL 1
REMARK VINA RESULT:    -4.619      0.000      0.000
REMARK INTER + INTRA:         -10.585
REMARK INTER:                  -8.670
REMARK INTRA:                  -1.915
REMARK UNBOUND:                -1.915
REMARK SMILES CCCCCCCCC=CCCCCCCCC(=O)[O-]
REMARK SMILES IDX 10 1 9 2 11 3 12 4 13 5 14 6 15 7 16 8 17 9 18 10 19 11
REMARK SMILES IDX 20 12 8 13 7 14 6 15 5 16 4 17 3 18 2 19 1 20
REMARK H PARENT
REMARK Flexibility Score: inf
ROOT
ATOM      1  C   UNL     1      69.948 -37.962   8.091  1.00  0.00    -0.031 C 
ATOM      2  C   UNL     1      70.205 -36.831   7.406  1.00  0.00    -0.031 C 
ENDROOT
BRANCH   1   3
ATOM      3  C   UNL     1      68.891 -38.094   9.157  1.00  0.00     0.027 C 
BRANCH   3   4
ATOM      4  C   UNL     1      69.509 -37.967  10.554  1.00  0.00     0.004 C 
BRANCH   4   5
ATOM      5  C   UNL     1      70.690 -38.930  10.724  1.00  0.00     0.000 C 
BRANCH   5   6
ATOM      6  C   UNL     1      71.776 -38.316  11.619  1.00  0.00     0.000 C 
BRANCH   6   7
ATOM      7  C   UNL     1      72.540 -37.168  10.933  1.00  0.00     0.000 C 
BRANCH   7   8
ATOM      8  C   UNL     1      73.988 -37.501  10.530  1.00  0.00     0.006 C 
BRANCH   8   9
ATOM      9  C   UNL     1      74.874 -37.868  11.727  1.00  0.00     0.053 C 
BRANCH   9  10
ATOM     10  C   UNL     1      76.245 -37.295  11.557  1.00  0.00     0.041 C 
ATOM     11  O   UNL     1      76.400 -36.181  10.989  1.00  0.00    -0.550 OA
ATOM     12  O   UNL     1      77.356 -38.012  11.981  1.00  0.00    -0.550 OA
ENDBRANCH   9  10
ENDBRANCH   8   9
ENDBRANCH   7   8
ENDBRANCH   6   7
ENDBRANCH   5   6
ENDBRANCH   4   5
ENDBRANCH   3   4
ENDBRANCH   1   3
BRANCH   2  13
ATOM     13  C   UNL     1      69.533 -35.507   7.663  1.00  0.00     0.027 C 
BRANCH  13  14
ATOM     14  C   UNL     1      69.686 -34.576   6.453  1.00  0.00     0.004 C 
BRANCH  14  15
ATOM     15  C   UNL     1      70.358 -33.239   6.808  1.00  0.00     0.000 C 
BRANCH  15  16
ATOM     16  C   UNL     1      71.607 -32.930   5.955  1.00  0.00     0.000 C 
BRANCH  16  17
ATOM     17  C   UNL     1      72.777 -33.879   6.273  1.00  0.00    -0.000 C 
BRANCH  17  18
ATOM     18  C   UNL     1      73.185 -34.740   5.067  1.00  0.00    -0.000 C 
BRANCH  18  19
ATOM     19  C   UNL     1      73.483 -36.196   5.453  1.00  0.00    -0.003 C 
ATOM     20  C   UNL     1      73.784 -36.318   6.943  1.00  0.00     0.004 C 
ENDBRANCH  18  19
ENDBRANCH  17  18
ENDBRANCH  16  17
ENDBRANCH  15  16
ENDBRANCH  14  15
ENDBRANCH  13  14
ENDBRANCH   2  13
TORSDOF 15
ENDMDL
MODEL 2
REMARK VINA RESULT:    -4.549      1.303      2.114
REMARK INTER + INTRA:         -10.452
REMARK INTER:                  -8.449
REMARK INTRA:                  -2.004
REMARK UNBOUND:                -1.915
REMARK SMILES CCCCCCCCC=CCCCCCCCC(=O)[O-]
REMARK SMILES IDX 10 1 9 2 11 3 12 4 13 5 14 6 15 7 16 8 17 9 18 10 19 11
REMARK SMILES IDX 20 12 8 13 7 14 6 15 5 16 4 17 3 18 2 19 1 20
REMARK H PARENT
REMARK Flexibility Score: inf
ROOT
ATOM      1  C   UNL     1      67.943 -37.779   9.444  1.00  0.00    -0.031 C 
ATOM      2  C   UNL     1      68.771 -36.825   8.977  1.00  0.00    -0.031 C 
ENDROOT
BRANCH   1   3
ATOM      3  C   UNL     1      67.894 -39.194   8.928  1.00  0.00     0.027 C 
BRANCH   3   4
ATOM      4  C   UNL     1      68.487 -40.167   9.953  1.00  0.00     0.004 C 
BRANCH   4   5
ATOM      5  C   UNL     1      70.018 -40.188   9.871  1.00  0.00     0.000 C 
BRANCH   5   6
ATOM      6  C   UNL     1      70.647 -39.996  11.258  1.00  0.00     0.000 C 
BRANCH   6   7
ATOM      7  C   UNL     1      70.917 -38.517  11.594  1.00  0.00     0.000 C 
BRANCH   7   8
ATOM      8  C   UNL     1      72.405 -38.126  11.653  1.00  0.00     0.006 C 
BRANCH   8   9
ATOM      9  C   UNL     1      72.828 -37.203  10.504  1.00  0.00     0.053 C 
BRANCH   9  10
ATOM     10  C   UNL     1      74.313 -37.234  10.328  1.00  0.00     0.041 C 
ATOM     11  O   UNL     1      74.817 -37.134   9.178  1.00  0.00    -0.550 OA
ATOM     12  O   UNL     1      75.140 -37.424  11.428  1.00  0.00    -0.550 OA
ENDBRANCH   9  10
ENDBRANCH   8   9
ENDBRANCH   7   8
ENDBRANCH   6   7
ENDBRANCH   5   6
ENDBRANCH   4   5
ENDBRANCH   3   4
ENDBRANCH   1   3
BRANCH   2  13
ATOM     13  C   UNL     1      69.712 -37.006   7.814  1.00  0.00     0.027 C 
BRANCH  13  14
ATOM     14  C   UNL     1      69.463 -35.939   6.741  1.00  0.00     0.004 C 
BRANCH  14  15
ATOM     15  C   UNL     1      68.889 -34.633   7.317  1.00  0.00     0.000 C 
BRANCH  15  16
ATOM     16  C   UNL     1      69.734 -33.386   6.982  1.00  0.00     0.000 C 
BRANCH  16  17
ATOM     17  C   UNL     1      70.560 -33.571   5.697  1.00  0.00    -0.000 C 
BRANCH  17  18
ATOM     18  C   UNL     1      71.977 -32.988   5.814  1.00  0.00    -0.000 C 
BRANCH  18  19
ATOM     19  C   UNL     1      73.072 -34.039   5.580  1.00  0.00    -0.003 C 
ATOM     20  C   UNL     1      73.041 -35.114   6.662  1.00  0.00     0.004 C 
ENDBRANCH  18  19
ENDBRANCH  17  18
ENDBRANCH  16  17
ENDBRANCH  15  16
ENDBRANCH  14  15
ENDBRANCH  13  14
ENDBRANCH   2  13
TORSDOF 15
ENDMDL
MODEL 3
REMARK VINA RESULT:    -4.429      1.217      4.999
REMARK INTER + INTRA:         -10.227
REMARK INTER:                  -8.303
REMARK INTRA:                  -1.924
REMARK UNBOUND:                -1.915
REMARK SMILES CCCCCCCCC=CCCCCCCCC(=O)[O-]
REMARK SMILES IDX 10 1 9 2 11 3 12 4 13 5 14 6 15 7 16 8 17 9 18 10 19 11
REMARK SMILES IDX 20 12 8 13 7 14 6 15 5 16 4 17 3 18 2 19 1 20
REMARK H PARENT
REMARK Flexibility Score: inf
ROOT
ATOM      1  C   UNL     1      69.846 -33.306   6.781  1.00  0.00    -0.031 C 
ATOM      2  C   UNL     1      69.191 -34.370   7.285  1.00  0.00    -0.031 C 
ENDROOT
BRANCH   1   3
ATOM      3  C   UNL     1      70.669 -33.330   5.519  1.00  0.00     0.027 C 
BRANCH   3   4
ATOM      4  C   UNL     1      72.165 -33.234   5.843  1.00  0.00     0.004 C 
BRANCH   4   5
ATOM      5  C   UNL     1      72.772 -34.625   6.059  1.00  0.00     0.000 C 
BRANCH   5   6
ATOM      6  C   UNL     1      72.738 -35.016   7.544  1.00  0.00     0.000 C 
BRANCH   6   7
ATOM      7  C   UNL     1      73.308 -36.423   7.807  1.00  0.00     0.000 C 
BRANCH   7   8
ATOM      8  C   UNL     1      73.650 -36.720   9.278  1.00  0.00     0.006 C 
BRANCH   8   9
ATOM      9  C   UNL     1      75.142 -36.998   9.501  1.00  0.00     0.053 C 
BRANCH   9  10
ATOM     10  C   UNL     1      75.429 -37.165  10.960  1.00  0.00     0.041 C 
ATOM     11  O   UNL     1      76.326 -36.473  11.512  1.00  0.00    -0.550 OA
ATOM     12  O   UNL     1      74.740 -38.117  11.701  1.00  0.00    -0.550 OA
ENDBRANCH   9  10
ENDBRANCH   8   9
ENDBRANCH   7   8
ENDBRANCH   6   7
ENDBRANCH   5   6
ENDBRANCH   4   5
ENDBRANCH   3   4
ENDBRANCH   1   3
BRANCH   2  13
ATOM     13  C   UNL     1      69.252 -35.761   6.709  1.00  0.00     0.027 C 
BRANCH  13  14
ATOM     14  C   UNL     1      69.451 -36.801   7.820  1.00  0.00     0.004 C 
BRANCH  14  15
ATOM     15  C   UNL     1      69.935 -38.160   7.288  1.00  0.00     0.000 C 
BRANCH  15  16
ATOM     16  C   UNL     1      69.528 -39.353   8.179  1.00  0.00     0.000 C 
BRANCH  16  17
ATOM     17  C   UNL     1      69.432 -38.963   9.665  1.00  0.00    -0.000 C 
BRANCH  17  18
ATOM     18  C   UNL     1      70.221 -39.913  10.579  1.00  0.00    -0.000 C 
BRANCH  18  19
ATOM     19  C   UNL     1      71.358 -39.204  11.329  1.00  0.00    -0.003 C 
ATOM     20  C   UNL     1      70.969 -37.774  11.691  1.00  0.00     0.004 C 
ENDBRANCH  18  19
ENDBRANCH  17  18
ENDBRANCH  16  17
ENDBRANCH  15  16
ENDBRANCH  14  15
ENDBRANCH  13  14
ENDBRANCH   2  13
TORSDOF 15
ENDMDL
MODEL 4
REMARK VINA RESULT:    -4.411      2.108      5.204
REMARK INTER + INTRA:         -10.194
REMARK INTER:                  -8.510
REMARK INTRA:                  -1.685
REMARK UNBOUND:                -1.915
REMARK SMILES CCCCCCCCC=CCCCCCCCC(=O)[O-]
REMARK SMILES IDX 10 1 9 2 11 3 12 4 13 5 14 6 15 7 16 8 17 9 18 10 19 11
REMARK SMILES IDX 20 12 8 13 7 14 6 15 5 16 4 17 3 18 2 19 1 20
REMARK H PARENT
REMARK Flexibility Score: inf
ROOT
ATOM      1  C   UNL     1      71.389 -33.090   7.094  1.00  0.00    -0.031 C 
ATOM      2  C   UNL     1      72.469 -33.764   6.654  1.00  0.00    -0.031 C 
ENDROOT
BRANCH   1   3
ATOM      3  C   UNL     1      70.006 -33.217   6.508  1.00  0.00     0.027 C 
BRANCH   3   4
ATOM      4  C   UNL     1      69.140 -34.155   7.355  1.00  0.00     0.004 C 
BRANCH   4   5
ATOM      5  C   UNL     1      69.204 -35.593   6.827  1.00  0.00     0.000 C 
BRANCH   5   6
ATOM      6  C   UNL     1      69.506 -36.582   7.961  1.00  0.00     0.000 C 
BRANCH   6   7
ATOM      7  C   UNL     1      68.251 -36.980   8.760  1.00  0.00     0.000 C 
BRANCH   7   8
ATOM      8  C   UNL     1      68.520 -37.848  10.003  1.00  0.00     0.006 C 
BRANCH   8   9
ATOM      9  C   UNL     1      69.600 -38.911   9.768  1.00  0.00     0.053 C 
BRANCH   9  10
ATOM     10  C   UNL     1      70.685 -38.788  10.791  1.00  0.00     0.041 C 
ATOM     11  O   UNL     1      71.017 -39.785  11.486  1.00  0.00    -0.550 OA
ATOM     12  O   UNL     1      71.296 -37.560  11.012  1.00  0.00    -0.550 OA
ENDBRANCH   9  10
ENDBRANCH   8   9
ENDBRANCH   7   8
ENDBRANCH   6   7
ENDBRANCH   5   6
ENDBRANCH   4   5
ENDBRANCH   3   4
ENDBRANCH   1   3
BRANCH   2  13
ATOM     13  C   UNL     1      72.474 -34.681   5.458  1.00  0.00     0.027 C 
BRANCH  13  14
ATOM     14  C   UNL     1      72.968 -36.080   5.847  1.00  0.00     0.004 C 
BRANCH  14  15
ATOM     15  C   UNL     1      73.447 -36.161   7.306  1.00  0.00     0.000 C 
BRANCH  15  16
ATOM     16  C   UNL     1      74.841 -36.807   7.464  1.00  0.00     0.000 C 
BRANCH  16  17
ATOM     17  C   UNL     1      75.384 -36.671   8.898  1.00  0.00    -0.000 C 
BRANCH  17  18
ATOM     18  C   UNL     1      74.484 -37.353   9.940  1.00  0.00    -0.000 C 
BRANCH  18  19
ATOM     19  C   UNL     1      75.084 -37.319  11.353  1.00  0.00    -0.003 C 
ATOM     20  C   UNL     1      76.463 -36.667  11.349  1.00  0.00     0.004 C 
ENDBRANCH  18  19
ENDBRANCH  17  18
ENDBRANCH  16  17
ENDBRANCH  15  16
ENDBRANCH  14  15
ENDBRANCH  13  14
ENDBRANCH   2  13
TORSDOF 15
ENDMDL
MODEL 5
REMARK VINA RESULT:    -4.340     11.218     13.331
REMARK INTER + INTRA:         -10.060
REMARK INTER:                  -7.752
REMARK INTRA:                  -2.308
REMARK UNBOUND:                -1.915
REMARK SMILES CCCCCCCCC=CCCCCCCCC(=O)[O-]
REMARK SMILES IDX 10 1 9 2 11 3 12 4 13 5 14 6 15 7 16 8 17 9 18 10 19 11
REMARK SMILES IDX 20 12 8 13 7 14 6 15 5 16 4 17 3 18 2 19 1 20
REMARK H PARENT
REMARK Flexibility Score: inf
ROOT
ATOM      1  C   UNL     1      62.727 -30.897  13.914  1.00  0.00    -0.031 C 
ATOM      2  C   UNL     1      63.252 -29.659  13.837  1.00  0.00    -0.031 C 
ENDROOT
BRANCH   1   3
ATOM      3  C   UNL     1      61.259 -31.192  14.085  1.00  0.00     0.027 C 
BRANCH   3   4
ATOM      4  C   UNL     1      61.033 -32.178  15.237  1.00  0.00     0.004 C 
BRANCH   4   5
ATOM      5  C   UNL     1      62.337 -32.887  15.620  1.00  0.00     0.000 C 
BRANCH   5   6
ATOM      6  C   UNL     1      62.130 -34.405  15.717  1.00  0.00     0.000 C 
BRANCH   6   7
ATOM      7  C   UNL     1      61.845 -35.060  14.352  1.00  0.00     0.000 C 
BRANCH   7   8
ATOM      8  C   UNL     1      62.973 -34.915  13.314  1.00  0.00     0.006 C 
BRANCH   8   9
ATOM      9  C   UNL     1      64.163 -35.844  13.589  1.00  0.00     0.053 C 
BRANCH   9  10
ATOM     10  C   UNL     1      65.399 -35.314  12.935  1.00  0.00     0.041 C 
ATOM     11  O   UNL     1      65.317 -34.398  12.073  1.00  0.00    -0.550 OA
ATOM     12  O   UNL     1      66.638 -35.863  13.240  1.00  0.00    -0.550 OA
ENDBRANCH   9  10
ENDBRANCH   8   9
ENDBRANCH   7   8
ENDBRANCH   6   7
ENDBRANCH   5   6
ENDBRANCH   4   5
ENDBRANCH   3   4
ENDBRANCH   1   3
BRANCH   2  13
ATOM     13  C   UNL     1      62.463 -28.386  13.995  1.00  0.00     0.027 C 
BRANCH  13  14
ATOM     14  C   UNL     1      62.497 -27.901  15.450  1.00  0.00     0.004 C 
BRANCH  14  15
ATOM     15  C   UNL     1      61.132 -28.009  16.149  1.00  0.00     0.000 C 
BRANCH  15  16
ATOM     16  C   UNL     1      61.122 -28.992  17.339  1.00  0.00     0.000 C 
BRANCH  16  17
ATOM     17  C   UNL     1      62.493 -29.658  17.554  1.00  0.00    -0.000 C 
BRANCH  17  18
ATOM     18  C   UNL     1      62.443 -30.799  18.582  1.00  0.00    -0.000 C 
BRANCH  18  19
ATOM     19  C   UNL     1      63.617 -30.759  19.570  1.00  0.00    -0.003 C 
ATOM     20  C   UNL     1      63.357 -29.759  20.692  1.00  0.00     0.004 C 
ENDBRANCH  18  19
ENDBRANCH  17  18
ENDBRANCH  16  17
ENDBRANCH  15  16
ENDBRANCH  14  15
ENDBRANCH  13  14
ENDBRANCH   2  13
TORSDOF 15
ENDMDL
MODEL 6
REMARK VINA RESULT:    -4.303      4.054      6.284
REMARK INTER + INTRA:          -9.990
REMARK INTER:                  -8.233
REMARK INTRA:                  -1.757
REMARK UNBOUND:                -1.915
REMARK SMILES CCCCCCCCC=CCCCCCCCC(=O)[O-]
REMARK SMILES IDX 10 1 9 2 11 3 12 4 13 5 14 6 15 7 16 8 17 9 18 10 19 11
REMARK SMILES IDX 20 12 8 13 7 14 6 15 5 16 4 17 3 18 2 19 1 20
REMARK H PARENT
REMARK Flexibility Score: inf
ROOT
ATOM      1  C   UNL     1      69.110 -34.153   7.435  1.00  0.00    -0.031 C 
ATOM      2  C   UNL     1      69.970 -33.256   6.913  1.00  0.00    -0.031 C 
ENDROOT
BRANCH   1   3
ATOM      3  C   UNL     1      69.121 -35.627   7.122  1.00  0.00     0.027 C 
BRANCH   3   4
ATOM      4  C   UNL     1      68.097 -36.373   7.984  1.00  0.00     0.004 C 
BRANCH   4   5
ATOM      5  C   UNL     1      68.766 -37.495   8.788  1.00  0.00     0.000 C 
BRANCH   5   6
ATOM      6  C   UNL     1      68.075 -37.687  10.145  1.00  0.00     0.000 C 
BRANCH   6   7
ATOM      7  C   UNL     1      66.759 -38.480  10.041  1.00  0.00     0.000 C 
BRANCH   7   8
ATOM      8  C   UNL     1      65.611 -37.954  10.923  1.00  0.00     0.006 C 
BRANCH   8   9
ATOM      9  C   UNL     1      65.788 -36.484  11.321  1.00  0.00     0.053 C 
BRANCH   9  10
ATOM     10  C   UNL     1      65.608 -36.317  12.797  1.00  0.00     0.041 C 
ATOM     11  O   UNL     1      66.445 -35.656  13.466  1.00  0.00    -0.550 OA
ATOM     12  O   UNL     1      64.542 -36.932  13.441  1.00  0.00    -0.550 OA
ENDBRANCH   9  10
ENDBRANCH   8   9
ENDBRANCH   7   8
ENDBRANCH   6   7
ENDBRANCH   5   6
ENDBRANCH   4   5
ENDBRANCH   3   4
ENDBRANCH   1   3
BRANCH   2  13
ATOM     13  C   UNL     1      71.014 -33.578   5.876  1.00  0.00     0.027 C 
BRANCH  13  14
ATOM     14  C   UNL     1      72.374 -33.841   6.536  1.00  0.00     0.004 C 
BRANCH  14  15
ATOM     15  C   UNL     1      73.009 -35.168   6.087  1.00  0.00     0.000 C 
BRANCH  15  16
ATOM     16  C   UNL     1      72.736 -36.342   7.052  1.00  0.00     0.000 C 
BRANCH  16  17
ATOM     17  C   UNL     1      72.840 -35.917   8.528  1.00  0.00    -0.000 C 
BRANCH  17  18
ATOM     18  C   UNL     1      71.995 -36.800   9.459  1.00  0.00    -0.000 C 
BRANCH  18  19
ATOM     19  C   UNL     1      72.730 -37.167  10.756  1.00  0.00    -0.003 C 
ATOM     20  C   UNL     1      71.959 -38.221  11.545  1.00  0.00     0.004 C 
ENDBRANCH  18  19
ENDBRANCH  17  18
ENDBRANCH  16  17
ENDBRANCH  15  16
ENDBRANCH  14  15
ENDBRANCH  13  14
ENDBRANCH   2  13
TORSDOF 15
ENDMDL
MODEL 7
REMARK VINA RESULT:    -4.288      3.632      7.120
REMARK INTER + INTRA:          -9.963
REMARK INTER:                  -8.633
REMARK INTRA:                  -1.331
REMARK UNBOUND:                -1.915
REMARK SMILES CCCCCCCCC=CCCCCCCCC(=O)[O-]
REMARK SMILES IDX 10 1 9 2 11 3 12 4 13 5 14 6 15 7 16 8 17 9 18 10 19 11
REMARK SMILES IDX 20 12 8 13 7 14 6 15 5 16 4 17 3 18 2 19 1 20
REMARK H PARENT
REMARK Flexibility Score: inf
ROOT
ATOM      1  C   UNL     1      72.191 -38.346  11.622  1.00  0.00    -0.031 C 
ATOM      2  C   UNL     1      70.979 -38.726  11.175  1.00  0.00    -0.031 C 
ENDROOT
BRANCH   1   3
ATOM      3  C   UNL     1      72.915 -37.103  11.172  1.00  0.00     0.027 C 
BRANCH   3   4
ATOM      4  C   UNL     1      74.322 -37.445  10.667  1.00  0.00     0.004 C 
BRANCH   4   5
ATOM      5  C   UNL     1      74.536 -36.928   9.240  1.00  0.00     0.000 C 
BRANCH   5   6
ATOM      6  C   UNL     1      73.237 -36.345   8.665  1.00  0.00     0.000 C 
BRANCH   6   7
ATOM      7  C   UNL     1      73.388 -35.863   7.210  1.00  0.00     0.000 C 
BRANCH   7   8
ATOM      8  C   UNL     1      72.290 -34.897   6.729  1.00  0.00     0.006 C 
BRANCH   8   9
ATOM      9  C   UNL     1      70.881 -35.335   7.147  1.00  0.00     0.053 C 
BRANCH   9  10
ATOM     10  C   UNL     1      69.896 -34.239   6.891  1.00  0.00     0.041 C 
ATOM     11  O   UNL     1      68.819 -34.190   7.543  1.00  0.00    -0.550 OA
ATOM     12  O   UNL     1      70.143 -33.299   5.898  1.00  0.00    -0.550 OA
ENDBRANCH   9  10
ENDBRANCH   8   9
ENDBRANCH   7   8
ENDBRANCH   6   7
ENDBRANCH   5   6
ENDBRANCH   4   5
ENDBRANCH   3   4
ENDBRANCH   1   3
BRANCH   2  13
ATOM     13  C   UNL     1      70.204 -38.012  10.098  1.00  0.00     0.027 C 
BRANCH  13  14
ATOM     14  C   UNL     1      68.724 -37.890  10.483  1.00  0.00     0.004 C 
BRANCH  14  15
ATOM     15  C   UNL     1      67.848 -37.364   9.334  1.00  0.00     0.000 C 
BRANCH  15  16
ATOM     16  C   UNL     1      66.542 -36.691   9.809  1.00  0.00     0.000 C 
BRANCH  16  17
ATOM     17  C   UNL     1      65.976 -37.352  11.078  1.00  0.00    -0.000 C 
BRANCH  17  18
ATOM     18  C   UNL     1      65.230 -36.358  11.982  1.00  0.00    -0.000 C 
BRANCH  18  19
ATOM     19  C   UNL     1      66.144 -35.714  13.034  1.00  0.00    -0.003 C 
ATOM     20  C   UNL     1      65.405 -35.509  14.353  1.00  0.00     0.004 C 
ENDBRANCH  18  19
ENDBRANCH  17  18
ENDBRANCH  16  17
ENDBRANCH  15  16
ENDBRANCH  14  15
ENDBRANCH  13  14
ENDBRANCH   2  13
TORSDOF 15
ENDMDL
MODEL 8
REMARK VINA RESULT:    -4.275      4.042      6.366
REMARK INTER + INTRA:          -9.939
REMARK INTER:                  -8.020
REMARK INTRA:                  -1.919
REMARK UNBOUND:                -1.915
REMARK SMILES CCCCCCCCC=CCCCCCCCC(=O)[O-]
REMARK SMILES IDX 10 1 9 2 11 3 12 4 13 5 14 6 15 7 16 8 17 9 18 10 19 11
REMARK SMILES IDX 20 12 8 13 7 14 6 15 5 16 4 17 3 18 2 19 1 20
REMARK H PARENT
REMARK Flexibility Score: inf
ROOT
ATOM      1  C   UNL     1      70.613 -40.089  10.958  1.00  0.00    -0.031 C 
ATOM      2  C   UNL     1      71.182 -38.950  11.398  1.00  0.00    -0.031 C 
ENDROOT
BRANCH   1   3
ATOM      3  C   UNL     1      69.667 -40.174   9.788  1.00  0.00     0.027 C 
BRANCH   3   4
ATOM      4  C   UNL     1      68.302 -40.714  10.230  1.00  0.00     0.004 C 
BRANCH   4   5
ATOM      5  C   UNL     1      67.161 -39.982   9.513  1.00  0.00     0.000 C 
BRANCH   5   6
ATOM      6  C   UNL     1      67.545 -38.527   9.211  1.00  0.00     0.000 C 
BRANCH   6   7
ATOM      7  C   UNL     1      67.274 -37.577  10.393  1.00  0.00     0.000 C 
BRANCH   7   8
ATOM      8  C   UNL     1      65.844 -37.011  10.457  1.00  0.00     0.006 C 
BRANCH   8   9
ATOM      9  C   UNL     1      65.311 -36.891  11.890  1.00  0.00     0.053 C 
BRANCH   9  10
ATOM     10  C   UNL     1      65.750 -35.598  12.503  1.00  0.00     0.041 C 
ATOM     11  O   UNL     1      66.493 -35.600  13.519  1.00  0.00    -0.550 OA
ATOM     12  O   UNL     1      65.298 -34.393  11.981  1.00  0.00    -0.550 OA
ENDBRANCH   9  10
ENDBRANCH   8   9
ENDBRANCH   7   8
ENDBRANCH   6   7
ENDBRANCH   5   6
ENDBRANCH   4   5
ENDBRANCH   3   4
ENDBRANCH   1   3
BRANCH   2  13
ATOM     13  C   UNL     1      70.892 -37.580  10.840  1.00  0.00     0.027 C 
BRANCH  13  14
ATOM     14  C   UNL     1      72.118 -37.021  10.106  1.00  0.00     0.004 C 
BRANCH  14  15
ATOM     15  C   UNL     1      71.768 -36.400   8.743  1.00  0.00     0.000 C 
BRANCH  15  16
ATOM     16  C   UNL     1      70.317 -36.676   8.292  1.00  0.00     0.000 C 
BRANCH  16  17
ATOM     17  C   UNL     1      69.929 -35.853   7.050  1.00  0.00    -0.000 C 
BRANCH  17  18
ATOM     18  C   UNL     1      69.094 -34.611   7.399  1.00  0.00    -0.000 C 
BRANCH  18  19
ATOM     19  C   UNL     1      69.831 -33.298   7.099  1.00  0.00    -0.003 C 
ATOM     20  C   UNL     1      70.552 -33.368   5.757  1.00  0.00     0.004 C 
ENDBRANCH  18  19
ENDBRANCH  17  18
ENDBRANCH  16  17
ENDBRANCH  15  16
ENDBRANCH  14  15
ENDBRANCH  13  14
ENDBRANCH   2  13
TORSDOF 15
ENDMDL
MODEL 9
REMARK VINA RESULT:    -4.244      2.647      6.278
REMARK INTER + INTRA:          -9.880
REMARK INTER:                  -7.733
REMARK INTRA:                  -2.148
REMARK UNBOUND:                -1.915
REMARK SMILES CCCCCCCCC=CCCCCCCCC(=O)[O-]
REMARK SMILES IDX 10 1 9 2 11 3 12 4 13 5 14 6 15 7 16 8 17 9 18 10 19 11
REMARK SMILES IDX 20 12 8 13 7 14 6 15 5 16 4 17 3 18 2 19 1 20
REMARK H PARENT
REMARK Flexibility Score: inf
ROOT
ATOM      1  C   UNL     1      69.482 -33.747   7.131  1.00  0.00    -0.031 C 
ATOM      2  C   UNL     1      68.741 -34.805   7.513  1.00  0.00    -0.031 C 
ENDROOT
BRANCH   1   3
ATOM      3  C   UNL     1      70.352 -33.713   5.901  1.00  0.00     0.027 C 
BRANCH   3   4
ATOM      4  C   UNL     1      71.708 -33.068   6.211  1.00  0.00     0.004 C 
BRANCH   4   5
ATOM      5  C   UNL     1      72.793 -34.133   6.405  1.00  0.00     0.000 C 
BRANCH   5   6
ATOM      6  C   UNL     1      72.401 -35.451   5.722  1.00  0.00     0.000 C 
BRANCH   6   7
ATOM      7  C   UNL     1      72.425 -36.655   6.682  1.00  0.00     0.000 C 
BRANCH   7   8
ATOM      8  C   UNL     1      72.720 -36.308   8.153  1.00  0.00     0.006 C 
BRANCH   8   9
ATOM      9  C   UNL     1      71.558 -36.649   9.093  1.00  0.00     0.053 C 
BRANCH   9  10
ATOM     10  C   UNL     1      72.073 -37.250  10.363  1.00  0.00     0.041 C 
ATOM     11  O   UNL     1      73.281 -37.102  10.688  1.00  0.00    -0.550 OA
ATOM     12  O   UNL     1      71.233 -38.014  11.162  1.00  0.00    -0.550 OA
ENDBRANCH   9  10
ENDBRANCH   8   9
ENDBRANCH   7   8
ENDBRANCH   6   7
ENDBRANCH   5   6
ENDBRANCH   4   5
ENDBRANCH   3   4
ENDBRANCH   1   3
BRANCH   2  13
ATOM     13  C   UNL     1      68.737 -36.140   6.814  1.00  0.00     0.027 C 
BRANCH  13  14
ATOM     14  C   UNL     1      67.628 -37.042   7.372  1.00  0.00     0.004 C 
BRANCH  14  15
ATOM     15  C   UNL     1      68.137 -38.028   8.436  1.00  0.00     0.000 C 
BRANCH  15  16
ATOM     16  C   UNL     1      67.916 -37.544   9.885  1.00  0.00     0.000 C 
BRANCH  16  17
ATOM     17  C   UNL     1      66.540 -36.879  10.072  1.00  0.00    -0.000 C 
BRANCH  17  18
ATOM     18  C   UNL     1      65.917 -37.182  11.443  1.00  0.00    -0.000 C 
BRANCH  18  19
ATOM     19  C   UNL     1      66.058 -36.013  12.429  1.00  0.00    -0.003 C 
ATOM     20  C   UNL     1      65.003 -36.091  13.528  1.00  0.00     0.004 C 
ENDBRANCH  18  19
ENDBRANCH  17  18
ENDBRANCH  16  17
ENDBRANCH  15  16
ENDBRANCH  14  15
ENDBRANCH  13  14
ENDBRANCH   2  13
TORSDOF 15
ENDMDL
