MODEL 1
REMARK VINA RESULT:    -6.208      0.000      0.000
REMARK INTER + INTRA:          -7.425
REMARK INTER:                  -7.297
REMARK INTRA:                  -0.128
REMARK UNBOUND:                -0.128
REMARK SMILES O=C([O-])C=Cc1ccc(O)c(O)c1
REMARK SMILES IDX 6 1 13 2 7 3 11 4 8 5 9 6 5 7 4 8 2 9 1 10 3 11 12 12 10 14
REMARK H PARENT 12 13 10 15
REMARK Flexibility Score: inf
ROOT
ATOM      1  C   UNL     1      18.752   9.414 151.718  1.00  0.00    -0.022 A 
ATOM      2  C   UNL     1      18.195   8.135 151.885  1.00  0.00     0.058 A 
ATOM      3  C   UNL     1      18.192  10.496 152.426  1.00  0.00     0.012 A 
ATOM      4  C   UNL     1      17.118   7.930 152.759  1.00  0.00     0.157 A 
ATOM      5  C   UNL     1      17.117  10.291 153.296  1.00  0.00     0.051 A 
ATOM      6  C   UNL     1      16.579   9.010 153.467  1.00  0.00     0.157 A 
ENDROOT
BRANCH   1   7
ATOM      7  C   UNL     1      19.885   9.579 150.774  1.00  0.00     0.010 C 
ATOM      8  C   UNL     1      19.779   9.421 149.447  1.00  0.00     0.025 C 
BRANCH   8   9
ATOM      9  C   UNL     1      20.923   9.605 148.540  1.00  0.00     0.064 C 
ATOM     10  O   UNL     1      20.894   9.171 147.356  1.00  0.00    -0.545 OA
ATOM     11  O   UNL     1      22.055  10.269 148.993  1.00  0.00    -0.545 OA
ENDBRANCH   8   9
ENDBRANCH   1   7
BRANCH   4  12
ATOM     12  O   UNL     1      16.577   6.657 152.925  1.00  0.00    -0.504 OA
ATOM     13  H   UNL     1      16.725   5.923 152.242  1.00  0.00     0.293 HD
ENDBRANCH   4  12
BRANCH   6  14
ATOM     14  O   UNL     1      15.509   8.804 154.335  1.00  0.00    -0.504 OA
ATOM     15  H   UNL     1      14.704   8.250 154.062  1.00  0.00     0.293 HD
ENDBRANCH   6  14
TORSDOF 4
ENDMDL
MODEL 2
REMARK VINA RESULT:    -5.861      0.835      1.878
REMARK INTER + INTRA:          -7.017
REMARK INTER:                  -6.894
REMARK INTRA:                  -0.123
REMARK UNBOUND:                -0.128
REMARK SMILES O=C([O-])C=Cc1ccc(O)c(O)c1
REMARK SMILES IDX 6 1 13 2 7 3 11 4 8 5 9 6 5 7 4 8 2 9 1 10 3 11 12 12 10 14
REMARK H PARENT 12 13 10 15
REMARK Flexibility Score: inf
ROOT
ATOM      1  C   UNL     1      18.772   8.936 151.580  1.00  0.00    -0.022 A 
ATOM      2  C   UNL     1      18.417  10.061 152.342  1.00  0.00     0.058 A 
ATOM      3  C   UNL     1      18.063   7.734 151.773  1.00  0.00     0.012 A 
ATOM      4  C   UNL     1      17.359  10.000 153.260  1.00  0.00     0.157 A 
ATOM      5  C   UNL     1      17.009   7.673 152.689  1.00  0.00     0.051 A 
ATOM      6  C   UNL     1      16.653   8.805 153.433  1.00  0.00     0.157 A 
ENDROOT
BRANCH   1   7
ATOM      7  C   UNL     1      19.906   9.049 150.629  1.00  0.00     0.010 C 
ATOM      8  C   UNL     1      19.778   9.474 149.364  1.00  0.00     0.025 C 
BRANCH   8   9
ATOM      9  C   UNL     1      20.928   9.586 148.452  1.00  0.00     0.064 C 
ATOM     10  O   UNL     1      20.896   9.082 147.297  1.00  0.00    -0.545 OA
ATOM     11  O   UNL     1      22.068  10.259 148.870  1.00  0.00    -0.545 OA
ENDBRANCH   8   9
ENDBRANCH   1   7
BRANCH   4  12
ATOM     12  O   UNL     1      17.007  11.124 154.006  1.00  0.00    -0.504 OA
ATOM     13  H   UNL     1      16.137  11.618 153.842  1.00  0.00     0.293 HD
ENDBRANCH   4  12
BRANCH   6  14
ATOM     14  O   UNL     1      15.602   8.748 154.346  1.00  0.00    -0.504 OA
ATOM     15  H   UNL     1      15.759   8.521 155.321  1.00  0.00     0.293 HD
ENDBRANCH   6  14
TORSDOF 4
ENDMDL
MODEL 3
REMARK VINA RESULT:    -5.716      1.769      6.256
REMARK INTER + INTRA:          -6.846
REMARK INTER:                  -6.720
REMARK INTRA:                  -0.127
REMARK UNBOUND:                -0.128
REMARK SMILES O=C([O-])C=Cc1ccc(O)c(O)c1
REMARK SMILES IDX 6 1 13 2 7 3 11 4 8 5 9 6 5 7 4 8 2 9 1 10 3 11 12 12 10 14
REMARK H PARENT 12 13 10 15
REMARK Flexibility Score: inf
ROOT
ATOM      1  C   UNL     1      20.728   8.750 150.510  1.00  0.00    -0.022 A 
ATOM      2  C   UNL     1      20.605   9.339 149.240  1.00  0.00     0.058 A 
ATOM      3  C   UNL     1      21.857   7.951 150.782  1.00  0.00     0.012 A 
ATOM      4  C   UNL     1      21.599   9.159 148.268  1.00  0.00     0.157 A 
ATOM      5  C   UNL     1      22.847   7.771 149.811  1.00  0.00     0.051 A 
ATOM      6  C   UNL     1      22.722   8.376 148.554  1.00  0.00     0.157 A 
ENDROOT
BRANCH   1   7
ATOM      7  C   UNL     1      19.644   8.963 151.501  1.00  0.00     0.010 C 
ATOM      8  C   UNL     1      18.514   8.243 151.536  1.00  0.00     0.025 C 
BRANCH   8   9
ATOM      9  C   UNL     1      17.465   8.475 152.542  1.00  0.00     0.064 C 
ATOM     10  O   UNL     1      16.848   7.514 153.075  1.00  0.00    -0.545 OA
ATOM     11  O   UNL     1      17.149   9.775 152.912  1.00  0.00    -0.545 OA
ENDBRANCH   8   9
ENDBRANCH   1   7
BRANCH   4  12
ATOM     12  O   UNL     1      21.475   9.754 147.014  1.00  0.00    -0.504 OA
ATOM     13  H   UNL     1      20.573   9.854 146.560  1.00  0.00     0.293 HD
ENDBRANCH   4  12
BRANCH   6  14
ATOM     14  O   UNL     1      23.709   8.199 147.586  1.00  0.00    -0.504 OA
ATOM     15  H   UNL     1      24.642   7.888 147.830  1.00  0.00     0.293 HD
ENDBRANCH   6  14
TORSDOF 4
ENDMDL
MODEL 4
REMARK VINA RESULT:    -5.632      1.703      6.314
REMARK INTER + INTRA:          -6.748
REMARK INTER:                  -6.614
REMARK INTRA:                  -0.134
REMARK UNBOUND:                -0.128
REMARK SMILES O=C([O-])C=Cc1ccc(O)c(O)c1
REMARK SMILES IDX 6 1 13 2 7 3 11 4 8 5 9 6 5 7 4 8 2 9 1 10 3 11 12 12 10 14
REMARK H PARENT 12 13 10 15
REMARK Flexibility Score: inf
ROOT
ATOM      1  C   UNL     1      20.573   8.960 149.956  1.00  0.00    -0.022 A 
ATOM      2  C   UNL     1      21.890   8.472 149.995  1.00  0.00     0.058 A 
ATOM      3  C   UNL     1      20.089   9.515 148.755  1.00  0.00     0.012 A 
ATOM      4  C   UNL     1      22.702   8.511 148.852  1.00  0.00     0.157 A 
ATOM      5  C   UNL     1      20.900   9.554 147.617  1.00  0.00     0.051 A 
ATOM      6  C   UNL     1      22.206   9.051 147.661  1.00  0.00     0.157 A 
ENDROOT
BRANCH   1   7
ATOM      7  C   UNL     1      19.758   8.905 151.195  1.00  0.00     0.010 C 
ATOM      8  C   UNL     1      18.428   8.740 151.206  1.00  0.00     0.025 C 
BRANCH   8   9
ATOM      9  C   UNL     1      17.653   8.678 152.456  1.00  0.00     0.064 C 
ATOM     10  O   UNL     1      17.572   9.675 153.223  1.00  0.00    -0.545 OA
ATOM     11  O   UNL     1      16.997   7.503 152.796  1.00  0.00    -0.545 OA
ENDBRANCH   8   9
ENDBRANCH   1   7
BRANCH   4  12
ATOM     12  O   UNL     1      24.004   8.017 148.896  1.00  0.00    -0.504 OA
ATOM     13  H   UNL     1      24.202   7.064 149.181  1.00  0.00     0.293 HD
ENDBRANCH   4  12
BRANCH   6  14
ATOM     14  O   UNL     1      23.015   9.088 146.527  1.00  0.00    -0.504 OA
ATOM     15  H   UNL     1      23.215   8.252 145.991  1.00  0.00     0.293 HD
ENDBRANCH   6  14
TORSDOF 4
ENDMDL
MODEL 5
REMARK VINA RESULT:    -5.219     10.761     11.552
REMARK INTER + INTRA:          -6.261
REMARK INTER:                  -6.123
REMARK INTRA:                  -0.138
REMARK UNBOUND:                -0.128
REMARK SMILES O=C([O-])C=Cc1ccc(O)c(O)c1
REMARK SMILES IDX 6 1 13 2 7 3 11 4 8 5 9 6 5 7 4 8 2 9 1 10 3 11 12 12 10 14
REMARK H PARENT 12 13 10 15
REMARK Flexibility Score: inf
ROOT
ATOM      1  C   UNL     1      14.597   5.881 141.340  1.00  0.00    -0.022 A 
ATOM      2  C   UNL     1      13.432   6.579 141.698  1.00  0.00     0.058 A 
ATOM      3  C   UNL     1      14.521   4.488 141.142  1.00  0.00     0.012 A 
ATOM      4  C   UNL     1      12.208   5.909 141.831  1.00  0.00     0.157 A 
ATOM      5  C   UNL     1      13.300   3.820 141.276  1.00  0.00     0.051 A 
ATOM      6  C   UNL     1      12.141   4.528 141.618  1.00  0.00     0.157 A 
ENDROOT
BRANCH   1   7
ATOM      7  C   UNL     1      15.871   6.635 141.222  1.00  0.00     0.010 C 
ATOM      8  C   UNL     1      17.078   6.055 141.166  1.00  0.00     0.025 C 
BRANCH   8   9
ATOM      9  C   UNL     1      18.319   6.835 141.036  1.00  0.00     0.064 C 
ATOM     10  O   UNL     1      19.295   6.643 141.811  1.00  0.00    -0.545 OA
ATOM     11  O   UNL     1      18.420   7.799 140.042  1.00  0.00    -0.545 OA
ENDBRANCH   8   9
ENDBRANCH   1   7
BRANCH   4  12
ATOM     12  O   UNL     1      11.054   6.610 142.177  1.00  0.00    -0.504 OA
ATOM     13  H   UNL     1      10.585   6.457 143.063  1.00  0.00     0.293 HD
ENDBRANCH   4  12
BRANCH   6  14
ATOM     14  O   UNL     1      10.923   3.865 141.750  1.00  0.00    -0.504 OA
ATOM     15  H   UNL     1      10.611   3.502 142.644  1.00  0.00     0.293 HD
ENDBRANCH   6  14
TORSDOF 4
ENDMDL
MODEL 6
REMARK VINA RESULT:    -5.173     10.533     10.848
REMARK INTER + INTRA:          -6.208
REMARK INTER:                  -6.074
REMARK INTRA:                  -0.135
REMARK UNBOUND:                -0.128
REMARK SMILES O=C([O-])C=Cc1ccc(O)c(O)c1
REMARK SMILES IDX 6 1 13 2 7 3 11 4 8 5 9 6 5 7 4 8 2 9 1 10 3 11 12 12 10 14
REMARK H PARENT 12 13 10 15
REMARK Flexibility Score: inf
ROOT
ATOM      1  C   UNL     1      15.894   5.613 141.589  1.00  0.00    -0.022 A 
ATOM      2  C   UNL     1      15.073   4.688 142.255  1.00  0.00     0.058 A 
ATOM      3  C   UNL     1      15.323   6.810 141.113  1.00  0.00     0.012 A 
ATOM      4  C   UNL     1      13.714   4.960 142.468  1.00  0.00     0.157 A 
ATOM      5  C   UNL     1      13.968   7.080 141.325  1.00  0.00     0.051 A 
ATOM      6  C   UNL     1      13.161   6.159 142.004  1.00  0.00     0.157 A 
ENDROOT
BRANCH   1   7
ATOM      7  C   UNL     1      17.324   5.273 141.380  1.00  0.00     0.010 C 
ATOM      8  C   UNL     1      18.296   6.187 141.248  1.00  0.00     0.025 C 
BRANCH   8   9
ATOM      9  C   UNL     1      19.706   5.812 141.054  1.00  0.00     0.064 C 
ATOM     10  O   UNL     1      20.608   6.245 141.821  1.00  0.00    -0.545 OA
ATOM     11  O   UNL     1      20.050   4.965 140.009  1.00  0.00    -0.545 OA
ENDBRANCH   8   9
ENDBRANCH   1   7
BRANCH   4  12
ATOM     12  O   UNL     1      12.908   4.042 143.139  1.00  0.00    -0.504 OA
ATOM     13  H   UNL     1      13.164   3.675 144.048  1.00  0.00     0.293 HD
ENDBRANCH   4  12
BRANCH   6  14
ATOM     14  O   UNL     1      11.810   6.426 142.218  1.00  0.00    -0.504 OA
ATOM     15  H   UNL     1      11.405   6.397 143.146  1.00  0.00     0.293 HD
ENDBRANCH   6  14
TORSDOF 4
ENDMDL
MODEL 7
REMARK VINA RESULT:    -5.156      1.971      5.862
REMARK INTER + INTRA:          -6.188
REMARK INTER:                  -6.063
REMARK INTRA:                  -0.125
REMARK UNBOUND:                -0.128
REMARK SMILES O=C([O-])C=Cc1ccc(O)c(O)c1
REMARK SMILES IDX 6 1 13 2 7 3 11 4 8 5 9 6 5 7 4 8 2 9 1 10 3 11 12 12 10 14
REMARK H PARENT 12 13 10 15
REMARK Flexibility Score: inf
ROOT
ATOM      1  C   UNL     1      20.573   9.617 151.558  1.00  0.00    -0.022 A 
ATOM      2  C   UNL     1      21.030   8.344 151.179  1.00  0.00     0.058 A 
ATOM      3  C   UNL     1      21.244  10.754 151.066  1.00  0.00     0.012 A 
ATOM      4  C   UNL     1      22.118   8.203 150.305  1.00  0.00     0.157 A 
ATOM      5  C   UNL     1      22.329  10.613 150.196  1.00  0.00     0.051 A 
ATOM      6  C   UNL     1      22.767   9.340 149.811  1.00  0.00     0.157 A 
ENDROOT
BRANCH   1   7
ATOM      7  C   UNL     1      19.424   9.711 152.493  1.00  0.00     0.010 C 
ATOM      8  C   UNL     1      18.185   9.296 152.196  1.00  0.00     0.025 C 
BRANCH   8   9
ATOM      9  C   UNL     1      17.072   9.395 153.154  1.00  0.00     0.064 C 
ATOM     10  O   UNL     1      16.713   8.402 153.842  1.00  0.00    -0.545 OA
ATOM     11  O   UNL     1      16.405  10.604 153.305  1.00  0.00    -0.545 OA
ENDBRANCH   8   9
ENDBRANCH   1   7
BRANCH   4  12
ATOM     12  O   UNL     1      22.559   6.937 149.926  1.00  0.00    -0.504 OA
ATOM     13  H   UNL     1      23.138   6.800 149.105  1.00  0.00     0.293 HD
ENDBRANCH   4  12
BRANCH   6  14
ATOM     14  O   UNL     1      23.847   9.197 148.943  1.00  0.00    -0.504 OA
ATOM     15  H   UNL     1      24.781   9.003 149.286  1.00  0.00     0.293 HD
ENDBRANCH   6  14
TORSDOF 4
ENDMDL
MODEL 8
REMARK VINA RESULT:    -5.080      9.664     12.118
REMARK INTER + INTRA:          -6.098
REMARK INTER:                  -5.970
REMARK INTRA:                  -0.128
REMARK UNBOUND:                -0.128
REMARK SMILES O=C([O-])C=Cc1ccc(O)c(O)c1
REMARK SMILES IDX 6 1 13 2 7 3 11 4 8 5 9 6 5 7 4 8 2 9 1 10 3 11 12 12 10 14
REMARK H PARENT 12 13 10 15
REMARK Flexibility Score: inf
ROOT
ATOM      1  C   UNL     1      15.500   6.648 141.226  1.00  0.00    -0.022 A 
ATOM      2  C   UNL     1      16.277   6.987 142.347  1.00  0.00     0.058 A 
ATOM      3  C   UNL     1      16.141   6.476 139.983  1.00  0.00     0.012 A 
ATOM      4  C   UNL     1      17.668   7.127 142.239  1.00  0.00     0.157 A 
ATOM      5  C   UNL     1      17.527   6.617 139.876  1.00  0.00     0.051 A 
ATOM      6  C   UNL     1      18.294   6.940 141.002  1.00  0.00     0.157 A 
ENDROOT
BRANCH   1   7
ATOM      7  C   UNL     1      14.031   6.521 141.391  1.00  0.00     0.010 C 
ATOM      8  C   UNL     1      13.381   5.348 141.413  1.00  0.00     0.025 C 
BRANCH   8   9
ATOM      9  C   UNL     1      11.923   5.261 141.591  1.00  0.00     0.064 C 
ATOM     10  O   UNL     1      11.232   6.287 141.832  1.00  0.00    -0.545 OA
ATOM     11  O   UNL     1      11.295   4.027 141.489  1.00  0.00    -0.545 OA
ENDBRANCH   8   9
ENDBRANCH   1   7
BRANCH   4  12
ATOM     12  O   UNL     1      18.432   7.455 143.357  1.00  0.00    -0.504 OA
ATOM     13  H   UNL     1      18.491   6.838 144.159  1.00  0.00     0.293 HD
ENDBRANCH   4  12
BRANCH   6  14
ATOM     14  O   UNL     1      19.677   7.080 140.898  1.00  0.00    -0.504 OA
ATOM     15  H   UNL     1      20.305   6.315 141.118  1.00  0.00     0.293 HD
ENDBRANCH   6  14
TORSDOF 4
ENDMDL
MODEL 9
REMARK VINA RESULT:    -4.913     12.288     13.028
REMARK INTER + INTRA:          -5.903
REMARK INTER:                  -5.771
REMARK INTRA:                  -0.132
REMARK UNBOUND:                -0.128
REMARK SMILES O=C([O-])C=Cc1ccc(O)c(O)c1
REMARK SMILES IDX 6 1 13 2 7 3 11 4 8 5 9 6 5 7 4 8 2 9 1 10 3 11 12 12 10 14
REMARK H PARENT 12 13 10 15
REMARK Flexibility Score: inf
ROOT
ATOM      1  C   UNL     1      11.672   4.694 141.431  1.00  0.00    -0.022 A 
ATOM      2  C   UNL     1      10.712   5.719 141.436  1.00  0.00     0.058 A 
ATOM      3  C   UNL     1      11.242   3.359 141.568  1.00  0.00     0.012 A 
ATOM      4  C   UNL     1       9.346   5.421 141.548  1.00  0.00     0.157 A 
ATOM      5  C   UNL     1       9.880   3.063 141.681  1.00  0.00     0.051 A 
ATOM      6  C   UNL     1       8.930   4.091 141.669  1.00  0.00     0.157 A 
ENDROOT
BRANCH   1   7
ATOM      7  C   UNL     1      13.106   5.062 141.320  1.00  0.00     0.010 C 
ATOM      8  C   UNL     1      13.567   6.313 141.460  1.00  0.00     0.025 C 
BRANCH   8   9
ATOM      9  C   UNL     1      14.998   6.640 141.354  1.00  0.00     0.064 C 
ATOM     10  O   UNL     1      15.442   7.329 140.397  1.00  0.00    -0.545 OA
ATOM     11  O   UNL     1      15.877   6.182 142.328  1.00  0.00    -0.545 OA
ENDBRANCH   8   9
ENDBRANCH   1   7
BRANCH   4  12
ATOM     12  O   UNL     1       8.399   6.443 141.543  1.00  0.00    -0.504 OA
ATOM     13  H   UNL     1       7.422   6.263 141.749  1.00  0.00     0.293 HD
ENDBRANCH   4  12
BRANCH   6  14
ATOM     14  O   UNL     1       7.572   3.798 141.780  1.00  0.00    -0.504 OA
ATOM     15  H   UNL     1       7.157   3.539 142.668  1.00  0.00     0.293 HD
ENDBRANCH   6  14
TORSDOF 4
ENDMDL
