MODEL 1
REMARK VINA RESULT:    -4.901      0.000      0.000
REMARK INTER + INTRA:         -13.869
REMARK INTER:                 -10.631
REMARK INTRA:                  -3.238
REMARK UNBOUND:                -3.238
REMARK SMILES CCCCCCCCCCCCCCCCCCCCCC(=O)[O-]
REMARK SMILES IDX 12 1 11 2 10 3 9 4 8 5 7 6 6 7 5 8 4 9 3 10 2 11 1 12 13 13
REMARK SMILES IDX 14 14 15 15 16 16 17 17 18 18 19 19 20 20 21 21 22 22 23 23
REMARK SMILES IDX 24 24
REMARK H PARENT
REMARK Flexibility Score: inf
ROOT
ATOM      1  C   UNL     1    -103.237 -82.288  35.971  1.00  0.00     0.000 C 
ENDROOT
BRANCH   1   2
ATOM      2  C   UNL     1    -104.649 -81.849  36.396  1.00  0.00     0.000 C 
BRANCH   2   3
ATOM      3  C   UNL     1    -104.651 -80.980  37.666  1.00  0.00     0.000 C 
BRANCH   3   4
ATOM      4  C   UNL     1    -105.449 -81.556  38.854  1.00  0.00    -0.000 C 
BRANCH   4   5
ATOM      5  C   UNL     1    -104.744 -82.684  39.629  1.00  0.00    -0.000 C 
BRANCH   5   6
ATOM      6  C   UNL     1    -103.242 -82.431  39.821  1.00  0.00    -0.000 C 
BRANCH   6   7
ATOM      7  C   UNL     1    -102.462 -83.755  39.832  1.00  0.00    -0.000 C 
BRANCH   7   8
ATOM      8  C   UNL     1    -103.391 -84.984  39.782  1.00  0.00    -0.000 C 
BRANCH   8   9
ATOM      9  C   UNL     1    -102.730 -86.247  39.199  1.00  0.00    -0.000 C 
BRANCH   9  10
ATOM     10  C   UNL     1    -103.716 -87.215  38.515  1.00  0.00    -0.000 C 
BRANCH  10  11
ATOM     11  C   UNL     1    -104.905 -86.487  37.873  1.00  0.00    -0.003 C 
ATOM     12  C   UNL     1    -105.311 -87.151  36.561  1.00  0.00     0.004 C 
ENDBRANCH  10  11
ENDBRANCH   9  10
ENDBRANCH   8   9
ENDBRANCH   7   8
ENDBRANCH   6   7
ENDBRANCH   5   6
ENDBRANCH   4   5
ENDBRANCH   3   4
ENDBRANCH   2   3
ENDBRANCH   1   2
BRANCH   1  13
ATOM     13  C   UNL     1    -102.963 -83.768  36.309  1.00  0.00     0.000 C 
BRANCH  13  14
ATOM     14  C   UNL     1    -102.359 -84.565  35.142  1.00  0.00     0.000 C 
BRANCH  14  15
ATOM     15  C   UNL     1    -102.367 -83.784  33.818  1.00  0.00     0.000 C 
BRANCH  15  16
ATOM     16  C   UNL     1    -103.443 -84.286  32.842  1.00  0.00     0.000 C 
BRANCH  16  17
ATOM     17  C   UNL     1    -104.435 -85.260  33.503  1.00  0.00     0.000 C 
BRANCH  17  18
ATOM     18  C   UNL     1    -105.751 -84.565  33.912  1.00  0.00     0.000 C 
BRANCH  18  19
ATOM     19  C   UNL     1    -105.948 -83.182  33.263  1.00  0.00     0.000 C 
BRANCH  19  20
ATOM     20  C   UNL     1    -107.414 -82.753  33.091  1.00  0.00     0.006 C 
BRANCH  20  21
ATOM     21  C   UNL     1    -108.267 -83.823  32.395  1.00  0.00     0.053 C 
BRANCH  21  22
ATOM     22  C   UNL     1    -108.432 -83.510  30.940  1.00  0.00     0.041 C 
ATOM     23  O   UNL     1    -108.121 -82.373  30.496  1.00  0.00    -0.550 OA
ATOM     24  O   UNL     1    -108.938 -84.471  30.071  1.00  0.00    -0.550 OA
ENDBRANCH  21  22
ENDBRANCH  20  21
ENDBRANCH  19  20
ENDBRANCH  18  19
ENDBRANCH  17  18
ENDBRANCH  16  17
ENDBRANCH  15  16
ENDBRANCH  14  15
ENDBRANCH  13  14
ENDBRANCH   1  13
TORSDOF 20
ENDMDL
MODEL 2
REMARK VINA RESULT:    -4.868      2.091      4.488
REMARK INTER + INTRA:         -13.798
REMARK INTER:                 -10.133
REMARK INTRA:                  -3.665
REMARK UNBOUND:                -3.238
REMARK SMILES CCCCCCCCCCCCCCCCCCCCCC(=O)[O-]
REMARK SMILES IDX 12 1 11 2 10 3 9 4 8 5 7 6 6 7 5 8 4 9 3 10 2 11 1 12 13 13
REMARK SMILES IDX 14 14 15 15 16 16 17 17 18 18 19 19 20 20 21 21 22 22 23 23
REMARK SMILES IDX 24 24
REMARK H PARENT
REMARK Flexibility Score: inf
ROOT
ATOM      1  C   UNL     1    -104.510 -83.752  39.788  1.00  0.00     0.000 C 
ENDROOT
BRANCH   1   2
ATOM      2  C   UNL     1    -102.972 -83.771  39.837  1.00  0.00     0.000 C 
BRANCH   2   3
ATOM      3  C   UNL     1    -102.355 -82.363  39.881  1.00  0.00     0.000 C 
BRANCH   3   4
ATOM      4  C   UNL     1    -103.364 -81.208  40.046  1.00  0.00    -0.000 C 
BRANCH   4   5
ATOM      5  C   UNL     1    -103.220 -80.063  39.027  1.00  0.00    -0.000 C 
BRANCH   5   6
ATOM      6  C   UNL     1    -104.570 -79.467  38.603  1.00  0.00    -0.000 C 
BRANCH   6   7
ATOM      7  C   UNL     1    -105.558 -80.575  38.209  1.00  0.00    -0.000 C 
BRANCH   7   8
ATOM      8  C   UNL     1    -105.895 -80.554  36.705  1.00  0.00    -0.000 C 
BRANCH   8   9
ATOM      9  C   UNL     1    -104.841 -81.239  35.815  1.00  0.00    -0.000 C 
BRANCH   9  10
ATOM     10  C   UNL     1    -104.331 -82.585  36.368  1.00  0.00    -0.000 C 
BRANCH  10  11
ATOM     11  C   UNL     1    -102.850 -82.831  36.043  1.00  0.00    -0.003 C 
ATOM     12  C   UNL     1    -102.451 -84.268  36.358  1.00  0.00     0.004 C 
ENDBRANCH  10  11
ENDBRANCH   9  10
ENDBRANCH   8   9
ENDBRANCH   7   8
ENDBRANCH   6   7
ENDBRANCH   5   6
ENDBRANCH   4   5
ENDBRANCH   3   4
ENDBRANCH   2   3
ENDBRANCH   1   2
BRANCH   1  13
ATOM     13  C   UNL     1    -105.099 -85.153  39.520  1.00  0.00     0.000 C 
BRANCH  13  14
ATOM     14  C   UNL     1    -104.048 -86.274  39.525  1.00  0.00     0.000 C 
BRANCH  14  15
ATOM     15  C   UNL     1    -104.048 -87.099  38.227  1.00  0.00     0.000 C 
BRANCH  15  16
ATOM     16  C   UNL     1    -105.089 -86.602  37.212  1.00  0.00     0.000 C 
BRANCH  16  17
ATOM     17  C   UNL     1    -105.441 -87.664  36.154  1.00  0.00     0.000 C 
BRANCH  17  18
ATOM     18  C   UNL     1    -105.942 -87.032  34.838  1.00  0.00     0.000 C 
BRANCH  18  19
ATOM     19  C   UNL     1    -105.476 -85.579  34.632  1.00  0.00     0.000 C 
BRANCH  19  20
ATOM     20  C   UNL     1    -104.412 -85.392  33.538  1.00  0.00     0.006 C 
BRANCH  20  21
ATOM     21  C   UNL     1    -104.576 -84.073  32.770  1.00  0.00     0.053 C 
BRANCH  21  22
ATOM     22  C   UNL     1    -103.783 -84.094  31.500  1.00  0.00     0.041 C 
ATOM     23  O   UNL     1    -104.356 -83.924  30.391  1.00  0.00    -0.550 OA
ATOM     24  O   UNL     1    -102.409 -84.311  31.537  1.00  0.00    -0.550 OA
ENDBRANCH  21  22
ENDBRANCH  20  21
ENDBRANCH  19  20
ENDBRANCH  18  19
ENDBRANCH  17  18
ENDBRANCH  16  17
ENDBRANCH  15  16
ENDBRANCH  14  15
ENDBRANCH  13  14
ENDBRANCH   1  13
TORSDOF 20
ENDMDL
MODEL 3
REMARK VINA RESULT:    -4.864      1.646      4.127
REMARK INTER + INTRA:         -13.789
REMARK INTER:                 -10.751
REMARK INTRA:                  -3.038
REMARK UNBOUND:                -3.238
REMARK SMILES CCCCCCCCCCCCCCCCCCCCCC(=O)[O-]
REMARK SMILES IDX 12 1 11 2 10 3 9 4 8 5 7 6 6 7 5 8 4 9 3 10 2 11 1 12 13 13
REMARK SMILES IDX 14 14 15 15 16 16 17 17 18 18 19 19 20 20 21 21 22 22 23 23
REMARK SMILES IDX 24 24
REMARK H PARENT
REMARK Flexibility Score: inf
ROOT
ATOM      1  C   UNL     1    -105.614 -84.837  34.265  1.00  0.00     0.000 C 
ENDROOT
BRANCH   1   2
ATOM      2  C   UNL     1    -105.026 -86.258  34.320  1.00  0.00     0.000 C 
BRANCH   2   3
ATOM      3  C   UNL     1    -105.885 -87.233  35.146  1.00  0.00     0.000 C 
BRANCH   3   4
ATOM      4  C   UNL     1    -105.183 -87.847  36.373  1.00  0.00    -0.000 C 
BRANCH   4   5
ATOM      5  C   UNL     1    -105.168 -86.959  37.630  1.00  0.00    -0.000 C 
BRANCH   5   6
ATOM      6  C   UNL     1    -103.865 -87.080  38.433  1.00  0.00    -0.000 C 
BRANCH   6   7
ATOM      7  C   UNL     1    -103.784 -85.989  39.512  1.00  0.00    -0.000 C 
BRANCH   7   8
ATOM      8  C   UNL     1    -105.003 -85.044  39.483  1.00  0.00    -0.000 C 
BRANCH   8   9
ATOM      9  C   UNL     1    -104.642 -83.561  39.278  1.00  0.00    -0.000 C 
BRANCH   9  10
ATOM     10  C   UNL     1    -103.219 -83.189  39.741  1.00  0.00    -0.000 C 
BRANCH  10  11
ATOM     11  C   UNL     1    -102.911 -81.696  39.557  1.00  0.00    -0.003 C 
ATOM     12  C   UNL     1    -103.648 -80.853  40.592  1.00  0.00     0.004 C 
ENDBRANCH  10  11
ENDBRANCH   9  10
ENDBRANCH   8   9
ENDBRANCH   7   8
ENDBRANCH   6   7
ENDBRANCH   5   6
ENDBRANCH   4   5
ENDBRANCH   3   4
ENDBRANCH   2   3
ENDBRANCH   1   2
BRANCH   1  13
ATOM     13  C   UNL     1    -104.751 -83.822  35.044  1.00  0.00     0.000 C 
BRANCH  13  14
ATOM     14  C   UNL     1    -103.545 -84.457  35.755  1.00  0.00     0.000 C 
BRANCH  14  15
ATOM     15  C   UNL     1    -102.205 -83.839  35.324  1.00  0.00     0.000 C 
BRANCH  15  16
ATOM     16  C   UNL     1    -101.723 -84.364  33.963  1.00  0.00     0.000 C 
BRANCH  16  17
ATOM     17  C   UNL     1    -101.501 -83.238  32.937  1.00  0.00     0.000 C 
BRANCH  17  18
ATOM     18  C   UNL     1    -101.959 -83.644  31.519  1.00  0.00     0.000 C 
BRANCH  18  19
ATOM     19  C   UNL     1    -103.209 -84.544  31.505  1.00  0.00     0.000 C 
BRANCH  19  20
ATOM     20  C   UNL     1    -104.410 -83.968  30.738  1.00  0.00     0.006 C 
BRANCH  20  21
ATOM     21  C   UNL     1    -104.904 -82.637  31.323  1.00  0.00     0.053 C 
BRANCH  21  22
ATOM     22  C   UNL     1    -106.357 -82.431  31.025  1.00  0.00     0.041 C 
ATOM     23  O   UNL     1    -106.730 -81.444  30.339  1.00  0.00    -0.550 OA
ATOM     24  O   UNL     1    -107.304 -83.326  31.513  1.00  0.00    -0.550 OA
ENDBRANCH  21  22
ENDBRANCH  20  21
ENDBRANCH  19  20
ENDBRANCH  18  19
ENDBRANCH  17  18
ENDBRANCH  16  17
ENDBRANCH  15  16
ENDBRANCH  14  15
ENDBRANCH  13  14
ENDBRANCH   1  13
TORSDOF 20
ENDMDL
MODEL 4
REMARK VINA RESULT:    -4.854      1.274      3.877
REMARK INTER + INTRA:         -13.768
REMARK INTER:                 -11.047
REMARK INTRA:                  -2.721
REMARK UNBOUND:                -3.238
REMARK SMILES CCCCCCCCCCCCCCCCCCCCCC(=O)[O-]
REMARK SMILES IDX 12 1 11 2 10 3 9 4 8 5 7 6 6 7 5 8 4 9 3 10 2 11 1 12 13 13
REMARK SMILES IDX 14 14 15 15 16 16 17 17 18 18 19 19 20 20 21 21 22 22 23 23
REMARK SMILES IDX 24 24
REMARK H PARENT
REMARK Flexibility Score: inf
ROOT
ATOM      1  C   UNL     1    -104.379 -85.592  34.100  1.00  0.00     0.000 C 
ENDROOT
BRANCH   1   2
ATOM      2  C   UNL     1    -105.706 -85.904  34.814  1.00  0.00     0.000 C 
BRANCH   2   3
ATOM      3  C   UNL     1    -105.850 -87.388  35.194  1.00  0.00     0.000 C 
BRANCH   3   4
ATOM      4  C   UNL     1    -105.082 -87.820  36.459  1.00  0.00    -0.000 C 
BRANCH   4   5
ATOM      5  C   UNL     1    -105.091 -86.798  37.611  1.00  0.00    -0.000 C 
BRANCH   5   6
ATOM      6  C   UNL     1    -103.899 -86.960  38.565  1.00  0.00    -0.000 C 
BRANCH   6   7
ATOM      7  C   UNL     1    -103.829 -85.787  39.554  1.00  0.00    -0.000 C 
BRANCH   7   8
ATOM      8  C   UNL     1    -105.107 -84.924  39.534  1.00  0.00    -0.000 C 
BRANCH   8   9
ATOM      9  C   UNL     1    -104.840 -83.407  39.561  1.00  0.00    -0.000 C 
BRANCH   9  10
ATOM     10  C   UNL     1    -103.345 -83.031  39.529  1.00  0.00    -0.000 C 
BRANCH  10  11
ATOM     11  C   UNL     1    -103.105 -81.549  39.854  1.00  0.00    -0.003 C 
ATOM     12  C   UNL     1    -104.419 -80.829  40.132  1.00  0.00     0.004 C 
ENDBRANCH  10  11
ENDBRANCH   9  10
ENDBRANCH   8   9
ENDBRANCH   7   8
ENDBRANCH   6   7
ENDBRANCH   5   6
ENDBRANCH   4   5
ENDBRANCH   3   4
ENDBRANCH   2   3
ENDBRANCH   1   2
BRANCH   1  13
ATOM     13  C   UNL     1    -103.387 -84.849  35.018  1.00  0.00     0.000 C 
BRANCH  13  14
ATOM     14  C   UNL     1    -104.053 -83.799  35.922  1.00  0.00     0.000 C 
BRANCH  14  15
ATOM     15  C   UNL     1    -103.559 -82.370  35.640  1.00  0.00     0.000 C 
BRANCH  15  16
ATOM     16  C   UNL     1    -104.183 -81.770  34.370  1.00  0.00     0.000 C 
BRANCH  16  17
ATOM     17  C   UNL     1    -105.716 -81.661  34.456  1.00  0.00     0.000 C 
BRANCH  17  18
ATOM     18  C   UNL     1    -106.397 -81.942  33.099  1.00  0.00     0.000 C 
BRANCH  18  19
ATOM     19  C   UNL     1    -107.098 -83.312  33.030  1.00  0.00     0.000 C 
BRANCH  19  20
ATOM     20  C   UNL     1    -108.224 -83.409  31.988  1.00  0.00     0.006 C 
BRANCH  20  21
ATOM     21  C   UNL     1    -107.704 -83.352  30.545  1.00  0.00     0.053 C 
BRANCH  21  22
ATOM     22  C   UNL     1    -108.628 -82.556  29.676  1.00  0.00     0.041 C 
ATOM     23  O   UNL     1    -108.471 -81.312  29.554  1.00  0.00    -0.550 OA
ATOM     24  O   UNL     1    -109.672 -83.185  29.005  1.00  0.00    -0.550 OA
ENDBRANCH  21  22
ENDBRANCH  20  21
ENDBRANCH  19  20
ENDBRANCH  18  19
ENDBRANCH  17  18
ENDBRANCH  16  17
ENDBRANCH  15  16
ENDBRANCH  14  15
ENDBRANCH  13  14
ENDBRANCH   1  13
TORSDOF 20
ENDMDL
MODEL 5
REMARK VINA RESULT:    -4.823      1.506      4.011
REMARK INTER + INTRA:         -13.701
REMARK INTER:                 -11.467
REMARK INTRA:                  -2.234
REMARK UNBOUND:                -3.238
REMARK SMILES CCCCCCCCCCCCCCCCCCCCCC(=O)[O-]
REMARK SMILES IDX 12 1 11 2 10 3 9 4 8 5 7 6 6 7 5 8 4 9 3 10 2 11 1 12 13 13
REMARK SMILES IDX 14 14 15 15 16 16 17 17 18 18 19 19 20 20 21 21 22 22 23 23
REMARK SMILES IDX 24 24
REMARK H PARENT
REMARK Flexibility Score: inf
ROOT
ATOM      1  C   UNL     1    -105.321 -86.460  34.730  1.00  0.00     0.000 C 
ENDROOT
BRANCH   1   2
ATOM      2  C   UNL     1    -105.551 -87.418  35.912  1.00  0.00     0.000 C 
BRANCH   2   3
ATOM      3  C   UNL     1    -105.121 -86.820  37.263  1.00  0.00     0.000 C 
BRANCH   3   4
ATOM      4  C   UNL     1    -104.145 -87.687  38.084  1.00  0.00    -0.000 C 
BRANCH   4   5
ATOM      5  C   UNL     1    -103.280 -86.917  39.098  1.00  0.00    -0.000 C 
BRANCH   5   6
ATOM      6  C   UNL     1    -104.044 -85.783  39.798  1.00  0.00    -0.000 C 
BRANCH   6   7
ATOM      7  C   UNL     1    -103.243 -84.473  39.748  1.00  0.00    -0.000 C 
BRANCH   7   8
ATOM      8  C   UNL     1    -103.186 -83.873  38.329  1.00  0.00    -0.000 C 
BRANCH   8   9
ATOM      9  C   UNL     1    -104.430 -83.048  37.946  1.00  0.00    -0.000 C 
BRANCH   9  10
ATOM     10  C   UNL     1    -105.162 -82.419  39.149  1.00  0.00    -0.000 C 
BRANCH  10  11
ATOM     11  C   UNL     1    -104.772 -80.951  39.373  1.00  0.00    -0.003 C 
ATOM     12  C   UNL     1    -103.878 -80.803  40.599  1.00  0.00     0.004 C 
ENDBRANCH  10  11
ENDBRANCH   9  10
ENDBRANCH   8   9
ENDBRANCH   7   8
ENDBRANCH   6   7
ENDBRANCH   5   6
ENDBRANCH   4   5
ENDBRANCH   3   4
ENDBRANCH   2   3
ENDBRANCH   1   2
BRANCH   1  13
ATOM     13  C   UNL     1    -104.225 -85.416  35.034  1.00  0.00     0.000 C 
BRANCH  13  14
ATOM     14  C   UNL     1    -103.541 -84.857  33.777  1.00  0.00     0.000 C 
BRANCH  14  15
ATOM     15  C   UNL     1    -104.522 -84.146  32.830  1.00  0.00     0.000 C 
BRANCH  15  16
ATOM     16  C   UNL     1    -104.774 -82.683  33.230  1.00  0.00     0.000 C 
BRANCH  16  17
ATOM     17  C   UNL     1    -106.234 -82.424  33.644  1.00  0.00     0.000 C 
BRANCH  17  18
ATOM     18  C   UNL     1    -107.222 -83.358  32.910  1.00  0.00     0.000 C 
BRANCH  18  19
ATOM     19  C   UNL     1    -108.020 -82.659  31.794  1.00  0.00     0.000 C 
BRANCH  19  20
ATOM     20  C   UNL     1    -107.680 -83.126  30.369  1.00  0.00     0.006 C 
BRANCH  20  21
ATOM     21  C   UNL     1    -108.874 -83.777  29.658  1.00  0.00     0.053 C 
BRANCH  21  22
ATOM     22  C   UNL     1    -109.463 -82.846  28.644  1.00  0.00     0.041 C 
ATOM     23  O   UNL     1    -109.950 -83.298  27.574  1.00  0.00    -0.550 OA
ATOM     24  O   UNL     1    -109.468 -81.473  28.874  1.00  0.00    -0.550 OA
ENDBRANCH  21  22
ENDBRANCH  20  21
ENDBRANCH  19  20
ENDBRANCH  18  19
ENDBRANCH  17  18
ENDBRANCH  16  17
ENDBRANCH  15  16
ENDBRANCH  14  15
ENDBRANCH  13  14
ENDBRANCH   1  13
TORSDOF 20
ENDMDL
MODEL 6
REMARK VINA RESULT:    -4.783      3.064      7.120
REMARK INTER + INTRA:         -13.614
REMARK INTER:                 -10.653
REMARK INTRA:                  -2.962
REMARK UNBOUND:                -3.238
REMARK SMILES CCCCCCCCCCCCCCCCCCCCCC(=O)[O-]
REMARK SMILES IDX 12 1 11 2 10 3 9 4 8 5 7 6 6 7 5 8 4 9 3 10 2 11 1 12 13 13
REMARK SMILES IDX 14 14 15 15 16 16 17 17 18 18 19 19 20 20 21 21 22 22 23 23
REMARK SMILES IDX 24 24
REMARK H PARENT
REMARK Flexibility Score: inf
ROOT
ATOM      1  C   UNL     1    -105.549 -86.567  35.322  1.00  0.00     0.000 C 
ENDROOT
BRANCH   1   2
ATOM      2  C   UNL     1    -104.376 -85.760  34.739  1.00  0.00     0.000 C 
BRANCH   2   3
ATOM      3  C   UNL     1    -104.046 -84.501  35.560  1.00  0.00     0.000 C 
BRANCH   3   4
ATOM      4  C   UNL     1    -102.590 -84.005  35.446  1.00  0.00    -0.000 C 
BRANCH   4   5
ATOM      5  C   UNL     1    -101.826 -84.502  34.205  1.00  0.00    -0.000 C 
BRANCH   5   6
ATOM      6  C   UNL     1    -101.713 -83.437  33.105  1.00  0.00    -0.000 C 
BRANCH   6   7
ATOM      7  C   UNL     1    -102.098 -84.022  31.738  1.00  0.00    -0.000 C 
BRANCH   7   8
ATOM      8  C   UNL     1    -103.581 -84.440  31.674  1.00  0.00    -0.000 C 
BRANCH   8   9
ATOM      9  C   UNL     1    -104.389 -83.721  30.576  1.00  0.00    -0.000 C 
BRANCH   9  10
ATOM     10  C   UNL     1    -105.611 -82.943  31.102  1.00  0.00    -0.000 C 
BRANCH  10  11
ATOM     11  C   UNL     1    -105.691 -82.939  32.636  1.00  0.00    -0.003 C 
ATOM     12  C   UNL     1    -106.960 -83.633  33.120  1.00  0.00     0.004 C 
ENDBRANCH  10  11
ENDBRANCH   9  10
ENDBRANCH   8   9
ENDBRANCH   7   8
ENDBRANCH   6   7
ENDBRANCH   5   6
ENDBRANCH   4   5
ENDBRANCH   3   4
ENDBRANCH   2   3
ENDBRANCH   1   2
BRANCH   1  13
ATOM     13  C   UNL     1    -105.070 -87.669  36.290  1.00  0.00     0.000 C 
BRANCH  13  14
ATOM     14  C   UNL     1    -105.109 -87.250  37.768  1.00  0.00     0.000 C 
BRANCH  14  15
ATOM     15  C   UNL     1    -103.710 -87.149  38.398  1.00  0.00     0.000 C 
BRANCH  15  16
ATOM     16  C   UNL     1    -103.577 -85.952  39.352  1.00  0.00     0.000 C 
BRANCH  16  17
ATOM     17  C   UNL     1    -104.933 -85.296  39.672  1.00  0.00     0.000 C 
BRANCH  17  18
ATOM     18  C   UNL     1    -104.941 -83.786  39.345  1.00  0.00     0.000 C 
BRANCH  18  19
ATOM     19  C   UNL     1    -103.547 -83.215  39.021  1.00  0.00     0.000 C 
BRANCH  19  20
ATOM     20  C   UNL     1    -103.054 -82.129  39.991  1.00  0.00     0.006 C 
BRANCH  20  21
ATOM     21  C   UNL     1    -104.159 -81.139  40.384  1.00  0.00     0.053 C 
BRANCH  21  22
ATOM     22  C   UNL     1    -104.448 -80.190  39.262  1.00  0.00     0.041 C 
ATOM     23  O   UNL     1    -103.546 -79.425  38.831  1.00  0.00    -0.550 OA
ATOM     24  O   UNL     1    -105.718 -80.142  38.696  1.00  0.00    -0.550 OA
ENDBRANCH  21  22
ENDBRANCH  20  21
ENDBRANCH  19  20
ENDBRANCH  18  19
ENDBRANCH  17  18
ENDBRANCH  16  17
ENDBRANCH  15  16
ENDBRANCH  14  15
ENDBRANCH  13  14
ENDBRANCH   1  13
TORSDOF 20
ENDMDL
MODEL 7
REMARK VINA RESULT:    -4.762      2.027      4.316
REMARK INTER + INTRA:         -13.569
REMARK INTER:                 -10.414
REMARK INTRA:                  -3.155
REMARK UNBOUND:                -3.238
REMARK SMILES CCCCCCCCCCCCCCCCCCCCCC(=O)[O-]
REMARK SMILES IDX 12 1 11 2 10 3 9 4 8 5 7 6 6 7 5 8 4 9 3 10 2 11 1 12 13 13
REMARK SMILES IDX 14 14 15 15 16 16 17 17 18 18 19 19 20 20 21 21 22 22 23 23
REMARK SMILES IDX 24 24
REMARK H PARENT
REMARK Flexibility Score: inf
ROOT
ATOM      1  C   UNL     1    -104.344 -85.523  33.993  1.00  0.00     0.000 C 
ENDROOT
BRANCH   1   2
ATOM      2  C   UNL     1    -105.635 -85.792  34.786  1.00  0.00     0.000 C 
BRANCH   2   3
ATOM      3  C   UNL     1    -105.831 -87.279  35.129  1.00  0.00     0.000 C 
BRANCH   3   4
ATOM      4  C   UNL     1    -105.087 -87.765  36.390  1.00  0.00    -0.000 C 
BRANCH   4   5
ATOM      5  C   UNL     1    -105.092 -86.780  37.573  1.00  0.00    -0.000 C 
BRANCH   5   6
ATOM      6  C   UNL     1    -103.904 -86.981  38.524  1.00  0.00    -0.000 C 
BRANCH   6   7
ATOM      7  C   UNL     1    -103.762 -85.787  39.480  1.00  0.00    -0.000 C 
BRANCH   7   8
ATOM      8  C   UNL     1    -105.026 -84.903  39.508  1.00  0.00    -0.000 C 
BRANCH   8   9
ATOM      9  C   UNL     1    -104.734 -83.394  39.606  1.00  0.00    -0.000 C 
BRANCH   9  10
ATOM     10  C   UNL     1    -103.237 -83.036  39.523  1.00  0.00    -0.000 C 
BRANCH  10  11
ATOM     11  C   UNL     1    -102.959 -81.577  39.913  1.00  0.00    -0.003 C 
ATOM     12  C   UNL     1    -104.246 -80.861  40.310  1.00  0.00     0.004 C 
ENDBRANCH  10  11
ENDBRANCH   9  10
ENDBRANCH   8   9
ENDBRANCH   7   8
ENDBRANCH   6   7
ENDBRANCH   5   6
ENDBRANCH   4   5
ENDBRANCH   3   4
ENDBRANCH   2   3
ENDBRANCH   1   2
BRANCH   1  13
ATOM     13  C   UNL     1    -103.254 -84.867  34.866  1.00  0.00     0.000 C 
BRANCH  13  14
ATOM     14  C   UNL     1    -103.805 -83.852  35.881  1.00  0.00     0.000 C 
BRANCH  14  15
ATOM     15  C   UNL     1    -103.235 -82.438  35.682  1.00  0.00     0.000 C 
BRANCH  15  16
ATOM     16  C   UNL     1    -103.954 -81.663  34.566  1.00  0.00     0.000 C 
BRANCH  16  17
ATOM     17  C   UNL     1    -105.487 -81.752  34.676  1.00  0.00     0.000 C 
BRANCH  17  18
ATOM     18  C   UNL     1    -106.177 -81.651  33.298  1.00  0.00     0.000 C 
BRANCH  18  19
ATOM     19  C   UNL     1    -106.458 -83.017  32.645  1.00  0.00     0.000 C 
BRANCH  19  20
ATOM     20  C   UNL     1    -106.048 -83.122  31.167  1.00  0.00     0.006 C 
BRANCH  20  21
ATOM     21  C   UNL     1    -104.557 -82.833  30.943  1.00  0.00     0.053 C 
BRANCH  21  22
ATOM     22  C   UNL     1    -103.882 -83.997  30.286  1.00  0.00     0.041 C 
ATOM     23  O   UNL     1    -104.211 -84.347  29.122  1.00  0.00    -0.550 OA
ATOM     24  O   UNL     1    -102.891 -84.704  30.962  1.00  0.00    -0.550 OA
ENDBRANCH  21  22
ENDBRANCH  20  21
ENDBRANCH  19  20
ENDBRANCH  18  19
ENDBRANCH  17  18
ENDBRANCH  16  17
ENDBRANCH  15  16
ENDBRANCH  14  15
ENDBRANCH  13  14
ENDBRANCH   1  13
TORSDOF 20
ENDMDL
MODEL 8
REMARK VINA RESULT:    -4.749      2.972      6.730
REMARK INTER + INTRA:         -13.539
REMARK INTER:                  -9.669
REMARK INTRA:                  -3.870
REMARK UNBOUND:                -3.238
REMARK SMILES CCCCCCCCCCCCCCCCCCCCCC(=O)[O-]
REMARK SMILES IDX 12 1 11 2 10 3 9 4 8 5 7 6 6 7 5 8 4 9 3 10 2 11 1 12 13 13
REMARK SMILES IDX 14 14 15 15 16 16 17 17 18 18 19 19 20 20 21 21 22 22 23 23
REMARK SMILES IDX 24 24
REMARK H PARENT
REMARK Flexibility Score: inf
ROOT
ATOM      1  C   UNL     1    -105.486 -86.871  35.189  1.00  0.00     0.000 C 
ENDROOT
BRANCH   1   2
ATOM      2  C   UNL     1    -105.016 -85.440  35.504  1.00  0.00     0.000 C 
BRANCH   2   3
ATOM      3  C   UNL     1    -103.506 -85.241  35.285  1.00  0.00     0.000 C 
BRANCH   3   4
ATOM      4  C   UNL     1    -102.887 -84.041  36.030  1.00  0.00    -0.000 C 
BRANCH   4   5
ATOM      5  C   UNL     1    -103.758 -82.773  36.064  1.00  0.00    -0.000 C 
BRANCH   5   6
ATOM      6  C   UNL     1    -103.140 -81.601  35.289  1.00  0.00    -0.000 C 
BRANCH   6   7
ATOM      7  C   UNL     1    -104.198 -80.898  34.425  1.00  0.00    -0.000 C 
BRANCH   7   8
ATOM      8  C   UNL     1    -105.608 -81.488  34.629  1.00  0.00    -0.000 C 
BRANCH   8   9
ATOM      9  C   UNL     1    -106.300 -81.926  33.324  1.00  0.00    -0.000 C 
BRANCH   9  10
ATOM     10  C   UNL     1    -105.927 -83.349  32.861  1.00  0.00    -0.000 C 
BRANCH  10  11
ATOM     11  C   UNL     1    -105.022 -83.346  31.621  1.00  0.00    -0.003 C 
ATOM     12  C   UNL     1    -103.639 -83.898  31.950  1.00  0.00     0.004 C 
ENDBRANCH  10  11
ENDBRANCH   9  10
ENDBRANCH   8   9
ENDBRANCH   7   8
ENDBRANCH   6   7
ENDBRANCH   5   6
ENDBRANCH   4   5
ENDBRANCH   3   4
ENDBRANCH   2   3
ENDBRANCH   1   2
BRANCH   1  13
ATOM     13  C   UNL     1    -105.090 -87.868  36.297  1.00  0.00     0.000 C 
BRANCH  13  14
ATOM     14  C   UNL     1    -105.151 -87.272  37.713  1.00  0.00     0.000 C 
BRANCH  14  15
ATOM     15  C   UNL     1    -103.778 -87.231  38.403  1.00  0.00     0.000 C 
BRANCH  15  16
ATOM     16  C   UNL     1    -103.677 -86.111  39.451  1.00  0.00     0.000 C 
BRANCH  16  17
ATOM     17  C   UNL     1    -104.960 -85.266  39.541  1.00  0.00     0.000 C 
BRANCH  17  18
ATOM     18  C   UNL     1    -104.665 -83.751  39.493  1.00  0.00     0.000 C 
BRANCH  18  19
ATOM     19  C   UNL     1    -103.187 -83.399  39.748  1.00  0.00     0.000 C 
BRANCH  19  20
ATOM     20  C   UNL     1    -102.909 -81.904  39.967  1.00  0.00     0.006 C 
BRANCH  20  21
ATOM     21  C   UNL     1    -104.180 -81.047  39.897  1.00  0.00     0.053 C 
BRANCH  21  22
ATOM     22  C   UNL     1    -104.169 -80.175  38.679  1.00  0.00     0.041 C 
ATOM     23  O   UNL     1    -105.215 -80.028  37.994  1.00  0.00    -0.550 OA
ATOM     24  O   UNL     1    -102.999 -79.528  38.293  1.00  0.00    -0.550 OA
ENDBRANCH  21  22
ENDBRANCH  20  21
ENDBRANCH  19  20
ENDBRANCH  18  19
ENDBRANCH  17  18
ENDBRANCH  16  17
ENDBRANCH  15  16
ENDBRANCH  14  15
ENDBRANCH  13  14
ENDBRANCH   1  13
TORSDOF 20
ENDMDL
MODEL 9
REMARK VINA RESULT:    -4.744      1.222      3.558
REMARK INTER + INTRA:         -13.529
REMARK INTER:                 -10.500
REMARK INTRA:                  -3.029
REMARK UNBOUND:                -3.238
REMARK SMILES CCCCCCCCCCCCCCCCCCCCCC(=O)[O-]
REMARK SMILES IDX 12 1 11 2 10 3 9 4 8 5 7 6 6 7 5 8 4 9 3 10 2 11 1 12 13 13
REMARK SMILES IDX 14 14 15 15 16 16 17 17 18 18 19 19 20 20 21 21 22 22 23 23
REMARK SMILES IDX 24 24
REMARK H PARENT
REMARK Flexibility Score: inf
ROOT
ATOM      1  C   UNL     1    -105.087 -85.581  37.726  1.00  0.00     0.000 C 
ENDROOT
BRANCH   1   2
ATOM      2  C   UNL     1    -104.754 -85.638  39.227  1.00  0.00     0.000 C 
BRANCH   2   3
ATOM      3  C   UNL     1    -103.241 -85.682  39.505  1.00  0.00     0.000 C 
BRANCH   3   4
ATOM      4  C   UNL     1    -102.464 -84.408  39.116  1.00  0.00    -0.000 C 
BRANCH   4   5
ATOM      5  C   UNL     1    -102.344 -83.350  40.227  1.00  0.00    -0.000 C 
BRANCH   5   6
ATOM      6  C   UNL     1    -102.968 -82.002  39.840  1.00  0.00    -0.000 C 
BRANCH   6   7
ATOM      7  C   UNL     1    -104.501 -82.100  39.803  1.00  0.00    -0.000 C 
BRANCH   7   8
ATOM      8  C   UNL     1    -105.100 -81.457  38.535  1.00  0.00    -0.000 C 
BRANCH   8   9
ATOM      9  C   UNL     1    -104.107 -81.339  37.363  1.00  0.00    -0.000 C 
BRANCH   9  10
ATOM     10  C   UNL     1    -104.135 -82.537  36.392  1.00  0.00    -0.000 C 
BRANCH  10  11
ATOM     11  C   UNL     1    -102.846 -82.654  35.566  1.00  0.00    -0.003 C 
ATOM     12  C   UNL     1    -102.293 -84.075  35.612  1.00  0.00     0.004 C 
ENDBRANCH  10  11
ENDBRANCH   9  10
ENDBRANCH   8   9
ENDBRANCH   7   8
ENDBRANCH   6   7
ENDBRANCH   5   6
ENDBRANCH   4   5
ENDBRANCH   3   4
ENDBRANCH   2   3
ENDBRANCH   1   2
BRANCH   1  13
ATOM     13  C   UNL     1    -105.115 -86.983  37.084  1.00  0.00     0.000 C 
BRANCH  13  14
ATOM     14  C   UNL     1    -105.056 -86.959  35.548  1.00  0.00     0.000 C 
BRANCH  14  15
ATOM     15  C   UNL     1    -105.529 -85.622  34.954  1.00  0.00     0.000 C 
BRANCH  15  16
ATOM     16  C   UNL     1    -104.931 -85.349  33.565  1.00  0.00     0.000 C 
BRANCH  16  17
ATOM     17  C   UNL     1    -105.219 -83.922  33.065  1.00  0.00     0.000 C 
BRANCH  17  18
ATOM     18  C   UNL     1    -106.592 -83.402  33.543  1.00  0.00     0.000 C 
BRANCH  18  19
ATOM     19  C   UNL     1    -107.750 -83.741  32.585  1.00  0.00     0.000 C 
BRANCH  19  20
ATOM     20  C   UNL     1    -108.109 -82.628  31.588  1.00  0.00     0.006 C 
BRANCH  20  21
ATOM     21  C   UNL     1    -108.412 -83.166  30.182  1.00  0.00     0.053 C 
BRANCH  21  22
ATOM     22  C   UNL     1    -108.451 -82.051  29.183  1.00  0.00     0.041 C 
ATOM     23  O   UNL     1    -108.000 -82.225  28.020  1.00  0.00    -0.550 OA
ATOM     24  O   UNL     1    -108.980 -80.814  29.536  1.00  0.00    -0.550 OA
ENDBRANCH  21  22
ENDBRANCH  20  21
ENDBRANCH  19  20
ENDBRANCH  18  19
ENDBRANCH  17  18
ENDBRANCH  16  17
ENDBRANCH  15  16
ENDBRANCH  14  15
ENDBRANCH  13  14
ENDBRANCH   1  13
TORSDOF 20
ENDMDL
