MODEL 1
REMARK VINA RESULT:    -4.821      0.000      0.000
REMARK INTER + INTRA:         -13.541
REMARK INTER:                 -11.021
REMARK INTRA:                  -2.521
REMARK UNBOUND:                -2.521
REMARK SMILES CCCCCCCCCCCCCCCCCCCCCCCC(=O)[O-]
REMARK SMILES IDX 13 1 14 2 15 3 16 4 17 5 18 6 19 7 20 8 21 9 22 10 23 11
REMARK SMILES IDX 24 12 25 13 26 14 12 15 11 16 10 17 9 18 8 19 7 20 6 21 5 22
REMARK SMILES IDX 4 23 3 24 2 25 1 26
REMARK H PARENT
REMARK Flexibility Score: inf
ROOT
ATOM      1  C   UNL     1     -11.946 -28.553 -33.720  1.00  0.00     0.000 C 
ENDROOT
BRANCH   1   2
ATOM      2  C   UNL     1     -13.012 -28.092 -32.704  1.00  0.00     0.000 C 
BRANCH   2   3
ATOM      3  C   UNL     1     -12.861 -28.729 -31.311  1.00  0.00     0.000 C 
BRANCH   3   4
ATOM      4  C   UNL     1     -12.100 -27.828 -30.324  1.00  0.00     0.000 C 
BRANCH   4   5
ATOM      5  C   UNL     1     -10.697 -27.437 -30.824  1.00  0.00     0.000 C 
BRANCH   5   6
ATOM      6  C   UNL     1     -10.367 -25.934 -30.755  1.00  0.00     0.000 C 
BRANCH   6   7
ATOM      7  C   UNL     1     -10.729 -25.179 -32.042  1.00  0.00     0.000 C 
BRANCH   7   8
ATOM      8  C   UNL     1     -12.064 -24.439 -31.892  1.00  0.00     0.000 C 
BRANCH   8   9
ATOM      9  C   UNL     1     -11.886 -23.144 -31.085  1.00  0.00     0.000 C 
BRANCH   9  10
ATOM     10  C   UNL     1     -11.404 -21.963 -31.947  1.00  0.00     0.006 C 
BRANCH  10  11
ATOM     11  C   UNL     1     -11.687 -20.582 -31.336  1.00  0.00     0.053 C 
BRANCH  11  12
ATOM     12  C   UNL     1     -12.045 -19.569 -32.380  1.00  0.00     0.041 C 
ATOM     13  O   UNL     1     -11.142 -18.884 -32.935  1.00  0.00    -0.550 OA
ATOM     14  O   UNL     1     -13.372 -19.388 -32.750  1.00  0.00    -0.550 OA
ENDBRANCH  11  12
ENDBRANCH  10  11
ENDBRANCH   9  10
ENDBRANCH   8   9
ENDBRANCH   7   8
ENDBRANCH   6   7
ENDBRANCH   5   6
ENDBRANCH   4   5
ENDBRANCH   3   4
ENDBRANCH   2   3
ENDBRANCH   1   2
BRANCH   1  15
ATOM     15  C   UNL     1     -11.942 -27.683 -34.991  1.00  0.00     0.000 C 
BRANCH  15  16
ATOM     16  C   UNL     1     -13.345 -27.509 -35.598  1.00  0.00     0.000 C 
BRANCH  16  17
ATOM     17  C   UNL     1     -13.704 -26.035 -35.843  1.00  0.00     0.000 C 
BRANCH  17  18
ATOM     18  C   UNL     1     -12.635 -25.098 -35.258  1.00  0.00    -0.000 C 
BRANCH  18  19
ATOM     19  C   UNL     1     -12.473 -23.801 -36.071  1.00  0.00    -0.000 C 
BRANCH  19  20
ATOM     20  C   UNL     1     -12.656 -22.499 -35.265  1.00  0.00    -0.000 C 
BRANCH  20  21
ATOM     21  C   UNL     1     -11.808 -21.306 -35.749  1.00  0.00    -0.000 C 
BRANCH  21  22
ATOM     22  C   UNL     1     -12.610 -20.034 -36.084  1.00  0.00    -0.000 C 
BRANCH  22  23
ATOM     23  C   UNL     1     -11.737 -18.924 -36.696  1.00  0.00    -0.000 C 
BRANCH  23  24
ATOM     24  C   UNL     1     -10.298 -18.928 -36.136  1.00  0.00    -0.000 C 
BRANCH  24  25
ATOM     25  C   UNL     1      -9.257 -19.503 -37.112  1.00  0.00    -0.003 C 
ATOM     26  C   UNL     1      -7.821 -19.353 -36.614  1.00  0.00     0.004 C 
ENDBRANCH  24  25
ENDBRANCH  23  24
ENDBRANCH  22  23
ENDBRANCH  21  22
ENDBRANCH  20  21
ENDBRANCH  19  20
ENDBRANCH  18  19
ENDBRANCH  17  18
ENDBRANCH  16  17
ENDBRANCH  15  16
ENDBRANCH   1  15
TORSDOF 22
ENDMDL
MODEL 2
REMARK VINA RESULT:    -4.720      3.294      6.220
REMARK INTER + INTRA:         -13.312
REMARK INTER:                 -10.229
REMARK INTRA:                  -3.082
REMARK UNBOUND:                -2.521
REMARK SMILES CCCCCCCCCCCCCCCCCCCCCCCC(=O)[O-]
REMARK SMILES IDX 13 1 14 2 15 3 16 4 17 5 18 6 19 7 20 8 21 9 22 10 23 11
REMARK SMILES IDX 24 12 25 13 26 14 12 15 11 16 10 17 9 18 8 19 7 20 6 21 5 22
REMARK SMILES IDX 4 23 3 24 2 25 1 26
REMARK H PARENT
REMARK Flexibility Score: inf
ROOT
ATOM      1  C   UNL     1     -12.659 -23.599 -35.383  1.00  0.00     0.000 C 
ENDROOT
BRANCH   1   2
ATOM      2  C   UNL     1     -12.142 -24.416 -34.180  1.00  0.00     0.000 C 
BRANCH   2   3
ATOM      3  C   UNL     1     -12.362 -23.730 -32.821  1.00  0.00     0.000 C 
BRANCH   3   4
ATOM      4  C   UNL     1     -11.688 -24.480 -31.659  1.00  0.00     0.000 C 
BRANCH   4   5
ATOM      5  C   UNL     1     -10.668 -25.532 -32.132  1.00  0.00     0.000 C 
BRANCH   5   6
ATOM      6  C   UNL     1     -10.121 -26.462 -31.033  1.00  0.00     0.000 C 
BRANCH   6   7
ATOM      7  C   UNL     1     -11.216 -27.001 -30.100  1.00  0.00     0.000 C 
BRANCH   7   8
ATOM      8  C   UNL     1     -11.586 -28.445 -30.458  1.00  0.00     0.000 C 
BRANCH   8   9
ATOM      9  C   UNL     1     -12.924 -28.499 -31.211  1.00  0.00     0.000 C 
BRANCH   9  10
ATOM     10  C   UNL     1     -12.756 -28.388 -32.737  1.00  0.00     0.006 C 
BRANCH  10  11
ATOM     11  C   UNL     1     -13.812 -27.508 -33.424  1.00  0.00     0.053 C 
BRANCH  11  12
ATOM     12  C   UNL     1     -13.754 -27.622 -34.916  1.00  0.00     0.041 C 
ATOM     13  O   UNL     1     -14.808 -27.520 -35.602  1.00  0.00    -0.550 OA
ATOM     14  O   UNL     1     -12.537 -27.832 -35.552  1.00  0.00    -0.550 OA
ENDBRANCH  11  12
ENDBRANCH  10  11
ENDBRANCH   9  10
ENDBRANCH   8   9
ENDBRANCH   7   8
ENDBRANCH   6   7
ENDBRANCH   5   6
ENDBRANCH   4   5
ENDBRANCH   3   4
ENDBRANCH   2   3
ENDBRANCH   1   2
BRANCH   1  15
ATOM     15  C   UNL     1     -12.901 -22.122 -35.019  1.00  0.00     0.000 C 
BRANCH  15  16
ATOM     16  C   UNL     1     -11.981 -21.160 -35.790  1.00  0.00     0.000 C 
BRANCH  16  17
ATOM     17  C   UNL     1     -11.292 -20.139 -34.872  1.00  0.00     0.000 C 
BRANCH  17  18
ATOM     18  C   UNL     1     -11.845 -20.217 -33.440  1.00  0.00    -0.000 C 
BRANCH  18  19
ATOM     19  C   UNL     1     -11.151 -19.233 -32.480  1.00  0.00    -0.000 C 
BRANCH  19  20
ATOM     20  C   UNL     1      -9.888 -19.781 -31.786  1.00  0.00    -0.000 C 
BRANCH  20  21
ATOM     21  C   UNL     1      -9.991 -21.240 -31.300  1.00  0.00    -0.000 C 
BRANCH  21  22
ATOM     22  C   UNL     1      -9.045 -21.607 -30.141  1.00  0.00    -0.000 C 
BRANCH  22  23
ATOM     23  C   UNL     1      -8.519 -23.051 -30.235  1.00  0.00    -0.000 C 
BRANCH  23  24
ATOM     24  C   UNL     1      -6.980 -23.126 -30.137  1.00  0.00    -0.000 C 
BRANCH  24  25
ATOM     25  C   UNL     1      -6.285 -21.762 -30.288  1.00  0.00    -0.003 C 
ATOM     26  C   UNL     1      -5.480 -21.639 -31.580  1.00  0.00     0.004 C 
ENDBRANCH  24  25
ENDBRANCH  23  24
ENDBRANCH  22  23
ENDBRANCH  21  22
ENDBRANCH  20  21
ENDBRANCH  19  20
ENDBRANCH  18  19
ENDBRANCH  17  18
ENDBRANCH  16  17
ENDBRANCH  15  16
ENDBRANCH   1  15
TORSDOF 22
ENDMDL
MODEL 3
REMARK VINA RESULT:    -4.689      2.880      6.621
REMARK INTER + INTRA:         -13.239
REMARK INTER:                 -10.184
REMARK INTRA:                  -3.055
REMARK UNBOUND:                -2.521
REMARK SMILES CCCCCCCCCCCCCCCCCCCCCCCC(=O)[O-]
REMARK SMILES IDX 13 1 14 2 15 3 16 4 17 5 18 6 19 7 20 8 21 9 22 10 23 11
REMARK SMILES IDX 24 12 25 13 26 14 12 15 11 16 10 17 9 18 8 19 7 20 6 21 5 22
REMARK SMILES IDX 4 23 3 24 2 25 1 26
REMARK H PARENT
REMARK Flexibility Score: inf
ROOT
ATOM      1  C   UNL     1     -12.430 -23.735 -36.123  1.00  0.00     0.000 C 
ENDROOT
BRANCH   1   2
ATOM      2  C   UNL     1     -12.954 -22.713 -35.092  1.00  0.00     0.000 C 
BRANCH   2   3
ATOM      3  C   UNL     1     -12.598 -21.254 -35.425  1.00  0.00     0.000 C 
BRANCH   3   4
ATOM      4  C   UNL     1     -11.918 -20.524 -34.255  1.00  0.00     0.000 C 
BRANCH   4   5
ATOM      5  C   UNL     1     -11.736 -21.416 -33.013  1.00  0.00     0.000 C 
BRANCH   5   6
ATOM      6  C   UNL     1     -11.564 -20.665 -31.679  1.00  0.00     0.000 C 
BRANCH   6   7
ATOM      7  C   UNL     1     -10.137 -20.138 -31.464  1.00  0.00     0.000 C 
BRANCH   7   8
ATOM      8  C   UNL     1      -9.497 -20.769 -30.222  1.00  0.00     0.000 C 
BRANCH   8   9
ATOM      9  C   UNL     1      -8.840 -22.115 -30.567  1.00  0.00     0.000 C 
BRANCH   9  10
ATOM     10  C   UNL     1      -7.320 -22.119 -30.324  1.00  0.00     0.006 C 
BRANCH  10  11
ATOM     11  C   UNL     1      -6.615 -20.815 -30.729  1.00  0.00     0.053 C 
BRANCH  11  12
ATOM     12  C   UNL     1      -5.206 -21.055 -31.177  1.00  0.00     0.041 C 
ATOM     13  O   UNL     1      -4.241 -20.767 -30.417  1.00  0.00    -0.550 OA
ATOM     14  O   UNL     1      -4.956 -21.604 -32.428  1.00  0.00    -0.550 OA
ENDBRANCH  11  12
ENDBRANCH  10  11
ENDBRANCH   9  10
ENDBRANCH   8   9
ENDBRANCH   7   8
ENDBRANCH   6   7
ENDBRANCH   5   6
ENDBRANCH   4   5
ENDBRANCH   3   4
ENDBRANCH   2   3
ENDBRANCH   1   2
BRANCH   1  15
ATOM     15  C   UNL     1     -12.848 -25.176 -35.774  1.00  0.00     0.000 C 
BRANCH  15  16
ATOM     16  C   UNL     1     -11.656 -26.062 -35.376  1.00  0.00     0.000 C 
BRANCH  16  17
ATOM     17  C   UNL     1     -12.053 -27.535 -35.187  1.00  0.00     0.000 C 
BRANCH  17  18
ATOM     18  C   UNL     1     -13.545 -27.670 -34.848  1.00  0.00    -0.000 C 
BRANCH  18  19
ATOM     19  C   UNL     1     -13.800 -27.826 -33.337  1.00  0.00    -0.000 C 
BRANCH  19  20
ATOM     20  C   UNL     1     -12.652 -28.487 -32.547  1.00  0.00    -0.000 C 
BRANCH  20  21
ATOM     21  C   UNL     1     -12.815 -28.464 -31.015  1.00  0.00    -0.000 C 
BRANCH  21  22
ATOM     22  C   UNL     1     -11.607 -27.903 -30.241  1.00  0.00    -0.000 C 
BRANCH  22  23
ATOM     23  C   UNL     1     -10.520 -27.330 -31.169  1.00  0.00    -0.000 C 
BRANCH  23  24
ATOM     24  C   UNL     1     -10.278 -25.823 -30.935  1.00  0.00    -0.000 C 
BRANCH  24  25
ATOM     25  C   UNL     1     -10.873 -24.924 -32.033  1.00  0.00    -0.003 C 
ATOM     26  C   UNL     1     -12.384 -24.740 -31.903  1.00  0.00     0.004 C 
ENDBRANCH  24  25
ENDBRANCH  23  24
ENDBRANCH  22  23
ENDBRANCH  21  22
ENDBRANCH  20  21
ENDBRANCH  19  20
ENDBRANCH  18  19
ENDBRANCH  17  18
ENDBRANCH  16  17
ENDBRANCH  15  16
ENDBRANCH   1  15
TORSDOF 22
ENDMDL
MODEL 4
REMARK VINA RESULT:    -4.636      2.360      2.772
REMARK INTER + INTRA:         -13.120
REMARK INTER:                 -10.654
REMARK INTRA:                  -2.466
REMARK UNBOUND:                -2.521
REMARK SMILES CCCCCCCCCCCCCCCCCCCCCCCC(=O)[O-]
REMARK SMILES IDX 13 1 14 2 15 3 16 4 17 5 18 6 19 7 20 8 21 9 22 10 23 11
REMARK SMILES IDX 24 12 25 13 26 14 12 15 11 16 10 17 9 18 8 19 7 20 6 21 5 22
REMARK SMILES IDX 4 23 3 24 2 25 1 26
REMARK H PARENT
REMARK Flexibility Score: inf
ROOT
ATOM      1  C   UNL     1     -11.916 -28.504 -33.740  1.00  0.00     0.000 C 
ENDROOT
BRANCH   1   2
ATOM      2  C   UNL     1     -13.044 -28.192 -32.734  1.00  0.00     0.000 C 
BRANCH   2   3
ATOM      3  C   UNL     1     -12.589 -28.203 -31.265  1.00  0.00     0.000 C 
BRANCH   3   4
ATOM      4  C   UNL     1     -11.104 -27.837 -31.098  1.00  0.00     0.000 C 
BRANCH   4   5
ATOM      5  C   UNL     1     -10.872 -26.325 -30.922  1.00  0.00     0.000 C 
BRANCH   5   6
ATOM      6  C   UNL     1     -10.794 -25.513 -32.228  1.00  0.00     0.000 C 
BRANCH   6   7
ATOM      7  C   UNL     1     -11.206 -24.044 -32.049  1.00  0.00     0.000 C 
BRANCH   7   8
ATOM      8  C   UNL     1     -11.438 -23.712 -30.570  1.00  0.00     0.000 C 
BRANCH   8   9
ATOM      9  C   UNL     1     -10.808 -22.358 -30.205  1.00  0.00     0.000 C 
BRANCH   9  10
ATOM     10  C   UNL     1      -9.374 -22.201 -30.745  1.00  0.00     0.006 C 
BRANCH  10  11
ATOM     11  C   UNL     1      -8.332 -23.069 -30.022  1.00  0.00     0.053 C 
BRANCH  11  12
ATOM     12  C   UNL     1      -6.933 -22.612 -30.299  1.00  0.00     0.041 C 
ATOM     13  O   UNL     1      -6.007 -23.457 -30.446  1.00  0.00    -0.550 OA
ATOM     14  O   UNL     1      -6.650 -21.256 -30.404  1.00  0.00    -0.550 OA
ENDBRANCH  11  12
ENDBRANCH  10  11
ENDBRANCH   9  10
ENDBRANCH   8   9
ENDBRANCH   7   8
ENDBRANCH   6   7
ENDBRANCH   5   6
ENDBRANCH   4   5
ENDBRANCH   3   4
ENDBRANCH   2   3
ENDBRANCH   1   2
BRANCH   1  15
ATOM     15  C   UNL     1     -12.122 -27.782 -35.085  1.00  0.00     0.000 C 
BRANCH  15  16
ATOM     16  C   UNL     1     -13.508 -27.126 -35.202  1.00  0.00     0.000 C 
BRANCH  16  17
ATOM     17  C   UNL     1     -13.476 -25.822 -36.015  1.00  0.00     0.000 C 
BRANCH  17  18
ATOM     18  C   UNL     1     -12.351 -24.893 -35.533  1.00  0.00    -0.000 C 
BRANCH  18  19
ATOM     19  C   UNL     1     -12.612 -23.414 -35.875  1.00  0.00    -0.000 C 
BRANCH  19  20
ATOM     20  C   UNL     1     -12.821 -22.491 -34.658  1.00  0.00    -0.000 C 
BRANCH  20  21
ATOM     21  C   UNL     1     -13.383 -21.094 -34.987  1.00  0.00    -0.000 C 
BRANCH  21  22
ATOM     22  C   UNL     1     -12.637 -19.921 -34.323  1.00  0.00    -0.000 C 
BRANCH  22  23
ATOM     23  C   UNL     1     -11.113 -19.995 -34.524  1.00  0.00    -0.000 C 
BRANCH  23  24
ATOM     24  C   UNL     1     -10.658 -19.332 -35.842  1.00  0.00    -0.000 C 
BRANCH  24  25
ATOM     25  C   UNL     1      -9.460 -20.035 -36.506  1.00  0.00    -0.003 C 
ATOM     26  C   UNL     1      -8.148 -19.272 -36.336  1.00  0.00     0.004 C 
ENDBRANCH  24  25
ENDBRANCH  23  24
ENDBRANCH  22  23
ENDBRANCH  21  22
ENDBRANCH  20  21
ENDBRANCH  19  20
ENDBRANCH  18  19
ENDBRANCH  17  18
ENDBRANCH  16  17
ENDBRANCH  15  16
ENDBRANCH   1  15
TORSDOF 22
ENDMDL
MODEL 5
REMARK VINA RESULT:    -4.464     15.619     18.434
REMARK INTER + INTRA:         -12.726
REMARK INTER:                  -9.349
REMARK INTRA:                  -3.377
REMARK UNBOUND:                -2.521
REMARK SMILES CCCCCCCCCCCCCCCCCCCCCCCC(=O)[O-]
REMARK SMILES IDX 13 1 14 2 15 3 16 4 17 5 18 6 19 7 20 8 21 9 22 10 23 11
REMARK SMILES IDX 24 12 25 13 26 14 12 15 11 16 10 17 9 18 8 19 7 20 6 21 5 22
REMARK SMILES IDX 4 23 3 24 2 25 1 26
REMARK H PARENT
REMARK Flexibility Score: inf
ROOT
ATOM      1  C   UNL     1     -11.399 -34.061 -44.841  1.00  0.00     0.000 C 
ENDROOT
BRANCH   1   2
ATOM      2  C   UNL     1     -10.106 -34.333 -44.043  1.00  0.00     0.000 C 
BRANCH   2   3
ATOM      3  C   UNL     1      -8.926 -34.805 -44.910  1.00  0.00     0.000 C 
BRANCH   3   4
ATOM      4  C   UNL     1      -9.263 -36.048 -45.750  1.00  0.00     0.000 C 
BRANCH   4   5
ATOM      5  C   UNL     1      -9.310 -35.760 -47.261  1.00  0.00     0.000 C 
BRANCH   5   6
ATOM      6  C   UNL     1      -9.113 -34.285 -47.659  1.00  0.00     0.000 C 
BRANCH   6   7
ATOM      7  C   UNL     1     -10.284 -33.719 -48.476  1.00  0.00     0.000 C 
BRANCH   7   8
ATOM      8  C   UNL     1     -10.285 -32.186 -48.452  1.00  0.00     0.000 C 
BRANCH   8   9
ATOM      9  C   UNL     1      -9.745 -31.616 -49.773  1.00  0.00     0.000 C 
BRANCH   9  10
ATOM     10  C   UNL     1      -8.711 -30.495 -49.563  1.00  0.00     0.006 C 
BRANCH  10  11
ATOM     11  C   UNL     1      -7.253 -30.981 -49.539  1.00  0.00     0.053 C 
BRANCH  11  12
ATOM     12  C   UNL     1      -6.552 -30.587 -48.276  1.00  0.00     0.041 C 
ATOM     13  O   UNL     1      -6.251 -31.463 -47.418  1.00  0.00    -0.550 OA
ATOM     14  O   UNL     1      -6.220 -29.258 -48.047  1.00  0.00    -0.550 OA
ENDBRANCH  11  12
ENDBRANCH  10  11
ENDBRANCH   9  10
ENDBRANCH   8   9
ENDBRANCH   7   8
ENDBRANCH   6   7
ENDBRANCH   5   6
ENDBRANCH   4   5
ENDBRANCH   3   4
ENDBRANCH   2   3
ENDBRANCH   1   2
BRANCH   1  15
ATOM     15  C   UNL     1     -12.647 -34.615 -44.129  1.00  0.00     0.000 C 
BRANCH  15  16
ATOM     16  C   UNL     1     -13.566 -35.411 -45.072  1.00  0.00     0.000 C 
BRANCH  16  17
ATOM     17  C   UNL     1     -12.922 -35.672 -46.442  1.00  0.00     0.000 C 
BRANCH  17  18
ATOM     18  C   UNL     1     -12.920 -37.171 -46.780  1.00  0.00    -0.000 C 
BRANCH  18  19
ATOM     19  C   UNL     1     -14.119 -37.586 -47.654  1.00  0.00    -0.000 C 
BRANCH  19  20
ATOM     20  C   UNL     1     -14.958 -38.754 -47.097  1.00  0.00    -0.000 C 
BRANCH  20  21
ATOM     21  C   UNL     1     -14.915 -38.916 -45.565  1.00  0.00    -0.000 C 
BRANCH  21  22
ATOM     22  C   UNL     1     -16.001 -38.137 -44.798  1.00  0.00    -0.000 C 
BRANCH  22  23
ATOM     23  C   UNL     1     -17.183 -37.726 -45.694  1.00  0.00    -0.000 C 
BRANCH  23  24
ATOM     24  C   UNL     1     -17.251 -36.200 -45.919  1.00  0.00    -0.000 C 
BRANCH  24  25
ATOM     25  C   UNL     1     -17.504 -35.802 -47.383  1.00  0.00    -0.003 C 
ATOM     26  C   UNL     1     -16.562 -34.708 -47.879  1.00  0.00     0.004 C 
ENDBRANCH  24  25
ENDBRANCH  23  24
ENDBRANCH  22  23
ENDBRANCH  21  22
ENDBRANCH  20  21
ENDBRANCH  19  20
ENDBRANCH  18  19
ENDBRANCH  17  18
ENDBRANCH  16  17
ENDBRANCH  15  16
ENDBRANCH   1  15
TORSDOF 22
ENDMDL
MODEL 6
REMARK VINA RESULT:    -4.460     15.523     17.959
REMARK INTER + INTRA:         -12.717
REMARK INTER:                 -10.182
REMARK INTRA:                  -2.535
REMARK UNBOUND:                -2.521
REMARK SMILES CCCCCCCCCCCCCCCCCCCCCCCC(=O)[O-]
REMARK SMILES IDX 13 1 14 2 15 3 16 4 17 5 18 6 19 7 20 8 21 9 22 10 23 11
REMARK SMILES IDX 24 12 25 13 26 14 12 15 11 16 10 17 9 18 8 19 7 20 6 21 5 22
REMARK SMILES IDX 4 23 3 24 2 25 1 26
REMARK H PARENT
REMARK Flexibility Score: inf
ROOT
ATOM      1  C   UNL     1     -10.102 -34.303 -43.737  1.00  0.00     0.000 C 
ENDROOT
BRANCH   1   2
ATOM      2  C   UNL     1     -11.254 -34.173 -44.757  1.00  0.00     0.000 C 
BRANCH   2   3
ATOM      3  C   UNL     1     -12.614 -34.656 -44.225  1.00  0.00     0.000 C 
BRANCH   3   4
ATOM      4  C   UNL     1     -13.420 -35.439 -45.274  1.00  0.00     0.000 C 
BRANCH   4   5
ATOM      5  C   UNL     1     -12.576 -35.862 -46.490  1.00  0.00     0.000 C 
BRANCH   5   6
ATOM      6  C   UNL     1     -13.372 -36.420 -47.685  1.00  0.00     0.000 C 
BRANCH   6   7
ATOM      7  C   UNL     1     -13.928 -35.322 -48.604  1.00  0.00     0.000 C 
BRANCH   7   8
ATOM      8  C   UNL     1     -15.404 -35.572 -48.934  1.00  0.00     0.000 C 
BRANCH   8   9
ATOM      9  C   UNL     1     -16.320 -34.846 -47.937  1.00  0.00     0.000 C 
BRANCH   9  10
ATOM     10  C   UNL     1     -17.479 -35.728 -47.436  1.00  0.00     0.006 C 
BRANCH  10  11
ATOM     11  C   UNL     1     -17.338 -36.180 -45.975  1.00  0.00     0.053 C 
BRANCH  11  12
ATOM     12  C   UNL     1     -16.692 -37.527 -45.865  1.00  0.00     0.041 C 
ATOM     13  O   UNL     1     -16.661 -38.299 -46.862  1.00  0.00    -0.550 OA
ATOM     14  O   UNL     1     -16.115 -37.929 -44.666  1.00  0.00    -0.550 OA
ENDBRANCH  11  12
ENDBRANCH  10  11
ENDBRANCH   9  10
ENDBRANCH   8   9
ENDBRANCH   7   8
ENDBRANCH   6   7
ENDBRANCH   5   6
ENDBRANCH   4   5
ENDBRANCH   3   4
ENDBRANCH   2   3
ENDBRANCH   1   2
BRANCH   1  15
ATOM     15  C   UNL     1      -8.757 -34.617 -44.419  1.00  0.00     0.000 C 
BRANCH  15  16
ATOM     16  C   UNL     1      -8.926 -35.167 -45.845  1.00  0.00     0.000 C 
BRANCH  16  17
ATOM     17  C   UNL     1      -8.424 -34.189 -46.918  1.00  0.00     0.000 C 
BRANCH  17  18
ATOM     18  C   UNL     1      -9.354 -34.178 -48.141  1.00  0.00    -0.000 C 
BRANCH  18  19
ATOM     19  C   UNL     1     -10.262 -32.935 -48.187  1.00  0.00    -0.000 C 
BRANCH  19  20
ATOM     20  C   UNL     1     -10.020 -31.996 -49.386  1.00  0.00    -0.000 C 
BRANCH  20  21
ATOM     21  C   UNL     1      -8.927 -30.930 -49.170  1.00  0.00    -0.000 C 
BRANCH  21  22
ATOM     22  C   UNL     1      -7.543 -31.294 -49.741  1.00  0.00    -0.000 C 
BRANCH  22  23
ATOM     23  C   UNL     1      -6.495 -31.550 -48.642  1.00  0.00    -0.000 C 
BRANCH  23  24
ATOM     24  C   UNL     1      -5.534 -30.356 -48.454  1.00  0.00    -0.000 C 
BRANCH  24  25
ATOM     25  C   UNL     1      -6.253 -29.010 -48.256  1.00  0.00    -0.003 C 
ATOM     26  C   UNL     1      -5.301 -27.867 -47.910  1.00  0.00     0.004 C 
ENDBRANCH  24  25
ENDBRANCH  23  24
ENDBRANCH  22  23
ENDBRANCH  21  22
ENDBRANCH  20  21
ENDBRANCH  19  20
ENDBRANCH  18  19
ENDBRANCH  17  18
ENDBRANCH  16  17
ENDBRANCH  15  16
ENDBRANCH   1  15
TORSDOF 22
ENDMDL
MODEL 7
REMARK VINA RESULT:    -4.459      2.754      7.158
REMARK INTER + INTRA:         -12.715
REMARK INTER:                  -9.705
REMARK INTRA:                  -3.011
REMARK UNBOUND:                -2.521
REMARK SMILES CCCCCCCCCCCCCCCCCCCCCCCC(=O)[O-]
REMARK SMILES IDX 13 1 14 2 15 3 16 4 17 5 18 6 19 7 20 8 21 9 22 10 23 11
REMARK SMILES IDX 24 12 25 13 26 14 12 15 11 16 10 17 9 18 8 19 7 20 6 21 5 22
REMARK SMILES IDX 4 23 3 24 2 25 1 26
REMARK H PARENT
REMARK Flexibility Score: inf
ROOT
ATOM      1  C   UNL     1     -12.660 -24.137 -34.312  1.00  0.00     0.000 C 
ENDROOT
BRANCH   1   2
ATOM      2  C   UNL     1     -12.631 -23.146 -35.496  1.00  0.00     0.000 C 
BRANCH   2   3
ATOM      3  C   UNL     1     -12.638 -21.668 -35.071  1.00  0.00     0.000 C 
BRANCH   3   4
ATOM      4  C   UNL     1     -11.467 -20.871 -35.670  1.00  0.00     0.000 C 
BRANCH   4   5
ATOM      5  C   UNL     1     -10.882 -19.835 -34.692  1.00  0.00     0.000 C 
BRANCH   5   6
ATOM      6  C   UNL     1     -11.326 -19.986 -33.225  1.00  0.00     0.000 C 
BRANCH   6   7
ATOM      7  C   UNL     1     -10.163 -19.869 -32.229  1.00  0.00     0.000 C 
BRANCH   7   8
ATOM      8  C   UNL     1     -10.224 -20.982 -31.176  1.00  0.00     0.000 C 
BRANCH   8   9
ATOM      9  C   UNL     1      -8.818 -21.328 -30.662  1.00  0.00     0.000 C 
BRANCH   9  10
ATOM     10  C   UNL     1      -7.753 -20.305 -31.096  1.00  0.00     0.006 C 
BRANCH  10  11
ATOM     11  C   UNL     1      -6.349 -20.581 -30.533  1.00  0.00     0.053 C 
BRANCH  11  12
ATOM     12  C   UNL     1      -5.298 -20.529 -31.599  1.00  0.00     0.041 C 
ATOM     13  O   UNL     1      -4.611 -19.483 -31.762  1.00  0.00    -0.550 OA
ATOM     14  O   UNL     1      -5.067 -21.636 -32.406  1.00  0.00    -0.550 OA
ENDBRANCH  11  12
ENDBRANCH  10  11
ENDBRANCH   9  10
ENDBRANCH   8   9
ENDBRANCH   7   8
ENDBRANCH   6   7
ENDBRANCH   5   6
ENDBRANCH   4   5
ENDBRANCH   3   4
ENDBRANCH   2   3
ENDBRANCH   1   2
BRANCH   1  15
ATOM     15  C   UNL     1     -11.971 -23.562 -33.060  1.00  0.00     0.000 C 
BRANCH  15  16
ATOM     16  C   UNL     1     -11.816 -24.601 -31.936  1.00  0.00     0.000 C 
BRANCH  16  17
ATOM     17  C   UNL     1     -10.361 -24.746 -31.464  1.00  0.00     0.000 C 
BRANCH  17  18
ATOM     18  C   UNL     1     -10.034 -26.204 -31.110  1.00  0.00    -0.000 C 
BRANCH  18  19
ATOM     19  C   UNL     1     -10.959 -26.774 -30.018  1.00  0.00    -0.000 C 
BRANCH  19  20
ATOM     20  C   UNL     1     -11.048 -28.313 -29.977  1.00  0.00    -0.000 C 
BRANCH  20  21
ATOM     21  C   UNL     1     -12.245 -28.918 -30.738  1.00  0.00    -0.000 C 
BRANCH  21  22
ATOM     22  C   UNL     1     -13.248 -27.889 -31.293  1.00  0.00    -0.000 C 
BRANCH  22  23
ATOM     23  C   UNL     1     -13.334 -27.911 -32.830  1.00  0.00    -0.000 C 
BRANCH  23  24
ATOM     24  C   UNL     1     -11.988 -28.278 -33.492  1.00  0.00    -0.000 C 
BRANCH  24  25
ATOM     25  C   UNL     1     -11.832 -27.728 -34.920  1.00  0.00    -0.003 C 
ATOM     26  C   UNL     1     -13.164 -27.557 -35.646  1.00  0.00     0.004 C 
ENDBRANCH  24  25
ENDBRANCH  23  24
ENDBRANCH  22  23
ENDBRANCH  21  22
ENDBRANCH  20  21
ENDBRANCH  19  20
ENDBRANCH  18  19
ENDBRANCH  17  18
ENDBRANCH  16  17
ENDBRANCH  15  16
ENDBRANCH   1  15
TORSDOF 22
ENDMDL
MODEL 8
REMARK VINA RESULT:    -4.439      2.385      4.961
REMARK INTER + INTRA:         -12.669
REMARK INTER:                 -10.144
REMARK INTRA:                  -2.525
REMARK UNBOUND:                -2.521
REMARK SMILES CCCCCCCCCCCCCCCCCCCCCCCC(=O)[O-]
REMARK SMILES IDX 13 1 14 2 15 3 16 4 17 5 18 6 19 7 20 8 21 9 22 10 23 11
REMARK SMILES IDX 24 12 25 13 26 14 12 15 11 16 10 17 9 18 8 19 7 20 6 21 5 22
REMARK SMILES IDX 4 23 3 24 2 25 1 26
REMARK H PARENT
REMARK Flexibility Score: inf
ROOT
ATOM      1  C   UNL     1     -13.123 -28.165 -32.789  1.00  0.00     0.000 C 
ENDROOT
BRANCH   1   2
ATOM      2  C   UNL     1     -11.777 -27.896 -33.494  1.00  0.00     0.000 C 
BRANCH   2   3
ATOM      3  C   UNL     1     -11.921 -27.378 -34.936  1.00  0.00     0.000 C 
BRANCH   3   4
ATOM      4  C   UNL     1     -13.328 -26.831 -35.234  1.00  0.00     0.000 C 
BRANCH   4   5
ATOM      5  C   UNL     1     -13.313 -25.614 -36.177  1.00  0.00     0.000 C 
BRANCH   5   6
ATOM      6  C   UNL     1     -12.387 -24.459 -35.752  1.00  0.00     0.000 C 
BRANCH   6   7
ATOM      7  C   UNL     1     -12.593 -24.028 -34.292  1.00  0.00     0.000 C 
BRANCH   7   8
ATOM      8  C   UNL     1     -12.595 -22.501 -34.162  1.00  0.00     0.000 C 
BRANCH   8   9
ATOM      9  C   UNL     1     -12.940 -21.836 -35.504  1.00  0.00     0.000 C 
BRANCH   9  10
ATOM     10  C   UNL     1     -12.045 -20.624 -35.819  1.00  0.00     0.006 C 
BRANCH  10  11
ATOM     11  C   UNL     1     -11.922 -19.617 -34.664  1.00  0.00     0.053 C 
BRANCH  11  12
ATOM     12  C   UNL     1     -10.498 -19.425 -34.238  1.00  0.00     0.041 C 
ATOM     13  O   UNL     1      -9.608 -19.175 -35.096  1.00  0.00    -0.550 OA
ATOM     14  O   UNL     1     -10.155 -19.513 -32.894  1.00  0.00    -0.550 OA
ENDBRANCH  11  12
ENDBRANCH  10  11
ENDBRANCH   9  10
ENDBRANCH   8   9
ENDBRANCH   7   8
ENDBRANCH   6   7
ENDBRANCH   5   6
ENDBRANCH   4   5
ENDBRANCH   3   4
ENDBRANCH   2   3
ENDBRANCH   1   2
BRANCH   1  15
ATOM     15  C   UNL     1     -12.932 -28.637 -31.336  1.00  0.00     0.000 C 
BRANCH  15  16
ATOM     16  C   UNL     1     -12.648 -27.478 -30.365  1.00  0.00     0.000 C 
BRANCH  16  17
ATOM     17  C   UNL     1     -13.534 -26.252 -30.635  1.00  0.00     0.000 C 
BRANCH  17  18
ATOM     18  C   UNL     1     -12.694 -24.970 -30.738  1.00  0.00    -0.000 C 
BRANCH  18  19
ATOM     19  C   UNL     1     -11.183 -25.254 -30.835  1.00  0.00    -0.000 C 
BRANCH  19  20
ATOM     20  C   UNL     1     -10.342 -24.110 -31.436  1.00  0.00    -0.000 C 
BRANCH  20  21
ATOM     21  C   UNL     1      -9.369 -23.429 -30.454  1.00  0.00    -0.000 C 
BRANCH  21  22
ATOM     22  C   UNL     1      -9.471 -21.893 -30.398  1.00  0.00    -0.000 C 
BRANCH  22  23
ATOM     23  C   UNL     1      -8.095 -21.203 -30.428  1.00  0.00    -0.000 C 
BRANCH  23  24
ATOM     24  C   UNL     1      -6.939 -22.202 -30.649  1.00  0.00    -0.000 C 
BRANCH  24  25
ATOM     25  C   UNL     1      -5.561 -21.532 -30.781  1.00  0.00    -0.003 C 
ATOM     26  C   UNL     1      -5.010 -21.568 -32.205  1.00  0.00     0.004 C 
ENDBRANCH  24  25
ENDBRANCH  23  24
ENDBRANCH  22  23
ENDBRANCH  21  22
ENDBRANCH  20  21
ENDBRANCH  19  20
ENDBRANCH  18  19
ENDBRANCH  17  18
ENDBRANCH  16  17
ENDBRANCH  15  16
ENDBRANCH   1  15
TORSDOF 22
ENDMDL
MODEL 9
REMARK VINA RESULT:    -4.406      2.602      4.855
REMARK INTER + INTRA:         -12.594
REMARK INTER:                  -9.881
REMARK INTRA:                  -2.713
REMARK UNBOUND:                -2.521
REMARK SMILES CCCCCCCCCCCCCCCCCCCCCCCC(=O)[O-]
REMARK SMILES IDX 13 1 14 2 15 3 16 4 17 5 18 6 19 7 20 8 21 9 22 10 23 11
REMARK SMILES IDX 24 12 25 13 26 14 12 15 11 16 10 17 9 18 8 19 7 20 6 21 5 22
REMARK SMILES IDX 4 23 3 24 2 25 1 26
REMARK H PARENT
REMARK Flexibility Score: inf
ROOT
ATOM      1  C   UNL     1     -13.420 -26.296 -30.409  1.00  0.00     0.000 C 
ENDROOT
BRANCH   1   2
ATOM      2  C   UNL     1     -12.378 -27.302 -29.876  1.00  0.00     0.000 C 
BRANCH   2   3
ATOM      3  C   UNL     1     -12.022 -28.417 -30.874  1.00  0.00     0.000 C 
BRANCH   3   4
ATOM      4  C   UNL     1     -11.643 -27.875 -32.262  1.00  0.00     0.000 C 
BRANCH   4   5
ATOM      5  C   UNL     1     -12.610 -28.331 -33.371  1.00  0.00     0.000 C 
BRANCH   5   6
ATOM      6  C   UNL     1     -13.612 -27.266 -33.853  1.00  0.00     0.000 C 
BRANCH   6   7
ATOM      7  C   UNL     1     -13.934 -27.375 -35.351  1.00  0.00     0.000 C 
BRANCH   7   8
ATOM      8  C   UNL     1     -13.666 -26.049 -36.072  1.00  0.00     0.000 C 
BRANCH   8   9
ATOM      9  C   UNL     1     -12.635 -25.206 -35.305  1.00  0.00     0.000 C 
BRANCH   9  10
ATOM     10  C   UNL     1     -12.502 -23.775 -35.858  1.00  0.00     0.006 C 
BRANCH  10  11
ATOM     11  C   UNL     1     -12.894 -22.676 -34.858  1.00  0.00     0.053 C 
BRANCH  11  12
ATOM     12  C   UNL     1     -12.688 -21.304 -35.423  1.00  0.00     0.041 C 
ATOM     13  O   UNL     1     -11.546 -20.949 -35.824  1.00  0.00    -0.550 OA
ATOM     14  O   UNL     1     -13.756 -20.421 -35.517  1.00  0.00    -0.550 OA
ENDBRANCH  11  12
ENDBRANCH  10  11
ENDBRANCH   9  10
ENDBRANCH   8   9
ENDBRANCH   7   8
ENDBRANCH   6   7
ENDBRANCH   5   6
ENDBRANCH   4   5
ENDBRANCH   3   4
ENDBRANCH   2   3
ENDBRANCH   1   2
BRANCH   1  15
ATOM     15  C   UNL     1     -12.893 -24.849 -30.386  1.00  0.00     0.000 C 
BRANCH  15  16
ATOM     16  C   UNL     1     -12.378 -24.380 -31.758  1.00  0.00     0.000 C 
BRANCH  16  17
ATOM     17  C   UNL     1     -10.850 -24.221 -31.791  1.00  0.00     0.000 C 
BRANCH  17  18
ATOM     18  C   UNL     1     -10.422 -22.850 -31.247  1.00  0.00    -0.000 C 
BRANCH  18  19
ATOM     19  C   UNL     1     -11.372 -21.716 -31.675  1.00  0.00    -0.000 C 
BRANCH  19  20
ATOM     20  C   UNL     1     -10.677 -20.466 -32.251  1.00  0.00    -0.000 C 
BRANCH  20  21
ATOM     21  C   UNL     1      -9.822 -19.671 -31.244  1.00  0.00    -0.000 C 
BRANCH  21  22
ATOM     22  C   UNL     1      -8.402 -19.324 -31.729  1.00  0.00    -0.000 C 
BRANCH  22  23
ATOM     23  C   UNL     1      -7.315 -19.696 -30.703  1.00  0.00    -0.000 C 
BRANCH  23  24
ATOM     24  C   UNL     1      -6.788 -21.134 -30.897  1.00  0.00    -0.000 C 
BRANCH  24  25
ATOM     25  C   UNL     1      -5.320 -21.197 -31.354  1.00  0.00    -0.003 C 
ATOM     26  C   UNL     1      -4.679 -19.818 -31.502  1.00  0.00     0.004 C 
ENDBRANCH  24  25
ENDBRANCH  23  24
ENDBRANCH  22  23
ENDBRANCH  21  22
ENDBRANCH  20  21
ENDBRANCH  19  20
ENDBRANCH  18  19
ENDBRANCH  17  18
ENDBRANCH  16  17
ENDBRANCH  15  16
ENDBRANCH   1  15
TORSDOF 22
ENDMDL
