MODEL 1
REMARK VINA RESULT:    -3.164      0.000      0.000
REMARK INTER + INTRA:          -9.859
REMARK INTER:                  -7.973
REMARK INTRA:                  -1.886
REMARK UNBOUND:                -1.886
REMARK SMILES CCCCCCCCCCCCCCCCCCCCCCCCCCCC(=O)[O-]
REMARK SMILES IDX 15 1 16 2 17 3 18 4 19 5 20 6 21 7 22 8 23 9 24 10 25 11
REMARK SMILES IDX 26 12 27 13 28 14 29 15 30 16 14 17 13 18 12 19 11 20 10 21
REMARK SMILES IDX 9 22 8 23 7 24 6 25 5 26 4 27 3 28 2 29 1 30
REMARK H PARENT
REMARK Flexibility Score: inf
ROOT
ATOM      1  C   UNL     1      -8.599  -7.991   1.690  1.00  0.00     0.000 C 
ENDROOT
BRANCH   1   2
ATOM      2  C   UNL     1      -9.857  -7.813   0.824  1.00  0.00     0.000 C 
BRANCH   2   3
ATOM      3  C   UNL     1      -9.965  -6.410   0.206  1.00  0.00     0.000 C 
BRANCH   3   4
ATOM      4  C   UNL     1     -10.683  -5.389   1.113  1.00  0.00     0.000 C 
BRANCH   4   5
ATOM      5  C   UNL     1      -9.703  -4.632   2.029  1.00  0.00     0.000 C 
BRANCH   5   6
ATOM      6  C   UNL     1     -10.245  -3.260   2.460  1.00  0.00     0.000 C 
BRANCH   6   7
ATOM      7  C   UNL     1      -9.171  -2.378   3.121  1.00  0.00     0.000 C 
BRANCH   7   8
ATOM      8  C   UNL     1      -7.750  -2.714   2.618  1.00  0.00     0.000 C 
BRANCH   8   9
ATOM      9  C   UNL     1      -6.876  -1.467   2.393  1.00  0.00     0.000 C 
BRANCH   9  10
ATOM     10  C   UNL     1      -5.530  -1.791   1.725  1.00  0.00     0.000 C 
BRANCH  10  11
ATOM     11  C   UNL     1      -5.598  -1.682   0.187  1.00  0.00     0.000 C 
BRANCH  11  12
ATOM     12  C   UNL     1      -4.887  -2.841  -0.539  1.00  0.00     0.006 C 
BRANCH  12  13
ATOM     13  C   UNL     1      -4.875  -4.156   0.253  1.00  0.00     0.053 C 
BRANCH  13  14
ATOM     14  C   UNL     1      -5.434  -5.294  -0.549  1.00  0.00     0.041 C 
ATOM     15  O   UNL     1      -6.398  -5.970  -0.102  1.00  0.00    -0.550 OA
ATOM     16  O   UNL     1      -4.913  -5.587  -1.803  1.00  0.00    -0.550 OA
ENDBRANCH  13  14
ENDBRANCH  12  13
ENDBRANCH  11  12
ENDBRANCH  10  11
ENDBRANCH   9  10
ENDBRANCH   8   9
ENDBRANCH   7   8
ENDBRANCH   6   7
ENDBRANCH   5   6
ENDBRANCH   4   5
ENDBRANCH   3   4
ENDBRANCH   2   3
ENDBRANCH   1   2
BRANCH   1  17
ATOM     17  C   UNL     1      -8.817  -9.011   2.827  1.00  0.00     0.000 C 
BRANCH  17  18
ATOM     18  C   UNL     1      -7.886 -10.235   2.746  1.00  0.00     0.000 C 
BRANCH  18  19
ATOM     19  C   UNL     1      -6.715 -10.029   1.771  1.00  0.00     0.000 C 
BRANCH  19  20
ATOM     20  C   UNL     1      -5.571 -11.029   2.002  1.00  0.00     0.000 C 
BRANCH  20  21
ATOM     21  C   UNL     1      -6.034 -12.305   2.727  1.00  0.00     0.000 C 
BRANCH  21  22
ATOM     22  C   UNL     1      -4.875 -13.269   3.040  1.00  0.00    -0.000 C 
BRANCH  22  23
ATOM     23  C   UNL     1      -5.270 -14.759   2.968  1.00  0.00    -0.000 C 
BRANCH  23  24
ATOM     24  C   UNL     1      -6.700 -14.957   2.438  1.00  0.00    -0.000 C 
BRANCH  24  25
ATOM     25  C   UNL     1      -6.785 -16.020   1.328  1.00  0.00    -0.000 C 
BRANCH  25  26
ATOM     26  C   UNL     1      -5.449 -16.335   0.629  1.00  0.00    -0.000 C 
BRANCH  26  27
ATOM     27  C   UNL     1      -5.223 -17.845   0.429  1.00  0.00    -0.000 C 
BRANCH  27  28
ATOM     28  C   UNL     1      -6.451 -18.685   0.824  1.00  0.00    -0.000 C 
BRANCH  28  29
ATOM     29  C   UNL     1      -7.054 -19.449  -0.364  1.00  0.00    -0.003 C 
ATOM     30  C   UNL     1      -7.481 -20.856   0.044  1.00  0.00     0.004 C 
ENDBRANCH  28  29
ENDBRANCH  27  28
ENDBRANCH  26  27
ENDBRANCH  25  26
ENDBRANCH  24  25
ENDBRANCH  23  24
ENDBRANCH  22  23
ENDBRANCH  21  22
ENDBRANCH  20  21
ENDBRANCH  19  20
ENDBRANCH  18  19
ENDBRANCH  17  18
ENDBRANCH   1  17
TORSDOF 26
ENDMDL
MODEL 2
REMARK VINA RESULT:    -2.301     20.404     22.151
REMARK INTER + INTRA:          -7.684
REMARK INTER:                  -5.826
REMARK INTRA:                  -1.859
REMARK UNBOUND:                -1.886
REMARK SMILES CCCCCCCCCCCCCCCCCCCCCCCCCCCC(=O)[O-]
REMARK SMILES IDX 15 1 16 2 17 3 18 4 19 5 20 6 21 7 22 8 23 9 24 10 25 11
REMARK SMILES IDX 26 12 27 13 28 14 29 15 30 16 14 17 13 18 12 19 11 20 10 21
REMARK SMILES IDX 9 22 8 23 7 24 6 25 5 26 4 27 3 28 2 29 1 30
REMARK H PARENT
REMARK Flexibility Score: inf
ROOT
ATOM      1  C   UNL     1     -20.133  -6.526 -14.792  1.00  0.00     0.000 C 
ENDROOT
BRANCH   1   2
ATOM      2  C   UNL     1     -21.544  -6.109 -15.238  1.00  0.00     0.000 C 
BRANCH   2   3
ATOM      3  C   UNL     1     -22.190  -5.080 -14.297  1.00  0.00     0.000 C 
BRANCH   3   4
ATOM      4  C   UNL     1     -21.632  -5.124 -12.859  1.00  0.00     0.000 C 
BRANCH   4   5
ATOM      5  C   UNL     1     -21.199  -3.734 -12.358  1.00  0.00     0.000 C 
BRANCH   5   6
ATOM      6  C   UNL     1     -22.393  -2.873 -11.916  1.00  0.00     0.000 C 
BRANCH   6   7
ATOM      7  C   UNL     1     -23.669  -3.702 -11.681  1.00  0.00     0.000 C 
BRANCH   7   8
ATOM      8  C   UNL     1     -24.845  -3.222 -12.558  1.00  0.00     0.000 C 
BRANCH   8   9
ATOM      9  C   UNL     1     -24.555  -1.900 -13.292  1.00  0.00     0.000 C 
BRANCH   9  10
ATOM     10  C   UNL     1     -24.605  -2.041 -14.822  1.00  0.00     0.000 C 
BRANCH  10  11
ATOM     11  C   UNL     1     -23.562  -1.148 -15.527  1.00  0.00     0.000 C 
BRANCH  11  12
ATOM     12  C   UNL     1     -22.107  -1.567 -15.241  1.00  0.00     0.006 C 
BRANCH  12  13
ATOM     13  C   UNL     1     -21.312  -1.949 -16.499  1.00  0.00     0.053 C 
BRANCH  13  14
ATOM     14  C   UNL     1     -19.867  -2.201 -16.189  1.00  0.00     0.041 C 
ATOM     15  O   UNL     1     -19.543  -3.095 -15.362  1.00  0.00    -0.550 OA
ATOM     16  O   UNL     1     -18.876  -1.474 -16.836  1.00  0.00    -0.550 OA
ENDBRANCH  13  14
ENDBRANCH  12  13
ENDBRANCH  11  12
ENDBRANCH  10  11
ENDBRANCH   9  10
ENDBRANCH   8   9
ENDBRANCH   7   8
ENDBRANCH   6   7
ENDBRANCH   5   6
ENDBRANCH   4   5
ENDBRANCH   3   4
ENDBRANCH   2   3
ENDBRANCH   1   2
BRANCH   1  17
ATOM     17  C   UNL     1     -20.167  -7.531 -13.622  1.00  0.00     0.000 C 
BRANCH  17  18
ATOM     18  C   UNL     1     -19.815  -8.972 -14.034  1.00  0.00     0.000 C 
BRANCH  18  19
ATOM     19  C   UNL     1     -20.955  -9.966 -13.759  1.00  0.00     0.000 C 
BRANCH  19  20
ATOM     20  C   UNL     1     -22.030  -9.951 -14.857  1.00  0.00     0.000 C 
BRANCH  20  21
ATOM     21  C   UNL     1     -22.600 -11.351 -15.150  1.00  0.00     0.000 C 
BRANCH  21  22
ATOM     22  C   UNL     1     -23.181 -11.475 -16.570  1.00  0.00    -0.000 C 
BRANCH  22  23
ATOM     23  C   UNL     1     -23.163 -12.915 -17.124  1.00  0.00    -0.000 C 
BRANCH  23  24
ATOM     24  C   UNL     1     -21.748 -13.520 -17.125  1.00  0.00    -0.000 C 
BRANCH  24  25
ATOM     25  C   UNL     1     -21.735 -15.011 -16.742  1.00  0.00    -0.000 C 
BRANCH  25  26
ATOM     26  C   UNL     1     -20.340 -15.666 -16.739  1.00  0.00    -0.000 C 
BRANCH  26  27
ATOM     27  C   UNL     1     -20.390 -17.174 -17.045  1.00  0.00    -0.000 C 
BRANCH  27  28
ATOM     28  C   UNL     1     -19.648 -18.017 -15.993  1.00  0.00    -0.000 C 
BRANCH  28  29
ATOM     29  C   UNL     1     -20.345 -19.356 -15.706  1.00  0.00    -0.003 C 
ATOM     30  C   UNL     1     -21.319 -19.721 -16.822  1.00  0.00     0.004 C 
ENDBRANCH  28  29
ENDBRANCH  27  28
ENDBRANCH  26  27
ENDBRANCH  25  26
ENDBRANCH  24  25
ENDBRANCH  23  24
ENDBRANCH  22  23
ENDBRANCH  21  22
ENDBRANCH  20  21
ENDBRANCH  19  20
ENDBRANCH  18  19
ENDBRANCH  17  18
ENDBRANCH   1  17
TORSDOF 26
ENDMDL
MODEL 3
REMARK VINA RESULT:    -2.113     20.585     25.261
REMARK INTER + INTRA:          -7.210
REMARK INTER:                  -4.865
REMARK INTRA:                  -2.345
REMARK UNBOUND:                -1.886
REMARK SMILES CCCCCCCCCCCCCCCCCCCCCCCCCCCC(=O)[O-]
REMARK SMILES IDX 15 1 16 2 17 3 18 4 19 5 20 6 21 7 22 8 23 9 24 10 25 11
REMARK SMILES IDX 26 12 27 13 28 14 29 15 30 16 14 17 13 18 12 19 11 20 10 21
REMARK SMILES IDX 9 22 8 23 7 24 6 25 5 26 4 27 3 28 2 29 1 30
REMARK H PARENT
REMARK Flexibility Score: inf
ROOT
ATOM      1  C   UNL     1     -22.606  -9.024 -15.823  1.00  0.00     0.000 C 
ENDROOT
BRANCH   1   2
ATOM      2  C   UNL     1     -22.740 -10.550 -15.691  1.00  0.00     0.000 C 
BRANCH   2   3
ATOM      3  C   UNL     1     -23.381 -11.203 -16.926  1.00  0.00     0.000 C 
BRANCH   3   4
ATOM      4  C   UNL     1     -23.346 -12.746 -16.897  1.00  0.00     0.000 C 
BRANCH   4   5
ATOM      5  C   UNL     1     -22.098 -13.286 -16.174  1.00  0.00     0.000 C 
BRANCH   5   6
ATOM      6  C   UNL     1     -21.147 -14.030 -17.125  1.00  0.00     0.000 C 
BRANCH   6   7
ATOM      7  C   UNL     1     -20.945 -15.504 -16.730  1.00  0.00     0.000 C 
BRANCH   7   8
ATOM      8  C   UNL     1     -19.463 -15.835 -16.451  1.00  0.00     0.000 C 
BRANCH   8   9
ATOM      9  C   UNL     1     -19.230 -17.309 -16.074  1.00  0.00     0.000 C 
BRANCH   9  10
ATOM     10  C   UNL     1     -17.743 -17.700 -16.075  1.00  0.00     0.000 C 
BRANCH  10  11
ATOM     11  C   UNL     1     -17.522 -19.157 -16.535  1.00  0.00     0.000 C 
BRANCH  11  12
ATOM     12  C   UNL     1     -18.835 -19.932 -16.762  1.00  0.00     0.006 C 
BRANCH  12  13
ATOM     13  C   UNL     1     -19.143 -20.964 -15.667  1.00  0.00     0.053 C 
BRANCH  13  14
ATOM     14  C   UNL     1     -20.450 -20.680 -14.988  1.00  0.00     0.041 C 
ATOM     15  O   UNL     1     -21.535 -21.004 -15.541  1.00  0.00    -0.550 OA
ATOM     16  O   UNL     1     -20.470 -20.090 -13.731  1.00  0.00    -0.550 OA
ENDBRANCH  13  14
ENDBRANCH  12  13
ENDBRANCH  11  12
ENDBRANCH  10  11
ENDBRANCH   9  10
ENDBRANCH   8   9
ENDBRANCH   7   8
ENDBRANCH   6   7
ENDBRANCH   5   6
ENDBRANCH   4   5
ENDBRANCH   3   4
ENDBRANCH   2   3
ENDBRANCH   1   2
BRANCH   1  17
ATOM     17  C   UNL     1     -23.332  -8.483 -17.073  1.00  0.00     0.000 C 
BRANCH  17  18
ATOM     18  C   UNL     1     -23.428  -6.947 -17.116  1.00  0.00     0.000 C 
BRANCH  18  19
ATOM     19  C   UNL     1     -23.959  -6.346 -15.806  1.00  0.00     0.000 C 
BRANCH  19  20
ATOM     20  C   UNL     1     -25.012  -5.251 -16.041  1.00  0.00     0.000 C 
BRANCH  20  21
ATOM     21  C   UNL     1     -25.040  -4.203 -14.915  1.00  0.00     0.000 C 
BRANCH  21  22
ATOM     22  C   UNL     1     -23.670  -3.543 -14.676  1.00  0.00    -0.000 C 
BRANCH  22  23
ATOM     23  C   UNL     1     -23.463  -3.047 -13.230  1.00  0.00    -0.000 C 
BRANCH  23  24
ATOM     24  C   UNL     1     -22.044  -2.500 -12.999  1.00  0.00    -0.000 C 
BRANCH  24  25
ATOM     25  C   UNL     1     -21.203  -3.391 -12.067  1.00  0.00    -0.000 C 
BRANCH  25  26
ATOM     26  C   UNL     1     -20.075  -4.175 -12.764  1.00  0.00    -0.000 C 
BRANCH  26  27
ATOM     27  C   UNL     1     -20.402  -5.671 -12.925  1.00  0.00    -0.000 C 
BRANCH  27  28
ATOM     28  C   UNL     1     -20.810  -6.037 -14.363  1.00  0.00    -0.000 C 
BRANCH  28  29
ATOM     29  C   UNL     1     -19.895  -5.400 -15.420  1.00  0.00    -0.003 C 
ATOM     30  C   UNL     1     -20.096  -6.050 -16.786  1.00  0.00     0.004 C 
ENDBRANCH  28  29
ENDBRANCH  27  28
ENDBRANCH  26  27
ENDBRANCH  25  26
ENDBRANCH  24  25
ENDBRANCH  23  24
ENDBRANCH  22  23
ENDBRANCH  21  22
ENDBRANCH  20  21
ENDBRANCH  19  20
ENDBRANCH  18  19
ENDBRANCH  17  18
ENDBRANCH   1  17
TORSDOF 26
ENDMDL
MODEL 4
REMARK VINA RESULT:    -2.076     20.503     22.758
REMARK INTER + INTRA:          -7.117
REMARK INTER:                  -5.179
REMARK INTRA:                  -1.938
REMARK UNBOUND:                -1.886
REMARK SMILES CCCCCCCCCCCCCCCCCCCCCCCCCCCC(=O)[O-]
REMARK SMILES IDX 15 1 16 2 17 3 18 4 19 5 20 6 21 7 22 8 23 9 24 10 25 11
REMARK SMILES IDX 26 12 27 13 28 14 29 15 30 16 14 17 13 18 12 19 11 20 10 21
REMARK SMILES IDX 9 22 8 23 7 24 6 25 5 26 4 27 3 28 2 29 1 30
REMARK H PARENT
REMARK Flexibility Score: inf
ROOT
ATOM      1  C   UNL     1     -21.988  -5.923 -15.586  1.00  0.00     0.000 C 
ENDROOT
BRANCH   1   2
ATOM      2  C   UNL     1     -20.636  -5.455 -16.149  1.00  0.00     0.000 C 
BRANCH   2   3
ATOM      3  C   UNL     1     -20.656  -3.990 -16.612  1.00  0.00     0.000 C 
BRANCH   3   4
ATOM      4  C   UNL     1     -19.519  -3.137 -16.011  1.00  0.00     0.000 C 
BRANCH   4   5
ATOM      5  C   UNL     1     -19.682  -1.640 -16.331  1.00  0.00     0.000 C 
BRANCH   5   6
ATOM      6  C   UNL     1     -21.154  -1.235 -16.507  1.00  0.00     0.000 C 
BRANCH   6   7
ATOM      7  C   UNL     1     -21.840  -0.891 -15.173  1.00  0.00     0.000 C 
BRANCH   7   8
ATOM      8  C   UNL     1     -23.326  -1.310 -15.157  1.00  0.00     0.000 C 
BRANCH   8   9
ATOM      9  C   UNL     1     -23.529  -2.818 -14.922  1.00  0.00     0.000 C 
BRANCH   9  10
ATOM     10  C   UNL     1     -24.918  -3.155 -14.356  1.00  0.00     0.000 C 
BRANCH  10  11
ATOM     11  C   UNL     1     -24.854  -4.235 -13.255  1.00  0.00     0.000 C 
BRANCH  11  12
ATOM     12  C   UNL     1     -23.443  -4.424 -12.665  1.00  0.00     0.006 C 
BRANCH  12  13
ATOM     13  C   UNL     1     -22.967  -3.245 -11.805  1.00  0.00     0.053 C 
BRANCH  13  14
ATOM     14  C   UNL     1     -21.497  -2.995 -11.967  1.00  0.00     0.041 C 
ATOM     15  O   UNL     1     -20.729  -3.932 -12.315  1.00  0.00    -0.550 OA
ATOM     16  O   UNL     1     -20.978  -1.722 -11.768  1.00  0.00    -0.550 OA
ENDBRANCH  13  14
ENDBRANCH  12  13
ENDBRANCH  11  12
ENDBRANCH  10  11
ENDBRANCH   9  10
ENDBRANCH   8   9
ENDBRANCH   7   8
ENDBRANCH   6   7
ENDBRANCH   5   6
ENDBRANCH   4   5
ENDBRANCH   3   4
ENDBRANCH   2   3
ENDBRANCH   1   2
BRANCH   1  17
ATOM     17  C   UNL     1     -22.307  -7.382 -15.978  1.00  0.00     0.000 C 
BRANCH  17  18
ATOM     18  C   UNL     1     -23.705  -7.564 -16.596  1.00  0.00     0.000 C 
BRANCH  18  19
ATOM     19  C   UNL     1     -24.143  -9.036 -16.653  1.00  0.00     0.000 C 
BRANCH  19  20
ATOM     20  C   UNL     1     -22.988 -10.009 -16.367  1.00  0.00     0.000 C 
BRANCH  20  21
ATOM     21  C   UNL     1     -23.463 -11.317 -15.708  1.00  0.00     0.000 C 
BRANCH  21  22
ATOM     22  C   UNL     1     -22.484 -12.485 -15.924  1.00  0.00    -0.000 C 
BRANCH  22  23
ATOM     23  C   UNL     1     -22.908 -13.451 -17.050  1.00  0.00    -0.000 C 
BRANCH  23  24
ATOM     24  C   UNL     1     -22.002 -14.691 -17.125  1.00  0.00    -0.000 C 
BRANCH  24  25
ATOM     25  C   UNL     1     -22.781 -16.011 -16.981  1.00  0.00    -0.000 C 
BRANCH  25  26
ATOM     26  C   UNL     1     -21.902 -17.268 -16.828  1.00  0.00    -0.000 C 
BRANCH  26  27
ATOM     27  C   UNL     1     -20.396 -16.955 -16.904  1.00  0.00    -0.000 C 
BRANCH  27  28
ATOM     28  C   UNL     1     -19.522 -18.128 -16.429  1.00  0.00    -0.000 C 
BRANCH  28  29
ATOM     29  C   UNL     1     -20.221 -19.002 -15.376  1.00  0.00    -0.003 C 
ATOM     30  C   UNL     1     -19.510 -18.917 -14.029  1.00  0.00     0.004 C 
ENDBRANCH  28  29
ENDBRANCH  27  28
ENDBRANCH  26  27
ENDBRANCH  25  26
ENDBRANCH  24  25
ENDBRANCH  23  24
ENDBRANCH  22  23
ENDBRANCH  21  22
ENDBRANCH  20  21
ENDBRANCH  19  20
ENDBRANCH  18  19
ENDBRANCH  17  18
ENDBRANCH   1  17
TORSDOF 26
ENDMDL
MODEL 5
REMARK VINA RESULT:    -1.962     21.251     26.005
REMARK INTER + INTRA:          -6.831
REMARK INTER:                  -4.900
REMARK INTRA:                  -1.931
REMARK UNBOUND:                -1.886
REMARK SMILES CCCCCCCCCCCCCCCCCCCCCCCCCCCC(=O)[O-]
REMARK SMILES IDX 15 1 16 2 17 3 18 4 19 5 20 6 21 7 22 8 23 9 24 10 25 11
REMARK SMILES IDX 26 12 27 13 28 14 29 15 30 16 14 17 13 18 12 19 11 20 10 21
REMARK SMILES IDX 9 22 8 23 7 24 6 25 5 26 4 27 3 28 2 29 1 30
REMARK H PARENT
REMARK Flexibility Score: inf
ROOT
ATOM      1  C   UNL     1     -22.439  -8.989 -15.599  1.00  0.00     0.000 C 
ENDROOT
BRANCH   1   2
ATOM      2  C   UNL     1     -22.759 -10.492 -15.651  1.00  0.00     0.000 C 
BRANCH   2   3
ATOM      3  C   UNL     1     -23.148 -10.973 -17.059  1.00  0.00     0.000 C 
BRANCH   3   4
ATOM      4  C   UNL     1     -23.488 -12.476 -17.125  1.00  0.00     0.000 C 
BRANCH   4   5
ATOM      5  C   UNL     1     -22.517 -13.331 -16.289  1.00  0.00     0.000 C 
BRANCH   5   6
ATOM      6  C   UNL     1     -21.849 -14.438 -17.120  1.00  0.00     0.000 C 
BRANCH   6   7
ATOM      7  C   UNL     1     -22.035 -15.837 -16.505  1.00  0.00     0.000 C 
BRANCH   7   8
ATOM      8  C   UNL     1     -23.337 -16.515 -16.984  1.00  0.00     0.000 C 
BRANCH   8   9
ATOM      9  C   UNL     1     -23.758 -17.708 -16.107  1.00  0.00     0.000 C 
BRANCH   9  10
ATOM     10  C   UNL     1     -24.682 -18.694 -16.840  1.00  0.00     0.000 C 
BRANCH  10  11
ATOM     11  C   UNL     1     -23.989 -20.045 -17.123  1.00  0.00     0.000 C 
BRANCH  11  12
ATOM     12  C   UNL     1     -22.916 -20.411 -16.080  1.00  0.00     0.006 C 
BRANCH  12  13
ATOM     13  C   UNL     1     -21.479 -20.117 -16.536  1.00  0.00     0.053 C 
BRANCH  13  14
ATOM     14  C   UNL     1     -20.646 -19.553 -15.424  1.00  0.00     0.041 C 
ATOM     15  O   UNL     1     -20.560 -20.163 -14.325  1.00  0.00    -0.550 OA
ATOM     16  O   UNL     1     -19.940 -18.372 -15.610  1.00  0.00    -0.550 OA
ENDBRANCH  13  14
ENDBRANCH  12  13
ENDBRANCH  11  12
ENDBRANCH  10  11
ENDBRANCH   9  10
ENDBRANCH   8   9
ENDBRANCH   7   8
ENDBRANCH   6   7
ENDBRANCH   5   6
ENDBRANCH   4   5
ENDBRANCH   3   4
ENDBRANCH   2   3
ENDBRANCH   1   2
BRANCH   1  17
ATOM     17  C   UNL     1     -23.046  -8.225 -16.795  1.00  0.00     0.000 C 
BRANCH  17  18
ATOM     18  C   UNL     1     -22.755  -6.713 -16.774  1.00  0.00     0.000 C 
BRANCH  18  19
ATOM     19  C   UNL     1     -23.773  -5.923 -15.937  1.00  0.00     0.000 C 
BRANCH  19  20
ATOM     20  C   UNL     1     -24.678  -5.027 -16.799  1.00  0.00     0.000 C 
BRANCH  20  21
ATOM     21  C   UNL     1     -24.336  -3.533 -16.665  1.00  0.00     0.000 C 
BRANCH  21  22
ATOM     22  C   UNL     1     -22.989  -3.288 -15.961  1.00  0.00    -0.000 C 
BRANCH  22  23
ATOM     23  C   UNL     1     -22.976  -2.032 -15.065  1.00  0.00    -0.000 C 
BRANCH  23  24
ATOM     24  C   UNL     1     -21.658  -1.887 -14.285  1.00  0.00    -0.000 C 
BRANCH  24  25
ATOM     25  C   UNL     1     -21.875  -1.671 -12.776  1.00  0.00    -0.000 C 
BRANCH  25  26
ATOM     26  C   UNL     1     -21.111  -2.652 -11.866  1.00  0.00    -0.000 C 
BRANCH  26  27
ATOM     27  C   UNL     1     -20.365  -3.741 -12.657  1.00  0.00    -0.000 C 
BRANCH  27  28
ATOM     28  C   UNL     1     -21.103  -5.092 -12.647  1.00  0.00    -0.000 C 
BRANCH  28  29
ATOM     29  C   UNL     1     -21.046  -5.810 -14.004  1.00  0.00    -0.003 C 
ATOM     30  C   UNL     1     -19.786  -6.661 -14.124  1.00  0.00     0.004 C 
ENDBRANCH  28  29
ENDBRANCH  27  28
ENDBRANCH  26  27
ENDBRANCH  25  26
ENDBRANCH  24  25
ENDBRANCH  23  24
ENDBRANCH  22  23
ENDBRANCH  21  22
ENDBRANCH  20  21
ENDBRANCH  19  20
ENDBRANCH  18  19
ENDBRANCH  17  18
ENDBRANCH   1  17
TORSDOF 26
ENDMDL
MODEL 6
REMARK VINA RESULT:    -1.368     20.859     25.524
REMARK INTER + INTRA:          -5.333
REMARK INTER:                  -3.973
REMARK INTRA:                  -1.361
REMARK UNBOUND:                -1.886
REMARK SMILES CCCCCCCCCCCCCCCCCCCCCCCCCCCC(=O)[O-]
REMARK SMILES IDX 15 1 16 2 17 3 18 4 19 5 20 6 21 7 22 8 23 9 24 10 25 11
REMARK SMILES IDX 26 12 27 13 28 14 29 15 30 16 14 17 13 18 12 19 11 20 10 21
REMARK SMILES IDX 9 22 8 23 7 24 6 25 5 26 4 27 3 28 2 29 1 30
REMARK H PARENT
REMARK Flexibility Score: inf
ROOT
ATOM      1  C   UNL     1     -22.495 -10.003 -15.596  1.00  0.00     0.000 C 
ENDROOT
BRANCH   1   2
ATOM      2  C   UNL     1     -22.139 -11.486 -15.402  1.00  0.00     0.000 C 
BRANCH   2   3
ATOM      3  C   UNL     1     -23.055 -12.431 -16.196  1.00  0.00     0.000 C 
BRANCH   3   4
ATOM      4  C   UNL     1     -22.289 -13.398 -17.123  1.00  0.00     0.000 C 
BRANCH   4   5
ATOM      5  C   UNL     1     -22.301 -14.844 -16.595  1.00  0.00     0.000 C 
BRANCH   5   6
ATOM      6  C   UNL     1     -23.528 -15.633 -17.076  1.00  0.00     0.000 C 
BRANCH   6   7
ATOM      7  C   UNL     1     -23.278 -17.151 -17.125  1.00  0.00     0.000 C 
BRANCH   7   8
ATOM      8  C   UNL     1     -23.431 -17.812 -15.738  1.00  0.00     0.000 C 
BRANCH   8   9
ATOM      9  C   UNL     1     -24.194 -19.148 -15.782  1.00  0.00     0.000 C 
BRANCH   9  10
ATOM     10  C   UNL     1     -23.277 -20.369 -15.608  1.00  0.00     0.000 C 
BRANCH  10  11
ATOM     11  C   UNL     1     -21.926 -19.998 -14.960  1.00  0.00     0.000 C 
BRANCH  11  12
ATOM     12  C   UNL     1     -20.851 -19.584 -15.984  1.00  0.00     0.006 C 
BRANCH  12  13
ATOM     13  C   UNL     1     -19.609 -18.937 -15.353  1.00  0.00     0.053 C 
BRANCH  13  14
ATOM     14  C   UNL     1     -19.090 -19.739 -14.198  1.00  0.00     0.041 C 
ATOM     15  O   UNL     1     -19.145 -20.998 -14.224  1.00  0.00    -0.550 OA
ATOM     16  O   UNL     1     -18.514 -19.101 -13.107  1.00  0.00    -0.550 OA
ENDBRANCH  13  14
ENDBRANCH  12  13
ENDBRANCH  11  12
ENDBRANCH  10  11
ENDBRANCH   9  10
ENDBRANCH   8   9
ENDBRANCH   7   8
ENDBRANCH   6   7
ENDBRANCH   5   6
ENDBRANCH   4   5
ENDBRANCH   3   4
ENDBRANCH   2   3
ENDBRANCH   1   2
BRANCH   1  17
ATOM     17  C   UNL     1     -23.967  -9.810 -16.018  1.00  0.00     0.000 C 
BRANCH  17  18
ATOM     18  C   UNL     1     -24.181  -8.642 -16.997  1.00  0.00     0.000 C 
BRANCH  18  19
ATOM     19  C   UNL     1     -24.069  -7.268 -16.318  1.00  0.00     0.000 C 
BRANCH  19  20
ATOM     20  C   UNL     1     -22.620  -6.905 -15.952  1.00  0.00     0.000 C 
BRANCH  20  21
ATOM     21  C   UNL     1     -22.062  -5.755 -16.809  1.00  0.00     0.000 C 
BRANCH  21  22
ATOM     22  C   UNL     1     -22.899  -4.467 -16.701  1.00  0.00    -0.000 C 
BRANCH  22  23
ATOM     23  C   UNL     1     -22.172  -3.314 -15.977  1.00  0.00    -0.000 C 
BRANCH  23  24
ATOM     24  C   UNL     1     -22.946  -2.823 -14.742  1.00  0.00    -0.000 C 
BRANCH  24  25
ATOM     25  C   UNL     1     -22.193  -3.076 -13.424  1.00  0.00    -0.000 C 
BRANCH  25  26
ATOM     26  C   UNL     1     -21.963  -4.562 -13.085  1.00  0.00    -0.000 C 
BRANCH  26  27
ATOM     27  C   UNL     1     -20.495  -4.872 -12.737  1.00  0.00    -0.000 C 
BRANCH  27  28
ATOM     28  C   UNL     1     -19.937  -6.065 -13.534  1.00  0.00    -0.000 C 
BRANCH  28  29
ATOM     29  C   UNL     1     -20.749  -7.352 -13.323  1.00  0.00    -0.003 C 
ATOM     30  C   UNL     1     -19.899  -8.590 -13.596  1.00  0.00     0.004 C 
ENDBRANCH  28  29
ENDBRANCH  27  28
ENDBRANCH  26  27
ENDBRANCH  25  26
ENDBRANCH  24  25
ENDBRANCH  23  24
ENDBRANCH  22  23
ENDBRANCH  21  22
ENDBRANCH  20  21
ENDBRANCH  19  20
ENDBRANCH  18  19
ENDBRANCH  17  18
ENDBRANCH   1  17
TORSDOF 26
ENDMDL
