MODEL 1
REMARK VINA RESULT:    14.561      0.000      0.000
REMARK INTER + INTRA:          35.757
REMARK INTER:                  36.693
REMARK INTRA:                  -0.936
REMARK UNBOUND:                -0.936
REMARK SMILES CCCCCCCCCCCCCCCCCCCCCCCCCCCC(=O)[O-]
REMARK SMILES IDX 15 1 16 2 17 3 18 4 19 5 20 6 21 7 22 8 23 9 24 10 25 11
REMARK SMILES IDX 26 12 27 13 28 14 29 15 30 16 14 17 13 18 12 19 11 20 10 21
REMARK SMILES IDX 9 22 8 23 7 24 6 25 5 26 4 27 3 28 2 29 1 30
REMARK H PARENT
REMARK Flexibility Score: inf
ROOT
ATOM      1  C   UNL     1      -4.177  -6.719 -16.523  1.00  0.00     0.000 C 
ENDROOT
BRANCH   1   2
ATOM      2  C   UNL     1      -2.843  -6.184 -17.074  1.00  0.00     0.000 C 
BRANCH   2   3
ATOM      3  C   UNL     1      -1.612  -6.483 -16.197  1.00  0.00     0.000 C 
BRANCH   3   4
ATOM      4  C   UNL     1      -0.777  -7.685 -16.691  1.00  0.00     0.000 C 
BRANCH   4   5
ATOM      5  C   UNL     1       0.734  -7.479 -16.481  1.00  0.00     0.000 C 
BRANCH   5   6
ATOM      6  C   UNL     1       1.173  -6.024 -16.708  1.00  0.00     0.000 C 
BRANCH   6   7
ATOM      7  C   UNL     1       2.452  -5.918 -17.560  1.00  0.00     0.000 C 
BRANCH   7   8
ATOM      8  C   UNL     1       3.703  -5.645 -16.710  1.00  0.00     0.000 C 
BRANCH   8   9
ATOM      9  C   UNL     1       4.785  -6.718 -16.901  1.00  0.00     0.000 C 
BRANCH   9  10
ATOM     10  C   UNL     1       4.999  -7.022 -18.393  1.00  0.00     0.000 C 
BRANCH  10  11
ATOM     11  C   UNL     1       6.260  -7.864 -18.649  1.00  0.00     0.000 C 
BRANCH  11  12
ATOM     12  C   UNL     1       6.430  -8.231 -20.134  1.00  0.00     0.006 C 
BRANCH  12  13
ATOM     13  C   UNL     1       7.896  -8.477 -20.509  1.00  0.00     0.053 C 
BRANCH  13  14
ATOM     14  C   UNL     1       8.431  -9.713 -19.853  1.00  0.00     0.041 C 
ATOM     15  O   UNL     1       8.754  -9.699 -18.635  1.00  0.00    -0.550 OA
ATOM     16  O   UNL     1       8.542 -10.892 -20.582  1.00  0.00    -0.550 OA
ENDBRANCH  13  14
ENDBRANCH  12  13
ENDBRANCH  11  12
ENDBRANCH  10  11
ENDBRANCH   9  10
ENDBRANCH   8   9
ENDBRANCH   7   8
ENDBRANCH   6   7
ENDBRANCH   5   6
ENDBRANCH   4   5
ENDBRANCH   3   4
ENDBRANCH   2   3
ENDBRANCH   1   2
BRANCH   1  17
ATOM     17  C   UNL     1      -4.257  -6.805 -14.986  1.00  0.00     0.000 C 
BRANCH  17  18
ATOM     18  C   UNL     1      -4.092  -5.442 -14.279  1.00  0.00     0.000 C 
BRANCH  18  19
ATOM     19  C   UNL     1      -5.312  -5.070 -13.419  1.00  0.00     0.000 C 
BRANCH  19  20
ATOM     20  C   UNL     1      -5.127  -5.557 -11.974  1.00  0.00     0.000 C 
BRANCH  20  21
ATOM     21  C   UNL     1      -5.879  -6.868 -11.681  1.00  0.00     0.000 C 
BRANCH  21  22
ATOM     22  C   UNL     1      -5.980  -7.237 -10.191  1.00  0.00    -0.000 C 
BRANCH  22  23
ATOM     23  C   UNL     1      -4.983  -8.331  -9.771  1.00  0.00    -0.000 C 
BRANCH  23  24
ATOM     24  C   UNL     1      -4.578  -8.211  -8.284  1.00  0.00    -0.000 C 
BRANCH  24  25
ATOM     25  C   UNL     1      -4.136  -9.551  -7.662  1.00  0.00    -0.000 C 
BRANCH  25  26
ATOM     26  C   UNL     1      -3.447  -9.425  -6.293  1.00  0.00    -0.000 C 
BRANCH  26  27
ATOM     27  C   UNL     1      -4.144 -10.248  -5.197  1.00  0.00    -0.000 C 
BRANCH  27  28
ATOM     28  C   UNL     1      -5.558 -10.648  -5.638  1.00  0.00    -0.000 C 
BRANCH  28  29
ATOM     29  C   UNL     1      -5.823 -12.136  -5.372  1.00  0.00    -0.003 C 
ATOM     30  C   UNL     1      -4.533 -12.947  -5.452  1.00  0.00     0.004 C 
ENDBRANCH  28  29
ENDBRANCH  27  28
ENDBRANCH  26  27
ENDBRANCH  25  26
ENDBRANCH  24  25
ENDBRANCH  23  24
ENDBRANCH  22  23
ENDBRANCH  21  22
ENDBRANCH  20  21
ENDBRANCH  19  20
ENDBRANCH  18  19
ENDBRANCH  17  18
ENDBRANCH   1  17
TORSDOF 26
ENDMDL
MODEL 2
REMARK VINA RESULT:    15.307      4.900     14.720
REMARK INTER + INTRA:          37.636
REMARK INTER:                  38.843
REMARK INTRA:                  -1.207
REMARK UNBOUND:                -0.936
REMARK SMILES CCCCCCCCCCCCCCCCCCCCCCCCCCCC(=O)[O-]
REMARK SMILES IDX 15 1 16 2 17 3 18 4 19 5 20 6 21 7 22 8 23 9 24 10 25 11
REMARK SMILES IDX 26 12 27 13 28 14 29 15 30 16 14 17 13 18 12 19 11 20 10 21
REMARK SMILES IDX 9 22 8 23 7 24 6 25 5 26 4 27 3 28 2 29 1 30
REMARK H PARENT
REMARK Flexibility Score: inf
ROOT
ATOM      1  C   UNL     1       0.727  -6.084 -16.408  1.00  0.00     0.000 C 
ENDROOT
BRANCH   1   2
ATOM      2  C   UNL     1      -0.171  -7.321 -16.586  1.00  0.00     0.000 C 
BRANCH   2   3
ATOM      3  C   UNL     1      -1.469  -7.305 -15.754  1.00  0.00     0.000 C 
BRANCH   3   4
ATOM      4  C   UNL     1      -2.462  -6.202 -16.178  1.00  0.00     0.000 C 
BRANCH   4   5
ATOM      5  C   UNL     1      -3.927  -6.676 -16.126  1.00  0.00     0.000 C 
BRANCH   5   6
ATOM      6  C   UNL     1      -4.606  -6.362 -14.785  1.00  0.00     0.000 C 
BRANCH   6   7
ATOM      7  C   UNL     1      -3.637  -5.740 -13.762  1.00  0.00     0.000 C 
BRANCH   7   8
ATOM      8  C   UNL     1      -4.324  -5.415 -12.426  1.00  0.00     0.000 C 
BRANCH   8   9
ATOM      9  C   UNL     1      -5.620  -6.214 -12.225  1.00  0.00     0.000 C 
BRANCH   9  10
ATOM     10  C   UNL     1      -5.688  -6.801 -10.805  1.00  0.00     0.000 C 
BRANCH  10  11
ATOM     11  C   UNL     1      -5.037  -8.191 -10.709  1.00  0.00     0.000 C 
BRANCH  11  12
ATOM     12  C   UNL     1      -4.285  -8.397  -9.382  1.00  0.00     0.006 C 
BRANCH  12  13
ATOM     13  C   UNL     1      -5.065  -9.280  -8.402  1.00  0.00     0.053 C 
BRANCH  13  14
ATOM     14  C   UNL     1      -4.308  -9.488  -7.126  1.00  0.00     0.041 C 
ATOM     15  O   UNL     1      -3.535  -8.593  -6.690  1.00  0.00    -0.550 OA
ATOM     16  O   UNL     1      -4.483 -10.661  -6.400  1.00  0.00    -0.550 OA
ENDBRANCH  13  14
ENDBRANCH  12  13
ENDBRANCH  11  12
ENDBRANCH  10  11
ENDBRANCH   9  10
ENDBRANCH   8   9
ENDBRANCH   7   8
ENDBRANCH   6   7
ENDBRANCH   5   6
ENDBRANCH   4   5
ENDBRANCH   3   4
ENDBRANCH   2   3
ENDBRANCH   1   2
BRANCH   1  17
ATOM     17  C   UNL     1       2.006  -6.081 -17.269  1.00  0.00     0.000 C 
BRANCH  17  18
ATOM     18  C   UNL     1       3.309  -5.997 -16.442  1.00  0.00     0.000 C 
BRANCH  18  19
ATOM     19  C   UNL     1       4.568  -5.970 -17.325  1.00  0.00     0.000 C 
BRANCH  19  20
ATOM     20  C   UNL     1       5.053  -7.397 -17.623  1.00  0.00     0.000 C 
BRANCH  20  21
ATOM     21  C   UNL     1       5.979  -7.473 -18.851  1.00  0.00     0.000 C 
BRANCH  21  22
ATOM     22  C   UNL     1       6.665  -8.833 -19.063  1.00  0.00    -0.000 C 
BRANCH  22  23
ATOM     23  C   UNL     1       7.060  -9.089 -20.528  1.00  0.00    -0.000 C 
BRANCH  23  24
ATOM     24  C   UNL     1       8.573  -8.887 -20.768  1.00  0.00    -0.000 C 
BRANCH  24  25
ATOM     25  C   UNL     1       8.927  -7.476 -21.278  1.00  0.00    -0.000 C 
BRANCH  25  26
ATOM     26  C   UNL     1       8.946  -7.335 -22.811  1.00  0.00    -0.000 C 
BRANCH  26  27
ATOM     27  C   UNL     1       8.879  -5.873 -23.276  1.00  0.00    -0.000 C 
BRANCH  27  28
ATOM     28  C   UNL     1       7.687  -5.658 -24.218  1.00  0.00    -0.000 C 
BRANCH  28  29
ATOM     29  C   UNL     1       6.474  -6.490 -23.778  1.00  0.00    -0.003 C 
ATOM     30  C   UNL     1       5.213  -5.633 -23.722  1.00  0.00     0.004 C 
ENDBRANCH  28  29
ENDBRANCH  27  28
ENDBRANCH  26  27
ENDBRANCH  25  26
ENDBRANCH  24  25
ENDBRANCH  23  24
ENDBRANCH  22  23
ENDBRANCH  21  22
ENDBRANCH  20  21
ENDBRANCH  19  20
ENDBRANCH  18  19
ENDBRANCH  17  18
ENDBRANCH   1  17
TORSDOF 26
ENDMDL
MODEL 3
REMARK VINA RESULT:    15.447      5.405     13.976
REMARK INTER + INTRA:          37.989
REMARK INTER:                  38.301
REMARK INTRA:                  -0.312
REMARK UNBOUND:                -0.936
REMARK SMILES CCCCCCCCCCCCCCCCCCCCCCCCCCCC(=O)[O-]
REMARK SMILES IDX 15 1 16 2 17 3 18 4 19 5 20 6 21 7 22 8 23 9 24 10 25 11
REMARK SMILES IDX 26 12 27 13 28 14 29 15 30 16 14 17 13 18 12 19 11 20 10 21
REMARK SMILES IDX 9 22 8 23 7 24 6 25 5 26 4 27 3 28 2 29 1 30
REMARK H PARENT
REMARK Flexibility Score: inf
ROOT
ATOM      1  C   UNL     1      -3.989  -6.553 -14.474  1.00  0.00     0.000 C 
ENDROOT
BRANCH   1   2
ATOM      2  C   UNL     1      -5.093  -5.786 -13.726  1.00  0.00     0.000 C 
BRANCH   2   3
ATOM      3  C   UNL     1      -5.077  -5.954 -12.194  1.00  0.00     0.000 C 
BRANCH   3   4
ATOM      4  C   UNL     1      -5.748  -7.257 -11.707  1.00  0.00     0.000 C 
BRANCH   4   5
ATOM      5  C   UNL     1      -5.775  -7.369 -10.172  1.00  0.00     0.000 C 
BRANCH   5   6
ATOM      6  C   UNL     1      -4.554  -8.113  -9.608  1.00  0.00     0.000 C 
BRANCH   6   7
ATOM      7  C   UNL     1      -4.944  -9.387  -8.835  1.00  0.00     0.000 C 
BRANCH   7   8
ATOM      8  C   UNL     1      -3.992  -9.675  -7.662  1.00  0.00     0.000 C 
BRANCH   8   9
ATOM      9  C   UNL     1      -4.387  -8.914  -6.388  1.00  0.00     0.000 C 
BRANCH   9  10
ATOM     10  C   UNL     1      -3.398  -9.203  -5.247  1.00  0.00     0.000 C 
BRANCH  10  11
ATOM     11  C   UNL     1      -3.217 -10.709  -4.990  1.00  0.00     0.000 C 
BRANCH  11  12
ATOM     12  C   UNL     1      -4.232 -11.564  -5.770  1.00  0.00     0.006 C 
BRANCH  12  13
ATOM     13  C   UNL     1      -5.367 -12.078  -4.877  1.00  0.00     0.053 C 
BRANCH  13  14
ATOM     14  C   UNL     1      -6.688 -12.031  -5.584  1.00  0.00     0.041 C 
ATOM     15  O   UNL     1      -6.765 -12.314  -6.809  1.00  0.00    -0.550 OA
ATOM     16  O   UNL     1      -7.840 -11.706  -4.877  1.00  0.00    -0.550 OA
ENDBRANCH  13  14
ENDBRANCH  12  13
ENDBRANCH  11  12
ENDBRANCH  10  11
ENDBRANCH   9  10
ENDBRANCH   8   9
ENDBRANCH   7   8
ENDBRANCH   6   7
ENDBRANCH   5   6
ENDBRANCH   4   5
ENDBRANCH   3   4
ENDBRANCH   2   3
ENDBRANCH   1   2
BRANCH   1  17
ATOM     17  C   UNL     1      -4.278  -6.817 -15.965  1.00  0.00     0.000 C 
BRANCH  17  18
ATOM     18  C   UNL     1      -3.030  -6.702 -16.868  1.00  0.00     0.000 C 
BRANCH  18  19
ATOM     19  C   UNL     1      -1.781  -6.243 -16.095  1.00  0.00     0.000 C 
BRANCH  19  20
ATOM     20  C   UNL     1      -0.598  -7.185 -16.365  1.00  0.00     0.000 C 
BRANCH  20  21
ATOM     21  C   UNL     1       0.513  -6.530 -17.206  1.00  0.00     0.000 C 
BRANCH  21  22
ATOM     22  C   UNL     1       1.946  -6.850 -16.749  1.00  0.00    -0.000 C 
BRANCH  22  23
ATOM     23  C   UNL     1       2.829  -5.598 -16.606  1.00  0.00    -0.000 C 
BRANCH  23  24
ATOM     24  C   UNL     1       4.256  -5.824 -17.155  1.00  0.00    -0.000 C 
BRANCH  24  25
ATOM     25  C   UNL     1       4.577  -7.307 -17.425  1.00  0.00    -0.000 C 
BRANCH  25  26
ATOM     26  C   UNL     1       6.032  -7.581 -17.843  1.00  0.00    -0.000 C 
BRANCH  26  27
ATOM     27  C   UNL     1       6.161  -7.989 -19.319  1.00  0.00    -0.000 C 
BRANCH  27  28
ATOM     28  C   UNL     1       6.933  -9.309 -19.450  1.00  0.00    -0.000 C 
BRANCH  28  29
ATOM     29  C   UNL     1       8.332  -9.079 -20.038  1.00  0.00    -0.003 C 
ATOM     30  C   UNL     1       8.255  -8.325 -21.362  1.00  0.00     0.004 C 
ENDBRANCH  28  29
ENDBRANCH  27  28
ENDBRANCH  26  27
ENDBRANCH  25  26
ENDBRANCH  24  25
ENDBRANCH  23  24
ENDBRANCH  22  23
ENDBRANCH  21  22
ENDBRANCH  20  21
ENDBRANCH  19  20
ENDBRANCH  18  19
ENDBRANCH  17  18
ENDBRANCH   1  17
TORSDOF 26
ENDMDL
MODEL 4
REMARK VINA RESULT:    15.587      5.365     12.513
REMARK INTER + INTRA:          38.343
REMARK INTER:                  38.958
REMARK INTRA:                  -0.616
REMARK UNBOUND:                -0.936
REMARK SMILES CCCCCCCCCCCCCCCCCCCCCCCCCCCC(=O)[O-]
REMARK SMILES IDX 15 1 16 2 17 3 18 4 19 5 20 6 21 7 22 8 23 9 24 10 25 11
REMARK SMILES IDX 26 12 27 13 28 14 29 15 30 16 14 17 13 18 12 19 11 20 10 21
REMARK SMILES IDX 9 22 8 23 7 24 6 25 5 26 4 27 3 28 2 29 1 30
REMARK H PARENT
REMARK Flexibility Score: inf
ROOT
ATOM      1  C   UNL     1      -1.454 -12.964 -12.977  1.00  0.00     0.000 C 
ENDROOT
BRANCH   1   2
ATOM      2  C   UNL     1      -2.898 -12.472 -12.773  1.00  0.00     0.000 C 
BRANCH   2   3
ATOM      3  C   UNL     1      -3.121 -11.620 -11.509  1.00  0.00     0.000 C 
BRANCH   3   4
ATOM      4  C   UNL     1      -4.269 -12.131 -10.612  1.00  0.00     0.000 C 
BRANCH   4   5
ATOM      5  C   UNL     1      -4.652 -11.122  -9.513  1.00  0.00     0.000 C 
BRANCH   5   6
ATOM      6  C   UNL     1      -4.126 -11.525  -8.126  1.00  0.00     0.000 C 
BRANCH   6   7
ATOM      7  C   UNL     1      -5.201 -12.213  -7.263  1.00  0.00     0.000 C 
BRANCH   7   8
ATOM      8  C   UNL     1      -4.677 -12.594  -5.869  1.00  0.00     0.000 C 
BRANCH   8   9
ATOM      9  C   UNL     1      -4.547 -11.377  -4.941  1.00  0.00     0.000 C 
BRANCH   9  10
ATOM     10  C   UNL     1      -4.639 -10.066  -5.738  1.00  0.00     0.000 C 
BRANCH  10  11
ATOM     11  C   UNL     1      -3.930  -8.897  -5.036  1.00  0.00     0.000 C 
BRANCH  11  12
ATOM     12  C   UNL     1      -2.692  -8.410  -5.810  1.00  0.00     0.006 C 
BRANCH  12  13
ATOM     13  C   UNL     1      -1.571  -7.936  -4.877  1.00  0.00     0.053 C 
BRANCH  13  14
ATOM     14  C   UNL     1      -0.532  -7.152  -5.620  1.00  0.00     0.041 C 
ATOM     15  O   UNL     1       0.561  -7.689  -5.941  1.00  0.00    -0.550 OA
ATOM     16  O   UNL     1      -0.788  -5.836  -5.987  1.00  0.00    -0.550 OA
ENDBRANCH  13  14
ENDBRANCH  12  13
ENDBRANCH  11  12
ENDBRANCH  10  11
ENDBRANCH   9  10
ENDBRANCH   8   9
ENDBRANCH   7   8
ENDBRANCH   6   7
ENDBRANCH   5   6
ENDBRANCH   4   5
ENDBRANCH   3   4
ENDBRANCH   2   3
ENDBRANCH   1   2
BRANCH   1  17
ATOM     17  C   UNL     1      -0.977 -12.987 -14.444  1.00  0.00     0.000 C 
BRANCH  17  18
ATOM     18  C   UNL     1       0.446 -13.559 -14.624  1.00  0.00     0.000 C 
BRANCH  18  19
ATOM     19  C   UNL     1       1.097 -13.119 -15.946  1.00  0.00     0.000 C 
BRANCH  19  20
ATOM     20  C   UNL     1       2.091 -11.973 -15.708  1.00  0.00     0.000 C 
BRANCH  20  21
ATOM     21  C   UNL     1       1.401 -10.643 -15.354  1.00  0.00     0.000 C 
BRANCH  21  22
ATOM     22  C   UNL     1       1.874  -9.428 -16.171  1.00  0.00    -0.000 C 
BRANCH  22  23
ATOM     23  C   UNL     1       0.936  -8.215 -16.050  1.00  0.00    -0.000 C 
BRANCH  23  24
ATOM     24  C   UNL     1      -0.549  -8.608 -16.220  1.00  0.00    -0.000 C 
BRANCH  24  25
ATOM     25  C   UNL     1      -1.464  -7.409 -16.542  1.00  0.00    -0.000 C 
BRANCH  25  26
ATOM     26  C   UNL     1      -1.954  -6.629 -15.309  1.00  0.00    -0.000 C 
BRANCH  26  27
ATOM     27  C   UNL     1      -3.393  -6.113 -15.464  1.00  0.00    -0.000 C 
BRANCH  27  28
ATOM     28  C   UNL     1      -3.876  -6.283 -16.910  1.00  0.00    -0.000 C 
BRANCH  28  29
ATOM     29  C   UNL     1      -5.390  -6.529 -16.966  1.00  0.00    -0.003 C 
ATOM     30  C   UNL     1      -6.091  -5.453 -17.788  1.00  0.00     0.004 C 
ENDBRANCH  28  29
ENDBRANCH  27  28
ENDBRANCH  26  27
ENDBRANCH  25  26
ENDBRANCH  24  25
ENDBRANCH  23  24
ENDBRANCH  22  23
ENDBRANCH  21  22
ENDBRANCH  20  21
ENDBRANCH  19  20
ENDBRANCH  18  19
ENDBRANCH  17  18
ENDBRANCH   1  17
TORSDOF 26
ENDMDL
MODEL 5
REMARK VINA RESULT:    15.718      1.117      2.137
REMARK INTER + INTRA:          38.673
REMARK INTER:                  40.064
REMARK INTRA:                  -1.390
REMARK UNBOUND:                -0.936
REMARK SMILES CCCCCCCCCCCCCCCCCCCCCCCCCCCC(=O)[O-]
REMARK SMILES IDX 15 1 16 2 17 3 18 4 19 5 20 6 21 7 22 8 23 9 24 10 25 11
REMARK SMILES IDX 26 12 27 13 28 14 29 15 30 16 14 17 13 18 12 19 11 20 10 21
REMARK SMILES IDX 9 22 8 23 7 24 6 25 5 26 4 27 3 28 2 29 1 30
REMARK H PARENT
REMARK Flexibility Score: inf
ROOT
ATOM      1  C   UNL     1      -4.484  -6.394 -16.050  1.00  0.00     0.000 C 
ENDROOT
BRANCH   1   2
ATOM      2  C   UNL     1      -3.095  -6.241 -16.695  1.00  0.00     0.000 C 
BRANCH   2   3
ATOM      3  C   UNL     1      -1.990  -7.116 -16.072  1.00  0.00     0.000 C 
BRANCH   3   4
ATOM      4  C   UNL     1      -0.560  -6.647 -16.418  1.00  0.00     0.000 C 
BRANCH   4   5
ATOM      5  C   UNL     1       0.393  -7.822 -16.702  1.00  0.00     0.000 C 
BRANCH   5   6
ATOM      6  C   UNL     1       1.870  -7.453 -16.496  1.00  0.00     0.000 C 
BRANCH   6   7
ATOM      7  C   UNL     1       2.052  -6.023 -15.952  1.00  0.00     0.000 C 
BRANCH   7   8
ATOM      8  C   UNL     1       3.353  -5.370 -16.444  1.00  0.00     0.000 C 
BRANCH   8   9
ATOM      9  C   UNL     1       3.827  -5.948 -17.786  1.00  0.00     0.000 C 
BRANCH   9  10
ATOM     10  C   UNL     1       5.132  -6.741 -17.611  1.00  0.00     0.000 C 
BRANCH  10  11
ATOM     11  C   UNL     1       5.473  -7.596 -18.843  1.00  0.00     0.000 C 
BRANCH  11  12
ATOM     12  C   UNL     1       6.807  -8.347 -18.687  1.00  0.00     0.006 C 
BRANCH  12  13
ATOM     13  C   UNL     1       7.312  -8.920 -20.016  1.00  0.00     0.053 C 
BRANCH  13  14
ATOM     14  C   UNL     1       8.406  -9.922 -19.804  1.00  0.00     0.041 C 
ATOM     15  O   UNL     1       8.943 -10.048 -18.671  1.00  0.00    -0.550 OA
ATOM     16  O   UNL     1       8.809 -10.740 -20.853  1.00  0.00    -0.550 OA
ENDBRANCH  13  14
ENDBRANCH  12  13
ENDBRANCH  11  12
ENDBRANCH  10  11
ENDBRANCH   9  10
ENDBRANCH   8   9
ENDBRANCH   7   8
ENDBRANCH   6   7
ENDBRANCH   5   6
ENDBRANCH   4   5
ENDBRANCH   3   4
ENDBRANCH   2   3
ENDBRANCH   1   2
BRANCH   1  17
ATOM     17  C   UNL     1      -4.470  -6.623 -14.525  1.00  0.00     0.000 C 
BRANCH  17  18
ATOM     18  C   UNL     1      -5.026  -5.431 -13.715  1.00  0.00     0.000 C 
BRANCH  18  19
ATOM     19  C   UNL     1      -4.901  -5.640 -12.196  1.00  0.00     0.000 C 
BRANCH  19  20
ATOM     20  C   UNL     1      -5.372  -7.048 -11.800  1.00  0.00     0.000 C 
BRANCH  20  21
ATOM     21  C   UNL     1      -5.584  -7.207 -10.283  1.00  0.00     0.000 C 
BRANCH  21  22
ATOM     22  C   UNL     1      -5.480  -8.650  -9.762  1.00  0.00    -0.000 C 
BRANCH  22  23
ATOM     23  C   UNL     1      -4.350  -8.843  -8.737  1.00  0.00    -0.000 C 
BRANCH  23  24
ATOM     24  C   UNL     1      -4.518 -10.144  -7.921  1.00  0.00    -0.000 C 
BRANCH  24  25
ATOM     25  C   UNL     1      -5.407  -9.971  -6.673  1.00  0.00    -0.000 C 
BRANCH  25  26
ATOM     26  C   UNL     1      -4.642  -9.611  -5.387  1.00  0.00    -0.000 C 
BRANCH  26  27
ATOM     27  C   UNL     1      -3.120  -9.753  -5.540  1.00  0.00    -0.000 C 
BRANCH  27  28
ATOM     28  C   UNL     1      -2.398  -8.570  -4.881  1.00  0.00    -0.000 C 
BRANCH  28  29
ATOM     29  C   UNL     1      -2.407  -7.335  -5.793  1.00  0.00    -0.003 C 
ATOM     30  C   UNL     1      -0.988  -6.927  -6.179  1.00  0.00     0.004 C 
ENDBRANCH  28  29
ENDBRANCH  27  28
ENDBRANCH  26  27
ENDBRANCH  25  26
ENDBRANCH  24  25
ENDBRANCH  23  24
ENDBRANCH  22  23
ENDBRANCH  21  22
ENDBRANCH  20  21
ENDBRANCH  19  20
ENDBRANCH  18  19
ENDBRANCH  17  18
ENDBRANCH   1  17
TORSDOF 26
ENDMDL
MODEL 6
REMARK VINA RESULT:    15.761      6.049     12.150
REMARK INTER + INTRA:          38.781
REMARK INTER:                  39.713
REMARK INTRA:                  -0.932
REMARK UNBOUND:                -0.936
REMARK SMILES CCCCCCCCCCCCCCCCCCCCCCCCCCCC(=O)[O-]
REMARK SMILES IDX 15 1 16 2 17 3 18 4 19 5 20 6 21 7 22 8 23 9 24 10 25 11
REMARK SMILES IDX 26 12 27 13 28 14 29 15 30 16 14 17 13 18 12 19 11 20 10 21
REMARK SMILES IDX 9 22 8 23 7 24 6 25 5 26 4 27 3 28 2 29 1 30
REMARK H PARENT
REMARK Flexibility Score: inf
ROOT
ATOM      1  C   UNL     1      -4.723  -6.487 -14.528  1.00  0.00     0.000 C 
ENDROOT
BRANCH   1   2
ATOM      2  C   UNL     1      -5.119  -5.341 -13.582  1.00  0.00     0.000 C 
BRANCH   2   3
ATOM      3  C   UNL     1      -5.071  -5.691 -12.082  1.00  0.00     0.000 C 
BRANCH   3   4
ATOM      4  C   UNL     1      -5.414  -7.166 -11.779  1.00  0.00     0.000 C 
BRANCH   4   5
ATOM      5  C   UNL     1      -5.817  -7.388 -10.310  1.00  0.00     0.000 C 
BRANCH   5   6
ATOM      6  C   UNL     1      -4.638  -7.829  -9.429  1.00  0.00     0.000 C 
BRANCH   6   7
ATOM      7  C   UNL     1      -5.003  -8.995  -8.491  1.00  0.00     0.000 C 
BRANCH   7   8
ATOM      8  C   UNL     1      -3.804  -9.473  -7.657  1.00  0.00     0.000 C 
BRANCH   8   9
ATOM      9  C   UNL     1      -3.512  -8.547  -6.467  1.00  0.00     0.000 C 
BRANCH   9  10
ATOM     10  C   UNL     1      -4.030  -9.159  -5.156  1.00  0.00     0.000 C 
BRANCH  10  11
ATOM     11  C   UNL     1      -3.457 -10.562  -4.892  1.00  0.00     0.000 C 
BRANCH  11  12
ATOM     12  C   UNL     1      -4.546 -11.649  -4.876  1.00  0.00     0.006 C 
BRANCH  12  13
ATOM     13  C   UNL     1      -5.122 -11.917  -6.271  1.00  0.00     0.053 C 
BRANCH  13  14
ATOM     14  C   UNL     1      -6.576 -12.273  -6.208  1.00  0.00     0.041 C 
ATOM     15  O   UNL     1      -7.359 -11.624  -5.466  1.00  0.00    -0.550 OA
ATOM     16  O   UNL     1      -7.071 -13.304  -6.998  1.00  0.00    -0.550 OA
ENDBRANCH  13  14
ENDBRANCH  12  13
ENDBRANCH  11  12
ENDBRANCH  10  11
ENDBRANCH   9  10
ENDBRANCH   8   9
ENDBRANCH   7   8
ENDBRANCH   6   7
ENDBRANCH   5   6
ENDBRANCH   4   5
ENDBRANCH   3   4
ENDBRANCH   2   3
ENDBRANCH   1   2
BRANCH   1  17
ATOM     17  C   UNL     1      -4.893  -6.179 -16.029  1.00  0.00     0.000 C 
BRANCH  17  18
ATOM     18  C   UNL     1      -3.565  -6.178 -16.817  1.00  0.00     0.000 C 
BRANCH  18  19
ATOM     19  C   UNL     1      -2.380  -6.685 -15.977  1.00  0.00     0.000 C 
BRANCH  19  20
ATOM     20  C   UNL     1      -1.569  -7.731 -16.757  1.00  0.00     0.000 C 
BRANCH  20  21
ATOM     21  C   UNL     1      -0.081  -7.754 -16.363  1.00  0.00     0.000 C 
BRANCH  21  22
ATOM     22  C   UNL     1       0.399  -9.066 -15.717  1.00  0.00    -0.000 C 
BRANCH  22  23
ATOM     23  C   UNL     1       1.804  -9.488 -16.178  1.00  0.00    -0.000 C 
BRANCH  23  24
ATOM     24  C   UNL     1       2.317 -10.734 -15.421  1.00  0.00    -0.000 C 
BRANCH  24  25
ATOM     25  C   UNL     1       2.439 -11.984 -16.315  1.00  0.00    -0.000 C 
BRANCH  25  26
ATOM     26  C   UNL     1       2.431 -13.320 -15.552  1.00  0.00    -0.000 C 
BRANCH  26  27
ATOM     27  C   UNL     1       1.049 -13.992 -15.542  1.00  0.00    -0.000 C 
BRANCH  27  28
ATOM     28  C   UNL     1       0.004 -13.070 -14.898  1.00  0.00    -0.000 C 
BRANCH  28  29
ATOM     29  C   UNL     1      -0.858 -13.832 -13.883  1.00  0.00    -0.003 C 
ATOM     30  C   UNL     1      -1.860 -12.902 -13.206  1.00  0.00     0.004 C 
ENDBRANCH  28  29
ENDBRANCH  27  28
ENDBRANCH  26  27
ENDBRANCH  25  26
ENDBRANCH  24  25
ENDBRANCH  23  24
ENDBRANCH  22  23
ENDBRANCH  21  22
ENDBRANCH  20  21
ENDBRANCH  19  20
ENDBRANCH  18  19
ENDBRANCH  17  18
ENDBRANCH   1  17
TORSDOF 26
ENDMDL
MODEL 7
REMARK VINA RESULT:    16.372      1.844      2.380
REMARK INTER + INTRA:          40.320
REMARK INTER:                  41.348
REMARK INTRA:                  -1.028
REMARK UNBOUND:                -0.936
REMARK SMILES CCCCCCCCCCCCCCCCCCCCCCCCCCCC(=O)[O-]
REMARK SMILES IDX 15 1 16 2 17 3 18 4 19 5 20 6 21 7 22 8 23 9 24 10 25 11
REMARK SMILES IDX 26 12 27 13 28 14 29 15 30 16 14 17 13 18 12 19 11 20 10 21
REMARK SMILES IDX 9 22 8 23 7 24 6 25 5 26 4 27 3 28 2 29 1 30
REMARK H PARENT
REMARK Flexibility Score: inf
ROOT
ATOM      1  C   UNL     1      -3.344  -6.028 -15.663  1.00  0.00     0.000 C 
ENDROOT
BRANCH   1   2
ATOM      2  C   UNL     1      -2.293  -6.777 -16.500  1.00  0.00     0.000 C 
BRANCH   2   3
ATOM      3  C   UNL     1      -0.861  -6.737 -15.931  1.00  0.00     0.000 C 
BRANCH   3   4
ATOM      4  C   UNL     1       0.208  -7.281 -16.903  1.00  0.00     0.000 C 
BRANCH   4   5
ATOM      5  C   UNL     1       1.642  -6.981 -16.431  1.00  0.00     0.000 C 
BRANCH   5   6
ATOM      6  C   UNL     1       2.352  -5.940 -17.312  1.00  0.00     0.000 C 
BRANCH   6   7
ATOM      7  C   UNL     1       3.887  -6.030 -17.213  1.00  0.00     0.000 C 
BRANCH   7   8
ATOM      8  C   UNL     1       4.420  -7.414 -17.616  1.00  0.00     0.000 C 
BRANCH   8   9
ATOM      9  C   UNL     1       5.668  -7.324 -18.507  1.00  0.00     0.000 C 
BRANCH   9  10
ATOM     10  C   UNL     1       6.291  -8.713 -18.721  1.00  0.00     0.000 C 
BRANCH  10  11
ATOM     11  C   UNL     1       7.273  -8.743 -19.903  1.00  0.00     0.000 C 
BRANCH  11  12
ATOM     12  C   UNL     1       6.872  -7.771 -21.027  1.00  0.00     0.006 C 
BRANCH  12  13
ATOM     13  C   UNL     1       8.088  -7.135 -21.709  1.00  0.00     0.053 C 
BRANCH  13  14
ATOM     14  C   UNL     1       7.893  -7.026 -23.191  1.00  0.00     0.041 C 
ATOM     15  O   UNL     1       8.822  -7.344 -23.981  1.00  0.00    -0.550 OA
ATOM     16  O   UNL     1       6.670  -6.605 -23.700  1.00  0.00    -0.550 OA
ENDBRANCH  13  14
ENDBRANCH  12  13
ENDBRANCH  11  12
ENDBRANCH  10  11
ENDBRANCH   9  10
ENDBRANCH   8   9
ENDBRANCH   7   8
ENDBRANCH   6   7
ENDBRANCH   5   6
ENDBRANCH   4   5
ENDBRANCH   3   4
ENDBRANCH   2   3
ENDBRANCH   1   2
BRANCH   1  17
ATOM     17  C   UNL     1      -4.245  -6.929 -14.795  1.00  0.00     0.000 C 
BRANCH  17  18
ATOM     18  C   UNL     1      -4.718  -6.257 -13.487  1.00  0.00     0.000 C 
BRANCH  18  19
ATOM     19  C   UNL     1      -5.477  -7.227 -12.565  1.00  0.00     0.000 C 
BRANCH  19  20
ATOM     20  C   UNL     1      -5.451  -6.729 -11.113  1.00  0.00     0.000 C 
BRANCH  20  21
ATOM     21  C   UNL     1      -5.532  -7.871 -10.084  1.00  0.00     0.000 C 
BRANCH  21  22
ATOM     22  C   UNL     1      -4.263  -8.072  -9.237  1.00  0.00    -0.000 C 
BRANCH  22  23
ATOM     23  C   UNL     1      -4.489  -8.981  -8.017  1.00  0.00    -0.000 C 
BRANCH  23  24
ATOM     24  C   UNL     1      -3.446  -8.734  -6.904  1.00  0.00    -0.000 C 
BRANCH  24  25
ATOM     25  C   UNL     1      -3.926  -9.179  -5.508  1.00  0.00    -0.000 C 
BRANCH  25  26
ATOM     26  C   UNL     1      -4.157 -10.693  -5.363  1.00  0.00    -0.000 C 
BRANCH  26  27
ATOM     27  C   UNL     1      -5.631 -11.090  -5.536  1.00  0.00    -0.000 C 
BRANCH  27  28
ATOM     28  C   UNL     1      -5.746 -12.508  -6.113  1.00  0.00    -0.000 C 
BRANCH  28  29
ATOM     29  C   UNL     1      -5.298 -12.549  -7.581  1.00  0.00    -0.003 C 
ATOM     30  C   UNL     1      -5.819 -13.802  -8.278  1.00  0.00     0.004 C 
ENDBRANCH  28  29
ENDBRANCH  27  28
ENDBRANCH  26  27
ENDBRANCH  25  26
ENDBRANCH  24  25
ENDBRANCH  23  24
ENDBRANCH  22  23
ENDBRANCH  21  22
ENDBRANCH  20  21
ENDBRANCH  19  20
ENDBRANCH  18  19
ENDBRANCH  17  18
ENDBRANCH   1  17
TORSDOF 26
ENDMDL
MODEL 8
REMARK VINA RESULT:    16.670      5.409      9.699
REMARK INTER + INTRA:          41.071
REMARK INTER:                  39.175
REMARK INTRA:                   1.896
REMARK UNBOUND:                -0.936
REMARK SMILES CCCCCCCCCCCCCCCCCCCCCCCCCCCC(=O)[O-]
REMARK SMILES IDX 15 1 16 2 17 3 18 4 19 5 20 6 21 7 22 8 23 9 24 10 25 11
REMARK SMILES IDX 26 12 27 13 28 14 29 15 30 16 14 17 13 18 12 19 11 20 10 21
REMARK SMILES IDX 9 22 8 23 7 24 6 25 5 26 4 27 3 28 2 29 1 30
REMARK H PARENT
REMARK Flexibility Score: inf
ROOT
ATOM      1  C   UNL     1      -3.578  -9.925  -6.575  1.00  0.00     0.000 C 
ENDROOT
BRANCH   1   2
ATOM      2  C   UNL     1      -3.462  -8.973  -7.779  1.00  0.00     0.000 C 
BRANCH   2   3
ATOM      3  C   UNL     1      -4.649  -9.023  -8.762  1.00  0.00     0.000 C 
BRANCH   3   4
ATOM      4  C   UNL     1      -4.762  -7.771  -9.659  1.00  0.00     0.000 C 
BRANCH   4   5
ATOM      5  C   UNL     1      -6.099  -7.710 -10.420  1.00  0.00     0.000 C 
BRANCH   5   6
ATOM      6  C   UNL     1      -6.470  -6.285 -10.857  1.00  0.00     0.000 C 
BRANCH   6   7
ATOM      7  C   UNL     1      -5.800  -5.878 -12.183  1.00  0.00     0.000 C 
BRANCH   7   8
ATOM      8  C   UNL     1      -5.432  -7.093 -13.050  1.00  0.00     0.000 C 
BRANCH   8   9
ATOM      9  C   UNL     1      -5.231  -6.719 -14.526  1.00  0.00     0.000 C 
BRANCH   9  10
ATOM     10  C   UNL     1      -4.409  -5.426 -14.657  1.00  0.00     0.000 C 
BRANCH  10  11
ATOM     11  C   UNL     1      -2.896  -5.674 -14.535  1.00  0.00     0.000 C 
BRANCH  11  12
ATOM     12  C   UNL     1      -2.420  -6.845 -15.411  1.00  0.00     0.006 C 
BRANCH  12  13
ATOM     13  C   UNL     1      -1.101  -6.536 -16.130  1.00  0.00     0.053 C 
BRANCH  13  14
ATOM     14  C   UNL     1      -0.685  -7.664 -17.025  1.00  0.00     0.041 C 
ATOM     15  O   UNL     1       0.205  -8.475 -16.655  1.00  0.00    -0.550 OA
ATOM     16  O   UNL     1      -1.307  -7.837 -18.256  1.00  0.00    -0.550 OA
ENDBRANCH  13  14
ENDBRANCH  12  13
ENDBRANCH  11  12
ENDBRANCH  10  11
ENDBRANCH   9  10
ENDBRANCH   8   9
ENDBRANCH   7   8
ENDBRANCH   6   7
ENDBRANCH   5   6
ENDBRANCH   4   5
ENDBRANCH   3   4
ENDBRANCH   2   3
ENDBRANCH   1   2
BRANCH   1  17
ATOM     17  C   UNL     1      -3.774  -9.228  -5.213  1.00  0.00     0.000 C 
BRANCH  17  18
ATOM     18  C   UNL     1      -3.061  -7.862  -5.108  1.00  0.00     0.000 C 
BRANCH  18  19
ATOM     19  C   UNL     1      -1.662  -7.874  -5.747  1.00  0.00     0.000 C 
BRANCH  19  20
ATOM     20  C   UNL     1      -0.659  -7.102  -4.876  1.00  0.00     0.000 C 
BRANCH  20  21
ATOM     21  C   UNL     1       0.510  -6.512  -5.685  1.00  0.00     0.000 C 
BRANCH  21  22
ATOM     22  C   UNL     1       1.895  -7.081  -5.333  1.00  0.00    -0.000 C 
BRANCH  22  23
ATOM     23  C   UNL     1       1.915  -8.618  -5.254  1.00  0.00    -0.000 C 
BRANCH  23  24
ATOM     24  C   UNL     1       3.310  -9.165  -4.877  1.00  0.00    -0.000 C 
BRANCH  24  25
ATOM     25  C   UNL     1       3.415 -10.699  -4.994  1.00  0.00    -0.000 C 
BRANCH  25  26
ATOM     26  C   UNL     1       4.545 -11.194  -5.914  1.00  0.00    -0.000 C 
BRANCH  26  27
ATOM     27  C   UNL     1       5.943 -10.956  -5.322  1.00  0.00    -0.000 C 
BRANCH  27  28
ATOM     28  C   UNL     1       6.907 -12.073  -5.746  1.00  0.00    -0.000 C 
BRANCH  28  29
ATOM     29  C   UNL     1       6.583 -12.581  -7.157  1.00  0.00    -0.003 C 
ATOM     30  C   UNL     1       5.222 -12.074  -7.625  1.00  0.00     0.004 C 
ENDBRANCH  28  29
ENDBRANCH  27  28
ENDBRANCH  26  27
ENDBRANCH  25  26
ENDBRANCH  24  25
ENDBRANCH  23  24
ENDBRANCH  22  23
ENDBRANCH  21  22
ENDBRANCH  20  21
ENDBRANCH  19  20
ENDBRANCH  18  19
ENDBRANCH  17  18
ENDBRANCH   1  17
TORSDOF 26
ENDMDL
MODEL 9
REMARK VINA RESULT:    16.711      5.363      8.178
REMARK INTER + INTRA:          41.174
REMARK INTER:                  42.102
REMARK INTRA:                  -0.928
REMARK UNBOUND:                -0.936
REMARK SMILES CCCCCCCCCCCCCCCCCCCCCCCCCCCC(=O)[O-]
REMARK SMILES IDX 15 1 16 2 17 3 18 4 19 5 20 6 21 7 22 8 23 9 24 10 25 11
REMARK SMILES IDX 26 12 27 13 28 14 29 15 30 16 14 17 13 18 12 19 11 20 10 21
REMARK SMILES IDX 9 22 8 23 7 24 6 25 5 26 4 27 3 28 2 29 1 30
REMARK H PARENT
REMARK Flexibility Score: inf
ROOT
ATOM      1  C   UNL     1      -4.155 -12.083 -11.851  1.00  0.00     0.000 C 
ENDROOT
BRANCH   1   2
ATOM      2  C   UNL     1      -3.550 -13.416 -12.328  1.00  0.00     0.000 C 
BRANCH   2   3
ATOM      3  C   UNL     1      -2.472 -13.285 -13.422  1.00  0.00     0.000 C 
BRANCH   3   4
ATOM      4  C   UNL     1      -1.402 -12.217 -13.111  1.00  0.00     0.000 C 
BRANCH   4   5
ATOM      5  C   UNL     1      -0.842 -11.554 -14.384  1.00  0.00     0.000 C 
BRANCH   5   6
ATOM      6  C   UNL     1       0.652 -11.842 -14.596  1.00  0.00     0.000 C 
BRANCH   6   7
ATOM      7  C   UNL     1       1.394 -10.662 -15.251  1.00  0.00     0.000 C 
BRANCH   7   8
ATOM      8  C   UNL     1       0.583 -10.018 -16.387  1.00  0.00     0.000 C 
BRANCH   8   9
ATOM      9  C   UNL     1       0.486  -8.492 -16.244  1.00  0.00     0.000 C 
BRANCH   9  10
ATOM     10  C   UNL     1      -0.980  -8.031 -16.273  1.00  0.00     0.000 C 
BRANCH  10  11
ATOM     11  C   UNL     1      -1.118  -6.499 -16.264  1.00  0.00     0.000 C 
BRANCH  11  12
ATOM     12  C   UNL     1      -2.573  -6.038 -16.465  1.00  0.00     0.006 C 
BRANCH  12  13
ATOM     13  C   UNL     1      -3.538  -6.715 -15.485  1.00  0.00     0.053 C 
BRANCH  13  14
ATOM     14  C   UNL     1      -4.956  -6.627 -15.961  1.00  0.00     0.041 C 
ATOM     15  O   UNL     1      -5.903  -6.988 -15.213  1.00  0.00    -0.550 OA
ATOM     16  O   UNL     1      -5.233  -6.112 -17.223  1.00  0.00    -0.550 OA
ENDBRANCH  13  14
ENDBRANCH  12  13
ENDBRANCH  11  12
ENDBRANCH  10  11
ENDBRANCH   9  10
ENDBRANCH   8   9
ENDBRANCH   7   8
ENDBRANCH   6   7
ENDBRANCH   5   6
ENDBRANCH   4   5
ENDBRANCH   3   4
ENDBRANCH   2   3
ENDBRANCH   1   2
BRANCH   1  17
ATOM     17  C   UNL     1      -3.934 -11.768 -10.358  1.00  0.00     0.000 C 
BRANCH  17  18
ATOM     18  C   UNL     1      -4.632 -12.762  -9.404  1.00  0.00     0.000 C 
BRANCH  18  19
ATOM     19  C   UNL     1      -4.808 -12.196  -7.985  1.00  0.00     0.000 C 
BRANCH  19  20
ATOM     20  C   UNL     1      -6.051 -12.796  -7.311  1.00  0.00     0.000 C 
BRANCH  20  21
ATOM     21  C   UNL     1      -6.118 -12.499  -5.801  1.00  0.00     0.000 C 
BRANCH  21  22
ATOM     22  C   UNL     1      -6.283 -11.013  -5.439  1.00  0.00    -0.000 C 
BRANCH  22  23
ATOM     23  C   UNL     1      -4.997 -10.382  -4.877  1.00  0.00    -0.000 C 
BRANCH  23  24
ATOM     24  C   UNL     1      -3.906 -10.219  -5.960  1.00  0.00    -0.000 C 
BRANCH  24  25
ATOM     25  C   UNL     1      -2.709  -9.365  -5.495  1.00  0.00    -0.000 C 
BRANCH  25  26
ATOM     26  C   UNL     1      -2.879  -7.852  -5.713  1.00  0.00    -0.000 C 
BRANCH  26  27
ATOM     27  C   UNL     1      -1.879  -7.016  -4.900  1.00  0.00    -0.000 C 
BRANCH  27  28
ATOM     28  C   UNL     1      -0.502  -7.693  -4.877  1.00  0.00    -0.000 C 
BRANCH  28  29
ATOM     29  C   UNL     1       0.620  -6.680  -5.147  1.00  0.00    -0.003 C 
ATOM     30  C   UNL     1       1.990  -7.349  -5.085  1.00  0.00     0.004 C 
ENDBRANCH  28  29
ENDBRANCH  27  28
ENDBRANCH  26  27
ENDBRANCH  25  26
ENDBRANCH  24  25
ENDBRANCH  23  24
ENDBRANCH  22  23
ENDBRANCH  21  22
ENDBRANCH  20  21
ENDBRANCH  19  20
ENDBRANCH  18  19
ENDBRANCH  17  18
ENDBRANCH   1  17
TORSDOF 26
ENDMDL
