MODEL 1
REMARK VINA RESULT:    -6.556      0.000      0.000
REMARK INTER + INTRA:          -7.972
REMARK INTER:                  -7.706
REMARK INTRA:                  -0.267
REMARK UNBOUND:                -0.267
REMARK SMILES O=c1cc(-c2ccc(O)c(O)c2)oc2cc(O)cc(O)c12
REMARK SMILES IDX 4 1 3 2 2 3 1 4 21 5 19 6 18 7 16 8 15 9 14 10 13 11 5 12
REMARK SMILES IDX 6 13 7 14 8 15 12 16 10 17 9 18 11 20 20 22 17 24
REMARK H PARENT 9 19 11 21 20 23 17 25
REMARK Flexibility Score: inf
ROOT
ATOM      1  C   UNL     1      43.598  13.679 -22.938  1.00  0.00     0.138 A 
ATOM      2  C   UNL     1      43.494  14.999 -23.404  1.00  0.00     0.100 A 
ATOM      3  C   UNL     1      43.729  16.058 -22.525  1.00  0.00     0.197 A 
ATOM      4  O   UNL     1      43.631  17.240 -22.952  1.00  0.00    -0.289 OA
ATOM      5  C   UNL     1      44.064  15.787 -21.183  1.00  0.00     0.107 A 
ATOM      6  C   UNL     1      44.317  16.800 -20.228  1.00  0.00     0.134 A 
ATOM      7  C   UNL     1      44.640  16.447 -18.910  1.00  0.00     0.093 A 
ATOM      8  C   UNL     1      44.711  15.105 -18.529  1.00  0.00     0.123 A 
ATOM      9  C   UNL     1      44.461  14.099 -19.467  1.00  0.00     0.094 A 
ATOM     10  C   UNL     1      44.139  14.430 -20.788  1.00  0.00     0.146 A 
ATOM     11  O   UNL     1      43.907  13.456 -21.662  1.00  0.00    -0.456 OA
ENDROOT
BRANCH   1  12
ATOM     12  C   UNL     1      43.359  12.514 -23.828  1.00  0.00     0.021 A 
ATOM     13  C   UNL     1      42.353  11.567 -23.554  1.00  0.00     0.016 A 
ATOM     14  C   UNL     1      42.144  10.487 -24.414  1.00  0.00     0.051 A 
ATOM     15  C   UNL     1      42.925  10.335 -25.563  1.00  0.00     0.157 A 
ATOM     16  C   UNL     1      44.132  12.364 -24.993  1.00  0.00     0.062 A 
ATOM     17  C   UNL     1      43.923  11.278 -25.857  1.00  0.00     0.158 A 
BRANCH  15  18
ATOM     18  O   UNL     1      42.693   9.245 -26.402  1.00  0.00    -0.504 OA
ATOM     19  H   UNL     1      42.290   9.352 -27.324  1.00  0.00     0.293 HD
ENDBRANCH  15  18
BRANCH  17  20
ATOM     20  O   UNL     1      44.703  11.136 -27.003  1.00  0.00    -0.504 OA
ATOM     21  H   UNL     1      44.330  10.725 -27.851  1.00  0.00     0.293 HD
ENDBRANCH  17  20
ENDBRANCH   1  12
BRANCH   6  22
ATOM     22  O   UNL     1      44.253  18.149 -20.580  1.00  0.00    -0.507 OA
ATOM     23  H   UNL     1      45.051  18.635 -20.973  1.00  0.00     0.293 HD
ENDBRANCH   6  22
BRANCH   8  24
ATOM     24  O   UNL     1      45.032  14.781 -17.212  1.00  0.00    -0.508 OA
ATOM     25  H   UNL     1      45.969  14.912 -16.847  1.00  0.00     0.293 HD
ENDBRANCH   8  24
TORSDOF 5
ENDMDL
MODEL 2
REMARK VINA RESULT:    -6.405     12.527     13.726
REMARK INTER + INTRA:          -7.795
REMARK INTER:                  -7.526
REMARK INTRA:                  -0.270
REMARK UNBOUND:                -0.267
REMARK SMILES O=c1cc(-c2ccc(O)c(O)c2)oc2cc(O)cc(O)c12
REMARK SMILES IDX 4 1 3 2 2 3 1 4 21 5 19 6 18 7 16 8 15 9 14 10 13 11 5 12
REMARK SMILES IDX 6 13 7 14 8 15 12 16 10 17 9 18 11 20 20 22 17 24
REMARK H PARENT 9 19 11 21 20 23 17 25
REMARK Flexibility Score: inf
ROOT
ATOM      1  C   UNL     1      30.997  12.006 -22.747  1.00  0.00     0.138 A 
ATOM      2  C   UNL     1      31.033  13.071 -23.661  1.00  0.00     0.100 A 
ATOM      3  C   UNL     1      30.181  14.162 -23.480  1.00  0.00     0.197 A 
ATOM      4  O   UNL     1      30.220  15.112 -24.307  1.00  0.00    -0.289 OA
ATOM      5  C   UNL     1      29.294  14.176 -22.384  1.00  0.00     0.107 A 
ATOM      6  C   UNL     1      28.398  15.241 -22.128  1.00  0.00     0.134 A 
ATOM      7  C   UNL     1      27.544  15.177 -21.017  1.00  0.00     0.093 A 
ATOM      8  C   UNL     1      27.566  14.071 -20.164  1.00  0.00     0.123 A 
ATOM      9  C   UNL     1      28.448  13.016 -20.412  1.00  0.00     0.094 A 
ATOM     10  C   UNL     1      29.310  13.061 -21.513  1.00  0.00     0.146 A 
ATOM     11  O   UNL     1      30.141  12.046 -21.728  1.00  0.00    -0.456 OA
ENDROOT
BRANCH   1  12
ATOM     12  C   UNL     1      31.880  10.820 -22.891  1.00  0.00     0.021 A 
ATOM     13  C   UNL     1      31.652   9.843 -23.878  1.00  0.00     0.016 A 
ATOM     14  C   UNL     1      32.506   8.743 -23.997  1.00  0.00     0.051 A 
ATOM     15  C   UNL     1      33.602   8.603 -23.142  1.00  0.00     0.157 A 
ATOM     16  C   UNL     1      32.994  10.681 -22.043  1.00  0.00     0.062 A 
ATOM     17  C   UNL     1      33.850   9.576 -22.160  1.00  0.00     0.158 A 
BRANCH  15  18
ATOM     18  O   UNL     1      34.435   7.493 -23.284  1.00  0.00    -0.504 OA
ATOM     19  H   UNL     1      34.311   6.819 -24.028  1.00  0.00     0.293 HD
ENDBRANCH  15  18
BRANCH  17  20
ATOM     20  O   UNL     1      34.944   9.445 -21.307  1.00  0.00    -0.504 OA
ATOM     21  H   UNL     1      35.850   9.144 -21.647  1.00  0.00     0.293 HD
ENDBRANCH  17  20
ENDBRANCH   1  12
BRANCH   6  22
ATOM     22  O   UNL     1      28.353  16.358 -22.963  1.00  0.00    -0.507 OA
ATOM     23  H   UNL     1      29.032  17.107 -22.887  1.00  0.00     0.293 HD
ENDBRANCH   6  22
BRANCH   8  24
ATOM     24  O   UNL     1      26.705  14.032 -19.069  1.00  0.00    -0.508 OA
ATOM     25  H   UNL     1      27.054  14.078 -18.118  1.00  0.00     0.293 HD
ENDBRANCH   8  24
TORSDOF 5
ENDMDL
MODEL 3
REMARK VINA RESULT:    -6.325     13.678     15.493
REMARK INTER + INTRA:          -7.701
REMARK INTER:                  -7.385
REMARK INTRA:                  -0.315
REMARK UNBOUND:                -0.267
REMARK SMILES O=c1cc(-c2ccc(O)c(O)c2)oc2cc(O)cc(O)c12
REMARK SMILES IDX 4 1 3 2 2 3 1 4 21 5 19 6 18 7 16 8 15 9 14 10 13 11 5 12
REMARK SMILES IDX 6 13 7 14 8 15 12 16 10 17 9 18 11 20 20 22 17 24
REMARK H PARENT 9 19 11 21 20 23 17 25
REMARK Flexibility Score: inf
ROOT
ATOM      1  C   UNL     1      30.835  18.093 -18.542  1.00  0.00     0.138 A 
ATOM      2  C   UNL     1      29.929  17.903 -17.486  1.00  0.00     0.100 A 
ATOM      3  C   UNL     1      29.052  16.818 -17.521  1.00  0.00     0.197 A 
ATOM      4  O   UNL     1      28.241  16.656 -16.570  1.00  0.00    -0.289 OA
ATOM      5  C   UNL     1      29.086  15.932 -18.617  1.00  0.00     0.107 A 
ATOM      6  C   UNL     1      28.232  14.808 -18.730  1.00  0.00     0.134 A 
ATOM      7  C   UNL     1      28.326  13.977 -19.856  1.00  0.00     0.093 A 
ATOM      8  C   UNL     1      29.251  14.247 -20.867  1.00  0.00     0.123 A 
ATOM      9  C   UNL     1      30.097  15.356 -20.761  1.00  0.00     0.094 A 
ATOM     10  C   UNL     1      30.020  16.197 -19.645  1.00  0.00     0.146 A 
ATOM     11  O   UNL     1      30.836  17.244 -19.566  1.00  0.00    -0.456 OA
ENDROOT
BRANCH   1  12
ATOM     12  C   UNL     1      31.791  19.231 -18.557  1.00  0.00     0.021 A 
ATOM     13  C   UNL     1      31.659  20.321 -17.676  1.00  0.00     0.016 A 
ATOM     14  C   UNL     1      32.580  21.372 -17.707  1.00  0.00     0.051 A 
ATOM     15  C   UNL     1      33.647  21.351 -18.608  1.00  0.00     0.157 A 
ATOM     16  C   UNL     1      32.876  19.209 -19.452  1.00  0.00     0.062 A 
ATOM     17  C   UNL     1      33.799  20.265 -19.484  1.00  0.00     0.158 A 
BRANCH  15  18
ATOM     18  O   UNL     1      34.548  22.416 -18.615  1.00  0.00    -0.504 OA
ATOM     19  H   UNL     1      35.525  22.296 -18.376  1.00  0.00     0.293 HD
ENDBRANCH  15  18
BRANCH  17  20
ATOM     20  O   UNL     1      34.865  20.236 -20.382  1.00  0.00    -0.504 OA
ATOM     21  H   UNL     1      35.572  20.962 -20.392  1.00  0.00     0.293 HD
ENDBRANCH  17  20
ENDBRANCH   1  12
BRANCH   6  22
ATOM     22  O   UNL     1      27.299  14.514 -17.736  1.00  0.00    -0.507 OA
ATOM     23  H   UNL     1      27.263  15.036 -16.868  1.00  0.00     0.293 HD
ENDBRANCH   6  22
BRANCH   8  24
ATOM     24  O   UNL     1      29.322  13.406 -21.975  1.00  0.00    -0.508 OA
ATOM     25  H   UNL     1      28.812  13.608 -22.828  1.00  0.00     0.293 HD
ENDBRANCH   8  24
TORSDOF 5
ENDMDL
MODEL 4
REMARK VINA RESULT:    -6.313     13.864     14.753
REMARK INTER + INTRA:          -7.686
REMARK INTER:                  -7.395
REMARK INTRA:                  -0.291
REMARK UNBOUND:                -0.267
REMARK SMILES O=c1cc(-c2ccc(O)c(O)c2)oc2cc(O)cc(O)c12
REMARK SMILES IDX 4 1 3 2 2 3 1 4 21 5 19 6 18 7 16 8 15 9 14 10 13 11 5 12
REMARK SMILES IDX 6 13 7 14 8 15 12 16 10 17 9 18 11 20 20 22 17 24
REMARK H PARENT 9 19 11 21 20 23 17 25
REMARK Flexibility Score: inf
ROOT
ATOM      1  C   UNL     1      30.239  17.430 -18.543  1.00  0.00     0.138 A 
ATOM      2  C   UNL     1      29.867  18.145 -17.393  1.00  0.00     0.100 A 
ATOM      3  C   UNL     1      30.536  19.328 -17.073  1.00  0.00     0.197 A 
ATOM      4  O   UNL     1      30.196  19.962 -16.038  1.00  0.00    -0.289 OA
ATOM      5  C   UNL     1      31.575  19.786 -17.908  1.00  0.00     0.107 A 
ATOM      6  C   UNL     1      32.303  20.974 -17.657  1.00  0.00     0.134 A 
ATOM      7  C   UNL     1      33.327  21.359 -18.534  1.00  0.00     0.093 A 
ATOM      8  C   UNL     1      33.639  20.580 -19.652  1.00  0.00     0.123 A 
ATOM      9  C   UNL     1      32.924  19.406 -19.904  1.00  0.00     0.094 A 
ATOM     10  C   UNL     1      31.898  19.005 -19.042  1.00  0.00     0.146 A 
ATOM     11  O   UNL     1      31.232  17.885 -19.305  1.00  0.00    -0.456 OA
ENDROOT
BRANCH   1  12
ATOM     12  C   UNL     1      29.564  16.165 -18.930  1.00  0.00     0.021 A 
ATOM     13  C   UNL     1      29.677  15.633 -20.229  1.00  0.00     0.016 A 
ATOM     14  C   UNL     1      29.039  14.436 -20.562  1.00  0.00     0.051 A 
ATOM     15  C   UNL     1      28.285  13.746 -19.609  1.00  0.00     0.157 A 
ATOM     16  C   UNL     1      28.816  15.459 -17.971  1.00  0.00     0.062 A 
ATOM     17  C   UNL     1      28.173  14.258 -18.306  1.00  0.00     0.158 A 
BRANCH  15  18
ATOM     18  O   UNL     1      27.659  12.554 -19.972  1.00  0.00    -0.504 OA
ATOM     19  H   UNL     1      27.363  12.370 -20.923  1.00  0.00     0.293 HD
ENDBRANCH  15  18
BRANCH  17  20
ATOM     20  O   UNL     1      27.427  13.573 -17.348  1.00  0.00    -0.504 OA
ATOM     21  H   UNL     1      27.870  13.010 -16.632  1.00  0.00     0.293 HD
ENDBRANCH  17  20
ENDBRANCH   1  12
BRANCH   6  22
ATOM     22  O   UNL     1      32.014  21.772 -16.549  1.00  0.00    -0.507 OA
ATOM     23  H   UNL     1      31.932  22.779 -16.625  1.00  0.00     0.293 HD
ENDBRANCH   6  22
BRANCH   8  24
ATOM     24  O   UNL     1      34.662  20.985 -20.506  1.00  0.00    -0.508 OA
ATOM     25  H   UNL     1      34.768  21.953 -20.785  1.00  0.00     0.293 HD
ENDBRANCH   8  24
TORSDOF 5
ENDMDL
MODEL 5
REMARK VINA RESULT:    -6.291     12.481     13.627
REMARK INTER + INTRA:          -7.661
REMARK INTER:                  -7.367
REMARK INTRA:                  -0.293
REMARK UNBOUND:                -0.267
REMARK SMILES O=c1cc(-c2ccc(O)c(O)c2)oc2cc(O)cc(O)c12
REMARK SMILES IDX 4 1 3 2 2 3 1 4 21 5 19 6 18 7 16 8 15 9 14 10 13 11 5 12
REMARK SMILES IDX 6 13 7 14 8 15 12 16 10 17 9 18 11 20 20 22 17 24
REMARK H PARENT 9 19 11 21 20 23 17 25
REMARK Flexibility Score: inf
ROOT
ATOM      1  C   UNL     1      30.867  12.590 -22.916  1.00  0.00     0.138 A 
ATOM      2  C   UNL     1      30.132  12.907 -24.070  1.00  0.00     0.100 A 
ATOM      3  C   UNL     1      29.342  14.058 -24.086  1.00  0.00     0.197 A 
ATOM      4  O   UNL     1      28.684  14.332 -25.125  1.00  0.00    -0.289 OA
ATOM      5  C   UNL     1      29.291  14.882 -22.944  1.00  0.00     0.107 A 
ATOM      6  C   UNL     1      28.517  16.065 -22.877  1.00  0.00     0.134 A 
ATOM      7  C   UNL     1      28.516  16.828 -21.700  1.00  0.00     0.093 A 
ATOM      8  C   UNL     1      29.270  16.432 -20.593  1.00  0.00     0.123 A 
ATOM      9  C   UNL     1      30.037  15.265 -20.653  1.00  0.00     0.094 A 
ATOM     10  C   UNL     1      30.052  14.490 -21.817  1.00  0.00     0.146 A 
ATOM     11  O   UNL     1      30.790  13.384 -21.850  1.00  0.00    -0.456 OA
ENDROOT
BRANCH   1  12
ATOM     12  C   UNL     1      31.724  11.378 -22.842  1.00  0.00     0.021 A 
ATOM     13  C   UNL     1      32.638  11.181 -21.789  1.00  0.00     0.016 A 
ATOM     14  C   UNL     1      33.423  10.026 -21.741  1.00  0.00     0.051 A 
ATOM     15  C   UNL     1      33.307   9.048 -22.732  1.00  0.00     0.157 A 
ATOM     16  C   UNL     1      31.601  10.383 -23.829  1.00  0.00     0.062 A 
ATOM     17  C   UNL     1      32.390   9.225 -23.781  1.00  0.00     0.158 A 
BRANCH  15  18
ATOM     18  O   UNL     1      34.105   7.907 -22.656  1.00  0.00    -0.504 OA
ATOM     19  H   UNL     1      35.054   7.890 -23.010  1.00  0.00     0.293 HD
ENDBRANCH  15  18
BRANCH  17  20
ATOM     20  O   UNL     1      32.265   8.252 -24.770  1.00  0.00    -0.504 OA
ATOM     21  H   UNL     1      32.503   8.442 -25.737  1.00  0.00     0.293 HD
ENDBRANCH  17  20
ENDBRANCH   1  12
BRANCH   6  22
ATOM     22  O   UNL     1      27.753  16.485 -23.967  1.00  0.00    -0.507 OA
ATOM     23  H   UNL     1      27.890  17.395 -24.393  1.00  0.00     0.293 HD
ENDBRANCH   6  22
BRANCH   8  24
ATOM     24  O   UNL     1      29.251  17.209 -19.436  1.00  0.00    -0.508 OA
ATOM     25  H   UNL     1      29.710  18.111 -19.396  1.00  0.00     0.293 HD
ENDBRANCH   8  24
TORSDOF 5
ENDMDL
MODEL 6
REMARK VINA RESULT:    -6.206     14.178     15.689
REMARK INTER + INTRA:          -7.561
REMARK INTER:                  -7.267
REMARK INTRA:                  -0.294
REMARK UNBOUND:                -0.267
REMARK SMILES O=c1cc(-c2ccc(O)c(O)c2)oc2cc(O)cc(O)c12
REMARK SMILES IDX 4 1 3 2 2 3 1 4 21 5 19 6 18 7 16 8 15 9 14 10 13 11 5 12
REMARK SMILES IDX 6 13 7 14 8 15 12 16 10 17 9 18 11 20 20 22 17 24
REMARK H PARENT 9 19 11 21 20 23 17 25
REMARK Flexibility Score: inf
ROOT
ATOM      1  C   UNL     1      30.882  18.033 -18.615  1.00  0.00     0.138 A 
ATOM      2  C   UNL     1      30.946  17.049 -19.615  1.00  0.00     0.100 A 
ATOM      3  C   UNL     1      30.046  15.982 -19.588  1.00  0.00     0.197 A 
ATOM      4  O   UNL     1      30.112  15.103 -20.489  1.00  0.00    -0.289 OA
ATOM      5  C   UNL     1      29.088  15.907 -18.557  1.00  0.00     0.107 A 
ATOM      6  C   UNL     1      28.139  14.862 -18.457  1.00  0.00     0.134 A 
ATOM      7  C   UNL     1      27.221  14.857 -17.396  1.00  0.00     0.093 A 
ATOM      8  C   UNL     1      27.235  15.873 -16.437  1.00  0.00     0.123 A 
ATOM      9  C   UNL     1      28.170  16.908 -16.530  1.00  0.00     0.094 A 
ATOM     10  C   UNL     1      29.093  16.932 -17.581  1.00  0.00     0.146 A 
ATOM     11  O   UNL     1      29.972  17.928 -17.650  1.00  0.00    -0.456 OA
ENDROOT
BRANCH   1  12
ATOM     12  C   UNL     1      31.815  19.188 -18.593  1.00  0.00     0.021 A 
ATOM     13  C   UNL     1      31.655  20.252 -17.685  1.00  0.00     0.016 A 
ATOM     14  C   UNL     1      32.555  21.321 -17.681  1.00  0.00     0.051 A 
ATOM     15  C   UNL     1      33.630  21.345 -18.573  1.00  0.00     0.157 A 
ATOM     16  C   UNL     1      32.908  19.211 -19.479  1.00  0.00     0.062 A 
ATOM     17  C   UNL     1      33.810  20.285 -19.476  1.00  0.00     0.158 A 
BRANCH  15  18
ATOM     18  O   UNL     1      34.510  22.427 -18.545  1.00  0.00    -0.504 OA
ATOM     19  H   UNL     1      35.508  22.312 -18.673  1.00  0.00     0.293 HD
ENDBRANCH  15  18
BRANCH  17  20
ATOM     20  O   UNL     1      34.883  20.300 -20.365  1.00  0.00    -0.504 OA
ATOM     21  H   UNL     1      34.856  19.790 -21.240  1.00  0.00     0.293 HD
ENDBRANCH  17  20
ENDBRANCH   1  12
BRANCH   6  22
ATOM     22  O   UNL     1      28.102  13.834 -19.400  1.00  0.00    -0.507 OA
ATOM     23  H   UNL     1      27.915  14.017 -20.379  1.00  0.00     0.293 HD
ENDBRANCH   6  22
BRANCH   8  24
ATOM     24  O   UNL     1      26.313  15.843 -15.392  1.00  0.00    -0.508 OA
ATOM     25  H   UNL     1      26.479  15.297 -14.555  1.00  0.00     0.293 HD
ENDBRANCH   8  24
TORSDOF 5
ENDMDL
MODEL 7
REMARK VINA RESULT:    -6.205     12.445     14.124
REMARK INTER + INTRA:          -7.560
REMARK INTER:                  -7.266
REMARK INTRA:                  -0.294
REMARK UNBOUND:                -0.267
REMARK SMILES O=c1cc(-c2ccc(O)c(O)c2)oc2cc(O)cc(O)c12
REMARK SMILES IDX 4 1 3 2 2 3 1 4 21 5 19 6 18 7 16 8 15 9 14 10 13 11 5 12
REMARK SMILES IDX 6 13 7 14 8 15 12 16 10 17 9 18 11 20 20 22 17 24
REMARK H PARENT 9 19 11 21 20 23 17 25
REMARK Flexibility Score: inf
ROOT
ATOM      1  C   UNL     1      30.967  12.055 -23.141  1.00  0.00     0.138 A 
ATOM      2  C   UNL     1      31.040  13.047 -22.150  1.00  0.00     0.100 A 
ATOM      3  C   UNL     1      30.189  14.151 -22.219  1.00  0.00     0.197 A 
ATOM      4  O   UNL     1      30.263  15.037 -21.326  1.00  0.00    -0.289 OA
ATOM      5  C   UNL     1      29.272  14.256 -23.285  1.00  0.00     0.107 A 
ATOM      6  C   UNL     1      28.375  15.341 -23.430  1.00  0.00     0.134 A 
ATOM      7  C   UNL     1      27.496  15.373 -24.523  1.00  0.00     0.093 A 
ATOM      8  C   UNL     1      27.498  14.347 -25.471  1.00  0.00     0.123 A 
ATOM      9  C   UNL     1      28.383  13.272 -25.333  1.00  0.00     0.094 A 
ATOM     10  C   UNL     1      29.266  13.221 -24.249  1.00  0.00     0.146 A 
ATOM     11  O   UNL     1      30.096  12.188 -24.139  1.00  0.00    -0.456 OA
ENDROOT
BRANCH   1  12
ATOM     12  C   UNL     1      31.848  10.859 -23.117  1.00  0.00     0.021 A 
ATOM     13  C   UNL     1      31.652   9.777 -23.997  1.00  0.00     0.016 A 
ATOM     14  C   UNL     1      32.504   8.670 -23.959  1.00  0.00     0.051 A 
ATOM     15  C   UNL     1      33.565   8.624 -23.052  1.00  0.00     0.157 A 
ATOM     16  C   UNL     1      32.927  10.813 -22.216  1.00  0.00     0.062 A 
ATOM     17  C   UNL     1      33.781   9.701 -22.177  1.00  0.00     0.158 A 
BRANCH  15  18
ATOM     18  O   UNL     1      34.396   7.504 -23.037  1.00  0.00    -0.504 OA
ATOM     19  H   UNL     1      34.033   6.563 -23.124  1.00  0.00     0.293 HD
ENDBRANCH  15  18
BRANCH  17  20
ATOM     20  O   UNL     1      34.841   9.664 -21.273  1.00  0.00    -0.504 OA
ATOM     21  H   UNL     1      35.325  10.507 -20.987  1.00  0.00     0.293 HD
ENDBRANCH  17  20
ENDBRANCH   1  12
BRANCH   6  22
ATOM     22  O   UNL     1      28.350  16.381 -22.500  1.00  0.00    -0.507 OA
ATOM     23  H   UNL     1      28.190  17.342 -22.780  1.00  0.00     0.293 HD
ENDBRANCH   6  22
BRANCH   8  24
ATOM     24  O   UNL     1      26.616  14.404 -26.547  1.00  0.00    -0.508 OA
ATOM     25  H   UNL     1      26.914  14.180 -27.489  1.00  0.00     0.293 HD
ENDBRANCH   8  24
TORSDOF 5
ENDMDL
MODEL 8
REMARK VINA RESULT:    -6.147     12.630     14.825
REMARK INTER + INTRA:          -7.491
REMARK INTER:                  -7.197
REMARK INTRA:                  -0.294
REMARK UNBOUND:                -0.267
REMARK SMILES O=c1cc(-c2ccc(O)c(O)c2)oc2cc(O)cc(O)c12
REMARK SMILES IDX 4 1 3 2 2 3 1 4 21 5 19 6 18 7 16 8 15 9 14 10 13 11 5 12
REMARK SMILES IDX 6 13 7 14 8 15 12 16 10 17 9 18 11 20 20 22 17 24
REMARK H PARENT 9 19 11 21 20 23 17 25
REMARK Flexibility Score: inf
ROOT
ATOM      1  C   UNL     1      30.052  13.009 -23.243  1.00  0.00     0.138 A 
ATOM      2  C   UNL     1      29.694  12.311 -24.408  1.00  0.00     0.100 A 
ATOM      3  C   UNL     1      30.329  11.106 -24.710  1.00  0.00     0.197 A 
ATOM      4  O   UNL     1      30.002  10.488 -25.759  1.00  0.00    -0.289 OA
ATOM      5  C   UNL     1      31.324  10.608 -23.844  1.00  0.00     0.107 A 
ATOM      6  C   UNL     1      32.016   9.396 -24.076  1.00  0.00     0.134 A 
ATOM      7  C   UNL     1      32.996   8.971 -23.167  1.00  0.00     0.093 A 
ATOM      8  C   UNL     1      33.298   9.734 -22.036  1.00  0.00     0.123 A 
ATOM      9  C   UNL     1      32.618  10.933 -21.802  1.00  0.00     0.094 A 
ATOM     10  C   UNL     1      31.636  11.373 -22.695  1.00  0.00     0.146 A 
ATOM     11  O   UNL     1      31.002  12.516 -22.450  1.00  0.00    -0.456 OA
ENDROOT
BRANCH   1  12
ATOM     12  C   UNL     1      29.410  14.296 -22.872  1.00  0.00     0.021 A 
ATOM     13  C   UNL     1      29.623  14.895 -21.616  1.00  0.00     0.016 A 
ATOM     14  C   UNL     1      29.014  16.111 -21.299  1.00  0.00     0.051 A 
ATOM     15  C   UNL     1      28.190  16.754 -22.227  1.00  0.00     0.157 A 
ATOM     16  C   UNL     1      28.592  14.954 -23.807  1.00  0.00     0.062 A 
ATOM     17  C   UNL     1      27.978  16.175 -23.488  1.00  0.00     0.158 A 
BRANCH  15  18
ATOM     18  O   UNL     1      27.595  17.966 -21.880  1.00  0.00    -0.504 OA
ATOM     19  H   UNL     1      27.932  18.852 -22.235  1.00  0.00     0.293 HD
ENDBRANCH  15  18
BRANCH  17  20
ATOM     20  O   UNL     1      27.162  16.813 -24.421  1.00  0.00    -0.504 OA
ATOM     21  H   UNL     1      26.967  16.401 -25.326  1.00  0.00     0.293 HD
ENDBRANCH  17  20
ENDBRANCH   1  12
BRANCH   6  22
ATOM     22  O   UNL     1      31.736   8.613 -25.196  1.00  0.00    -0.507 OA
ATOM     23  H   UNL     1      32.267   7.775 -25.406  1.00  0.00     0.293 HD
ENDBRANCH   6  22
BRANCH   8  24
ATOM     24  O   UNL     1      34.278   9.291 -21.150  1.00  0.00    -0.508 OA
ATOM     25  H   UNL     1      35.228   9.640 -21.193  1.00  0.00     0.293 HD
ENDBRANCH   8  24
TORSDOF 5
ENDMDL
MODEL 9
REMARK VINA RESULT:    -6.117     15.107     16.522
REMARK INTER + INTRA:          -7.456
REMARK INTER:                  -7.188
REMARK INTRA:                  -0.268
REMARK UNBOUND:                -0.267
REMARK SMILES O=c1cc(-c2ccc(O)c(O)c2)oc2cc(O)cc(O)c12
REMARK SMILES IDX 4 1 3 2 2 3 1 4 21 5 19 6 18 7 16 8 15 9 14 10 13 11 5 12
REMARK SMILES IDX 6 13 7 14 8 15 12 16 10 17 9 18 11 20 20 22 17 24
REMARK H PARENT 9 19 11 21 20 23 17 25
REMARK Flexibility Score: inf
ROOT
ATOM      1  C   UNL     1      30.377  18.559 -17.631  1.00  0.00     0.138 A 
ATOM      2  C   UNL     1      30.284  18.520 -16.230  1.00  0.00     0.100 A 
ATOM      3  C   UNL     1      29.132  18.008 -15.632  1.00  0.00     0.197 A 
ATOM      4  O   UNL     1      29.057  17.979 -14.374  1.00  0.00    -0.289 OA
ATOM      5  C   UNL     1      28.078  17.540 -16.442  1.00  0.00     0.107 A 
ATOM      6  C   UNL     1      26.877  17.005 -15.917  1.00  0.00     0.134 A 
ATOM      7  C   UNL     1      25.873  16.565 -16.792  1.00  0.00     0.093 A 
ATOM      8  C   UNL     1      26.045  16.650 -18.176  1.00  0.00     0.123 A 
ATOM      9  C   UNL     1      27.229  17.178 -18.700  1.00  0.00     0.094 A 
ATOM     10  C   UNL     1      28.243  17.621 -17.845  1.00  0.00     0.146 A 
ATOM     11  O   UNL     1      29.360  18.118 -18.367  1.00  0.00    -0.456 OA
ENDROOT
BRANCH   1  12
ATOM     12  C   UNL     1      31.579  19.095 -18.321  1.00  0.00     0.021 A 
ATOM     13  C   UNL     1      32.278  18.340 -19.282  1.00  0.00     0.016 A 
ATOM     14  C   UNL     1      33.400  18.874 -19.922  1.00  0.00     0.051 A 
ATOM     15  C   UNL     1      33.837  20.166 -19.623  1.00  0.00     0.157 A 
ATOM     16  C   UNL     1      32.016  20.401 -18.034  1.00  0.00     0.062 A 
ATOM     17  C   UNL     1      33.143  20.936 -18.676  1.00  0.00     0.158 A 
BRANCH  15  18
ATOM     18  O   UNL     1      34.961  20.671 -20.278  1.00  0.00    -0.504 OA
ATOM     19  H   UNL     1      35.744  21.069 -19.774  1.00  0.00     0.293 HD
ENDBRANCH  15  18
BRANCH  17  20
ATOM     20  O   UNL     1      33.571  22.228 -18.376  1.00  0.00    -0.504 OA
ATOM     21  H   UNL     1      34.048  22.442 -17.508  1.00  0.00     0.293 HD
ENDBRANCH  17  20
ENDBRANCH   1  12
BRANCH   6  22
ATOM     22  O   UNL     1      26.677  16.907 -14.540  1.00  0.00    -0.507 OA
ATOM     23  H   UNL     1      26.187  17.628 -14.021  1.00  0.00     0.293 HD
ENDBRANCH   6  22
BRANCH   8  24
ATOM     24  O   UNL     1      25.031  16.207 -19.022  1.00  0.00    -0.508 OA
ATOM     25  H   UNL     1      24.726  15.241 -19.023  1.00  0.00     0.293 HD
ENDBRANCH   8  24
TORSDOF 5
ENDMDL
