MODEL 1
REMARK VINA RESULT:    -5.764      0.000      0.000
REMARK INTER + INTRA:         -11.051
REMARK INTER:                  -9.807
REMARK INTRA:                  -1.243
REMARK UNBOUND:                -1.243
REMARK SMILES CCCCCCCCCCCCCC(=O)[O-]
REMARK SMILES IDX 8 1 9 2 10 3 11 4 12 5 13 6 14 7 15 8 16 9 7 10 6 11 5 12
REMARK SMILES IDX 4 13 3 14 2 15 1 16
REMARK H PARENT
REMARK Flexibility Score: inf
ROOT
ATOM      1  C   UNL     1      -5.595 -28.727 -54.088  1.00  0.00     0.000 C 
ENDROOT
BRANCH   1   2
ATOM      2  C   UNL     1      -5.263 -30.221 -54.256  1.00  0.00     0.000 C 
BRANCH   2   3
ATOM      3  C   UNL     1      -4.452 -30.782 -53.077  1.00  0.00     0.000 C 
BRANCH   3   4
ATOM      4  C   UNL     1      -5.208 -31.875 -52.305  1.00  0.00     0.000 C 
BRANCH   4   5
ATOM      5  C   UNL     1      -4.296 -32.538 -51.262  1.00  0.00     0.006 C 
BRANCH   5   6
ATOM      6  C   UNL     1      -2.954 -32.981 -51.859  1.00  0.00     0.053 C 
BRANCH   6   7
ATOM      7  C   UNL     1      -1.830 -32.824 -50.881  1.00  0.00     0.041 C 
ATOM      8  O   UNL     1      -1.082 -31.813 -50.932  1.00  0.00    -0.550 OA
ATOM      9  O   UNL     1      -1.631 -33.779 -49.891  1.00  0.00    -0.550 OA
ENDBRANCH   6   7
ENDBRANCH   5   6
ENDBRANCH   4   5
ENDBRANCH   3   4
ENDBRANCH   2   3
ENDBRANCH   1   2
BRANCH   1  10
ATOM     10  C   UNL     1      -5.090 -28.157 -52.752  1.00  0.00     0.000 C 
BRANCH  10  11
ATOM     11  C   UNL     1      -6.032 -27.095 -52.167  1.00  0.00    -0.000 C 
BRANCH  11  12
ATOM     12  C   UNL     1      -6.315 -27.369 -50.684  1.00  0.00    -0.000 C 
BRANCH  12  13
ATOM     13  C   UNL     1      -6.041 -28.840 -50.334  1.00  0.00    -0.000 C 
BRANCH  13  14
ATOM     14  C   UNL     1      -6.564 -29.225 -48.941  1.00  0.00    -0.000 C 
BRANCH  14  15
ATOM     15  C   UNL     1      -7.860 -30.047 -49.004  1.00  0.00    -0.003 C 
ATOM     16  C   UNL     1      -7.557 -31.540 -49.097  1.00  0.00     0.004 C 
ENDBRANCH  14  15
ENDBRANCH  13  14
ENDBRANCH  12  13
ENDBRANCH  11  12
ENDBRANCH  10  11
ENDBRANCH   1  10
TORSDOF 12
ENDMDL
MODEL 2
REMARK VINA RESULT:    -5.537      3.365      6.249
REMARK INTER + INTRA:         -10.665
REMARK INTER:                  -9.203
REMARK INTRA:                  -1.462
REMARK UNBOUND:                -1.243
REMARK SMILES CCCCCCCCCCCCCC(=O)[O-]
REMARK SMILES IDX 8 1 9 2 10 3 11 4 12 5 13 6 14 7 15 8 16 9 7 10 6 11 5 12
REMARK SMILES IDX 4 13 3 14 2 15 1 16
REMARK H PARENT
REMARK Flexibility Score: inf
ROOT
ATOM      1  C   UNL     1      -2.594 -33.251 -51.401  1.00  0.00     0.000 C 
ENDROOT
BRANCH   1   2
ATOM      2  C   UNL     1      -3.952 -32.721 -50.907  1.00  0.00     0.000 C 
BRANCH   2   3
ATOM      3  C   UNL     1      -4.892 -32.340 -52.062  1.00  0.00     0.000 C 
BRANCH   3   4
ATOM      4  C   UNL     1      -5.685 -31.054 -51.782  1.00  0.00     0.000 C 
BRANCH   4   5
ATOM      5  C   UNL     1      -5.820 -30.811 -50.271  1.00  0.00     0.006 C 
BRANCH   5   6
ATOM      6  C   UNL     1      -7.207 -31.198 -49.741  1.00  0.00     0.053 C 
BRANCH   6   7
ATOM      7  C   UNL     1      -7.813 -30.105 -48.914  1.00  0.00     0.041 C 
ATOM      8  O   UNL     1      -7.150 -29.066 -48.655  1.00  0.00    -0.550 OA
ATOM      9  O   UNL     1      -9.120 -30.220 -48.458  1.00  0.00    -0.550 OA
ENDBRANCH   6   7
ENDBRANCH   5   6
ENDBRANCH   4   5
ENDBRANCH   3   4
ENDBRANCH   2   3
ENDBRANCH   1   2
BRANCH   1  10
ATOM     10  C   UNL     1      -2.411 -33.082 -52.918  1.00  0.00     0.000 C 
BRANCH  10  11
ATOM     11  C   UNL     1      -0.934 -33.059 -53.339  1.00  0.00    -0.000 C 
BRANCH  11  12
ATOM     12  C   UNL     1      -0.029 -32.715 -52.149  1.00  0.00    -0.000 C 
BRANCH  12  13
ATOM     13  C   UNL     1       0.479 -31.269 -52.244  1.00  0.00    -0.000 C 
BRANCH  13  14
ATOM     14  C   UNL     1      -0.204 -30.333 -51.234  1.00  0.00    -0.000 C 
BRANCH  14  15
ATOM     15  C   UNL     1      -0.857 -29.116 -51.904  1.00  0.00    -0.003 C 
ATOM     16  C   UNL     1      -2.289 -29.427 -52.331  1.00  0.00     0.004 C 
ENDBRANCH  14  15
ENDBRANCH  13  14
ENDBRANCH  12  13
ENDBRANCH  11  12
ENDBRANCH  10  11
ENDBRANCH   1  10
TORSDOF 12
ENDMDL
MODEL 3
REMARK VINA RESULT:    -5.404      3.063      5.822
REMARK INTER + INTRA:         -10.438
REMARK INTER:                  -8.910
REMARK INTRA:                  -1.528
REMARK UNBOUND:                -1.243
REMARK SMILES CCCCCCCCCCCCCC(=O)[O-]
REMARK SMILES IDX 8 1 9 2 10 3 11 4 12 5 13 6 14 7 15 8 16 9 7 10 6 11 5 12
REMARK SMILES IDX 4 13 3 14 2 15 1 16
REMARK H PARENT
REMARK Flexibility Score: inf
ROOT
ATOM      1  C   UNL     1      -5.007 -31.617 -53.530  1.00  0.00     0.000 C 
ENDROOT
BRANCH   1   2
ATOM      2  C   UNL     1      -5.408 -30.152 -53.778  1.00  0.00     0.000 C 
BRANCH   2   3
ATOM      3  C   UNL     1      -4.256 -29.171 -53.507  1.00  0.00     0.000 C 
BRANCH   3   4
ATOM      4  C   UNL     1      -4.185 -28.732 -52.036  1.00  0.00     0.000 C 
BRANCH   4   5
ATOM      5  C   UNL     1      -5.535 -28.172 -51.564  1.00  0.00     0.006 C 
BRANCH   5   6
ATOM      6  C   UNL     1      -5.949 -28.727 -50.195  1.00  0.00     0.053 C 
BRANCH   6   7
ATOM      7  C   UNL     1      -6.472 -27.650 -49.293  1.00  0.00     0.041 C 
ATOM      8  O   UNL     1      -6.746 -26.513 -49.757  1.00  0.00    -0.550 OA
ATOM      9  O   UNL     1      -6.689 -27.916 -47.947  1.00  0.00    -0.550 OA
ENDBRANCH   6   7
ENDBRANCH   5   6
ENDBRANCH   4   5
ENDBRANCH   3   4
ENDBRANCH   2   3
ENDBRANCH   1   2
BRANCH   1  10
ATOM     10  C   UNL     1      -5.567 -32.167 -52.208  1.00  0.00     0.000 C 
BRANCH  10  11
ATOM     11  C   UNL     1      -4.482 -32.365 -51.139  1.00  0.00    -0.000 C 
BRANCH  11  12
ATOM     12  C   UNL     1      -3.164 -32.825 -51.774  1.00  0.00    -0.000 C 
BRANCH  12  13
ATOM     13  C   UNL     1      -1.974 -32.526 -50.849  1.00  0.00    -0.000 C 
BRANCH  13  14
ATOM     14  C   UNL     1      -0.726 -32.064 -51.619  1.00  0.00    -0.000 C 
BRANCH  14  15
ATOM     15  C   UNL     1      -0.377 -30.593 -51.349  1.00  0.00    -0.003 C 
ATOM     16  C   UNL     1      -0.695 -29.722 -52.560  1.00  0.00     0.004 C 
ENDBRANCH  14  15
ENDBRANCH  13  14
ENDBRANCH  12  13
ENDBRANCH  11  12
ENDBRANCH  10  11
ENDBRANCH   1  10
TORSDOF 12
ENDMDL
MODEL 4
REMARK VINA RESULT:    -5.313      1.873      2.892
REMARK INTER + INTRA:         -10.283
REMARK INTER:                  -8.407
REMARK INTRA:                  -1.876
REMARK UNBOUND:                -1.243
REMARK SMILES CCCCCCCCCCCCCC(=O)[O-]
REMARK SMILES IDX 8 1 9 2 10 3 11 4 12 5 13 6 14 7 15 8 16 9 7 10 6 11 5 12
REMARK SMILES IDX 4 13 3 14 2 15 1 16
REMARK H PARENT
REMARK Flexibility Score: inf
ROOT
ATOM      1  C   UNL     1      -5.106 -31.545 -53.722  1.00  0.00     0.000 C 
ENDROOT
BRANCH   1   2
ATOM      2  C   UNL     1      -5.517 -32.123 -52.356  1.00  0.00     0.000 C 
BRANCH   2   3
ATOM      3  C   UNL     1      -4.311 -32.398 -51.444  1.00  0.00     0.000 C 
BRANCH   3   4
ATOM      4  C   UNL     1      -2.984 -32.457 -52.217  1.00  0.00     0.000 C 
BRANCH   4   5
ATOM      5  C   UNL     1      -1.937 -31.531 -51.580  1.00  0.00     0.006 C 
BRANCH   5   6
ATOM      6  C   UNL     1      -1.376 -30.512 -52.580  1.00  0.00     0.053 C 
BRANCH   6   7
ATOM      7  C   UNL     1      -0.980 -29.232 -51.908  1.00  0.00     0.041 C 
ATOM      8  O   UNL     1      -0.342 -29.257 -50.824  1.00  0.00    -0.550 OA
ATOM      9  O   UNL     1      -1.288 -28.012 -52.498  1.00  0.00    -0.550 OA
ENDBRANCH   6   7
ENDBRANCH   5   6
ENDBRANCH   4   5
ENDBRANCH   3   4
ENDBRANCH   2   3
ENDBRANCH   1   2
BRANCH   1  10
ATOM     10  C   UNL     1      -5.594 -30.101 -53.923  1.00  0.00     0.000 C 
BRANCH  10  11
ATOM     11  C   UNL     1      -4.485 -29.062 -53.701  1.00  0.00    -0.000 C 
BRANCH  11  12
ATOM     12  C   UNL     1      -4.896 -28.039 -52.635  1.00  0.00    -0.000 C 
BRANCH  12  13
ATOM     13  C   UNL     1      -4.937 -28.682 -51.241  1.00  0.00    -0.000 C 
BRANCH  13  14
ATOM     14  C   UNL     1      -6.251 -28.398 -50.495  1.00  0.00    -0.000 C 
BRANCH  14  15
ATOM     15  C   UNL     1      -6.393 -29.230 -49.212  1.00  0.00    -0.003 C 
ATOM     16  C   UNL     1      -7.354 -30.397 -49.419  1.00  0.00     0.004 C 
ENDBRANCH  14  15
ENDBRANCH  13  14
ENDBRANCH  12  13
ENDBRANCH  11  12
ENDBRANCH  10  11
ENDBRANCH   1  10
TORSDOF 12
ENDMDL
MODEL 5
REMARK VINA RESULT:    -5.283      1.141      3.335
REMARK INTER + INTRA:         -10.233
REMARK INTER:                  -8.821
REMARK INTRA:                  -1.412
REMARK UNBOUND:                -1.243
REMARK SMILES CCCCCCCCCCCCCC(=O)[O-]
REMARK SMILES IDX 8 1 9 2 10 3 11 4 12 5 13 6 14 7 15 8 16 9 7 10 6 11 5 12
REMARK SMILES IDX 4 13 3 14 2 15 1 16
REMARK H PARENT
REMARK Flexibility Score: inf
ROOT
ATOM      1  C   UNL     1      -5.631 -31.327 -50.523  1.00  0.00     0.000 C 
ENDROOT
BRANCH   1   2
ATOM      2  C   UNL     1      -5.952 -32.158 -51.777  1.00  0.00     0.000 C 
BRANCH   2   3
ATOM      3  C   UNL     1      -5.214 -31.652 -53.026  1.00  0.00     0.000 C 
BRANCH   3   4
ATOM      4  C   UNL     1      -3.862 -31.002 -52.694  1.00  0.00     0.000 C 
BRANCH   4   5
ATOM      5  C   UNL     1      -2.725 -32.032 -52.773  1.00  0.00     0.006 C 
BRANCH   5   6
ATOM      6  C   UNL     1      -1.910 -32.100 -51.475  1.00  0.00     0.053 C 
BRANCH   6   7
ATOM      7  C   UNL     1      -2.129 -33.392 -50.746  1.00  0.00     0.041 C 
ATOM      8  O   UNL     1      -1.203 -33.896 -50.060  1.00  0.00    -0.550 OA
ATOM      9  O   UNL     1      -3.368 -34.019 -50.799  1.00  0.00    -0.550 OA
ENDBRANCH   6   7
ENDBRANCH   5   6
ENDBRANCH   4   5
ENDBRANCH   3   4
ENDBRANCH   2   3
ENDBRANCH   1   2
BRANCH   1  10
ATOM     10  C   UNL     1      -6.829 -31.214 -49.566  1.00  0.00     0.000 C 
BRANCH  10  11
ATOM     11  C   UNL     1      -7.313 -29.767 -49.390  1.00  0.00    -0.000 C 
BRANCH  11  12
ATOM     12  C   UNL     1      -6.148 -28.778 -49.523  1.00  0.00    -0.000 C 
BRANCH  12  13
ATOM     13  C   UNL     1      -6.408 -27.771 -50.653  1.00  0.00    -0.000 C 
BRANCH  13  14
ATOM     14  C   UNL     1      -5.398 -27.900 -51.805  1.00  0.00    -0.000 C 
BRANCH  14  15
ATOM     15  C   UNL     1      -5.844 -27.150 -53.069  1.00  0.00    -0.003 C 
ATOM     16  C   UNL     1      -5.619 -27.997 -54.318  1.00  0.00     0.004 C 
ENDBRANCH  14  15
ENDBRANCH  13  14
ENDBRANCH  12  13
ENDBRANCH  11  12
ENDBRANCH  10  11
ENDBRANCH   1  10
TORSDOF 12
ENDMDL
MODEL 6
REMARK VINA RESULT:    -5.270      2.927      6.180
REMARK INTER + INTRA:         -10.210
REMARK INTER:                  -8.936
REMARK INTRA:                  -1.274
REMARK UNBOUND:                -1.243
REMARK SMILES CCCCCCCCCCCCCC(=O)[O-]
REMARK SMILES IDX 8 1 9 2 10 3 11 4 12 5 13 6 14 7 15 8 16 9 7 10 6 11 5 12
REMARK SMILES IDX 4 13 3 14 2 15 1 16
REMARK H PARENT
REMARK Flexibility Score: inf
ROOT
ATOM      1  C   UNL     1      -4.808 -32.464 -51.144  1.00  0.00     0.000 C 
ENDROOT
BRANCH   1   2
ATOM      2  C   UNL     1      -5.557 -31.287 -51.794  1.00  0.00     0.000 C 
BRANCH   2   3
ATOM      3  C   UNL     1      -5.737 -30.100 -50.834  1.00  0.00     0.000 C 
BRANCH   3   4
ATOM      4  C   UNL     1      -5.403 -28.751 -51.491  1.00  0.00     0.000 C 
BRANCH   4   5
ATOM      5  C   UNL     1      -4.079 -28.830 -52.265  1.00  0.00     0.006 C 
BRANCH   5   6
ATOM      6  C   UNL     1      -4.165 -28.145 -53.635  1.00  0.00     0.053 C 
BRANCH   6   7
ATOM      7  C   UNL     1      -5.268 -28.714 -54.475  1.00  0.00     0.041 C 
ATOM      8  O   UNL     1      -6.276 -28.014 -54.755  1.00  0.00    -0.550 OA
ATOM      9  O   UNL     1      -5.165 -30.005 -54.976  1.00  0.00    -0.550 OA
ENDBRANCH   6   7
ENDBRANCH   5   6
ENDBRANCH   4   5
ENDBRANCH   3   4
ENDBRANCH   2   3
ENDBRANCH   1   2
BRANCH   1  10
ATOM     10  C   UNL     1      -3.287 -32.239 -51.092  1.00  0.00     0.000 C 
BRANCH  10  11
ATOM     11  C   UNL     1      -2.503 -33.303 -51.873  1.00  0.00    -0.000 C 
BRANCH  11  12
ATOM     12  C   UNL     1      -2.206 -32.829 -53.301  1.00  0.00    -0.000 C 
BRANCH  12  13
ATOM     13  C   UNL     1      -0.914 -31.999 -53.348  1.00  0.00    -0.000 C 
BRANCH  13  14
ATOM     14  C   UNL     1       0.010 -32.274 -52.151  1.00  0.00    -0.000 C 
BRANCH  14  15
ATOM     15  C   UNL     1       0.525 -30.984 -51.494  1.00  0.00    -0.003 C 
ATOM     16  C   UNL     1      -0.567 -29.920 -51.445  1.00  0.00     0.004 C 
ENDBRANCH  14  15
ENDBRANCH  13  14
ENDBRANCH  12  13
ENDBRANCH  11  12
ENDBRANCH  10  11
ENDBRANCH   1  10
TORSDOF 12
ENDMDL
MODEL 7
REMARK VINA RESULT:    -5.262      3.364      6.153
REMARK INTER + INTRA:         -10.197
REMARK INTER:                  -8.727
REMARK INTRA:                  -1.470
REMARK UNBOUND:                -1.243
REMARK SMILES CCCCCCCCCCCCCC(=O)[O-]
REMARK SMILES IDX 8 1 9 2 10 3 11 4 12 5 13 6 14 7 15 8 16 9 7 10 6 11 5 12
REMARK SMILES IDX 4 13 3 14 2 15 1 16
REMARK H PARENT
REMARK Flexibility Score: inf
ROOT
ATOM      1  C   UNL     1      -1.598 -33.467 -53.112  1.00  0.00     0.000 C 
ENDROOT
BRANCH   1   2
ATOM      2  C   UNL     1      -2.330 -33.582 -51.764  1.00  0.00     0.000 C 
BRANCH   2   3
ATOM      3  C   UNL     1      -3.365 -32.465 -51.557  1.00  0.00     0.000 C 
BRANCH   3   4
ATOM      4  C   UNL     1      -3.960 -31.955 -52.879  1.00  0.00     0.000 C 
BRANCH   4   5
ATOM      5  C   UNL     1      -5.315 -31.271 -52.643  1.00  0.00     0.006 C 
BRANCH   5   6
ATOM      6  C   UNL     1      -5.208 -29.741 -52.676  1.00  0.00     0.053 C 
BRANCH   6   7
ATOM      7  C   UNL     1      -5.037 -29.225 -54.073  1.00  0.00     0.041 C 
ATOM      8  O   UNL     1      -5.257 -29.977 -55.057  1.00  0.00    -0.550 OA
ATOM      9  O   UNL     1      -4.667 -27.902 -54.285  1.00  0.00    -0.550 OA
ENDBRANCH   6   7
ENDBRANCH   5   6
ENDBRANCH   4   5
ENDBRANCH   3   4
ENDBRANCH   2   3
ENDBRANCH   1   2
BRANCH   1  10
ATOM     10  C   UNL     1      -0.141 -33.002 -52.955  1.00  0.00     0.000 C 
BRANCH  10  11
ATOM     11  C   UNL     1      -0.001 -31.473 -52.968  1.00  0.00    -0.000 C 
BRANCH  11  12
ATOM     12  C   UNL     1       0.365 -30.944 -51.575  1.00  0.00    -0.000 C 
BRANCH  12  13
ATOM     13  C   UNL     1      -0.354 -29.618 -51.284  1.00  0.00    -0.000 C 
BRANCH  13  14
ATOM     14  C   UNL     1      -1.514 -29.347 -52.256  1.00  0.00    -0.000 C 
BRANCH  14  15
ATOM     15  C   UNL     1      -1.392 -27.986 -52.958  1.00  0.00    -0.003 C 
ATOM     16  C   UNL     1      -0.295 -27.138 -52.322  1.00  0.00     0.004 C 
ENDBRANCH  14  15
ENDBRANCH  13  14
ENDBRANCH  12  13
ENDBRANCH  11  12
ENDBRANCH  10  11
ENDBRANCH   1  10
TORSDOF 12
ENDMDL
MODEL 8
REMARK VINA RESULT:    -5.256      1.960      3.073
REMARK INTER + INTRA:         -10.187
REMARK INTER:                  -9.120
REMARK INTRA:                  -1.068
REMARK UNBOUND:                -1.243
REMARK SMILES CCCCCCCCCCCCCC(=O)[O-]
REMARK SMILES IDX 8 1 9 2 10 3 11 4 12 5 13 6 14 7 15 8 16 9 7 10 6 11 5 12
REMARK SMILES IDX 4 13 3 14 2 15 1 16
REMARK H PARENT
REMARK Flexibility Score: inf
ROOT
ATOM      1  C   UNL     1      -1.776 -29.614 -52.696  1.00  0.00     0.000 C 
ENDROOT
BRANCH   1   2
ATOM      2  C   UNL     1      -0.748 -29.626 -51.551  1.00  0.00     0.000 C 
BRANCH   2   3
ATOM      3  C   UNL     1       0.146 -30.876 -51.573  1.00  0.00     0.000 C 
BRANCH   3   4
ATOM      4  C   UNL     1      -0.054 -31.725 -52.838  1.00  0.00     0.000 C 
BRANCH   4   5
ATOM      5  C   UNL     1      -0.441 -33.167 -52.476  1.00  0.00     0.006 C 
BRANCH   5   6
ATOM      6  C   UNL     1      -1.961 -33.370 -52.440  1.00  0.00     0.053 C 
BRANCH   6   7
ATOM      7  C   UNL     1      -2.483 -33.415 -51.036  1.00  0.00     0.041 C 
ATOM      8  O   UNL     1      -3.666 -33.062 -50.788  1.00  0.00    -0.550 OA
ATOM      9  O   UNL     1      -1.674 -33.881 -50.007  1.00  0.00    -0.550 OA
ENDBRANCH   6   7
ENDBRANCH   5   6
ENDBRANCH   4   5
ENDBRANCH   3   4
ENDBRANCH   2   3
ENDBRANCH   1   2
BRANCH   1  10
ATOM     10  C   UNL     1      -3.114 -28.979 -52.281  1.00  0.00     0.000 C 
BRANCH  10  11
ATOM     11  C   UNL     1      -4.329 -29.771 -52.786  1.00  0.00    -0.000 C 
BRANCH  11  12
ATOM     12  C   UNL     1      -5.309 -30.060 -51.642  1.00  0.00    -0.000 C 
BRANCH  12  13
ATOM     13  C   UNL     1      -5.627 -28.782 -50.853  1.00  0.00    -0.000 C 
BRANCH  13  14
ATOM     14  C   UNL     1      -6.607 -29.029 -49.695  1.00  0.00    -0.000 C 
BRANCH  14  15
ATOM     15  C   UNL     1      -6.969 -30.513 -49.533  1.00  0.00    -0.003 C 
ATOM     16  C   UNL     1      -8.187 -30.685 -48.630  1.00  0.00     0.004 C 
ENDBRANCH  14  15
ENDBRANCH  13  14
ENDBRANCH  12  13
ENDBRANCH  11  12
ENDBRANCH  10  11
ENDBRANCH   1  10
TORSDOF 12
ENDMDL
MODEL 9
REMARK VINA RESULT:    -5.221      3.335      6.031
REMARK INTER + INTRA:         -10.127
REMARK INTER:                  -8.607
REMARK INTRA:                  -1.520
REMARK UNBOUND:                -1.243
REMARK SMILES CCCCCCCCCCCCCC(=O)[O-]
REMARK SMILES IDX 8 1 9 2 10 3 11 4 12 5 13 6 14 7 15 8 16 9 7 10 6 11 5 12
REMARK SMILES IDX 4 13 3 14 2 15 1 16
REMARK H PARENT
REMARK Flexibility Score: inf
ROOT
ATOM      1  C   UNL     1       0.637 -30.783 -53.318  1.00  0.00     0.000 C 
ENDROOT
BRANCH   1   2
ATOM      2  C   UNL     1       0.001 -29.383 -53.366  1.00  0.00     0.000 C 
BRANCH   2   3
ATOM      3  C   UNL     1      -1.005 -29.151 -52.228  1.00  0.00     0.000 C 
BRANCH   3   4
ATOM      4  C   UNL     1      -2.236 -28.349 -52.678  1.00  0.00     0.000 C 
BRANCH   4   5
ATOM      5  C   UNL     1      -3.472 -29.254 -52.782  1.00  0.00     0.006 C 
BRANCH   5   6
ATOM      6  C   UNL     1      -4.760 -28.455 -53.022  1.00  0.00     0.053 C 
BRANCH   6   7
ATOM      7  C   UNL     1      -5.307 -28.681 -54.398  1.00  0.00     0.041 C 
ATOM      8  O   UNL     1      -5.848 -27.734 -55.028  1.00  0.00    -0.550 OA
ATOM      9  O   UNL     1      -5.189 -29.928 -54.998  1.00  0.00    -0.550 OA
ENDBRANCH   6   7
ENDBRANCH   5   6
ENDBRANCH   4   5
ENDBRANCH   3   4
ENDBRANCH   2   3
ENDBRANCH   1   2
BRANCH   1  10
ATOM     10  C   UNL     1       0.395 -31.495 -51.976  1.00  0.00     0.000 C 
BRANCH  10  11
ATOM     11  C   UNL     1      -0.234 -32.885 -52.147  1.00  0.00    -0.000 C 
BRANCH  11  12
ATOM     12  C   UNL     1      -1.119 -32.938 -53.399  1.00  0.00    -0.000 C 
BRANCH  12  13
ATOM     13  C   UNL     1      -2.583 -32.630 -53.050  1.00  0.00    -0.000 C 
BRANCH  13  14
ATOM     14  C   UNL     1      -3.003 -33.207 -51.689  1.00  0.00    -0.000 C 
BRANCH  14  15
ATOM     15  C   UNL     1      -4.213 -32.478 -51.085  1.00  0.00    -0.003 C 
ATOM     16  C   UNL     1      -5.338 -32.344 -52.107  1.00  0.00     0.004 C 
ENDBRANCH  14  15
ENDBRANCH  13  14
ENDBRANCH  12  13
ENDBRANCH  11  12
ENDBRANCH  10  11
ENDBRANCH   1  10
TORSDOF 12
ENDMDL
