MODEL 1
REMARK VINA RESULT:    -0.008      0.000      0.000
REMARK INTER + INTRA:           0.050
REMARK INTER:                  -0.008
REMARK INTRA:                   0.058
REMARK UNBOUND:                 0.058
REMARK SMILES C[C@@H]1[C@H](C)CC[C@@]2(C(=O)[O-])CC[C@]3(C)C(=CC[C@@H]4[C@]5(C)CC[C@@H](O)C(C)(C)[C@@H]5CC[C@]43C)[C@@H]12
REMARK SMILES IDX 7 1 6 2 11 3 33 4 5 5 12 6 15 7 2 8 3 9 13 10 16 11 1 12
REMARK SMILES IDX 4 13 14 14 31 15 17 16 18 17 30 18 32 19 19 20 29 21 28 22
REMARK SMILES IDX 21 23 20 24 25 25 22 26 23 27 26 28 27 29 8 30 9 31 10 32
REMARK SMILES IDX 24 33
REMARK H PARENT 24 34
REMARK Flexibility Score: inf
ROOT
ATOM      1  C   UNL     1      20.308  16.416  53.651  1.00  0.00     0.017 C 
ATOM      2  C   UNL     1      19.476  17.612  54.215  1.00  0.00     0.014 C 
ATOM      3  C   UNL     1      21.668  16.316  54.402  1.00  0.00     0.014 C 
ATOM      4  C   UNL     1      19.461  15.090  53.798  1.00  0.00     0.030 C 
ATOM      5  C   UNL     1      18.105  17.763  53.534  1.00  0.00     0.004 C 
ATOM      6  C   UNL     1      21.557  15.829  55.849  1.00  0.00     0.013 C 
ATOM      7  C   UNL     1      19.467  14.567  55.278  1.00  0.00    -0.063 C 
ATOM      8  C   UNL     1      18.042  15.234  53.113  1.00  0.00    -0.003 C 
ATOM      9  C   UNL     1      17.273  16.475  53.664  1.00  0.00    -0.011 C 
ATOM     10  C   UNL     1      20.837  14.449  56.008  1.00  0.00    -0.006 C 
ATOM     11  C   UNL     1      18.341  14.065  55.853  1.00  0.00    -0.027 C 
ATOM     12  C   UNL     1      18.104  15.204  51.564  1.00  0.00     0.008 C 
ATOM     13  C   UNL     1      15.885  16.656  53.024  1.00  0.00     0.008 C 
ATOM     14  C   UNL     1      21.671  13.368  55.237  1.00  0.00     0.017 C 
ATOM     15  C   UNL     1      20.704  14.043  57.591  1.00  0.00    -0.020 C 
ATOM     16  C   UNL     1      18.238  13.556  57.256  1.00  0.00     0.032 C 
ATOM     17  C   UNL     1      19.568  12.967  57.772  1.00  0.00     0.006 C 
ATOM     18  C   UNL     1      22.019  13.400  58.120  1.00  0.00     0.008 C 
ATOM     19  C   UNL     1      20.412  15.314  58.457  1.00  0.00     0.012 C 
ATOM     20  C   UNL     1      19.446  12.203  59.186  1.00  0.00    -0.025 C 
ATOM     21  C   UNL     1      21.933  12.939  59.571  1.00  0.00     0.005 C 
ATOM     22  C   UNL     1      20.877  11.815  59.788  1.00  0.00     0.003 C 
ATOM     23  C   UNL     1      18.565  13.004  60.223  1.00  0.00     0.010 C 
ATOM     24  C   UNL     1      18.701  10.860  58.879  1.00  0.00     0.012 C 
ATOM     25  C   UNL     1      20.877  11.235  61.299  1.00  0.00    -0.006 C 
ATOM     26  C   UNL     1      19.111  13.055  61.653  1.00  0.00     0.033 C 
ATOM     27  C   UNL     1      19.607  11.689  62.120  1.00  0.00     0.120 C 
ATOM     28  C   UNL     1      22.125  11.688  62.125  1.00  0.00     0.014 C 
ATOM     29  C   UNL     1      20.988   9.680  61.265  1.00  0.00     0.014 C 
ENDROOT
BRANCH   1  30
ATOM     30  C   UNL     1      20.700  16.671  52.200  1.00  0.00     0.048 C 
ATOM     31  O   UNL     1      20.540  17.804  51.671  1.00  0.00    -0.550 OA
ATOM     32  O   UNL     1      21.389  15.695  51.480  1.00  0.00    -0.550 OA
ENDBRANCH   1  30
BRANCH  27  33
ATOM     33  O   UNL     1      18.546  10.769  62.053  1.00  0.00    -0.393 OA
ATOM     34  H   UNL     1      17.766  11.246  61.670  1.00  0.00     0.210 HD
ENDBRANCH  27  33
TORSDOF 2
ENDMDL
MODEL 2
REMARK VINA RESULT:     0.002     13.651     17.921
REMARK INTER + INTRA:           0.061
REMARK INTER:                   0.000
REMARK INTRA:                   0.061
REMARK UNBOUND:                 0.058
REMARK SMILES C[C@@H]1[C@H](C)CC[C@@]2(C(=O)[O-])CC[C@]3(C)C(=CC[C@@H]4[C@]5(C)CC[C@@H](O)C(C)(C)[C@@H]5CC[C@]43C)[C@@H]12
REMARK SMILES IDX 7 1 6 2 11 3 33 4 5 5 12 6 15 7 2 8 3 9 13 10 16 11 1 12
REMARK SMILES IDX 4 13 14 14 31 15 17 16 18 17 30 18 32 19 19 20 29 21 28 22
REMARK SMILES IDX 21 23 20 24 25 25 22 26 23 27 26 28 27 29 8 30 9 31 10 32
REMARK SMILES IDX 24 33
REMARK H PARENT 24 34
REMARK Flexibility Score: inf
ROOT
ATOM      1  C   UNL     1      12.573  24.128  50.679  1.00  0.00     0.017 C 
ATOM      2  C   UNL     1      12.205  24.332  52.184  1.00  0.00     0.014 C 
ATOM      3  C   UNL     1      12.121  22.714  50.210  1.00  0.00     0.014 C 
ATOM      4  C   UNL     1      11.893  25.271  49.826  1.00  0.00     0.030 C 
ATOM      5  C   UNL     1      12.604  25.719  52.716  1.00  0.00     0.004 C 
ATOM      6  C   UNL     1      10.604  22.547  50.078  1.00  0.00     0.013 C 
ATOM      7  C   UNL     1      10.361  25.001  49.623  1.00  0.00    -0.063 C 
ATOM      8  C   UNL     1      12.285  26.705  50.370  1.00  0.00    -0.003 C 
ATOM      9  C   UNL     1      11.954  26.842  51.889  1.00  0.00    -0.011 C 
ATOM     10  C   UNL     1       9.924  23.590  49.131  1.00  0.00    -0.006 C 
ATOM     11  C   UNL     1       9.451  26.009  49.702  1.00  0.00    -0.027 C 
ATOM     12  C   UNL     1      13.743  27.110  50.033  1.00  0.00     0.008 C 
ATOM     13  C   UNL     1      12.320  28.223  52.462  1.00  0.00     0.008 C 
ATOM     14  C   UNL     1      10.519  23.407  47.692  1.00  0.00     0.017 C 
ATOM     15  C   UNL     1       8.299  23.377  49.106  1.00  0.00    -0.020 C 
ATOM     16  C   UNL     1       7.971  25.854  49.540  1.00  0.00     0.032 C 
ATOM     17  C   UNL     1       7.597  24.693  48.596  1.00  0.00     0.006 C 
ATOM     18  C   UNL     1       7.893  22.242  48.121  1.00  0.00     0.008 C 
ATOM     19  C   UNL     1       7.778  22.983  50.529  1.00  0.00     0.012 C 
ATOM     20  C   UNL     1       6.033  24.634  48.211  1.00  0.00    -0.025 C 
ATOM     21  C   UNL     1       6.387  22.044  48.004  1.00  0.00     0.005 C 
ATOM     22  C   UNL     1       5.654  23.291  47.426  1.00  0.00     0.003 C 
ATOM     23  C   UNL     1       5.101  24.870  49.463  1.00  0.00     0.010 C 
ATOM     24  C   UNL     1       5.795  25.823  47.220  1.00  0.00     0.012 C 
ATOM     25  C   UNL     1       4.075  23.035  47.180  1.00  0.00    -0.006 C 
ATOM     26  C   UNL     1       3.884  23.944  49.567  1.00  0.00     0.033 C 
ATOM     27  C   UNL     1       3.170  23.796  48.226  1.00  0.00     0.120 C 
ATOM     28  C   UNL     1       3.682  21.524  47.269  1.00  0.00     0.014 C 
ATOM     29  C   UNL     1       3.698  23.441  45.722  1.00  0.00     0.014 C 
ENDROOT
BRANCH   1  30
ATOM     30  C   UNL     1      14.087  24.116  50.493  1.00  0.00     0.048 C 
ATOM     31  O   UNL     1      14.864  24.051  51.483  1.00  0.00    -0.550 OA
ATOM     32  O   UNL     1      14.633  24.019  49.214  1.00  0.00    -0.550 OA
ENDBRANCH   1  30
BRANCH  27  33
ATOM     33  O   UNL     1       2.759  25.066  47.783  1.00  0.00    -0.393 OA
ATOM     34  H   UNL     1       1.769  25.058  47.743  1.00  0.00     0.210 HD
ENDBRANCH  27  33
TORSDOF 2
ENDMDL
MODEL 3
REMARK VINA RESULT:     0.002      5.955     11.592
REMARK INTER + INTRA:           0.061
REMARK INTER:                   0.000
REMARK INTRA:                   0.061
REMARK UNBOUND:                 0.058
REMARK SMILES C[C@@H]1[C@H](C)CC[C@@]2(C(=O)[O-])CC[C@]3(C)C(=CC[C@@H]4[C@]5(C)CC[C@@H](O)C(C)(C)[C@@H]5CC[C@]43C)[C@@H]12
REMARK SMILES IDX 7 1 6 2 11 3 33 4 5 5 12 6 15 7 2 8 3 9 13 10 16 11 1 12
REMARK SMILES IDX 4 13 14 14 31 15 17 16 18 17 30 18 32 19 19 20 29 21 28 22
REMARK SMILES IDX 21 23 20 24 25 25 22 26 23 27 26 28 27 29 8 30 9 31 10 32
REMARK SMILES IDX 24 33
REMARK H PARENT 24 34
REMARK Flexibility Score: inf
ROOT
ATOM      1  C   UNL     1      18.151  15.747  49.263  1.00  0.00     0.017 C 
ATOM      2  C   UNL     1      17.819  14.631  50.306  1.00  0.00     0.014 C 
ATOM      3  C   UNL     1      17.269  15.565  47.993  1.00  0.00     0.014 C 
ATOM      4  C   UNL     1      17.924  17.159  49.934  1.00  0.00     0.030 C 
ATOM      5  C   UNL     1      18.640  14.758  51.600  1.00  0.00     0.004 C 
ATOM      6  C   UNL     1      15.790  15.905  48.198  1.00  0.00     0.013 C 
ATOM      7  C   UNL     1      16.398  17.514  50.022  1.00  0.00    -0.063 C 
ATOM      8  C   UNL     1      18.754  17.299  51.275  1.00  0.00    -0.003 C 
ATOM      9  C   UNL     1      18.433  16.132  52.261  1.00  0.00    -0.011 C 
ATOM     10  C   UNL     1      15.532  17.350  48.739  1.00  0.00    -0.006 C 
ATOM     11  C   UNL     1      15.876  18.111  51.127  1.00  0.00    -0.027 C 
ATOM     12  C   UNL     1      20.274  17.485  51.038  1.00  0.00     0.008 C 
ATOM     13  C   UNL     1      19.219  16.226  53.581  1.00  0.00     0.008 C 
ATOM     14  C   UNL     1      16.083  18.373  47.686  1.00  0.00     0.017 C 
ATOM     15  C   UNL     1      13.932  17.599  48.990  1.00  0.00    -0.020 C 
ATOM     16  C   UNL     1      14.437  18.475  51.316  1.00  0.00     0.032 C 
ATOM     17  C   UNL     1      13.729  18.804  49.985  1.00  0.00     0.006 C 
ATOM     18  C   UNL     1      13.205  17.982  47.668  1.00  0.00     0.008 C 
ATOM     19  C   UNL     1      13.258  16.299  49.546  1.00  0.00     0.012 C 
ATOM     20  C   UNL     1      12.251  19.422  50.159  1.00  0.00    -0.025 C 
ATOM     21  C   UNL     1      11.725  18.292  47.852  1.00  0.00     0.005 C 
ATOM     22  C   UNL     1      11.473  19.529  48.764  1.00  0.00     0.003 C 
ATOM     23  C   UNL     1      11.407  18.652  51.249  1.00  0.00     0.010 C 
ATOM     24  C   UNL     1      12.461  20.884  50.677  1.00  0.00     0.012 C 
ATOM     25  C   UNL     1       9.909  19.937  48.854  1.00  0.00    -0.006 C 
ATOM     26  C   UNL     1       9.948  18.368  50.878  1.00  0.00     0.033 C 
ATOM     27  C   UNL     1       9.274  19.589  50.257  1.00  0.00     0.120 C 
ATOM     28  C   UNL     1       9.030  19.220  47.778  1.00  0.00     0.014 C 
ATOM     29  C   UNL     1       9.742  21.454  48.532  1.00  0.00     0.014 C 
ENDROOT
BRANCH   1  30
ATOM     30  C   UNL     1      19.579  15.594  48.750  1.00  0.00     0.048 C 
ATOM     31  O   UNL     1      20.254  14.559  49.000  1.00  0.00    -0.550 OA
ATOM     32  O   UNL     1      20.106  16.531  47.862  1.00  0.00    -0.550 OA
ENDBRANCH   1  30
BRANCH  27  33
ATOM     33  O   UNL     1       9.329  20.656  51.170  1.00  0.00    -0.393 OA
ATOM     34  H   UNL     1       9.638  20.287  52.036  1.00  0.00     0.210 HD
ENDBRANCH  27  33
TORSDOF 2
ENDMDL
MODEL 4
REMARK VINA RESULT:     0.002     14.223     17.160
REMARK INTER + INTRA:           0.061
REMARK INTER:                   0.000
REMARK INTRA:                   0.061
REMARK UNBOUND:                 0.058
REMARK SMILES C[C@@H]1[C@H](C)CC[C@@]2(C(=O)[O-])CC[C@]3(C)C(=CC[C@@H]4[C@]5(C)CC[C@@H](O)C(C)(C)[C@@H]5CC[C@]43C)[C@@H]12
REMARK SMILES IDX 7 1 6 2 11 3 33 4 5 5 12 6 15 7 2 8 3 9 13 10 16 11 1 12
REMARK SMILES IDX 4 13 14 14 31 15 17 16 18 17 30 18 32 19 19 20 29 21 28 22
REMARK SMILES IDX 21 23 20 24 25 25 22 26 23 27 26 28 27 29 8 30 9 31 10 32
REMARK SMILES IDX 24 33
REMARK H PARENT 24 34
REMARK Flexibility Score: inf
ROOT
ATOM      1  C   UNL     1      10.202  23.451  44.216  1.00  0.00     0.017 C 
ATOM      2  C   UNL     1       9.745  22.618  45.456  1.00  0.00     0.014 C 
ATOM      3  C   UNL     1      10.254  24.963  44.582  1.00  0.00     0.014 C 
ATOM      4  C   UNL     1      11.609  22.919  43.732  1.00  0.00     0.030 C 
ATOM      5  C   UNL     1       9.689  21.107  45.177  1.00  0.00     0.004 C 
ATOM      6  C   UNL     1      11.399  25.346  45.523  1.00  0.00     0.013 C 
ATOM      7  C   UNL     1      12.765  23.427  44.663  1.00  0.00    -0.063 C 
ATOM      8  C   UNL     1      11.570  21.361  43.452  1.00  0.00    -0.003 C 
ATOM      9  C   UNL     1      11.053  20.577  44.698  1.00  0.00    -0.011 C 
ATOM     10  C   UNL     1      12.819  24.946  45.002  1.00  0.00    -0.006 C 
ATOM     11  C   UNL     1      13.791  22.610  45.024  1.00  0.00    -0.027 C 
ATOM     12  C   UNL     1      10.813  20.992  42.151  1.00  0.00     0.008 C 
ATOM     13  C   UNL     1      10.996  19.056  44.471  1.00  0.00     0.008 C 
ATOM     14  C   UNL     1      13.078  25.703  43.653  1.00  0.00     0.017 C 
ATOM     15  C   UNL     1      13.971  25.333  46.102  1.00  0.00    -0.020 C 
ATOM     16  C   UNL     1      14.930  22.993  45.916  1.00  0.00     0.032 C 
ATOM     17  C   UNL     1      15.275  24.494  45.826  1.00  0.00     0.006 C 
ATOM     18  C   UNL     1      14.372  26.833  45.995  1.00  0.00     0.008 C 
ATOM     19  C   UNL     1      13.444  25.082  47.555  1.00  0.00     0.012 C 
ATOM     20  C   UNL     1      16.634  24.904  46.589  1.00  0.00    -0.025 C 
ATOM     21  C   UNL     1      15.490  27.236  46.949  1.00  0.00     0.005 C 
ATOM     22  C   UNL     1      16.828  26.492  46.665  1.00  0.00     0.003 C 
ATOM     23  C   UNL     1      16.749  24.226  48.010  1.00  0.00     0.010 C 
ATOM     24  C   UNL     1      17.801  24.345  45.708  1.00  0.00     0.012 C 
ATOM     25  C   UNL     1      18.048  27.013  47.591  1.00  0.00    -0.006 C 
ATOM     26  C   UNL     1      17.252  25.133  49.137  1.00  0.00     0.033 C 
ATOM     27  C   UNL     1      18.455  25.966  48.700  1.00  0.00     0.120 C 
ATOM     28  C   UNL     1      17.717  28.346  48.340  1.00  0.00     0.014 C 
ATOM     29  C   UNL     1      19.272  27.374  46.695  1.00  0.00     0.014 C 
ENDROOT
BRANCH   1  30
ATOM     30  C   UNL     1       9.162  23.372  43.103  1.00  0.00     0.048 C 
ATOM     31  O   UNL     1       8.020  22.881  43.313  1.00  0.00    -0.550 OA
ATOM     32  O   UNL     1       9.404  23.985  41.875  1.00  0.00    -0.550 OA
ENDBRANCH   1  30
BRANCH  27  33
ATOM     33  O   UNL     1      19.487  25.102  48.295  1.00  0.00    -0.393 OA
ATOM     34  H   UNL     1      20.300  25.357  48.800  1.00  0.00     0.210 HD
ENDBRANCH  27  33
TORSDOF 2
ENDMDL
MODEL 5
REMARK VINA RESULT:     0.002      6.710     10.916
REMARK INTER + INTRA:           0.061
REMARK INTER:                   0.000
REMARK INTRA:                   0.061
REMARK UNBOUND:                 0.058
REMARK SMILES C[C@@H]1[C@H](C)CC[C@@]2(C(=O)[O-])CC[C@]3(C)C(=CC[C@@H]4[C@]5(C)CC[C@@H](O)C(C)(C)[C@@H]5CC[C@]43C)[C@@H]12
REMARK SMILES IDX 7 1 6 2 11 3 33 4 5 5 12 6 15 7 2 8 3 9 13 10 16 11 1 12
REMARK SMILES IDX 4 13 14 14 31 15 17 16 18 17 30 18 32 19 19 20 29 21 28 22
REMARK SMILES IDX 21 23 20 24 25 25 22 26 23 27 26 28 27 29 8 30 9 31 10 32
REMARK SMILES IDX 24 33
REMARK H PARENT 24 34
REMARK Flexibility Score: inf
ROOT
ATOM      1  C   UNL     1      17.177  18.411  52.960  1.00  0.00     0.017 C 
ATOM      2  C   UNL     1      15.649  18.661  53.171  1.00  0.00     0.014 C 
ATOM      3  C   UNL     1      17.477  16.884  53.003  1.00  0.00     0.014 C 
ATOM      4  C   UNL     1      17.615  19.053  51.584  1.00  0.00     0.030 C 
ATOM      5  C   UNL     1      15.272  20.151  53.120  1.00  0.00     0.004 C 
ATOM      6  C   UNL     1      16.969  16.106  51.787  1.00  0.00     0.013 C 
ATOM      7  C   UNL     1      17.169  18.165  50.369  1.00  0.00    -0.063 C 
ATOM      8  C   UNL     1      17.221  20.585  51.511  1.00  0.00    -0.003 C 
ATOM      9  C   UNL     1      15.699  20.789  51.786  1.00  0.00    -0.011 C 
ATOM     10  C   UNL     1      17.496  16.643  50.415  1.00  0.00    -0.006 C 
ATOM     11  C   UNL     1      16.671  18.722  49.233  1.00  0.00    -0.027 C 
ATOM     12  C   UNL     1      18.119  21.490  52.393  1.00  0.00     0.008 C 
ATOM     13  C   UNL     1      15.270  22.266  51.728  1.00  0.00     0.008 C 
ATOM     14  C   UNL     1      19.059  16.514  50.406  1.00  0.00     0.017 C 
ATOM     15  C   UNL     1      16.848  15.794  49.172  1.00  0.00    -0.020 C 
ATOM     16  C   UNL     1      16.206  17.965  48.029  1.00  0.00     0.032 C 
ATOM     17  C   UNL     1      16.957  16.630  47.841  1.00  0.00     0.006 C 
ATOM     18  C   UNL     1      17.622  14.466  48.931  1.00  0.00     0.008 C 
ATOM     19  C   UNL     1      15.357  15.429  49.480  1.00  0.00     0.012 C 
ATOM     20  C   UNL     1      16.654  15.895  46.440  1.00  0.00    -0.025 C 
ATOM     21  C   UNL     1      17.106  13.664  47.742  1.00  0.00     0.005 C 
ATOM     22  C   UNL     1      17.267  14.417  46.388  1.00  0.00     0.003 C 
ATOM     23  C   UNL     1      15.117  15.910  46.077  1.00  0.00     0.010 C 
ATOM     24  C   UNL     1      17.400  16.736  45.349  1.00  0.00     0.012 C 
ATOM     25  C   UNL     1      16.841  13.517  45.113  1.00  0.00    -0.006 C 
ATOM     26  C   UNL     1      14.556  14.599  45.520  1.00  0.00     0.033 C 
ATOM     27  C   UNL     1      15.479  13.989  44.468  1.00  0.00     0.120 C 
ATOM     28  C   UNL     1      16.663  12.004  45.467  1.00  0.00     0.014 C 
ATOM     29  C   UNL     1      17.987  13.527  44.055  1.00  0.00     0.014 C 
ENDROOT
BRANCH   1  30
ATOM     30  C   UNL     1      17.981  18.983  54.123  1.00  0.00     0.048 C 
ATOM     31  O   UNL     1      17.411  19.376  55.177  1.00  0.00    -0.550 OA
ATOM     32  O   UNL     1      19.373  18.934  54.101  1.00  0.00    -0.550 OA
ENDBRANCH   1  30
BRANCH  27  33
ATOM     33  O   UNL     1      15.652  14.910  43.421  1.00  0.00    -0.393 OA
ATOM     34  H   UNL     1      16.474  14.651  42.932  1.00  0.00     0.210 HD
ENDBRANCH  27  33
TORSDOF 2
ENDMDL
MODEL 6
REMARK VINA RESULT:     0.002     11.365     14.043
REMARK INTER + INTRA:           0.061
REMARK INTER:                   0.000
REMARK INTRA:                   0.061
REMARK UNBOUND:                 0.058
REMARK SMILES C[C@@H]1[C@H](C)CC[C@@]2(C(=O)[O-])CC[C@]3(C)C(=CC[C@@H]4[C@]5(C)CC[C@@H](O)C(C)(C)[C@@H]5CC[C@]43C)[C@@H]12
REMARK SMILES IDX 7 1 6 2 11 3 33 4 5 5 12 6 15 7 2 8 3 9 13 10 16 11 1 12
REMARK SMILES IDX 4 13 14 14 31 15 17 16 18 17 30 18 32 19 19 20 29 21 28 22
REMARK SMILES IDX 21 23 20 24 25 25 22 26 23 27 26 28 27 29 8 30 9 31 10 32
REMARK SMILES IDX 24 33
REMARK H PARENT 24 34
REMARK Flexibility Score: inf
ROOT
ATOM      1  C   UNL     1      11.740  24.423  53.227  1.00  0.00     0.017 C 
ATOM      2  C   UNL     1      10.356  24.909  52.688  1.00  0.00     0.014 C 
ATOM      3  C   UNL     1      11.616  22.971  53.774  1.00  0.00     0.014 C 
ATOM      4  C   UNL     1      12.804  24.520  52.063  1.00  0.00     0.030 C 
ATOM      5  C   UNL     1      10.404  26.334  52.111  1.00  0.00     0.004 C 
ATOM      6  C   UNL     1      11.427  21.903  52.693  1.00  0.00     0.013 C 
ATOM      7  C   UNL     1      12.643  23.342  51.039  1.00  0.00    -0.063 C 
ATOM      8  C   UNL     1      12.856  25.979  51.450  1.00  0.00    -0.003 C 
ATOM      9  C   UNL     1      11.443  26.443  50.980  1.00  0.00    -0.011 C 
ATOM     10  C   UNL     1      12.544  21.893  51.598  1.00  0.00    -0.006 C 
ATOM     11  C   UNL     1      12.760  23.551  49.700  1.00  0.00    -0.027 C 
ATOM     12  C   UNL     1      13.551  27.008  52.377  1.00  0.00     0.008 C 
ATOM     13  C   UNL     1      11.444  27.859  50.377  1.00  0.00     0.008 C 
ATOM     14  C   UNL     1      13.913  21.582  52.297  1.00  0.00     0.017 C 
ATOM     15  C   UNL     1      12.222  20.767  50.451  1.00  0.00    -0.020 C 
ATOM     16  C   UNL     1      12.610  22.503  48.643  1.00  0.00     0.032 C 
ATOM     17  C   UNL     1      13.024  21.100  49.137  1.00  0.00     0.006 C 
ATOM     18  C   UNL     1      12.678  19.350  50.907  1.00  0.00     0.008 C 
ATOM     19  C   UNL     1      10.684  20.704  50.165  1.00  0.00     0.012 C 
ATOM     20  C   UNL     1      13.097  19.988  47.973  1.00  0.00    -0.025 C 
ATOM     21  C   UNL     1      12.465  18.271  49.852  1.00  0.00     0.005 C 
ATOM     22  C   UNL     1      13.302  18.512  48.561  1.00  0.00     0.003 C 
ATOM     23  C   UNL     1      11.864  20.068  46.992  1.00  0.00     0.010 C 
ATOM     24  C   UNL     1      14.379  20.328  47.141  1.00  0.00     0.012 C 
ATOM     25  C   UNL     1      13.177  17.301  47.495  1.00  0.00    -0.006 C 
ATOM     26  C   UNL     1      11.248  18.723  46.592  1.00  0.00     0.033 C 
ATOM     27  C   UNL     1      12.318  17.695  46.230  1.00  0.00     0.120 C 
ATOM     28  C   UNL     1      12.514  16.022  48.101  1.00  0.00     0.014 C 
ATOM     29  C   UNL     1      14.601  16.826  47.070  1.00  0.00     0.014 C 
ENDROOT
BRANCH   1  30
ATOM     30  C   UNL     1      12.163  25.245  54.441  1.00  0.00     0.048 C 
ATOM     31  O   UNL     1      11.355  26.027  55.010  1.00  0.00    -0.550 OA
ATOM     32  O   UNL     1      13.403  25.025  55.035  1.00  0.00    -0.550 OA
ENDBRANCH   1  30
BRANCH  27  33
ATOM     33  O   UNL     1      13.091  18.194  45.168  1.00  0.00    -0.393 OA
ATOM     34  H   UNL     1      12.771  19.113  44.976  1.00  0.00     0.210 HD
ENDBRANCH  27  33
TORSDOF 2
ENDMDL
MODEL 7
REMARK VINA RESULT:     0.002      6.086      9.528
REMARK INTER + INTRA:           0.061
REMARK INTER:                   0.000
REMARK INTRA:                   0.061
REMARK UNBOUND:                 0.058
REMARK SMILES C[C@@H]1[C@H](C)CC[C@@]2(C(=O)[O-])CC[C@]3(C)C(=CC[C@@H]4[C@]5(C)CC[C@@H](O)C(C)(C)[C@@H]5CC[C@]43C)[C@@H]12
REMARK SMILES IDX 7 1 6 2 11 3 33 4 5 5 12 6 15 7 2 8 3 9 13 10 16 11 1 12
REMARK SMILES IDX 4 13 14 14 31 15 17 16 18 17 30 18 32 19 19 20 29 21 28 22
REMARK SMILES IDX 21 23 20 24 25 25 22 26 23 27 26 28 27 29 8 30 9 31 10 32
REMARK SMILES IDX 24 33
REMARK H PARENT 24 34
REMARK Flexibility Score: inf
ROOT
ATOM      1  C   UNL     1      11.894  17.283  58.053  1.00  0.00     0.017 C 
ATOM      2  C   UNL     1      12.712  18.543  57.621  1.00  0.00     0.014 C 
ATOM      3  C   UNL     1      10.884  16.897  56.934  1.00  0.00     0.014 C 
ATOM      4  C   UNL     1      12.898  16.104  58.366  1.00  0.00     0.030 C 
ATOM      5  C   UNL     1      13.749  18.974  58.672  1.00  0.00     0.004 C 
ATOM      6  C   UNL     1      11.529  16.306  55.677  1.00  0.00     0.013 C 
ATOM      7  C   UNL     1      13.449  15.456  57.047  1.00  0.00    -0.063 C 
ATOM      8  C   UNL     1      13.980  16.538  59.437  1.00  0.00    -0.003 C 
ATOM      9  C   UNL     1      14.729  17.831  58.990  1.00  0.00    -0.011 C 
ATOM     10  C   UNL     1      12.425  15.052  55.946  1.00  0.00    -0.006 C 
ATOM     11  C   UNL     1      14.755  15.092  56.932  1.00  0.00    -0.027 C 
ATOM     12  C   UNL     1      13.411  16.638  60.876  1.00  0.00     0.008 C 
ATOM     13  C   UNL     1      15.792  18.292  60.004  1.00  0.00     0.008 C 
ATOM     14  C   UNL     1      11.522  13.925  56.556  1.00  0.00     0.017 C 
ATOM     15  C   UNL     1      13.125  14.532  54.558  1.00  0.00    -0.020 C 
ATOM     16  C   UNL     1      15.380  14.483  55.717  1.00  0.00     0.032 C 
ATOM     17  C   UNL     1      14.381  13.642  54.895  1.00  0.00     0.006 C 
ATOM     18  C   UNL     1      12.151  13.639  53.735  1.00  0.00     0.008 C 
ATOM     19  C   UNL     1      13.530  15.750  53.661  1.00  0.00     0.012 C 
ATOM     20  C   UNL     1      15.059  12.783  53.712  1.00  0.00    -0.025 C 
ATOM     21  C   UNL     1      12.771  13.069  52.464  1.00  0.00     0.005 C 
ATOM     22  C   UNL     1      13.969  12.115  52.749  1.00  0.00     0.003 C 
ATOM     23  C   UNL     1      16.128  13.619  52.905  1.00  0.00     0.010 C 
ATOM     24  C   UNL     1      15.819  11.612  54.420  1.00  0.00     0.012 C 
ATOM     25  C   UNL     1      14.542  11.410  51.410  1.00  0.00    -0.006 C 
ATOM     26  C   UNL     1      16.087  13.452  51.383  1.00  0.00     0.033 C 
ATOM     27  C   UNL     1      15.947  11.986  50.977  1.00  0.00     0.120 C 
ATOM     28  C   UNL     1      13.594  11.578  50.179  1.00  0.00     0.014 C 
ATOM     29  C   UNL     1      14.620   9.866  51.622  1.00  0.00     0.014 C 
ENDROOT
BRANCH   1  30
ATOM     30  C   UNL     1      11.014  17.602  59.258  1.00  0.00     0.048 C 
ATOM     31  O   UNL     1      10.847  18.789  59.646  1.00  0.00    -0.550 OA
ATOM     32  O   UNL     1      10.253  16.596  59.852  1.00  0.00    -0.550 OA
ENDBRANCH   1  30
BRANCH  27  33
ATOM     33  O   UNL     1      17.030  11.260  51.502  1.00  0.00    -0.393 OA
ATOM     34  H   UNL     1      17.176  10.480  50.909  1.00  0.00     0.210 HD
ENDBRANCH  27  33
TORSDOF 2
ENDMDL
MODEL 8
REMARK VINA RESULT:     0.002     10.263     15.531
REMARK INTER + INTRA:           0.061
REMARK INTER:                   0.000
REMARK INTRA:                   0.061
REMARK UNBOUND:                 0.058
REMARK SMILES C[C@@H]1[C@H](C)CC[C@@]2(C(=O)[O-])CC[C@]3(C)C(=CC[C@@H]4[C@]5(C)CC[C@@H](O)C(C)(C)[C@@H]5CC[C@]43C)[C@@H]12
REMARK SMILES IDX 7 1 6 2 11 3 33 4 5 5 12 6 15 7 2 8 3 9 13 10 16 11 1 12
REMARK SMILES IDX 4 13 14 14 31 15 17 16 18 17 30 18 32 19 19 20 29 21 28 22
REMARK SMILES IDX 21 23 20 24 25 25 22 26 23 27 26 28 27 29 8 30 9 31 10 32
REMARK SMILES IDX 24 33
REMARK H PARENT 24 34
REMARK Flexibility Score: inf
ROOT
ATOM      1  C   UNL     1       8.823  19.432  55.837  1.00  0.00     0.017 C 
ATOM      2  C   UNL     1       8.964  20.974  56.042  1.00  0.00     0.014 C 
ATOM      3  C   UNL     1       7.379  19.089  55.367  1.00  0.00     0.014 C 
ATOM      4  C   UNL     1       9.907  18.954  54.791  1.00  0.00     0.030 C 
ATOM      5  C   UNL     1      10.375  21.394  56.489  1.00  0.00     0.004 C 
ATOM      6  C   UNL     1       7.063  19.519  53.932  1.00  0.00     0.013 C 
ATOM      7  C   UNL     1       9.488  19.319  53.324  1.00  0.00    -0.063 C 
ATOM      8  C   UNL     1      11.364  19.389  55.231  1.00  0.00    -0.003 C 
ATOM      9  C   UNL     1      11.441  20.928  55.481  1.00  0.00    -0.011 C 
ATOM     10  C   UNL     1       8.049  18.949  52.859  1.00  0.00    -0.006 C 
ATOM     11  C   UNL     1      10.397  19.783  52.425  1.00  0.00    -0.027 C 
ATOM     12  C   UNL     1      11.919  18.559  56.416  1.00  0.00     0.008 C 
ATOM     13  C   UNL     1      12.841  21.398  55.914  1.00  0.00     0.008 C 
ATOM     14  C   UNL     1       7.951  17.384  52.887  1.00  0.00     0.017 C 
ATOM     15  C   UNL     1       7.674  19.516  51.367  1.00  0.00    -0.020 C 
ATOM     16  C   UNL     1      10.098  20.172  51.012  1.00  0.00     0.032 C 
ATOM     17  C   UNL     1       8.921  19.373  50.414  1.00  0.00     0.006 C 
ATOM     18  C   UNL     1       6.521  18.692  50.723  1.00  0.00     0.008 C 
ATOM     19  C   UNL     1       7.205  21.008  51.453  1.00  0.00     0.012 C 
ATOM     20  C   UNL     1       8.711  19.593  48.831  1.00  0.00    -0.025 C 
ATOM     21  C   UNL     1       6.174  19.131  49.306  1.00  0.00     0.005 C 
ATOM     22  C   UNL     1       7.351  18.934  48.305  1.00  0.00     0.003 C 
ATOM     23  C   UNL     1       8.831  21.112  48.418  1.00  0.00     0.010 C 
ATOM     24  C   UNL     1       9.887  18.825  48.138  1.00  0.00     0.012 C 
ATOM     25  C   UNL     1       6.942  19.277  46.777  1.00  0.00    -0.006 C 
ATOM     26  C   UNL     1       7.786  21.609  47.414  1.00  0.00     0.033 C 
ATOM     27  C   UNL     1       7.590  20.622  46.265  1.00  0.00     0.120 C 
ATOM     28  C   UNL     1       5.398  19.424  46.578  1.00  0.00     0.014 C 
ATOM     29  C   UNL     1       7.332  18.086  45.848  1.00  0.00     0.014 C 
ENDROOT
BRANCH   1  30
ATOM     30  C   UNL     1       8.968  18.698  57.166  1.00  0.00     0.048 C 
ATOM     31  O   UNL     1       8.964  19.325  58.260  1.00  0.00    -0.550 OA
ATOM     32  O   UNL     1       8.947  17.305  57.201  1.00  0.00    -0.550 OA
ENDBRANCH   1  30
BRANCH  27  33
ATOM     33  O   UNL     1       8.819  20.431  45.611  1.00  0.00    -0.393 OA
ATOM     34  H   UNL     1       8.624  20.014  44.733  1.00  0.00     0.210 HD
ENDBRANCH  27  33
TORSDOF 2
ENDMDL
MODEL 9
REMARK VINA RESULT:     0.002      9.952     13.353
REMARK INTER + INTRA:           0.061
REMARK INTER:                   0.000
REMARK INTRA:                   0.061
REMARK UNBOUND:                 0.058
REMARK SMILES C[C@@H]1[C@H](C)CC[C@@]2(C(=O)[O-])CC[C@]3(C)C(=CC[C@@H]4[C@]5(C)CC[C@@H](O)C(C)(C)[C@@H]5CC[C@]43C)[C@@H]12
REMARK SMILES IDX 7 1 6 2 11 3 33 4 5 5 12 6 15 7 2 8 3 9 13 10 16 11 1 12
REMARK SMILES IDX 4 13 14 14 31 15 17 16 18 17 30 18 32 19 19 20 29 21 28 22
REMARK SMILES IDX 21 23 20 24 25 25 22 26 23 27 26 28 27 29 8 30 9 31 10 32
REMARK SMILES IDX 24 33
REMARK H PARENT 24 34
REMARK Flexibility Score: inf
ROOT
ATOM      1  C   UNL     1       9.460  24.292  56.810  1.00  0.00     0.017 C 
ATOM      2  C   UNL     1       9.214  24.438  58.346  1.00  0.00     0.014 C 
ATOM      3  C   UNL     1      10.043  25.618  56.239  1.00  0.00     0.014 C 
ATOM      4  C   UNL     1      10.432  23.072  56.561  1.00  0.00     0.030 C 
ATOM      5  C   UNL     1       8.656  23.156  58.988  1.00  0.00     0.004 C 
ATOM      6  C   UNL     1      11.488  25.904  56.654  1.00  0.00     0.013 C 
ATOM      7  C   UNL     1      11.919  23.445  56.895  1.00  0.00    -0.063 C 
ATOM      8  C   UNL     1       9.877  21.748  57.227  1.00  0.00    -0.003 C 
ATOM      9  C   UNL     1       9.591  21.958  58.747  1.00  0.00    -0.011 C 
ATOM     10  C   UNL     1      12.497  24.762  56.298  1.00  0.00    -0.006 C 
ATOM     11  C   UNL     1      12.739  22.571  57.539  1.00  0.00    -0.027 C 
ATOM     12  C   UNL     1       8.671  21.139  56.467  1.00  0.00     0.008 C 
ATOM     13  C   UNL     1       9.047  20.694  59.437  1.00  0.00     0.008 C 
ATOM     14  C   UNL     1      12.507  24.586  54.739  1.00  0.00     0.017 C 
ATOM     15  C   UNL     1      14.000  25.125  56.840  1.00  0.00    -0.020 C 
ATOM     16  C   UNL     1      14.162  22.835  57.916  1.00  0.00     0.032 C 
ATOM     17  C   UNL     1      14.861  23.810  56.946  1.00  0.00     0.006 C 
ATOM     18  C   UNL     1      14.744  26.069  55.851  1.00  0.00     0.008 C 
ATOM     19  C   UNL     1      13.920  25.852  58.225  1.00  0.00     0.012 C 
ATOM     20  C   UNL     1      16.450  23.944  57.177  1.00  0.00    -0.025 C 
ATOM     21  C   UNL     1      16.174  26.388  56.269  1.00  0.00     0.005 C 
ATOM     22  C   UNL     1      17.089  25.128  56.310  1.00  0.00     0.003 C 
ATOM     23  C   UNL     1      16.823  24.062  58.707  1.00  0.00     0.010 C 
ATOM     24  C   UNL     1      17.070  22.607  56.647  1.00  0.00     0.012 C 
ATOM     25  C   UNL     1      18.636  25.484  56.627  1.00  0.00    -0.006 C 
ATOM     26  C   UNL     1      17.892  25.106  59.048  1.00  0.00     0.033 C 
ATOM     27  C   UNL     1      19.071  25.047  58.080  1.00  0.00     0.120 C 
ATOM     28  C   UNL     1      18.945  27.012  56.512  1.00  0.00     0.014 C 
ATOM     29  C   UNL     1      19.557  24.828  55.553  1.00  0.00     0.014 C 
ENDROOT
BRANCH   1  30
ATOM     30  C   UNL     1       8.139  24.115  56.069  1.00  0.00     0.048 C 
ATOM     31  O   UNL     1       7.036  24.303  56.650  1.00  0.00    -0.550 OA
ATOM     32  O   UNL     1       8.134  23.894  54.693  1.00  0.00    -0.550 OA
ENDBRANCH   1  30
BRANCH  27  33
ATOM     33  O   UNL     1      19.637  23.760  58.126  1.00  0.00    -0.393 OA
ATOM     34  H   UNL     1      19.382  23.297  57.288  1.00  0.00     0.210 HD
ENDBRANCH  27  33
TORSDOF 2
ENDMDL
