MODEL 1
REMARK VINA RESULT:    -6.660      0.000      0.000
REMARK INTER + INTRA:         -11.624
REMARK INTER:                  -9.775
REMARK INTRA:                  -1.850
REMARK UNBOUND:                -1.850
REMARK SMILES O=c1c(O[C@H]2O[C@H](CO)[C@H](O)[C@@H](O)[C@@H]2O)c(-c2ccc(O)c(O)c2)oc2cc(O)cc(O)c12
REMARK SMILES IDX 4 1 3 2 16 3 25 4 2 5 26 6 1 7 33 8 27 9 31 10 28 11 30 12
REMARK SMILES IDX 17 13 18 14 19 15 20 16 24 17 22 18 21 19 23 21 32 23 29 25
REMARK SMILES IDX 5 27 14 28 6 29 12 30 7 31 10 32 15 33 13 35 8 37 9 38 11 40
REMARK H PARENT 21 20 23 22 32 24 29 26 15 34 13 36 9 39 11 41
REMARK Flexibility Score: inf
ROOT
ATOM      1  O   UNL     1     -37.779   4.057  80.033  1.00  0.00    -0.454 OA
ENDROOT
BRANCH   1   2
ATOM      2  C   UNL     1     -38.066   5.093  79.131  1.00  0.00     0.214 A 
ATOM      3  C   UNL     1     -39.331   5.168  78.520  1.00  0.00     0.180 A 
ATOM      4  O   UNL     1     -39.612   6.178  77.708  1.00  0.00    -0.452 OA
ATOM      5  C   UNL     1     -37.101   6.055  78.807  1.00  0.00     0.239 A 
ATOM      6  C   UNL     1     -38.748   7.141  77.412  1.00  0.00     0.146 A 
ATOM      7  O   UNL     1     -35.924   5.893  79.217  1.00  0.00    -0.285 OA
ATOM      8  C   UNL     1     -37.447   7.147  77.977  1.00  0.00     0.111 A 
ATOM      9  C   UNL     1     -39.135   8.138  76.514  1.00  0.00     0.094 A 
ATOM     10  C   UNL     1     -36.565   8.213  77.642  1.00  0.00     0.134 A 
ATOM     11  C   UNL     1     -38.240   9.144  76.144  1.00  0.00     0.123 A 
ATOM     12  C   UNL     1     -36.963   9.173  76.702  1.00  0.00     0.093 A 
BRANCH   3  13
ATOM     13  C   UNL     1     -40.378   4.147  78.756  1.00  0.00     0.025 A 
ATOM     14  C   UNL     1     -40.619   3.120  77.826  1.00  0.00     0.016 A 
ATOM     15  C   UNL     1     -41.626   2.180  78.058  1.00  0.00     0.051 A 
ATOM     16  C   UNL     1     -42.414   2.257  79.212  1.00  0.00     0.157 A 
ATOM     17  C   UNL     1     -41.175   4.226  79.909  1.00  0.00     0.062 A 
ATOM     18  C   UNL     1     -42.186   3.281  80.145  1.00  0.00     0.158 A 
BRANCH  16  19
ATOM     19  O   UNL     1     -43.416   1.310  79.411  1.00  0.00    -0.504 OA
ATOM     20  H   UNL     1     -44.155   1.441  80.093  1.00  0.00     0.293 HD
ENDBRANCH  16  19
BRANCH  18  21
ATOM     21  O   UNL     1     -42.964   3.361  81.300  1.00  0.00    -0.504 OA
ATOM     22  H   UNL     1     -42.730   2.836  82.134  1.00  0.00     0.293 HD
ENDBRANCH  18  21
ENDBRANCH   3  13
BRANCH  10  23
ATOM     23  O   UNL     1     -35.311   8.388  78.234  1.00  0.00    -0.507 OA
ATOM     24  H   UNL     1     -35.022   9.242  78.686  1.00  0.00     0.293 HD
ENDBRANCH  10  23
BRANCH  11  25
ATOM     25  O   UNL     1     -38.613  10.125  75.228  1.00  0.00    -0.508 OA
ATOM     26  H   UNL     1     -37.929  10.740  74.803  1.00  0.00     0.293 HD
ENDBRANCH  11  25
ENDBRANCH   1   2
BRANCH   1  27
ATOM     27  C   UNL     1     -37.774   4.218  81.456  1.00  0.00     0.339 C 
ATOM     28  C   UNL     1     -36.440   3.706  82.066  1.00  0.00     0.214 C 
ATOM     29  O   UNL     1     -38.975   3.682  82.013  1.00  0.00    -0.332 OA
ATOM     30  C   UNL     1     -36.493   3.786  83.600  1.00  0.00     0.180 C 
ATOM     31  C   UNL     1     -38.764   2.720  83.033  1.00  0.00     0.179 C 
ATOM     32  C   UNL     1     -37.853   3.277  84.158  1.00  0.00     0.177 C 
BRANCH  28  33
ATOM     33  O   UNL     1     -35.377   4.490  81.585  1.00  0.00    -0.384 OA
ATOM     34  H   UNL     1     -34.599   3.884  81.472  1.00  0.00     0.211 HD
ENDBRANCH  28  33
BRANCH  30  35
ATOM     35  O   UNL     1     -35.438   3.022  84.134  1.00  0.00    -0.387 OA
ATOM     36  H   UNL     1     -34.935   3.622  84.741  1.00  0.00     0.211 HD
ENDBRANCH  30  35
BRANCH  31  37
ATOM     37  C   UNL     1     -40.121   2.281  83.596  1.00  0.00     0.191 C 
BRANCH  37  38
ATOM     38  O   UNL     1     -41.016   3.355  83.567  1.00  0.00    -0.394 OA
ATOM     39  H   UNL     1     -41.924   2.958  83.598  1.00  0.00     0.210 HD
ENDBRANCH  37  38
ENDBRANCH  31  37
BRANCH  32  40
ATOM     40  O   UNL     1     -38.500   4.301  84.881  1.00  0.00    -0.387 OA
ATOM     41  H   UNL     1     -38.716   3.948  85.785  1.00  0.00     0.211 HD
ENDBRANCH  32  40
ENDBRANCH   1  27
TORSDOF 12
ENDMDL
MODEL 2
REMARK VINA RESULT:    -6.586      2.164      7.070
REMARK INTER + INTRA:         -11.516
REMARK INTER:                 -10.048
REMARK INTRA:                  -1.468
REMARK UNBOUND:                -1.850
REMARK SMILES O=c1c(O[C@H]2O[C@H](CO)[C@H](O)[C@@H](O)[C@@H]2O)c(-c2ccc(O)c(O)c2)oc2cc(O)cc(O)c12
REMARK SMILES IDX 4 1 3 2 16 3 25 4 2 5 26 6 1 7 33 8 27 9 31 10 28 11 30 12
REMARK SMILES IDX 17 13 18 14 19 15 20 16 24 17 22 18 21 19 23 21 32 23 29 25
REMARK SMILES IDX 5 27 14 28 6 29 12 30 7 31 10 32 15 33 13 35 8 37 9 38 11 40
REMARK H PARENT 21 20 23 22 32 24 29 26 15 34 13 36 9 39 11 41
REMARK Flexibility Score: inf
ROOT
ATOM      1  O   UNL     1     -36.091   3.834  79.506  1.00  0.00    -0.454 OA
ENDROOT
BRANCH   1   2
ATOM      2  C   UNL     1     -37.359   3.857  80.107  1.00  0.00     0.214 A 
ATOM      3  C   UNL     1     -37.512   4.351  81.415  1.00  0.00     0.180 A 
ATOM      4  O   UNL     1     -38.721   4.417  81.958  1.00  0.00    -0.452 OA
ATOM      5  C   UNL     1     -38.487   3.372  79.431  1.00  0.00     0.239 A 
ATOM      6  C   UNL     1     -39.824   4.018  81.337  1.00  0.00     0.146 A 
ATOM      7  O   UNL     1     -38.326   2.776  78.336  1.00  0.00    -0.285 OA
ATOM      8  C   UNL     1     -39.768   3.501  80.017  1.00  0.00     0.111 A 
ATOM      9  C   UNL     1     -41.042   4.095  82.016  1.00  0.00     0.094 A 
ATOM     10  C   UNL     1     -40.982   3.106  79.388  1.00  0.00     0.134 A 
ATOM     11  C   UNL     1     -42.219   3.646  81.413  1.00  0.00     0.123 A 
ATOM     12  C   UNL     1     -42.182   3.150  80.110  1.00  0.00     0.093 A 
BRANCH   3  13
ATOM     13  C   UNL     1     -36.357   4.812  82.220  1.00  0.00     0.025 A 
ATOM     14  C   UNL     1     -36.185   6.171  82.539  1.00  0.00     0.016 A 
ATOM     15  C   UNL     1     -35.078   6.586  83.282  1.00  0.00     0.051 A 
ATOM     16  C   UNL     1     -34.122   5.657  83.706  1.00  0.00     0.157 A 
ATOM     17  C   UNL     1     -35.393   3.883  82.641  1.00  0.00     0.062 A 
ATOM     18  C   UNL     1     -34.279   4.299  83.389  1.00  0.00     0.158 A 
BRANCH  16  19
ATOM     19  O   UNL     1     -33.023   6.104  84.438  1.00  0.00    -0.504 OA
ATOM     20  H   UNL     1     -32.757   5.685  85.323  1.00  0.00     0.293 HD
ENDBRANCH  16  19
BRANCH  18  21
ATOM     21  O   UNL     1     -33.333   3.367  83.814  1.00  0.00    -0.504 OA
ATOM     22  H   UNL     1     -33.173   3.183  84.797  1.00  0.00     0.293 HD
ENDBRANCH  18  21
ENDBRANCH   3  13
BRANCH  10  23
ATOM     23  O   UNL     1     -41.061   2.703  78.052  1.00  0.00    -0.507 OA
ATOM     24  H   UNL     1     -40.826   1.774  77.736  1.00  0.00     0.293 HD
ENDBRANCH  10  23
BRANCH  11  25
ATOM     25  O   UNL     1     -43.431   3.697  82.097  1.00  0.00    -0.508 OA
ATOM     26  H   UNL     1     -44.228   3.143  81.803  1.00  0.00     0.293 HD
ENDBRANCH  11  25
ENDBRANCH   1   2
BRANCH   1  27
ATOM     27  C   UNL     1     -35.511   4.955  78.829  1.00  0.00     0.339 C 
ATOM     28  C   UNL     1     -34.183   5.386  79.512  1.00  0.00     0.214 C 
ATOM     29  O   UNL     1     -36.492   5.976  78.646  1.00  0.00    -0.332 OA
ATOM     30  C   UNL     1     -33.630   6.655  78.841  1.00  0.00     0.180 C 
ATOM     31  C   UNL     1     -36.113   7.245  79.154  1.00  0.00     0.179 C 
ATOM     32  C   UNL     1     -34.748   7.702  78.577  1.00  0.00     0.177 C 
BRANCH  28  33
ATOM     33  O   UNL     1     -33.245   4.345  79.406  1.00  0.00    -0.384 OA
ATOM     34  H   UNL     1     -33.710   3.579  78.979  1.00  0.00     0.211 HD
ENDBRANCH  28  33
BRANCH  30  35
ATOM     35  O   UNL     1     -32.635   7.210  79.668  1.00  0.00    -0.387 OA
ATOM     36  H   UNL     1     -31.965   7.621  79.064  1.00  0.00     0.211 HD
ENDBRANCH  30  35
BRANCH  31  37
ATOM     37  C   UNL     1     -37.213   8.263  78.830  1.00  0.00     0.191 C 
BRANCH  37  38
ATOM     38  O   UNL     1     -37.698   8.041  77.537  1.00  0.00    -0.394 OA
ATOM     39  H   UNL     1     -38.585   8.481  77.496  1.00  0.00     0.210 HD
ENDBRANCH  37  38
ENDBRANCH  31  37
BRANCH  32  40
ATOM     40  O   UNL     1     -34.843   7.981  77.198  1.00  0.00    -0.387 OA
ATOM     41  H   UNL     1     -34.209   8.717  76.990  1.00  0.00     0.211 HD
ENDBRANCH  32  40
ENDBRANCH   1  27
TORSDOF 12
ENDMDL
MODEL 3
REMARK VINA RESULT:    -6.521      2.135      3.291
REMARK INTER + INTRA:         -11.420
REMARK INTER:                  -9.875
REMARK INTRA:                  -1.545
REMARK UNBOUND:                -1.850
REMARK SMILES O=c1c(O[C@H]2O[C@H](CO)[C@H](O)[C@@H](O)[C@@H]2O)c(-c2ccc(O)c(O)c2)oc2cc(O)cc(O)c12
REMARK SMILES IDX 4 1 3 2 16 3 25 4 2 5 26 6 1 7 33 8 27 9 31 10 28 11 30 12
REMARK SMILES IDX 17 13 18 14 19 15 20 16 24 17 22 18 21 19 23 21 32 23 29 25
REMARK SMILES IDX 5 27 14 28 6 29 12 30 7 31 10 32 15 33 13 35 8 37 9 38 11 40
REMARK H PARENT 21 20 23 22 32 24 29 26 15 34 13 36 9 39 11 41
REMARK Flexibility Score: inf
ROOT
ATOM      1  O   UNL     1     -37.006   3.746  81.553  1.00  0.00    -0.454 OA
ENDROOT
BRANCH   1   2
ATOM      2  C   UNL     1     -36.590   4.717  80.629  1.00  0.00     0.214 A 
ATOM      3  C   UNL     1     -37.313   4.917  79.440  1.00  0.00     0.180 A 
ATOM      4  O   UNL     1     -36.944   5.871  78.596  1.00  0.00    -0.452 OA
ATOM      5  C   UNL     1     -35.443   5.489  80.862  1.00  0.00     0.239 A 
ATOM      6  C   UNL     1     -35.897   6.661  78.798  1.00  0.00     0.146 A 
ATOM      7  O   UNL     1     -34.704   5.196  81.835  1.00  0.00    -0.285 OA
ATOM      8  C   UNL     1     -35.104   6.531  79.967  1.00  0.00     0.111 A 
ATOM      9  C   UNL     1     -35.573   7.610  77.824  1.00  0.00     0.094 A 
ATOM     10  C   UNL     1     -34.003   7.416  80.145  1.00  0.00     0.134 A 
ATOM     11  C   UNL     1     -34.454   8.430  77.980  1.00  0.00     0.123 A 
ATOM     12  C   UNL     1     -33.674   8.325  79.131  1.00  0.00     0.093 A 
BRANCH   3  13
ATOM     13  C   UNL     1     -38.492   4.091  79.090  1.00  0.00     0.025 A 
ATOM     14  C   UNL     1     -38.349   2.765  78.644  1.00  0.00     0.016 A 
ATOM     15  C   UNL     1     -39.473   2.011  78.300  1.00  0.00     0.051 A 
ATOM     16  C   UNL     1     -40.753   2.570  78.383  1.00  0.00     0.157 A 
ATOM     17  C   UNL     1     -39.777   4.652  79.166  1.00  0.00     0.062 A 
ATOM     18  C   UNL     1     -40.909   3.895  78.821  1.00  0.00     0.158 A 
BRANCH  16  19
ATOM     19  O   UNL     1     -41.854   1.795  78.024  1.00  0.00    -0.504 OA
ATOM     20  H   UNL     1     -42.755   1.894  78.478  1.00  0.00     0.293 HD
ENDBRANCH  16  19
BRANCH  18  21
ATOM     21  O   UNL     1     -42.182   4.457  78.911  1.00  0.00    -0.504 OA
ATOM     22  H   UNL     1     -42.331   5.366  79.331  1.00  0.00     0.293 HD
ENDBRANCH  18  21
ENDBRANCH   3  13
BRANCH  10  23
ATOM     23  O   UNL     1     -33.234   7.462  81.311  1.00  0.00    -0.507 OA
ATOM     24  H   UNL     1     -32.611   6.722  81.597  1.00  0.00     0.293 HD
ENDBRANCH  10  23
BRANCH  11  25
ATOM     25  O   UNL     1     -34.113   9.358  76.999  1.00  0.00    -0.508 OA
ATOM     26  H   UNL     1     -33.457  10.109  77.185  1.00  0.00     0.293 HD
ENDBRANCH  11  25
ENDBRANCH   1   2
BRANCH   1  27
ATOM     27  C   UNL     1     -37.962   3.991  82.590  1.00  0.00     0.339 C 
ATOM     28  C   UNL     1     -39.245   3.140  82.372  1.00  0.00     0.214 C 
ATOM     29  O   UNL     1     -38.153   5.396  82.757  1.00  0.00    -0.332 OA
ATOM     30  C   UNL     1     -40.302   3.494  83.430  1.00  0.00     0.180 C 
ATOM     31  C   UNL     1     -39.504   5.815  82.662  1.00  0.00     0.179 C 
ATOM     32  C   UNL     1     -40.412   5.030  83.645  1.00  0.00     0.177 C 
BRANCH  28  33
ATOM     33  O   UNL     1     -38.919   1.776  82.463  1.00  0.00    -0.384 OA
ATOM     34  H   UNL     1     -39.455   1.304  81.773  1.00  0.00     0.211 HD
ENDBRANCH  28  33
BRANCH  30  35
ATOM     35  O   UNL     1     -41.546   2.975  83.024  1.00  0.00    -0.387 OA
ATOM     36  H   UNL     1     -41.796   2.287  83.692  1.00  0.00     0.211 HD
ENDBRANCH  30  35
BRANCH  31  37
ATOM     37  C   UNL     1     -39.582   7.322  82.932  1.00  0.00     0.191 C 
BRANCH  37  38
ATOM     38  O   UNL     1     -38.720   7.662  83.980  1.00  0.00    -0.394 OA
ATOM     39  H   UNL     1     -39.218   8.302  84.550  1.00  0.00     0.210 HD
ENDBRANCH  37  38
ENDBRANCH  31  37
BRANCH  32  40
ATOM     40  O   UNL     1     -40.119   5.360  84.985  1.00  0.00    -0.387 OA
ATOM     41  H   UNL     1     -40.521   4.662  85.567  1.00  0.00     0.211 HD
ENDBRANCH  32  40
ENDBRANCH   1  27
TORSDOF 12
ENDMDL
MODEL 4
REMARK VINA RESULT:    -6.472      2.009      6.071
REMARK INTER + INTRA:         -11.349
REMARK INTER:                  -9.908
REMARK INTRA:                  -1.440
REMARK UNBOUND:                -1.850
REMARK SMILES O=c1c(O[C@H]2O[C@H](CO)[C@H](O)[C@@H](O)[C@@H]2O)c(-c2ccc(O)c(O)c2)oc2cc(O)cc(O)c12
REMARK SMILES IDX 4 1 3 2 16 3 25 4 2 5 26 6 1 7 33 8 27 9 31 10 28 11 30 12
REMARK SMILES IDX 17 13 18 14 19 15 20 16 24 17 22 18 21 19 23 21 32 23 29 25
REMARK SMILES IDX 5 27 14 28 6 29 12 30 7 31 10 32 15 33 13 35 8 37 9 38 11 40
REMARK H PARENT 21 20 23 22 32 24 29 26 15 34 13 36 9 39 11 41
REMARK Flexibility Score: inf
ROOT
ATOM      1  O   UNL     1     -38.544   6.255  81.396  1.00  0.00    -0.454 OA
ENDROOT
BRANCH   1   2
ATOM      2  C   UNL     1     -39.234   5.451  80.475  1.00  0.00     0.214 A 
ATOM      3  C   UNL     1     -38.683   5.197  79.207  1.00  0.00     0.180 A 
ATOM      4  O   UNL     1     -39.316   4.395  78.361  1.00  0.00    -0.452 OA
ATOM      5  C   UNL     1     -40.486   4.906  80.791  1.00  0.00     0.239 A 
ATOM      6  C   UNL     1     -40.478   3.814  78.635  1.00  0.00     0.146 A 
ATOM      7  O   UNL     1     -41.055   5.269  81.851  1.00  0.00    -0.285 OA
ATOM      8  C   UNL     1     -41.112   4.015  79.887  1.00  0.00     0.111 A 
ATOM      9  C   UNL     1     -41.078   3.018  77.656  1.00  0.00     0.094 A 
ATOM     10  C   UNL     1     -42.348   3.354  80.138  1.00  0.00     0.134 A 
ATOM     11  C   UNL     1     -42.320   2.425  77.890  1.00  0.00     0.123 A 
ATOM     12  C   UNL     1     -42.949   2.600  79.122  1.00  0.00     0.093 A 
BRANCH   3  13
ATOM     13  C   UNL     1     -37.400   5.798  78.774  1.00  0.00     0.025 A 
ATOM     14  C   UNL     1     -36.196   5.074  78.839  1.00  0.00     0.016 A 
ATOM     15  C   UNL     1     -34.994   5.667  78.446  1.00  0.00     0.051 A 
ATOM     16  C   UNL     1     -34.973   6.991  77.993  1.00  0.00     0.157 A 
ATOM     17  C   UNL     1     -37.375   7.128  78.326  1.00  0.00     0.062 A 
ATOM     18  C   UNL     1     -36.168   7.726  77.929  1.00  0.00     0.158 A 
BRANCH  16  19
ATOM     19  O   UNL     1     -33.757   7.557  77.616  1.00  0.00    -0.504 OA
ATOM     20  H   UNL     1     -32.868   7.106  77.806  1.00  0.00     0.293 HD
ENDBRANCH  16  19
BRANCH  18  21
ATOM     21  O   UNL     1     -36.154   9.044  77.474  1.00  0.00    -0.504 OA
ATOM     22  H   UNL     1     -35.447   9.702  77.778  1.00  0.00     0.293 HD
ENDBRANCH  18  21
ENDBRANCH   3  13
BRANCH  10  23
ATOM     23  O   UNL     1     -42.995   3.379  81.377  1.00  0.00    -0.507 OA
ATOM     24  H   UNL     1     -43.153   2.556  81.939  1.00  0.00     0.293 HD
ENDBRANCH  10  23
BRANCH  11  25
ATOM     25  O   UNL     1     -42.934   1.653  76.907  1.00  0.00    -0.508 OA
ATOM     26  H   UNL     1     -43.910   1.783  76.663  1.00  0.00     0.293 HD
ENDBRANCH  11  25
ENDBRANCH   1   2
BRANCH   1  27
ATOM     27  C   UNL     1     -37.853   5.742  82.540  1.00  0.00     0.339 C 
ATOM     28  C   UNL     1     -37.273   6.899  83.401  1.00  0.00     0.214 C 
ATOM     29  O   UNL     1     -36.934   4.725  82.141  1.00  0.00    -0.332 OA
ATOM     30  C   UNL     1     -36.444   6.330  84.564  1.00  0.00     0.180 C 
ATOM     31  C   UNL     1     -35.601   4.945  82.568  1.00  0.00     0.179 C 
ATOM     32  C   UNL     1     -35.525   5.164  84.102  1.00  0.00     0.177 C 
BRANCH  28  33
ATOM     33  O   UNL     1     -38.328   7.679  83.905  1.00  0.00    -0.384 OA
ATOM     34  H   UNL     1     -37.919   8.409  84.438  1.00  0.00     0.211 HD
ENDBRANCH  28  33
BRANCH  30  35
ATOM     35  O   UNL     1     -35.667   7.364  85.119  1.00  0.00    -0.387 OA
ATOM     36  H   UNL     1     -34.806   7.364  84.627  1.00  0.00     0.211 HD
ENDBRANCH  30  35
BRANCH  31  37
ATOM     37  C   UNL     1     -34.735   3.753  82.142  1.00  0.00     0.191 C 
BRANCH  37  38
ATOM     38  O   UNL     1     -33.782   3.483  83.130  1.00  0.00    -0.394 OA
ATOM     39  H   UNL     1     -32.921   3.354  82.655  1.00  0.00     0.210 HD
ENDBRANCH  37  38
ENDBRANCH  31  37
BRANCH  32  40
ATOM     40  O   UNL     1     -35.842   3.982  84.803  1.00  0.00    -0.387 OA
ATOM     41  H   UNL     1     -35.475   4.064  85.723  1.00  0.00     0.211 HD
ENDBRANCH  32  40
ENDBRANCH   1  27
TORSDOF 12
ENDMDL
MODEL 5
REMARK VINA RESULT:    -6.448      2.272      5.067
REMARK INTER + INTRA:         -11.314
REMARK INTER:                  -9.982
REMARK INTRA:                  -1.332
REMARK UNBOUND:                -1.850
REMARK SMILES O=c1c(O[C@H]2O[C@H](CO)[C@H](O)[C@@H](O)[C@@H]2O)c(-c2ccc(O)c(O)c2)oc2cc(O)cc(O)c12
REMARK SMILES IDX 4 1 3 2 16 3 25 4 2 5 26 6 1 7 33 8 27 9 31 10 28 11 30 12
REMARK SMILES IDX 17 13 18 14 19 15 20 16 24 17 22 18 21 19 23 21 32 23 29 25
REMARK SMILES IDX 5 27 14 28 6 29 12 30 7 31 10 32 15 33 13 35 8 37 9 38 11 40
REMARK H PARENT 21 20 23 22 32 24 29 26 15 34 13 36 9 39 11 41
REMARK Flexibility Score: inf
ROOT
ATOM      1  O   UNL     1     -38.670   5.064  78.004  1.00  0.00    -0.454 OA
ENDROOT
BRANCH   1   2
ATOM      2  C   UNL     1     -37.619   5.939  78.322  1.00  0.00     0.214 A 
ATOM      3  C   UNL     1     -37.795   7.329  78.195  1.00  0.00     0.180 A 
ATOM      4  O   UNL     1     -36.816   8.152  78.546  1.00  0.00    -0.452 OA
ATOM      5  C   UNL     1     -36.378   5.450  78.752  1.00  0.00     0.239 A 
ATOM      6  C   UNL     1     -35.642   7.737  79.007  1.00  0.00     0.146 A 
ATOM      7  O   UNL     1     -36.166   4.212  78.703  1.00  0.00    -0.285 OA
ATOM      8  C   UNL     1     -35.372   6.354  79.166  1.00  0.00     0.111 A 
ATOM      9  C   UNL     1     -34.666   8.689  79.311  1.00  0.00     0.094 A 
ATOM     10  C   UNL     1     -34.104   5.963  79.682  1.00  0.00     0.134 A 
ATOM     11  C   UNL     1     -33.404   8.292  79.757  1.00  0.00     0.123 A 
ATOM     12  C   UNL     1     -33.128   6.936  79.934  1.00  0.00     0.093 A 
BRANCH   3  13
ATOM     13  C   UNL     1     -39.052   7.917  77.678  1.00  0.00     0.025 A 
ATOM     14  C   UNL     1     -39.108   8.521  76.409  1.00  0.00     0.016 A 
ATOM     15  C   UNL     1     -40.299   9.089  75.950  1.00  0.00     0.051 A 
ATOM     16  C   UNL     1     -41.445   9.073  76.752  1.00  0.00     0.157 A 
ATOM     17  C   UNL     1     -40.202   7.909  78.483  1.00  0.00     0.062 A 
ATOM     18  C   UNL     1     -41.400   8.478  78.022  1.00  0.00     0.158 A 
BRANCH  16  19
ATOM     19  O   UNL     1     -42.616   9.655  76.269  1.00  0.00    -0.504 OA
ATOM     20  H   UNL     1     -43.095   9.304  75.447  1.00  0.00     0.293 HD
ENDBRANCH  16  19
BRANCH  18  21
ATOM     21  O   UNL     1     -42.541   8.455  78.824  1.00  0.00    -0.504 OA
ATOM     22  H   UNL     1     -43.471   8.497  78.425  1.00  0.00     0.293 HD
ENDBRANCH  18  21
ENDBRANCH   3  13
BRANCH  10  23
ATOM     23  O   UNL     1     -33.777   4.641  79.997  1.00  0.00    -0.507 OA
ATOM     24  H   UNL     1     -33.208   4.381  80.789  1.00  0.00     0.293 HD
ENDBRANCH  10  23
BRANCH  11  25
ATOM     25  O   UNL     1     -32.419   9.236  80.036  1.00  0.00    -0.508 OA
ATOM     26  H   UNL     1     -32.637  10.225  80.103  1.00  0.00     0.293 HD
ENDBRANCH  11  25
ENDBRANCH   1   2
BRANCH   1  27
ATOM     27  C   UNL     1     -39.365   4.270  78.970  1.00  0.00     0.339 C 
ATOM     28  C   UNL     1     -40.841   4.040  78.540  1.00  0.00     0.214 C 
ATOM     29  O   UNL     1     -39.160   4.803  80.279  1.00  0.00    -0.332 OA
ATOM     30  C   UNL     1     -41.602   3.279  79.638  1.00  0.00     0.180 C 
ATOM     31  C   UNL     1     -40.357   5.080  80.988  1.00  0.00     0.179 C 
ATOM     32  C   UNL     1     -41.279   3.834  81.055  1.00  0.00     0.177 C 
BRANCH  28  33
ATOM     33  O   UNL     1     -40.868   3.303  77.344  1.00  0.00    -0.384 OA
ATOM     34  H   UNL     1     -41.705   2.770  77.352  1.00  0.00     0.211 HD
ENDBRANCH  28  33
BRANCH  30  35
ATOM     35  O   UNL     1     -42.983   3.377  79.387  1.00  0.00    -0.387 OA
ATOM     36  H   UNL     1     -43.364   2.477  79.555  1.00  0.00     0.211 HD
ENDBRANCH  30  35
BRANCH  31  37
ATOM     37  C   UNL     1     -40.002   5.574  82.396  1.00  0.00     0.191 C 
BRANCH  37  38
ATOM     38  O   UNL     1     -38.924   4.838  82.899  1.00  0.00    -0.394 OA
ATOM     39  H   UNL     1     -38.132   5.430  82.834  1.00  0.00     0.210 HD
ENDBRANCH  37  38
ENDBRANCH  31  37
BRANCH  32  40
ATOM     40  O   UNL     1     -40.715   2.824  81.861  1.00  0.00    -0.387 OA
ATOM     41  H   UNL     1     -39.726   2.883  81.779  1.00  0.00     0.211 HD
ENDBRANCH  32  40
ENDBRANCH   1  27
TORSDOF 12
ENDMDL
MODEL 6
REMARK VINA RESULT:    -6.446      1.899      5.659
REMARK INTER + INTRA:         -11.310
REMARK INTER:                 -10.236
REMARK INTRA:                  -1.074
REMARK UNBOUND:                -1.850
REMARK SMILES O=c1c(O[C@H]2O[C@H](CO)[C@H](O)[C@@H](O)[C@@H]2O)c(-c2ccc(O)c(O)c2)oc2cc(O)cc(O)c12
REMARK SMILES IDX 4 1 3 2 16 3 25 4 2 5 26 6 1 7 33 8 27 9 31 10 28 11 30 12
REMARK SMILES IDX 17 13 18 14 19 15 20 16 24 17 22 18 21 19 23 21 32 23 29 25
REMARK SMILES IDX 5 27 14 28 6 29 12 30 7 31 10 32 15 33 13 35 8 37 9 38 11 40
REMARK H PARENT 21 20 23 22 32 24 29 26 15 34 13 36 9 39 11 41
REMARK Flexibility Score: inf
ROOT
ATOM      1  O   UNL     1     -38.899   5.547  77.678  1.00  0.00    -0.454 OA
ENDROOT
BRANCH   1   2
ATOM      2  C   UNL     1     -38.104   5.124  78.755  1.00  0.00     0.214 A 
ATOM      3  C   UNL     1     -38.605   4.187  79.676  1.00  0.00     0.180 A 
ATOM      4  O   UNL     1     -37.830   3.753  80.662  1.00  0.00    -0.452 OA
ATOM      5  C   UNL     1     -36.814   5.637  78.944  1.00  0.00     0.239 A 
ATOM      6  C   UNL     1     -36.584   4.171  80.851  1.00  0.00     0.146 A 
ATOM      7  O   UNL     1     -36.432   6.595  78.225  1.00  0.00    -0.285 OA
ATOM      8  C   UNL     1     -35.996   5.119  79.975  1.00  0.00     0.111 A 
ATOM      9  C   UNL     1     -35.869   3.678  81.945  1.00  0.00     0.094 A 
ATOM     10  C   UNL     1     -34.650   5.519  80.210  1.00  0.00     0.134 A 
ATOM     11  C   UNL     1     -34.572   4.125  82.202  1.00  0.00     0.123 A 
ATOM     12  C   UNL     1     -33.974   5.044  81.341  1.00  0.00     0.093 A 
BRANCH   3  13
ATOM     13  C   UNL     1     -39.984   3.655  79.585  1.00  0.00     0.025 A 
ATOM     14  C   UNL     1     -40.440   3.003  78.425  1.00  0.00     0.016 A 
ATOM     15  C   UNL     1     -41.751   2.527  78.352  1.00  0.00     0.051 A 
ATOM     16  C   UNL     1     -42.629   2.705  79.427  1.00  0.00     0.157 A 
ATOM     17  C   UNL     1     -40.869   3.838  80.659  1.00  0.00     0.062 A 
ATOM     18  C   UNL     1     -42.187   3.359  80.588  1.00  0.00     0.158 A 
BRANCH  16  19
ATOM     19  O   UNL     1     -43.933   2.227  79.321  1.00  0.00    -0.504 OA
ATOM     20  H   UNL     1     -44.148   1.330  78.898  1.00  0.00     0.293 HD
ENDBRANCH  16  19
BRANCH  18  21
ATOM     21  O   UNL     1     -43.056   3.535  81.665  1.00  0.00    -0.504 OA
ATOM     22  H   UNL     1     -44.034   3.761  81.526  1.00  0.00     0.293 HD
ENDBRANCH  18  21
ENDBRANCH   3  13
BRANCH  10  23
ATOM     23  O   UNL     1     -33.931   6.346  79.343  1.00  0.00    -0.507 OA
ATOM     24  H   UNL     1     -34.318   6.737  78.497  1.00  0.00     0.293 HD
ENDBRANCH  10  23
BRANCH  11  25
ATOM     25  O   UNL     1     -33.865   3.656  83.307  1.00  0.00    -0.508 OA
ATOM     26  H   UNL     1     -32.878   3.433  83.249  1.00  0.00     0.293 HD
ENDBRANCH  11  25
ENDBRANCH   1   2
BRANCH   1  27
ATOM     27  C   UNL     1     -39.776   6.677  77.731  1.00  0.00     0.339 C 
ATOM     28  C   UNL     1     -39.306   7.789  76.752  1.00  0.00     0.214 C 
ATOM     29  O   UNL     1     -39.983   7.071  79.088  1.00  0.00    -0.332 OA
ATOM     30  C   UNL     1     -40.194   9.036  76.900  1.00  0.00     0.180 C 
ATOM     31  C   UNL     1     -39.691   8.434  79.349  1.00  0.00     0.179 C 
ATOM     32  C   UNL     1     -40.469   9.375  78.393  1.00  0.00     0.177 C 
BRANCH  28  33
ATOM     33  O   UNL     1     -39.377   7.309  75.433  1.00  0.00    -0.384 OA
ATOM     34  H   UNL     1     -38.445   7.249  75.097  1.00  0.00     0.211 HD
ENDBRANCH  28  33
BRANCH  30  35
ATOM     35  O   UNL     1     -39.562  10.123  76.268  1.00  0.00    -0.387 OA
ATOM     36  H   UNL     1     -39.972  10.204  75.369  1.00  0.00     0.211 HD
ENDBRANCH  30  35
BRANCH  31  37
ATOM     37  C   UNL     1     -40.023   8.746  80.813  1.00  0.00     0.191 C 
BRANCH  37  38
ATOM     38  O   UNL     1     -39.850   7.598  81.593  1.00  0.00    -0.394 OA
ATOM     39  H   UNL     1     -40.714   7.446  82.055  1.00  0.00     0.210 HD
ENDBRANCH  37  38
ENDBRANCH  31  37
BRANCH  32  40
ATOM     40  O   UNL     1     -41.854   9.340  78.657  1.00  0.00    -0.387 OA
ATOM     41  H   UNL     1     -42.281  10.079  78.147  1.00  0.00     0.211 HD
ENDBRANCH  32  40
ENDBRANCH   1  27
TORSDOF 12
ENDMDL
MODEL 7
REMARK VINA RESULT:    -6.328      2.758      6.448
REMARK INTER + INTRA:         -11.138
REMARK INTER:                  -9.761
REMARK INTRA:                  -1.376
REMARK UNBOUND:                -1.850
REMARK SMILES O=c1c(O[C@H]2O[C@H](CO)[C@H](O)[C@@H](O)[C@@H]2O)c(-c2ccc(O)c(O)c2)oc2cc(O)cc(O)c12
REMARK SMILES IDX 4 1 3 2 16 3 25 4 2 5 26 6 1 7 33 8 27 9 31 10 28 11 30 12
REMARK SMILES IDX 17 13 18 14 19 15 20 16 24 17 22 18 21 19 23 21 32 23 29 25
REMARK SMILES IDX 5 27 14 28 6 29 12 30 7 31 10 32 15 33 13 35 8 37 9 38 11 40
REMARK H PARENT 21 20 23 22 32 24 29 26 15 34 13 36 9 39 11 41
REMARK Flexibility Score: inf
ROOT
ATOM      1  O   UNL     1     -38.332   5.237  82.036  1.00  0.00    -0.454 OA
ENDROOT
BRANCH   1   2
ATOM      2  C   UNL     1     -39.052   4.708  80.953  1.00  0.00     0.214 A 
ATOM      3  C   UNL     1     -38.418   4.507  79.714  1.00  0.00     0.180 A 
ATOM      4  O   UNL     1     -39.091   3.960  78.710  1.00  0.00    -0.452 OA
ATOM      5  C   UNL     1     -40.411   4.389  81.077  1.00  0.00     0.239 A 
ATOM      6  C   UNL     1     -40.364   3.595  78.796  1.00  0.00     0.146 A 
ATOM      7  O   UNL     1     -41.018   4.725  82.125  1.00  0.00    -0.285 OA
ATOM      8  C   UNL     1     -41.087   3.762  80.004  1.00  0.00     0.111 A 
ATOM      9  C   UNL     1     -40.988   3.062  77.665  1.00  0.00     0.094 A 
ATOM     10  C   UNL     1     -42.445   3.336  80.050  1.00  0.00     0.134 A 
ATOM     11  C   UNL     1     -42.337   2.706  77.702  1.00  0.00     0.123 A 
ATOM     12  C   UNL     1     -43.058   2.850  78.887  1.00  0.00     0.093 A 
BRANCH   3  13
ATOM     13  C   UNL     1     -37.005   4.887  79.484  1.00  0.00     0.025 A 
ATOM     14  C   UNL     1     -35.950   4.166  80.070  1.00  0.00     0.016 A 
ATOM     15  C   UNL     1     -34.625   4.554  79.858  1.00  0.00     0.051 A 
ATOM     16  C   UNL     1     -34.334   5.672  79.069  1.00  0.00     0.157 A 
ATOM     17  C   UNL     1     -36.710   6.013  78.699  1.00  0.00     0.062 A 
ATOM     18  C   UNL     1     -35.379   6.404  78.483  1.00  0.00     0.158 A 
BRANCH  16  19
ATOM     19  O   UNL     1     -33.003   6.040  78.883  1.00  0.00    -0.504 OA
ATOM     20  H   UNL     1     -32.250   5.360  78.876  1.00  0.00     0.293 HD
ENDBRANCH  16  19
BRANCH  18  21
ATOM     21  O   UNL     1     -35.095   7.517  77.692  1.00  0.00    -0.504 OA
ATOM     22  H   UNL     1     -35.820   8.165  77.408  1.00  0.00     0.293 HD
ENDBRANCH  18  21
ENDBRANCH   3  13
BRANCH  10  23
ATOM     23  O   UNL     1     -43.212   3.336  81.218  1.00  0.00    -0.507 OA
ATOM     24  H   UNL     1     -43.168   4.066  81.913  1.00  0.00     0.293 HD
ENDBRANCH  10  23
BRANCH  11  25
ATOM     25  O   UNL     1     -42.970   2.201  76.569  1.00  0.00    -0.508 OA
ATOM     26  H   UNL     1     -43.152   1.209  76.462  1.00  0.00     0.293 HD
ENDBRANCH  11  25
ENDBRANCH   1   2
BRANCH   1  27
ATOM     27  C   UNL     1     -38.079   6.634  82.217  1.00  0.00     0.339 C 
ATOM     28  C   UNL     1     -38.291   7.046  83.701  1.00  0.00     0.214 C 
ATOM     29  O   UNL     1     -38.793   7.391  81.239  1.00  0.00    -0.332 OA
ATOM     30  C   UNL     1     -38.122   8.566  83.858  1.00  0.00     0.180 C 
ATOM     31  C   UNL     1     -39.629   8.400  81.781  1.00  0.00     0.179 C 
ATOM     32  C   UNL     1     -38.838   9.348  82.721  1.00  0.00     0.177 C 
BRANCH  28  33
ATOM     33  O   UNL     1     -37.355   6.377  84.508  1.00  0.00    -0.384 OA
ATOM     34  H   UNL     1     -37.126   5.530  84.045  1.00  0.00     0.211 HD
ENDBRANCH  28  33
BRANCH  30  35
ATOM     35  O   UNL     1     -38.638   8.956  85.108  1.00  0.00    -0.387 OA
ATOM     36  H   UNL     1     -38.339   9.889  85.258  1.00  0.00     0.211 HD
ENDBRANCH  30  35
BRANCH  31  37
ATOM     37  C   UNL     1     -40.277   9.183  80.633  1.00  0.00     0.191 C 
BRANCH  37  38
ATOM     38  O   UNL     1     -39.422   9.198  79.527  1.00  0.00    -0.394 OA
ATOM     39  H   UNL     1     -39.719   8.458  78.939  1.00  0.00     0.210 HD
ENDBRANCH  37  38
ENDBRANCH  31  37
BRANCH  32  40
ATOM     40  O   UNL     1     -37.909  10.125  81.998  1.00  0.00    -0.387 OA
ATOM     41  H   UNL     1     -38.154  10.079  81.036  1.00  0.00     0.211 HD
ENDBRANCH  32  40
ENDBRANCH   1  27
TORSDOF 12
ENDMDL
MODEL 8
REMARK VINA RESULT:    -6.201      2.270      4.172
REMARK INTER + INTRA:         -10.950
REMARK INTER:                  -9.323
REMARK INTRA:                  -1.627
REMARK UNBOUND:                -1.850
REMARK SMILES O=c1c(O[C@H]2O[C@H](CO)[C@H](O)[C@@H](O)[C@@H]2O)c(-c2ccc(O)c(O)c2)oc2cc(O)cc(O)c12
REMARK SMILES IDX 4 1 3 2 16 3 25 4 2 5 26 6 1 7 33 8 27 9 31 10 28 11 30 12
REMARK SMILES IDX 17 13 18 14 19 15 20 16 24 17 22 18 21 19 23 21 32 23 29 25
REMARK SMILES IDX 5 27 14 28 6 29 12 30 7 31 10 32 15 33 13 35 8 37 9 38 11 40
REMARK H PARENT 21 20 23 22 32 24 29 26 15 34 13 36 9 39 11 41
REMARK Flexibility Score: inf
ROOT
ATOM      1  O   UNL     1     -37.883   5.108  79.600  1.00  0.00    -0.454 OA
ENDROOT
BRANCH   1   2
ATOM      2  C   UNL     1     -38.947   5.975  79.303  1.00  0.00     0.214 A 
ATOM      3  C   UNL     1     -39.989   6.157  80.229  1.00  0.00     0.180 A 
ATOM      4  O   UNL     1     -40.964   7.016  79.964  1.00  0.00    -0.452 OA
ATOM      5  C   UNL     1     -39.001   6.657  78.080  1.00  0.00     0.239 A 
ATOM      6  C   UNL     1     -41.032   7.722  78.842  1.00  0.00     0.146 A 
ATOM      7  O   UNL     1     -38.166   6.366  77.187  1.00  0.00    -0.285 OA
ATOM      8  C   UNL     1     -40.028   7.602  77.847  1.00  0.00     0.111 A 
ATOM      9  C   UNL     1     -42.124   8.571  78.647  1.00  0.00     0.094 A 
ATOM     10  C   UNL     1     -40.136   8.397  76.671  1.00  0.00     0.134 A 
ATOM     11  C   UNL     1     -42.253   9.298  77.462  1.00  0.00     0.123 A 
ATOM     12  C   UNL     1     -41.266   9.203  76.482  1.00  0.00     0.093 A 
BRANCH   3  13
ATOM     13  C   UNL     1     -40.039   5.416  81.511  1.00  0.00     0.025 A 
ATOM     14  C   UNL     1     -39.651   6.021  82.719  1.00  0.00     0.016 A 
ATOM     15  C   UNL     1     -39.686   5.298  83.914  1.00  0.00     0.051 A 
ATOM     16  C   UNL     1     -40.095   3.960  83.919  1.00  0.00     0.157 A 
ATOM     17  C   UNL     1     -40.442   4.071  81.518  1.00  0.00     0.062 A 
ATOM     18  C   UNL     1     -40.479   3.343  82.718  1.00  0.00     0.158 A 
BRANCH  16  19
ATOM     19  O   UNL     1     -40.110   3.262  85.125  1.00  0.00    -0.504 OA
ATOM     20  H   UNL     1     -40.755   2.498  85.299  1.00  0.00     0.293 HD
ENDBRANCH  16  19
BRANCH  18  21
ATOM     21  O   UNL     1     -40.893   2.011  82.717  1.00  0.00    -0.504 OA
ATOM     22  H   UNL     1     -41.154   1.538  81.860  1.00  0.00     0.293 HD
ENDBRANCH  18  21
ENDBRANCH   3  13
BRANCH  10  23
ATOM     23  O   UNL     1     -39.145   8.453  75.687  1.00  0.00    -0.507 OA
ATOM     24  H   UNL     1     -38.277   8.954  75.799  1.00  0.00     0.293 HD
ENDBRANCH  10  23
BRANCH  11  25
ATOM     25  O   UNL     1     -43.354  10.125  77.253  1.00  0.00    -0.508 OA
ATOM     26  H   UNL     1     -44.282   9.744  77.105  1.00  0.00     0.293 HD
ENDBRANCH  11  25
ENDBRANCH   1   2
BRANCH   1  27
ATOM     27  C   UNL     1     -36.697   5.511  80.292  1.00  0.00     0.339 C 
ATOM     28  C   UNL     1     -35.456   5.424  79.361  1.00  0.00     0.214 C 
ATOM     29  O   UNL     1     -36.603   4.825  81.541  1.00  0.00    -0.332 OA
ATOM     30  C   UNL     1     -34.177   5.756  80.148  1.00  0.00     0.180 C 
ATOM     31  C   UNL     1     -35.383   4.128  81.732  1.00  0.00     0.179 C 
ATOM     32  C   UNL     1     -34.160   5.061  81.539  1.00  0.00     0.177 C 
BRANCH  28  33
ATOM     33  O   UNL     1     -35.607   6.330  78.297  1.00  0.00    -0.384 OA
ATOM     34  H   UNL     1     -36.562   6.302  78.027  1.00  0.00     0.211 HD
ENDBRANCH  28  33
BRANCH  30  35
ATOM     35  O   UNL     1     -33.060   5.351  79.394  1.00  0.00    -0.387 OA
ATOM     36  H   UNL     1     -32.909   4.395  79.606  1.00  0.00     0.211 HD
ENDBRANCH  30  35
BRANCH  31  37
ATOM     37  C   UNL     1     -35.378   3.501  83.131  1.00  0.00     0.191 C 
BRANCH  37  38
ATOM     38  O   UNL     1     -34.067   3.418  83.609  1.00  0.00    -0.394 OA
ATOM     39  H   UNL     1     -33.683   2.590  83.221  1.00  0.00     0.210 HD
ENDBRANCH  37  38
ENDBRANCH  31  37
BRANCH  32  40
ATOM     40  O   UNL     1     -34.084   6.023  82.567  1.00  0.00    -0.387 OA
ATOM     41  H   UNL     1     -33.782   5.564  83.395  1.00  0.00     0.211 HD
ENDBRANCH  32  40
ENDBRANCH   1  27
TORSDOF 12
ENDMDL
MODEL 9
REMARK VINA RESULT:    -6.108      2.127      3.004
REMARK INTER + INTRA:         -10.814
REMARK INTER:                 -10.094
REMARK INTRA:                  -0.720
REMARK UNBOUND:                -1.850
REMARK SMILES O=c1c(O[C@H]2O[C@H](CO)[C@H](O)[C@@H](O)[C@@H]2O)c(-c2ccc(O)c(O)c2)oc2cc(O)cc(O)c12
REMARK SMILES IDX 4 1 3 2 16 3 25 4 2 5 26 6 1 7 33 8 27 9 31 10 28 11 30 12
REMARK SMILES IDX 17 13 18 14 19 15 20 16 24 17 22 18 21 19 23 21 32 23 29 25
REMARK SMILES IDX 5 27 14 28 6 29 12 30 7 31 10 32 15 33 13 35 8 37 9 38 11 40
REMARK H PARENT 21 20 23 22 32 24 29 26 15 34 13 36 9 39 11 41
REMARK Flexibility Score: inf
ROOT
ATOM      1  O   UNL     1     -36.943   3.774  81.600  1.00  0.00    -0.454 OA
ENDROOT
BRANCH   1   2
ATOM      2  C   UNL     1     -36.524   4.753  80.685  1.00  0.00     0.214 A 
ATOM      3  C   UNL     1     -37.226   4.941  79.481  1.00  0.00     0.180 A 
ATOM      4  O   UNL     1     -36.856   5.902  78.645  1.00  0.00    -0.452 OA
ATOM      5  C   UNL     1     -35.394   5.542  80.940  1.00  0.00     0.239 A 
ATOM      6  C   UNL     1     -35.825   6.708  78.868  1.00  0.00     0.146 A 
ATOM      7  O   UNL     1     -34.670   5.261  81.928  1.00  0.00    -0.285 OA
ATOM      8  C   UNL     1     -35.054   6.590  80.053  1.00  0.00     0.111 A 
ATOM      9  C   UNL     1     -35.497   7.662  77.901  1.00  0.00     0.094 A 
ATOM     10  C   UNL     1     -33.971   7.492  80.253  1.00  0.00     0.134 A 
ATOM     11  C   UNL     1     -34.394   8.500  78.079  1.00  0.00     0.123 A 
ATOM     12  C   UNL     1     -33.636   8.407  79.245  1.00  0.00     0.093 A 
BRANCH   3  13
ATOM     13  C   UNL     1     -38.385   4.097  79.108  1.00  0.00     0.025 A 
ATOM     14  C   UNL     1     -38.211   2.776  78.660  1.00  0.00     0.016 A 
ATOM     15  C   UNL     1     -39.316   2.004  78.293  1.00  0.00     0.051 A 
ATOM     16  C   UNL     1     -40.607   2.541  78.356  1.00  0.00     0.157 A 
ATOM     17  C   UNL     1     -39.680   4.636  79.164  1.00  0.00     0.062 A 
ATOM     18  C   UNL     1     -40.792   3.861  78.796  1.00  0.00     0.158 A 
BRANCH  16  19
ATOM     19  O   UNL     1     -41.688   1.750  77.975  1.00  0.00    -0.504 OA
ATOM     20  H   UNL     1     -42.342   1.367  78.649  1.00  0.00     0.293 HD
ENDBRANCH  16  19
BRANCH  18  21
ATOM     21  O   UNL     1     -42.076   4.401  78.866  1.00  0.00    -0.504 OA
ATOM     22  H   UNL     1     -42.809   3.958  79.409  1.00  0.00     0.293 HD
ENDBRANCH  18  21
ENDBRANCH   3  13
BRANCH  10  23
ATOM     23  O   UNL     1     -33.226   7.550  81.434  1.00  0.00    -0.507 OA
ATOM     24  H   UNL     1     -32.224   7.658  81.456  1.00  0.00     0.293 HD
ENDBRANCH  10  23
BRANCH  11  25
ATOM     25  O   UNL     1     -34.048   9.434  77.105  1.00  0.00    -0.508 OA
ATOM     26  H   UNL     1     -34.249   9.275  76.124  1.00  0.00     0.293 HD
ENDBRANCH  11  25
ENDBRANCH   1   2
BRANCH   1  27
ATOM     27  C   UNL     1     -38.242   3.751  82.201  1.00  0.00     0.339 C 
ATOM     28  C   UNL     1     -38.386   4.887  83.252  1.00  0.00     0.214 C 
ATOM     29  O   UNL     1     -38.550   2.430  82.648  1.00  0.00    -0.332 OA
ATOM     30  C   UNL     1     -39.745   4.782  83.964  1.00  0.00     0.180 C 
ATOM     31  C   UNL     1     -38.914   2.349  84.016  1.00  0.00     0.179 C 
ATOM     32  C   UNL     1     -40.081   3.314  84.351  1.00  0.00     0.177 C 
BRANCH  28  33
ATOM     33  O   UNL     1     -38.282   6.132  82.608  1.00  0.00    -0.384 OA
ATOM     34  H   UNL     1     -38.303   5.956  81.631  1.00  0.00     0.211 HD
ENDBRANCH  28  33
BRANCH  30  35
ATOM     35  O   UNL     1     -39.719   5.589  85.116  1.00  0.00    -0.387 OA
ATOM     36  H   UNL     1     -39.758   6.529  84.803  1.00  0.00     0.211 HD
ENDBRANCH  30  35
BRANCH  31  37
ATOM     37  C   UNL     1     -39.289   0.900  84.349  1.00  0.00     0.191 C 
BRANCH  37  38
ATOM     38  O   UNL     1     -39.900   0.301  83.242  1.00  0.00    -0.394 OA
ATOM     39  H   UNL     1     -39.193   0.209  82.554  1.00  0.00     0.210 HD
ENDBRANCH  37  38
ENDBRANCH  31  37
BRANCH  32  40
ATOM     40  O   UNL     1     -41.278   2.904  83.728  1.00  0.00    -0.387 OA
ATOM     41  H   UNL     1     -41.870   2.518  84.426  1.00  0.00     0.211 HD
ENDBRANCH  32  40
ENDBRANCH   1  27
TORSDOF 12
ENDMDL
