MODEL 1
REMARK VINA RESULT:    -4.163      0.000      0.000
REMARK INTER + INTRA:         -12.461
REMARK INTER:                  -9.031
REMARK INTRA:                  -3.430
REMARK UNBOUND:                -3.430
REMARK SMILES CCCCCCCCCCCCCCCCCCCCCC(=O)[O-]
REMARK SMILES IDX 12 1 11 2 10 3 9 4 8 5 7 6 6 7 5 8 4 9 3 10 2 11 1 12 13 13
REMARK SMILES IDX 14 14 15 15 16 16 17 17 18 18 19 19 20 20 21 21 22 22 23 23
REMARK SMILES IDX 24 24
REMARK H PARENT
REMARK Flexibility Score: inf
ROOT
ATOM      1  C   UNL     1     -22.868 -12.853 -18.900  1.00  0.00     0.000 C 
ENDROOT
BRANCH   1   2
ATOM      2  C   UNL     1     -21.821 -12.460 -19.958  1.00  0.00     0.000 C 
BRANCH   2   3
ATOM      3  C   UNL     1     -21.132 -13.677 -20.600  1.00  0.00     0.000 C 
BRANCH   3   4
ATOM      4  C   UNL     1     -19.645 -13.825 -20.215  1.00  0.00    -0.000 C 
BRANCH   4   5
ATOM      5  C   UNL     1     -19.288 -13.026 -18.951  1.00  0.00    -0.000 C 
BRANCH   5   6
ATOM      6  C   UNL     1     -19.322 -13.882 -17.672  1.00  0.00    -0.000 C 
BRANCH   6   7
ATOM      7  C   UNL     1     -18.603 -15.237 -17.781  1.00  0.00    -0.000 C 
BRANCH   7   8
ATOM      8  C   UNL     1     -19.479 -16.418 -17.338  1.00  0.00    -0.000 C 
BRANCH   8   9
ATOM      9  C   UNL     1     -20.968 -16.065 -17.430  1.00  0.00    -0.000 C 
BRANCH   9  10
ATOM     10  C   UNL     1     -21.605 -16.686 -18.681  1.00  0.00    -0.000 C 
BRANCH  10  11
ATOM     11  C   UNL     1     -23.119 -16.439 -18.761  1.00  0.00    -0.003 C 
ATOM     12  C   UNL     1     -23.944 -17.628 -18.269  1.00  0.00     0.004 C 
ENDBRANCH  10  11
ENDBRANCH   9  10
ENDBRANCH   8   9
ENDBRANCH   7   8
ENDBRANCH   6   7
ENDBRANCH   5   6
ENDBRANCH   4   5
ENDBRANCH   3   4
ENDBRANCH   2   3
ENDBRANCH   1   2
BRANCH   1  13
ATOM     13  C   UNL     1     -22.649 -12.137 -17.558  1.00  0.00     0.000 C 
BRANCH  13  14
ATOM     14  C   UNL     1     -22.759 -13.084 -16.353  1.00  0.00     0.000 C 
BRANCH  14  15
ATOM     15  C   UNL     1     -23.368 -12.357 -15.143  1.00  0.00     0.000 C 
BRANCH  15  16
ATOM     16  C   UNL     1     -24.310 -13.251 -14.321  1.00  0.00     0.000 C 
BRANCH  16  17
ATOM     17  C   UNL     1     -23.867 -14.724 -14.308  1.00  0.00     0.000 C 
BRANCH  17  18
ATOM     18  C   UNL     1     -25.053 -15.696 -14.189  1.00  0.00     0.000 C 
BRANCH  18  19
ATOM     19  C   UNL     1     -24.653 -17.154 -14.458  1.00  0.00     0.000 C 
BRANCH  19  20
ATOM     20  C   UNL     1     -23.149 -17.269 -14.732  1.00  0.00     0.006 C 
BRANCH  20  21
ATOM     21  C   UNL     1     -22.696 -18.732 -14.715  1.00  0.00     0.053 C 
BRANCH  21  22
ATOM     22  C   UNL     1     -22.908 -19.329 -13.361  1.00  0.00     0.041 C 
ATOM     23  O   UNL     1     -22.157 -19.009 -12.401  1.00  0.00    -0.550 OA
ATOM     24  O   UNL     1     -23.967 -20.202 -13.145  1.00  0.00    -0.550 OA
ENDBRANCH  21  22
ENDBRANCH  20  21
ENDBRANCH  19  20
ENDBRANCH  18  19
ENDBRANCH  17  18
ENDBRANCH  16  17
ENDBRANCH  15  16
ENDBRANCH  14  15
ENDBRANCH  13  14
ENDBRANCH   1  13
TORSDOF 20
ENDMDL
MODEL 2
REMARK VINA RESULT:    -4.116      4.030      6.639
REMARK INTER + INTRA:         -12.358
REMARK INTER:                  -8.625
REMARK INTRA:                  -3.732
REMARK UNBOUND:                -3.430
REMARK SMILES CCCCCCCCCCCCCCCCCCCCCC(=O)[O-]
REMARK SMILES IDX 12 1 11 2 10 3 9 4 8 5 7 6 6 7 5 8 4 9 3 10 2 11 1 12 13 13
REMARK SMILES IDX 14 14 15 15 16 16 17 17 18 18 19 19 20 20 21 21 22 22 23 23
REMARK SMILES IDX 24 24
REMARK H PARENT
REMARK Flexibility Score: inf
ROOT
ATOM      1  C   UNL     1     -20.277 -12.017 -19.252  1.00  0.00     0.000 C 
ENDROOT
BRANCH   1   2
ATOM      2  C   UNL     1     -21.499 -12.363 -20.121  1.00  0.00     0.000 C 
BRANCH   2   3
ATOM      3  C   UNL     1     -22.790 -12.533 -19.300  1.00  0.00     0.000 C 
BRANCH   3   4
ATOM      4  C   UNL     1     -22.601 -12.295 -17.787  1.00  0.00    -0.000 C 
BRANCH   4   5
ATOM      5  C   UNL     1     -22.910 -13.552 -16.956  1.00  0.00    -0.000 C 
BRANCH   5   6
ATOM      6  C   UNL     1     -22.197 -13.558 -15.592  1.00  0.00    -0.000 C 
BRANCH   6   7
ATOM      7  C   UNL     1     -23.130 -13.666 -14.375  1.00  0.00    -0.000 C 
BRANCH   7   8
ATOM      8  C   UNL     1     -24.516 -14.226 -14.729  1.00  0.00    -0.000 C 
BRANCH   8   9
ATOM      9  C   UNL     1     -25.005 -15.205 -13.656  1.00  0.00    -0.000 C 
BRANCH   9  10
ATOM     10  C   UNL     1     -24.801 -16.660 -14.103  1.00  0.00    -0.000 C 
BRANCH  10  11
ATOM     11  C   UNL     1     -24.207 -16.769 -15.516  1.00  0.00    -0.003 C 
ATOM     12  C   UNL     1     -22.809 -17.389 -15.527  1.00  0.00     0.004 C 
ENDBRANCH  10  11
ENDBRANCH   9  10
ENDBRANCH   8   9
ENDBRANCH   7   8
ENDBRANCH   6   7
ENDBRANCH   5   6
ENDBRANCH   4   5
ENDBRANCH   3   4
ENDBRANCH   2   3
ENDBRANCH   1   2
BRANCH   1  13
ATOM     13  C   UNL     1     -19.276 -13.179 -19.150  1.00  0.00     0.000 C 
BRANCH  13  14
ATOM     14  C   UNL     1     -19.138 -13.722 -17.720  1.00  0.00     0.000 C 
BRANCH  14  15
ATOM     15  C   UNL     1     -19.450 -15.226 -17.676  1.00  0.00     0.000 C 
BRANCH  15  16
ATOM     16  C   UNL     1     -20.105 -15.739 -18.968  1.00  0.00     0.000 C 
BRANCH  16  17
ATOM     17  C   UNL     1     -21.453 -16.435 -18.713  1.00  0.00     0.000 C 
BRANCH  17  18
ATOM     18  C   UNL     1     -22.514 -16.068 -19.766  1.00  0.00     0.000 C 
BRANCH  18  19
ATOM     19  C   UNL     1     -22.158 -16.584 -21.168  1.00  0.00     0.000 C 
BRANCH  19  20
ATOM     20  C   UNL     1     -22.191 -15.447 -22.196  1.00  0.00     0.006 C 
BRANCH  20  21
ATOM     21  C   UNL     1     -20.774 -15.036 -22.608  1.00  0.00     0.053 C 
BRANCH  21  22
ATOM     22  C   UNL     1     -20.647 -15.022 -24.098  1.00  0.00     0.041 C 
ATOM     23  O   UNL     1     -19.715 -14.380 -24.650  1.00  0.00    -0.550 OA
ATOM     24  O   UNL     1     -21.530 -15.761 -24.877  1.00  0.00    -0.550 OA
ENDBRANCH  21  22
ENDBRANCH  20  21
ENDBRANCH  19  20
ENDBRANCH  18  19
ENDBRANCH  17  18
ENDBRANCH  16  17
ENDBRANCH  15  16
ENDBRANCH  14  15
ENDBRANCH  13  14
ENDBRANCH   1  13
TORSDOF 20
ENDMDL
MODEL 3
REMARK VINA RESULT:    -4.087      1.672      4.292
REMARK INTER + INTRA:         -12.295
REMARK INTER:                  -8.834
REMARK INTRA:                  -3.461
REMARK UNBOUND:                -3.430
REMARK SMILES CCCCCCCCCCCCCCCCCCCCCC(=O)[O-]
REMARK SMILES IDX 12 1 11 2 10 3 9 4 8 5 7 6 6 7 5 8 4 9 3 10 2 11 1 12 13 13
REMARK SMILES IDX 14 14 15 15 16 16 17 17 18 18 19 19 20 20 21 21 22 22 23 23
REMARK SMILES IDX 24 24
REMARK H PARENT
REMARK Flexibility Score: inf
ROOT
ATOM      1  C   UNL     1     -19.140 -13.324 -19.388  1.00  0.00     0.000 C 
ENDROOT
BRANCH   1   2
ATOM      2  C   UNL     1     -18.426 -14.104 -20.506  1.00  0.00     0.000 C 
BRANCH   2   3
ATOM      3  C   UNL     1     -19.401 -14.720 -21.525  1.00  0.00     0.000 C 
BRANCH   3   4
ATOM      4  C   UNL     1     -20.765 -14.002 -21.594  1.00  0.00    -0.000 C 
BRANCH   4   5
ATOM      5  C   UNL     1     -21.920 -14.898 -21.118  1.00  0.00    -0.000 C 
BRANCH   5   6
ATOM      6  C   UNL     1     -23.032 -14.112 -20.401  1.00  0.00    -0.000 C 
BRANCH   6   7
ATOM      7  C   UNL     1     -22.758 -13.809 -18.919  1.00  0.00    -0.000 C 
BRANCH   7   8
ATOM      8  C   UNL     1     -22.749 -12.305 -18.606  1.00  0.00    -0.000 C 
BRANCH   8   9
ATOM      9  C   UNL     1     -22.613 -12.057 -17.099  1.00  0.00    -0.000 C 
BRANCH   9  10
ATOM     10  C   UNL     1     -22.217 -13.344 -16.362  1.00  0.00    -0.000 C 
BRANCH  10  11
ATOM     11  C   UNL     1     -22.852 -13.448 -14.967  1.00  0.00    -0.003 C 
ATOM     12  C   UNL     1     -23.895 -12.361 -14.705  1.00  0.00     0.004 C 
ENDBRANCH  10  11
ENDBRANCH   9  10
ENDBRANCH   8   9
ENDBRANCH   7   8
ENDBRANCH   6   7
ENDBRANCH   5   6
ENDBRANCH   4   5
ENDBRANCH   3   4
ENDBRANCH   2   3
ENDBRANCH   1   2
BRANCH   1  13
ATOM     13  C   UNL     1     -18.898 -13.931 -17.997  1.00  0.00     0.000 C 
BRANCH  13  14
ATOM     14  C   UNL     1     -18.251 -15.322 -18.059  1.00  0.00     0.000 C 
BRANCH  14  15
ATOM     15  C   UNL     1     -19.112 -16.357 -17.318  1.00  0.00     0.000 C 
BRANCH  15  16
ATOM     16  C   UNL     1     -20.537 -16.465 -17.883  1.00  0.00     0.000 C 
BRANCH  16  17
ATOM     17  C   UNL     1     -21.553 -16.956 -16.838  1.00  0.00     0.000 C 
BRANCH  17  18
ATOM     18  C   UNL     1     -22.967 -17.116 -17.422  1.00  0.00     0.000 C 
BRANCH  18  19
ATOM     19  C   UNL     1     -24.063 -17.032 -16.348  1.00  0.00     0.000 C 
BRANCH  19  20
ATOM     20  C   UNL     1     -23.452 -17.003 -14.943  1.00  0.00     0.006 C 
BRANCH  20  21
ATOM     21  C   UNL     1     -24.375 -17.686 -13.927  1.00  0.00     0.053 C 
BRANCH  21  22
ATOM     22  C   UNL     1     -25.253 -16.677 -13.258  1.00  0.00     0.041 C 
ATOM     23  O   UNL     1     -25.703 -16.894 -12.102  1.00  0.00    -0.550 OA
ATOM     24  O   UNL     1     -25.532 -15.471 -13.891  1.00  0.00    -0.550 OA
ENDBRANCH  21  22
ENDBRANCH  20  21
ENDBRANCH  19  20
ENDBRANCH  18  19
ENDBRANCH  17  18
ENDBRANCH  16  17
ENDBRANCH  15  16
ENDBRANCH  14  15
ENDBRANCH  13  14
ENDBRANCH   1  13
TORSDOF 20
ENDMDL
MODEL 4
REMARK VINA RESULT:    -4.067      1.655      4.220
REMARK INTER + INTRA:         -12.252
REMARK INTER:                  -8.217
REMARK INTRA:                  -4.036
REMARK UNBOUND:                -3.430
REMARK SMILES CCCCCCCCCCCCCCCCCCCCCC(=O)[O-]
REMARK SMILES IDX 12 1 11 2 10 3 9 4 8 5 7 6 6 7 5 8 4 9 3 10 2 11 1 12 13 13
REMARK SMILES IDX 14 14 15 15 16 16 17 17 18 18 19 19 20 20 21 21 22 22 23 23
REMARK SMILES IDX 24 24
REMARK H PARENT
REMARK Flexibility Score: inf
ROOT
ATOM      1  C   UNL     1     -18.972 -13.737 -18.050  1.00  0.00     0.000 C 
ENDROOT
BRANCH   1   2
ATOM      2  C   UNL     1     -19.786 -12.647 -18.768  1.00  0.00     0.000 C 
BRANCH   2   3
ATOM      3  C   UNL     1     -19.569 -12.641 -20.291  1.00  0.00     0.000 C 
BRANCH   3   4
ATOM      4  C   UNL     1     -20.825 -13.026 -21.101  1.00  0.00    -0.000 C 
BRANCH   4   5
ATOM      5  C   UNL     1     -22.123 -12.796 -20.308  1.00  0.00    -0.000 C 
BRANCH   5   6
ATOM      6  C   UNL     1     -23.013 -14.049 -20.241  1.00  0.00    -0.000 C 
BRANCH   6   7
ATOM      7  C   UNL     1     -22.253 -15.385 -20.257  1.00  0.00    -0.000 C 
BRANCH   7   8
ATOM      8  C   UNL     1     -21.889 -15.886 -18.851  1.00  0.00    -0.000 C 
BRANCH   8   9
ATOM      9  C   UNL     1     -22.768 -15.220 -17.785  1.00  0.00    -0.000 C 
BRANCH   9  10
ATOM     10  C   UNL     1     -21.937 -14.819 -16.558  1.00  0.00    -0.000 C 
BRANCH  10  11
ATOM     11  C   UNL     1     -22.549 -13.641 -15.786  1.00  0.00    -0.003 C 
ATOM     12  C   UNL     1     -22.908 -12.460 -16.689  1.00  0.00     0.004 C 
ENDBRANCH  10  11
ENDBRANCH   9  10
ENDBRANCH   8   9
ENDBRANCH   7   8
ENDBRANCH   6   7
ENDBRANCH   5   6
ENDBRANCH   4   5
ENDBRANCH   3   4
ENDBRANCH   2   3
ENDBRANCH   1   2
BRANCH   1  13
ATOM     13  C   UNL     1     -18.013 -14.478 -18.995  1.00  0.00     0.000 C 
BRANCH  13  14
ATOM     14  C   UNL     1     -17.721 -15.915 -18.540  1.00  0.00     0.000 C 
BRANCH  14  15
ATOM     15  C   UNL     1     -18.624 -16.308 -17.360  1.00  0.00     0.000 C 
BRANCH  15  16
ATOM     16  C   UNL     1     -19.016 -17.794 -17.375  1.00  0.00     0.000 C 
BRANCH  16  17
ATOM     17  C   UNL     1     -19.752 -18.225 -16.095  1.00  0.00     0.000 C 
BRANCH  17  18
ATOM     18  C   UNL     1     -21.228 -18.574 -16.353  1.00  0.00     0.000 C 
BRANCH  18  19
ATOM     19  C   UNL     1     -22.144 -18.168 -15.188  1.00  0.00     0.000 C 
BRANCH  19  20
ATOM     20  C   UNL     1     -23.601 -18.544 -15.480  1.00  0.00     0.006 C 
BRANCH  20  21
ATOM     21  C   UNL     1     -24.506 -17.308 -15.449  1.00  0.00     0.053 C 
BRANCH  21  22
ATOM     22  C   UNL     1     -24.685 -16.827 -14.045  1.00  0.00     0.041 C 
ATOM     23  O   UNL     1     -24.714 -15.593 -13.795  1.00  0.00    -0.550 OA
ATOM     24  O   UNL     1     -24.871 -17.742 -13.016  1.00  0.00    -0.550 OA
ENDBRANCH  21  22
ENDBRANCH  20  21
ENDBRANCH  19  20
ENDBRANCH  18  19
ENDBRANCH  17  18
ENDBRANCH  16  17
ENDBRANCH  15  16
ENDBRANCH  14  15
ENDBRANCH  13  14
ENDBRANCH   1  13
TORSDOF 20
ENDMDL
MODEL 5
REMARK VINA RESULT:    -4.037      1.510      3.337
REMARK INTER + INTRA:         -12.187
REMARK INTER:                  -8.379
REMARK INTRA:                  -3.808
REMARK UNBOUND:                -3.430
REMARK SMILES CCCCCCCCCCCCCCCCCCCCCC(=O)[O-]
REMARK SMILES IDX 12 1 11 2 10 3 9 4 8 5 7 6 6 7 5 8 4 9 3 10 2 11 1 12 13 13
REMARK SMILES IDX 14 14 15 15 16 16 17 17 18 18 19 19 20 20 21 21 22 22 23 23
REMARK SMILES IDX 24 24
REMARK H PARENT
REMARK Flexibility Score: inf
ROOT
ATOM      1  C   UNL     1     -20.197 -13.095 -20.113  1.00  0.00     0.000 C 
ENDROOT
BRANCH   1   2
ATOM      2  C   UNL     1     -21.500 -12.752 -20.858  1.00  0.00     0.000 C 
BRANCH   2   3
ATOM      3  C   UNL     1     -22.625 -13.769 -20.596  1.00  0.00     0.000 C 
BRANCH   3   4
ATOM      4  C   UNL     1     -22.336 -15.176 -21.158  1.00  0.00    -0.000 C 
BRANCH   4   5
ATOM      5  C   UNL     1     -23.032 -16.282 -20.347  1.00  0.00    -0.000 C 
BRANCH   5   6
ATOM      6  C   UNL     1     -23.105 -15.966 -18.843  1.00  0.00    -0.000 C 
BRANCH   6   7
ATOM      7  C   UNL     1     -23.600 -17.124 -17.961  1.00  0.00    -0.000 C 
BRANCH   7   8
ATOM      8  C   UNL     1     -22.472 -18.070 -17.525  1.00  0.00    -0.000 C 
BRANCH   8   9
ATOM      9  C   UNL     1     -21.548 -17.393 -16.507  1.00  0.00    -0.000 C 
BRANCH   9  10
ATOM     10  C   UNL     1     -20.094 -17.385 -17.001  1.00  0.00    -0.000 C 
BRANCH  10  11
ATOM     11  C   UNL     1     -19.952 -17.915 -18.436  1.00  0.00    -0.003 C 
ATOM     12  C   UNL     1     -19.454 -16.852 -19.416  1.00  0.00     0.004 C 
ENDBRANCH  10  11
ENDBRANCH   9  10
ENDBRANCH   8   9
ENDBRANCH   7   8
ENDBRANCH   6   7
ENDBRANCH   5   6
ENDBRANCH   4   5
ENDBRANCH   3   4
ENDBRANCH   2   3
ENDBRANCH   1   2
BRANCH   1  13
ATOM     13  C   UNL     1     -20.196 -12.591 -18.662  1.00  0.00     0.000 C 
BRANCH  13  14
ATOM     14  C   UNL     1     -20.079 -13.728 -17.637  1.00  0.00     0.000 C 
BRANCH  14  15
ATOM     15  C   UNL     1     -21.312 -13.765 -16.720  1.00  0.00     0.000 C 
BRANCH  15  16
ATOM     16  C   UNL     1     -22.431 -12.819 -17.186  1.00  0.00     0.000 C 
BRANCH  16  17
ATOM     17  C   UNL     1     -23.190 -12.177 -16.012  1.00  0.00     0.000 C 
BRANCH  17  18
ATOM     18  C   UNL     1     -23.035 -12.972 -14.705  1.00  0.00     0.000 C 
BRANCH  18  19
ATOM     19  C   UNL     1     -24.224 -13.907 -14.436  1.00  0.00     0.000 C 
BRANCH  19  20
ATOM     20  C   UNL     1     -23.775 -15.372 -14.412  1.00  0.00     0.006 C 
BRANCH  20  21
ATOM     21  C   UNL     1     -24.971 -16.317 -14.570  1.00  0.00     0.053 C 
BRANCH  21  22
ATOM     22  C   UNL     1     -25.053 -17.253 -13.406  1.00  0.00     0.041 C 
ATOM     23  O   UNL     1     -24.491 -18.379 -13.456  1.00  0.00    -0.550 OA
ATOM     24  O   UNL     1     -25.709 -16.862 -12.245  1.00  0.00    -0.550 OA
ENDBRANCH  21  22
ENDBRANCH  20  21
ENDBRANCH  19  20
ENDBRANCH  18  19
ENDBRANCH  17  18
ENDBRANCH  16  17
ENDBRANCH  15  16
ENDBRANCH  14  15
ENDBRANCH  13  14
ENDBRANCH   1  13
TORSDOF 20
ENDMDL
MODEL 6
REMARK VINA RESULT:    -4.030      2.156      3.970
REMARK INTER + INTRA:         -12.172
REMARK INTER:                  -9.824
REMARK INTRA:                  -2.348
REMARK UNBOUND:                -3.430
REMARK SMILES CCCCCCCCCCCCCCCCCCCCCC(=O)[O-]
REMARK SMILES IDX 12 1 11 2 10 3 9 4 8 5 7 6 6 7 5 8 4 9 3 10 2 11 1 12 13 13
REMARK SMILES IDX 14 14 15 15 16 16 17 17 18 18 19 19 20 20 21 21 22 22 23 23
REMARK SMILES IDX 24 24
REMARK H PARENT
REMARK Flexibility Score: inf
ROOT
ATOM      1  C   UNL     1     -22.716 -13.448 -15.125  1.00  0.00     0.000 C 
ENDROOT
BRANCH   1   2
ATOM      2  C   UNL     1     -23.296 -12.220 -15.849  1.00  0.00     0.000 C 
BRANCH   2   3
ATOM      3  C   UNL     1     -22.629 -11.955 -17.210  1.00  0.00     0.000 C 
BRANCH   3   4
ATOM      4  C   UNL     1     -22.907 -13.048 -18.263  1.00  0.00    -0.000 C 
BRANCH   4   5
ATOM      5  C   UNL     1     -21.613 -13.655 -18.830  1.00  0.00    -0.000 C 
BRANCH   5   6
ATOM      6  C   UNL     1     -20.346 -12.948 -18.318  1.00  0.00    -0.000 C 
BRANCH   6   7
ATOM      7  C   UNL     1     -19.319 -13.871 -17.639  1.00  0.00    -0.000 C 
BRANCH   7   8
ATOM      8  C   UNL     1     -19.442 -15.335 -18.086  1.00  0.00    -0.000 C 
BRANCH   8   9
ATOM      9  C   UNL     1     -18.075 -16.029 -18.080  1.00  0.00    -0.000 C 
BRANCH   9  10
ATOM     10  C   UNL     1     -18.213 -17.518 -17.730  1.00  0.00    -0.000 C 
BRANCH  10  11
ATOM     11  C   UNL     1     -19.178 -17.765 -16.562  1.00  0.00    -0.003 C 
ATOM     12  C   UNL     1     -18.609 -18.721 -15.512  1.00  0.00     0.004 C 
ENDBRANCH  10  11
ENDBRANCH   9  10
ENDBRANCH   8   9
ENDBRANCH   7   8
ENDBRANCH   6   7
ENDBRANCH   5   6
ENDBRANCH   4   5
ENDBRANCH   3   4
ENDBRANCH   2   3
ENDBRANCH   1   2
BRANCH   1  13
ATOM     13  C   UNL     1     -23.769 -14.195 -14.293  1.00  0.00     0.000 C 
BRANCH  13  14
ATOM     14  C   UNL     1     -24.027 -15.621 -14.802  1.00  0.00     0.000 C 
BRANCH  14  15
ATOM     15  C   UNL     1     -23.053 -15.980 -15.936  1.00  0.00     0.000 C 
BRANCH  15  16
ATOM     16  C   UNL     1     -22.623 -17.455 -15.910  1.00  0.00     0.000 C 
BRANCH  16  17
ATOM     17  C   UNL     1     -22.965 -18.148 -14.579  1.00  0.00     0.000 C 
BRANCH  17  18
ATOM     18  C   UNL     1     -21.807 -19.012 -14.050  1.00  0.00     0.000 C 
BRANCH  18  19
ATOM     19  C   UNL     1     -21.965 -19.365 -12.563  1.00  0.00     0.000 C 
BRANCH  19  20
ATOM     20  C   UNL     1     -21.913 -20.882 -12.352  1.00  0.00     0.006 C 
BRANCH  20  21
ATOM     21  C   UNL     1     -20.632 -21.478 -12.946  1.00  0.00     0.053 C 
BRANCH  21  22
ATOM     22  C   UNL     1     -19.910 -22.292 -11.920  1.00  0.00     0.041 C 
ATOM     23  O   UNL     1     -20.062 -22.048 -10.694  1.00  0.00    -0.550 OA
ATOM     24  O   UNL     1     -19.108 -23.355 -12.317  1.00  0.00    -0.550 OA
ENDBRANCH  21  22
ENDBRANCH  20  21
ENDBRANCH  19  20
ENDBRANCH  18  19
ENDBRANCH  17  18
ENDBRANCH  16  17
ENDBRANCH  15  16
ENDBRANCH  14  15
ENDBRANCH  13  14
ENDBRANCH   1  13
TORSDOF 20
ENDMDL
MODEL 7
REMARK VINA RESULT:    -4.025      2.755      5.785
REMARK INTER + INTRA:         -12.161
REMARK INTER:                  -9.487
REMARK INTRA:                  -2.674
REMARK UNBOUND:                -3.430
REMARK SMILES CCCCCCCCCCCCCCCCCCCCCC(=O)[O-]
REMARK SMILES IDX 12 1 11 2 10 3 9 4 8 5 7 6 6 7 5 8 4 9 3 10 2 11 1 12 13 13
REMARK SMILES IDX 14 14 15 15 16 16 17 17 18 18 19 19 20 20 21 21 22 22 23 23
REMARK SMILES IDX 24 24
REMARK H PARENT
REMARK Flexibility Score: inf
ROOT
ATOM      1  C   UNL     1     -21.630 -16.700 -16.625  1.00  0.00     0.000 C 
ENDROOT
BRANCH   1   2
ATOM      2  C   UNL     1     -23.062 -16.997 -17.104  1.00  0.00     0.000 C 
BRANCH   2   3
ATOM      3  C   UNL     1     -24.122 -16.754 -16.015  1.00  0.00     0.000 C 
BRANCH   3   4
ATOM      4  C   UNL     1     -23.565 -16.078 -14.745  1.00  0.00    -0.000 C 
BRANCH   4   5
ATOM      5  C   UNL     1     -24.599 -15.160 -14.072  1.00  0.00    -0.000 C 
BRANCH   5   6
ATOM      6  C   UNL     1     -24.213 -13.672 -14.140  1.00  0.00    -0.000 C 
BRANCH   6   7
ATOM      7  C   UNL     1     -22.881 -13.381 -14.851  1.00  0.00    -0.000 C 
BRANCH   7   8
ATOM      8  C   UNL     1     -23.057 -12.587 -16.153  1.00  0.00    -0.000 C 
BRANCH   8   9
ATOM      9  C   UNL     1     -22.132 -13.119 -17.253  1.00  0.00    -0.000 C 
BRANCH   9  10
ATOM     10  C   UNL     1     -22.719 -12.850 -18.646  1.00  0.00    -0.000 C 
BRANCH  10  11
ATOM     11  C   UNL     1     -23.021 -14.140 -19.423  1.00  0.00    -0.003 C 
ATOM     12  C   UNL     1     -22.324 -14.193 -20.783  1.00  0.00     0.004 C 
ENDBRANCH  10  11
ENDBRANCH   9  10
ENDBRANCH   8   9
ENDBRANCH   7   8
ENDBRANCH   6   7
ENDBRANCH   5   6
ENDBRANCH   4   5
ENDBRANCH   3   4
ENDBRANCH   2   3
ENDBRANCH   1   2
BRANCH   1  13
ATOM     13  C   UNL     1     -20.680 -17.890 -16.825  1.00  0.00     0.000 C 
BRANCH  13  14
ATOM     14  C   UNL     1     -20.313 -18.587 -15.506  1.00  0.00     0.000 C 
BRANCH  14  15
ATOM     15  C   UNL     1     -21.171 -19.846 -15.298  1.00  0.00     0.000 C 
BRANCH  15  16
ATOM     16  C   UNL     1     -22.356 -19.610 -14.348  1.00  0.00     0.000 C 
BRANCH  16  17
ATOM     17  C   UNL     1     -21.909 -19.250 -12.921  1.00  0.00     0.000 C 
BRANCH  17  18
ATOM     18  C   UNL     1     -20.869 -20.236 -12.363  1.00  0.00     0.000 C 
BRANCH  18  19
ATOM     19  C   UNL     1     -21.510 -21.506 -11.782  1.00  0.00     0.000 C 
BRANCH  19  20
ATOM     20  C   UNL     1     -20.459 -22.386 -11.097  1.00  0.00     0.006 C 
BRANCH  20  21
ATOM     21  C   UNL     1     -19.462 -22.949 -12.117  1.00  0.00     0.053 C 
BRANCH  21  22
ATOM     22  C   UNL     1     -20.157 -23.862 -13.076  1.00  0.00     0.041 C 
ATOM     23  O   UNL     1     -20.744 -24.895 -12.657  1.00  0.00    -0.550 OA
ATOM     24  O   UNL     1     -20.199 -23.547 -14.428  1.00  0.00    -0.550 OA
ENDBRANCH  21  22
ENDBRANCH  20  21
ENDBRANCH  19  20
ENDBRANCH  18  19
ENDBRANCH  17  18
ENDBRANCH  16  17
ENDBRANCH  15  16
ENDBRANCH  14  15
ENDBRANCH  13  14
ENDBRANCH   1  13
TORSDOF 20
ENDMDL
MODEL 8
REMARK VINA RESULT:    -3.992      4.048      6.505
REMARK INTER + INTRA:         -12.089
REMARK INTER:                  -8.601
REMARK INTRA:                  -3.489
REMARK UNBOUND:                -3.430
REMARK SMILES CCCCCCCCCCCCCCCCCCCCCC(=O)[O-]
REMARK SMILES IDX 12 1 11 2 10 3 9 4 8 5 7 6 6 7 5 8 4 9 3 10 2 11 1 12 13 13
REMARK SMILES IDX 14 14 15 15 16 16 17 17 18 18 19 19 20 20 21 21 22 22 23 23
REMARK SMILES IDX 24 24
REMARK H PARENT
REMARK Flexibility Score: inf
ROOT
ATOM      1  C   UNL     1     -19.162 -13.681 -17.750  1.00  0.00     0.000 C 
ENDROOT
BRANCH   1   2
ATOM      2  C   UNL     1     -19.760 -15.055 -17.399  1.00  0.00     0.000 C 
BRANCH   2   3
ATOM      3  C   UNL     1     -19.733 -16.041 -18.580  1.00  0.00     0.000 C 
BRANCH   3   4
ATOM      4  C   UNL     1     -19.942 -17.513 -18.168  1.00  0.00    -0.000 C 
BRANCH   4   5
ATOM      5  C   UNL     1     -19.987 -17.690 -16.641  1.00  0.00    -0.000 C 
BRANCH   5   6
ATOM      6  C   UNL     1     -21.386 -18.068 -16.123  1.00  0.00    -0.000 C 
BRANCH   6   7
ATOM      7  C   UNL     1     -22.503 -18.014 -17.179  1.00  0.00    -0.000 C 
BRANCH   7   8
ATOM      8  C   UNL     1     -23.729 -17.213 -16.715  1.00  0.00    -0.000 C 
BRANCH   8   9
ATOM      9  C   UNL     1     -23.330 -15.800 -16.276  1.00  0.00    -0.000 C 
BRANCH   9  10
ATOM     10  C   UNL     1     -23.852 -15.493 -14.865  1.00  0.00    -0.000 C 
BRANCH  10  11
ATOM     11  C   UNL     1     -23.493 -14.076 -14.394  1.00  0.00    -0.003 C 
ATOM     12  C   UNL     1     -22.502 -13.373 -15.323  1.00  0.00     0.004 C 
ENDBRANCH  10  11
ENDBRANCH   9  10
ENDBRANCH   8   9
ENDBRANCH   7   8
ENDBRANCH   6   7
ENDBRANCH   5   6
ENDBRANCH   4   5
ENDBRANCH   3   4
ENDBRANCH   2   3
ENDBRANCH   1   2
BRANCH   1  13
ATOM     13  C   UNL     1     -19.292 -13.344 -19.243  1.00  0.00     0.000 C 
BRANCH  13  14
ATOM     14  C   UNL     1     -20.112 -12.070 -19.496  1.00  0.00     0.000 C 
BRANCH  14  15
ATOM     15  C   UNL     1     -21.281 -11.968 -18.503  1.00  0.00     0.000 C 
BRANCH  15  16
ATOM     16  C   UNL     1     -22.653 -12.137 -19.176  1.00  0.00     0.000 C 
BRANCH  16  17
ATOM     17  C   UNL     1     -22.660 -13.253 -20.235  1.00  0.00     0.000 C 
BRANCH  17  18
ATOM     18  C   UNL     1     -23.083 -14.613 -19.654  1.00  0.00     0.000 C 
BRANCH  18  19
ATOM     19  C   UNL     1     -22.774 -15.782 -20.601  1.00  0.00     0.000 C 
BRANCH  19  20
ATOM     20  C   UNL     1     -21.820 -15.345 -21.719  1.00  0.00     0.006 C 
BRANCH  20  21
ATOM     21  C   UNL     1     -22.275 -15.893 -23.076  1.00  0.00     0.053 C 
BRANCH  21  22
ATOM     22  C   UNL     1     -21.139 -15.886 -24.049  1.00  0.00     0.041 C 
ATOM     23  O   UNL     1     -20.388 -16.892 -24.154  1.00  0.00    -0.550 OA
ATOM     24  O   UNL     1     -20.941 -14.788 -24.877  1.00  0.00    -0.550 OA
ENDBRANCH  21  22
ENDBRANCH  20  21
ENDBRANCH  19  20
ENDBRANCH  18  19
ENDBRANCH  17  18
ENDBRANCH  16  17
ENDBRANCH  15  16
ENDBRANCH  14  15
ENDBRANCH  13  14
ENDBRANCH   1  13
TORSDOF 20
ENDMDL
MODEL 9
REMARK VINA RESULT:    -3.905      2.517      5.981
REMARK INTER + INTRA:         -11.900
REMARK INTER:                  -8.330
REMARK INTRA:                  -3.570
REMARK UNBOUND:                -3.430
REMARK SMILES CCCCCCCCCCCCCCCCCCCCCC(=O)[O-]
REMARK SMILES IDX 12 1 11 2 10 3 9 4 8 5 7 6 6 7 5 8 4 9 3 10 2 11 1 12 13 13
REMARK SMILES IDX 14 14 15 15 16 16 17 17 18 18 19 19 20 20 21 21 22 22 23 23
REMARK SMILES IDX 24 24
REMARK H PARENT
REMARK Flexibility Score: inf
ROOT
ATOM      1  C   UNL     1     -22.118 -16.250 -18.697  1.00  0.00     0.000 C 
ENDROOT
BRANCH   1   2
ATOM      2  C   UNL     1     -23.015 -15.551 -17.661  1.00  0.00     0.000 C 
BRANCH   2   3
ATOM      3  C   UNL     1     -22.214 -14.874 -16.534  1.00  0.00     0.000 C 
BRANCH   3   4
ATOM      4  C   UNL     1     -22.375 -13.340 -16.492  1.00  0.00    -0.000 C 
BRANCH   4   5
ATOM      5  C   UNL     1     -23.259 -12.878 -15.322  1.00  0.00    -0.000 C 
BRANCH   5   6
ATOM      6  C   UNL     1     -23.557 -14.004 -14.315  1.00  0.00    -0.000 C 
BRANCH   6   7
ATOM      7  C   UNL     1     -25.047 -14.210 -13.997  1.00  0.00    -0.000 C 
BRANCH   7   8
ATOM      8  C   UNL     1     -25.382 -15.658 -13.607  1.00  0.00    -0.000 C 
BRANCH   8   9
ATOM      9  C   UNL     1     -25.041 -16.628 -14.744  1.00  0.00    -0.000 C 
BRANCH   9  10
ATOM     10  C   UNL     1     -25.111 -18.085 -14.265  1.00  0.00    -0.000 C 
BRANCH  10  11
ATOM     11  C   UNL     1     -23.745 -18.632 -13.826  1.00  0.00    -0.003 C 
ATOM     12  C   UNL     1     -22.595 -18.136 -14.703  1.00  0.00     0.004 C 
ENDBRANCH  10  11
ENDBRANCH   9  10
ENDBRANCH   8   9
ENDBRANCH   7   8
ENDBRANCH   6   7
ENDBRANCH   5   6
ENDBRANCH   4   5
ENDBRANCH   3   4
ENDBRANCH   2   3
ENDBRANCH   1   2
BRANCH   1  13
ATOM     13  C   UNL     1     -22.037 -15.480 -20.024  1.00  0.00     0.000 C 
BRANCH  13  14
ATOM     14  C   UNL     1     -23.030 -14.311 -20.095  1.00  0.00     0.000 C 
BRANCH  14  15
ATOM     15  C   UNL     1     -22.288 -12.974 -20.257  1.00  0.00     0.000 C 
BRANCH  15  16
ATOM     16  C   UNL     1     -20.760 -13.136 -20.264  1.00  0.00     0.000 C 
BRANCH  16  17
ATOM     17  C   UNL     1     -20.068 -12.268 -19.198  1.00  0.00     0.000 C 
BRANCH  17  18
ATOM     18  C   UNL     1     -19.332 -13.108 -18.141  1.00  0.00     0.000 C 
BRANCH  18  19
ATOM     19  C   UNL     1     -18.632 -14.336 -18.743  1.00  0.00     0.000 C 
BRANCH  19  20
ATOM     20  C   UNL     1     -18.692 -15.529 -17.782  1.00  0.00     0.006 C 
BRANCH  20  21
ATOM     21  C   UNL     1     -17.870 -16.707 -18.314  1.00  0.00     0.053 C 
BRANCH  21  22
ATOM     22  C   UNL     1     -18.745 -17.655 -19.071  1.00  0.00     0.041 C 
ATOM     23  O   UNL     1     -18.900 -17.521 -20.313  1.00  0.00    -0.550 OA
ATOM     24  O   UNL     1     -19.349 -18.719 -18.411  1.00  0.00    -0.550 OA
ENDBRANCH  21  22
ENDBRANCH  20  21
ENDBRANCH  19  20
ENDBRANCH  18  19
ENDBRANCH  17  18
ENDBRANCH  16  17
ENDBRANCH  15  16
ENDBRANCH  14  15
ENDBRANCH  13  14
ENDBRANCH   1  13
TORSDOF 20
ENDMDL
