MODEL 1
REMARK VINA RESULT:    26.015      0.000      0.000
REMARK INTER + INTRA:          30.294
REMARK INTER:                  30.577
REMARK INTRA:                  -0.283
REMARK UNBOUND:                -0.283
REMARK SMILES O=c1cc(-c2ccc(O)c(O)c2)oc2cc(O)cc(O)c12
REMARK SMILES IDX 4 1 3 2 2 3 1 4 21 5 19 6 18 7 16 8 15 9 14 10 13 11 5 12
REMARK SMILES IDX 6 13 7 14 8 15 12 16 10 17 9 18 11 20 20 22 17 24
REMARK H PARENT 9 19 11 21 20 23 17 25
REMARK Flexibility Score: inf
ROOT
ATOM      1  C   UNL     1      -7.424  -3.987  20.899  1.00  0.00     0.138 A 
ATOM      2  C   UNL     1      -7.509  -4.402  19.563  1.00  0.00     0.100 A 
ATOM      3  C   UNL     1      -7.929  -5.700  19.269  1.00  0.00     0.197 A 
ATOM      4  O   UNL     1      -7.940  -6.059  18.063  1.00  0.00    -0.289 OA
ATOM      5  C   UNL     1      -8.301  -6.574  20.318  1.00  0.00     0.107 A 
ATOM      6  C   UNL     1      -8.777  -7.908  20.136  1.00  0.00     0.134 A 
ATOM      7  C   UNL     1      -9.020  -8.712  21.257  1.00  0.00     0.093 A 
ATOM      8  C   UNL     1      -8.861  -8.212  22.552  1.00  0.00     0.123 A 
ATOM      9  C   UNL     1      -8.445  -6.897  22.740  1.00  0.00     0.094 A 
ATOM     10  C   UNL     1      -8.160  -6.081  21.643  1.00  0.00     0.146 A 
ATOM     11  O   UNL     1      -7.749  -4.837  21.867  1.00  0.00    -0.456 OA
ENDROOT
BRANCH   1  12
ATOM     12  C   UNL     1      -6.986  -2.616  21.270  1.00  0.00     0.021 A 
ATOM     13  C   UNL     1      -6.253  -2.366  22.443  1.00  0.00     0.016 A 
ATOM     14  C   UNL     1      -5.865  -1.065  22.769  1.00  0.00     0.051 A 
ATOM     15  C   UNL     1      -6.201   0.011  21.942  1.00  0.00     0.157 A 
ATOM     16  C   UNL     1      -7.336  -1.533  20.446  1.00  0.00     0.062 A 
ATOM     17  C   UNL     1      -6.949  -0.226  20.766  1.00  0.00     0.158 A 
BRANCH  15  18
ATOM     18  O   UNL     1      -5.779   1.286  22.326  1.00  0.00    -0.504 OA
ATOM     19  H   UNL     1      -5.286   1.924  21.718  1.00  0.00     0.293 HD
ENDBRANCH  15  18
BRANCH  17  20
ATOM     20  O   UNL     1      -7.327   0.798  19.894  1.00  0.00    -0.504 OA
ATOM     21  H   UNL     1      -6.932   0.930  18.975  1.00  0.00     0.293 HD
ENDBRANCH  17  20
ENDBRANCH   1  12
BRANCH   6  22
ATOM     22  O   UNL     1      -9.047  -8.481  18.890  1.00  0.00    -0.507 OA
ATOM     23  H   UNL     1      -8.722  -9.385  18.584  1.00  0.00     0.293 HD
ENDBRANCH   6  22
BRANCH   8  24
ATOM     24  O   UNL     1      -9.121  -9.016  23.661  1.00  0.00    -0.508 OA
ATOM     25  H   UNL     1      -8.678  -9.920  23.775  1.00  0.00     0.293 HD
ENDBRANCH   8  24
TORSDOF 5
ENDMDL
MODEL 2
REMARK VINA RESULT:    27.127      1.523      6.747
REMARK INTER + INTRA:          31.601
REMARK INTER:                  31.895
REMARK INTRA:                  -0.294
REMARK UNBOUND:                -0.283
REMARK SMILES O=c1cc(-c2ccc(O)c(O)c2)oc2cc(O)cc(O)c12
REMARK SMILES IDX 4 1 3 2 2 3 1 4 21 5 19 6 18 7 16 8 15 9 14 10 13 11 5 12
REMARK SMILES IDX 6 13 7 14 8 15 12 16 10 17 9 18 11 20 20 22 17 24
REMARK H PARENT 9 19 11 21 20 23 17 25
REMARK Flexibility Score: inf
ROOT
ATOM      1  C   UNL     1      -7.487  -5.539  21.694  1.00  0.00     0.138 A 
ATOM      2  C   UNL     1      -7.274  -5.739  20.324  1.00  0.00     0.100 A 
ATOM      3  C   UNL     1      -6.864  -4.669  19.526  1.00  0.00     0.197 A 
ATOM      4  O   UNL     1      -6.736  -4.868  18.290  1.00  0.00    -0.289 OA
ATOM      5  C   UNL     1      -6.631  -3.403  20.112  1.00  0.00     0.107 A 
ATOM      6  C   UNL     1      -6.179  -2.248  19.403  1.00  0.00     0.134 A 
ATOM      7  C   UNL     1      -6.079  -1.023  20.074  1.00  0.00     0.093 A 
ATOM      8  C   UNL     1      -6.359  -0.922  21.439  1.00  0.00     0.123 A 
ATOM      9  C   UNL     1      -6.754  -2.053  22.150  1.00  0.00     0.094 A 
ATOM     10  C   UNL     1      -6.896  -3.282  21.502  1.00  0.00     0.146 A 
ATOM     11  O   UNL     1      -7.292  -4.332  22.215  1.00  0.00    -0.456 OA
ENDROOT
BRANCH   1  12
ATOM     12  C   UNL     1      -7.921  -6.641  22.591  1.00  0.00     0.021 A 
ATOM     13  C   UNL     1      -7.923  -6.500  23.989  1.00  0.00     0.016 A 
ATOM     14  C   UNL     1      -8.327  -7.559  24.806  1.00  0.00     0.051 A 
ATOM     15  C   UNL     1      -8.729  -8.777  24.251  1.00  0.00     0.157 A 
ATOM     16  C   UNL     1      -8.312  -7.871  22.035  1.00  0.00     0.062 A 
ATOM     17  C   UNL     1      -8.719  -8.937  22.847  1.00  0.00     0.158 A 
BRANCH  15  18
ATOM     18  O   UNL     1      -9.123  -9.794  25.125  1.00  0.00    -0.504 OA
ATOM     19  H   UNL     1      -9.380 -10.724  24.829  1.00  0.00     0.293 HD
ENDBRANCH  15  18
BRANCH  17  20
ATOM     20  O   UNL     1      -9.101 -10.125  22.220  1.00  0.00    -0.504 OA
ATOM     21  H   UNL     1      -9.858 -10.194  21.556  1.00  0.00     0.293 HD
ENDBRANCH  17  20
ENDBRANCH   1  12
BRANCH   6  22
ATOM     22  O   UNL     1      -5.795  -2.254  18.059  1.00  0.00    -0.507 OA
ATOM     23  H   UNL     1      -6.135  -1.616  17.356  1.00  0.00     0.293 HD
ENDBRANCH   6  22
BRANCH   8  24
ATOM     24  O   UNL     1      -6.242   0.299  22.100  1.00  0.00    -0.508 OA
ATOM     25  H   UNL     1      -5.773   1.089  21.674  1.00  0.00     0.293 HD
ENDBRANCH   8  24
TORSDOF 5
ENDMDL
