MODEL 1
REMARK VINA RESULT:    13.128      0.000      0.000
REMARK INTER + INTRA:          27.424
REMARK INTER:                  28.477
REMARK INTRA:                  -1.053
REMARK UNBOUND:                -1.053
REMARK SMILES CCCCCCCCCCCCCCCCCCCCCC(=O)[O-]
REMARK SMILES IDX 12 1 11 2 10 3 9 4 8 5 7 6 6 7 5 8 4 9 3 10 2 11 1 12 13 13
REMARK SMILES IDX 14 14 15 15 16 16 17 17 18 18 19 19 20 20 21 21 22 22 23 23
REMARK SMILES IDX 24 24
REMARK H PARENT
REMARK Flexibility Score: inf
ROOT
ATOM      1  C   UNL     1       0.054   9.524  -4.521  1.00  0.00     0.000 C 
ENDROOT
BRANCH   1   2
ATOM      2  C   UNL     1       0.542   8.085  -4.761  1.00  0.00     0.000 C 
BRANCH   2   3
ATOM      3  C   UNL     1       1.278   7.497  -3.546  1.00  0.00     0.000 C 
BRANCH   3   4
ATOM      4  C   UNL     1       2.785   7.781  -3.627  1.00  0.00    -0.000 C 
BRANCH   4   5
ATOM      5  C   UNL     1       3.542   7.341  -2.361  1.00  0.00    -0.000 C 
BRANCH   5   6
ATOM      6  C   UNL     1       5.040   7.710  -2.338  1.00  0.00    -0.000 C 
BRANCH   6   7
ATOM      7  C   UNL     1       6.004   6.531  -2.569  1.00  0.00    -0.000 C 
BRANCH   7   8
ATOM      8  C   UNL     1       5.377   5.300  -3.255  1.00  0.00    -0.000 C 
BRANCH   8   9
ATOM      9  C   UNL     1       6.146   4.776  -4.481  1.00  0.00    -0.000 C 
BRANCH   9  10
ATOM     10  C   UNL     1       6.605   3.319  -4.321  1.00  0.00    -0.000 C 
BRANCH  10  11
ATOM     11  C   UNL     1       7.243   3.093  -2.945  1.00  0.00    -0.003 C 
ATOM     12  C   UNL     1       7.225   1.615  -2.563  1.00  0.00     0.004 C 
ENDBRANCH  10  11
ENDBRANCH   9  10
ENDBRANCH   8   9
ENDBRANCH   7   8
ENDBRANCH   6   7
ENDBRANCH   5   6
ENDBRANCH   4   5
ENDBRANCH   3   4
ENDBRANCH   2   3
ENDBRANCH   1   2
BRANCH   1  13
ATOM     13  C   UNL     1      -0.655   9.689  -3.165  1.00  0.00     0.000 C 
BRANCH  13  14
ATOM     14  C   UNL     1      -0.988  11.155  -2.836  1.00  0.00     0.000 C 
BRANCH  14  15
ATOM     15  C   UNL     1      -1.458  11.410  -1.393  1.00  0.00     0.000 C 
BRANCH  15  16
ATOM     16  C   UNL     1      -0.762  12.616  -0.739  1.00  0.00     0.000 C 
BRANCH  16  17
ATOM     17  C   UNL     1      -0.619  13.804  -1.705  1.00  0.00     0.000 C 
BRANCH  17  18
ATOM     18  C   UNL     1      -0.529  15.149  -0.964  1.00  0.00     0.000 C 
BRANCH  18  19
ATOM     19  C   UNL     1       0.747  15.934  -1.310  1.00  0.00     0.000 C 
BRANCH  19  20
ATOM     20  C   UNL     1       0.810  16.345  -2.788  1.00  0.00     0.006 C 
BRANCH  20  21
ATOM     21  C   UNL     1       2.189  16.042  -3.383  1.00  0.00     0.053 C 
BRANCH  21  22
ATOM     22  C   UNL     1       2.068  15.667  -4.828  1.00  0.00     0.041 C 
ATOM     23  O   UNL     1       0.980  15.839  -5.439  1.00  0.00    -0.550 OA
ATOM     24  O   UNL     1       3.168  15.162  -5.510  1.00  0.00    -0.550 OA
ENDBRANCH  21  22
ENDBRANCH  20  21
ENDBRANCH  19  20
ENDBRANCH  18  19
ENDBRANCH  17  18
ENDBRANCH  16  17
ENDBRANCH  15  16
ENDBRANCH  14  15
ENDBRANCH  13  14
ENDBRANCH   1  13
TORSDOF 20
ENDMDL
MODEL 2
REMARK VINA RESULT:    13.340      4.928      7.335
REMARK INTER + INTRA:          27.884
REMARK INTER:                  28.963
REMARK INTRA:                  -1.079
REMARK UNBOUND:                -1.053
REMARK SMILES CCCCCCCCCCCCCCCCCCCCCC(=O)[O-]
REMARK SMILES IDX 12 1 11 2 10 3 9 4 8 5 7 6 6 7 5 8 4 9 3 10 2 11 1 12 13 13
REMARK SMILES IDX 14 14 15 15 16 16 17 17 18 18 19 19 20 20 21 21 22 22 23 23
REMARK SMILES IDX 24 24
REMARK H PARENT
REMARK Flexibility Score: inf
ROOT
ATOM      1  C   UNL     1       0.838   9.115  -6.018  1.00  0.00     0.000 C 
ENDROOT
BRANCH   1   2
ATOM      2  C   UNL     1       0.118   8.046  -5.179  1.00  0.00     0.000 C 
BRANCH   2   3
ATOM      3  C   UNL     1       0.473   8.125  -3.686  1.00  0.00     0.000 C 
BRANCH   3   4
ATOM      4  C   UNL     1       1.450   7.006  -3.294  1.00  0.00    -0.000 C 
BRANCH   4   5
ATOM      5  C   UNL     1       2.915   7.478  -3.268  1.00  0.00    -0.000 C 
BRANCH   5   6
ATOM      6  C   UNL     1       3.711   7.059  -2.014  1.00  0.00    -0.000 C 
BRANCH   6   7
ATOM      7  C   UNL     1       5.214   7.397  -2.055  1.00  0.00    -0.000 C 
BRANCH   7   8
ATOM      8  C   UNL     1       6.089   6.384  -2.821  1.00  0.00    -0.000 C 
BRANCH   8   9
ATOM      9  C   UNL     1       5.357   5.112  -3.287  1.00  0.00    -0.000 C 
BRANCH   9  10
ATOM     10  C   UNL     1       5.911   4.552  -4.605  1.00  0.00    -0.000 C 
BRANCH  10  11
ATOM     11  C   UNL     1       7.049   3.558  -4.344  1.00  0.00    -0.003 C 
ATOM     12  C   UNL     1       6.905   2.900  -2.974  1.00  0.00     0.004 C 
ENDBRANCH  10  11
ENDBRANCH   9  10
ENDBRANCH   8   9
ENDBRANCH   7   8
ENDBRANCH   6   7
ENDBRANCH   5   6
ENDBRANCH   4   5
ENDBRANCH   3   4
ENDBRANCH   2   3
ENDBRANCH   1   2
BRANCH   1  13
ATOM     13  C   UNL     1       1.701   8.505  -7.137  1.00  0.00     0.000 C 
BRANCH  13  14
ATOM     14  C   UNL     1       0.882   8.106  -8.377  1.00  0.00     0.000 C 
BRANCH  14  15
ATOM     15  C   UNL     1      -0.448   8.859  -8.552  1.00  0.00     0.000 C 
BRANCH  15  16
ATOM     16  C   UNL     1      -0.980   8.810  -9.995  1.00  0.00     0.000 C 
BRANCH  16  17
ATOM     17  C   UNL     1      -0.269   7.744 -10.845  1.00  0.00     0.000 C 
BRANCH  17  18
ATOM     18  C   UNL     1      -0.911   7.585 -12.234  1.00  0.00     0.000 C 
BRANCH  18  19
ATOM     19  C   UNL     1       0.089   7.805 -13.380  1.00  0.00     0.000 C 
BRANCH  19  20
ATOM     20  C   UNL     1       0.736   9.197 -13.346  1.00  0.00     0.006 C 
BRANCH  20  21
ATOM     21  C   UNL     1       2.220   9.105 -12.979  1.00  0.00     0.053 C 
BRANCH  21  22
ATOM     22  C   UNL     1       2.693  10.387 -12.368  1.00  0.00     0.041 C 
ATOM     23  O   UNL     1       3.279  10.379 -11.252  1.00  0.00    -0.550 OA
ATOM     24  O   UNL     1       2.522  11.587 -13.047  1.00  0.00    -0.550 OA
ENDBRANCH  21  22
ENDBRANCH  20  21
ENDBRANCH  19  20
ENDBRANCH  18  19
ENDBRANCH  17  18
ENDBRANCH  16  17
ENDBRANCH  15  16
ENDBRANCH  14  15
ENDBRANCH  13  14
ENDBRANCH   1  13
TORSDOF 20
ENDMDL
MODEL 3
REMARK VINA RESULT:    14.408      4.555      6.464
REMARK INTER + INTRA:          30.202
REMARK INTER:                  30.359
REMARK INTRA:                  -0.156
REMARK UNBOUND:                -1.053
REMARK SMILES CCCCCCCCCCCCCCCCCCCCCC(=O)[O-]
REMARK SMILES IDX 12 1 11 2 10 3 9 4 8 5 7 6 6 7 5 8 4 9 3 10 2 11 1 12 13 13
REMARK SMILES IDX 14 14 15 15 16 16 17 17 18 18 19 19 20 20 21 21 22 22 23 23
REMARK SMILES IDX 24 24
REMARK H PARENT
REMARK Flexibility Score: inf
ROOT
ATOM      1  C   UNL     1      -0.021   8.091  -3.593  1.00  0.00     0.000 C 
ENDROOT
BRANCH   1   2
ATOM      2  C   UNL     1       1.187   7.139  -3.549  1.00  0.00     0.000 C 
BRANCH   2   3
ATOM      3  C   UNL     1       2.505   7.868  -3.244  1.00  0.00     0.000 C 
BRANCH   3   4
ATOM      4  C   UNL     1       3.530   6.910  -2.617  1.00  0.00    -0.000 C 
BRANCH   4   5
ATOM      5  C   UNL     1       4.769   7.641  -2.070  1.00  0.00    -0.000 C 
BRANCH   5   6
ATOM      6  C   UNL     1       6.121   7.001  -2.449  1.00  0.00    -0.000 C 
BRANCH   6   7
ATOM      7  C   UNL     1       6.054   5.501  -2.798  1.00  0.00    -0.000 C 
BRANCH   7   8
ATOM      8  C   UNL     1       5.380   5.175  -4.147  1.00  0.00    -0.000 C 
BRANCH   8   9
ATOM      9  C   UNL     1       6.183   4.235  -5.065  1.00  0.00    -0.000 C 
BRANCH   9  10
ATOM     10  C   UNL     1       7.355   3.553  -4.344  1.00  0.00    -0.000 C 
BRANCH  10  11
ATOM     11  C   UNL     1       6.891   2.281  -3.624  1.00  0.00    -0.003 C 
ATOM     12  C   UNL     1       7.590   2.121  -2.277  1.00  0.00     0.004 C 
ENDBRANCH  10  11
ENDBRANCH   9  10
ENDBRANCH   8   9
ENDBRANCH   7   8
ENDBRANCH   6   7
ENDBRANCH   5   6
ENDBRANCH   4   5
ENDBRANCH   3   4
ENDBRANCH   2   3
ENDBRANCH   1   2
BRANCH   1  13
ATOM     13  C   UNL     1       0.079   9.120  -4.734  1.00  0.00     0.000 C 
BRANCH  13  14
ATOM     14  C   UNL     1       1.077   8.705  -5.830  1.00  0.00     0.000 C 
BRANCH  14  15
ATOM     15  C   UNL     1       0.442   8.112  -7.101  1.00  0.00     0.000 C 
BRANCH  15  16
ATOM     16  C   UNL     1       1.240   8.434  -8.376  1.00  0.00     0.000 C 
BRANCH  16  17
ATOM     17  C   UNL     1       2.607   9.067  -8.068  1.00  0.00     0.000 C 
BRANCH  17  18
ATOM     18  C   UNL     1       3.499   9.163  -9.317  1.00  0.00     0.000 C 
BRANCH  18  19
ATOM     19  C   UNL     1       2.860   9.993 -10.442  1.00  0.00     0.000 C 
BRANCH  19  20
ATOM     20  C   UNL     1       3.582   9.829 -11.787  1.00  0.00     0.006 C 
BRANCH  20  21
ATOM     21  C   UNL     1       2.586   9.854 -12.951  1.00  0.00     0.053 C 
BRANCH  21  22
ATOM     22  C   UNL     1       2.236  11.263 -13.315  1.00  0.00     0.041 C 
ATOM     23  O   UNL     1       2.904  12.224 -12.847  1.00  0.00    -0.550 OA
ATOM     24  O   UNL     1       1.196  11.516 -14.202  1.00  0.00    -0.550 OA
ENDBRANCH  21  22
ENDBRANCH  20  21
ENDBRANCH  19  20
ENDBRANCH  18  19
ENDBRANCH  17  18
ENDBRANCH  16  17
ENDBRANCH  15  16
ENDBRANCH  14  15
ENDBRANCH  13  14
ENDBRANCH   1  13
TORSDOF 20
ENDMDL
MODEL 4
REMARK VINA RESULT:    14.622      3.535      9.624
REMARK INTER + INTRA:          30.666
REMARK INTER:                  31.249
REMARK INTRA:                  -0.584
REMARK UNBOUND:                -1.053
REMARK SMILES CCCCCCCCCCCCCCCCCCCCCC(=O)[O-]
REMARK SMILES IDX 12 1 11 2 10 3 9 4 8 5 7 6 6 7 5 8 4 9 3 10 2 11 1 12 13 13
REMARK SMILES IDX 14 14 15 15 16 16 17 17 18 18 19 19 20 20 21 21 22 22 23 23
REMARK SMILES IDX 24 24
REMARK H PARENT
REMARK Flexibility Score: inf
ROOT
ATOM      1  C   UNL     1       0.124  10.119  -4.581  1.00  0.00     0.000 C 
ENDROOT
BRANCH   1   2
ATOM      2  C   UNL     1      -0.469  10.012  -3.165  1.00  0.00     0.000 C 
BRANCH   2   3
ATOM      3  C   UNL     1      -1.318  11.236  -2.784  1.00  0.00     0.000 C 
BRANCH   3   4
ATOM      4  C   UNL     1      -1.509  11.319  -1.262  1.00  0.00    -0.000 C 
BRANCH   4   5
ATOM      5  C   UNL     1      -0.839  12.561  -0.646  1.00  0.00    -0.000 C 
BRANCH   5   6
ATOM      6  C   UNL     1      -0.411  13.639  -1.662  1.00  0.00    -0.000 C 
BRANCH   6   7
ATOM      7  C   UNL     1      -0.406  15.081  -1.117  1.00  0.00    -0.000 C 
BRANCH   7   8
ATOM      8  C   UNL     1       0.853  15.904  -1.460  1.00  0.00    -0.000 C 
BRANCH   8   9
ATOM      9  C   UNL     1       1.022  16.242  -2.953  1.00  0.00    -0.000 C 
BRANCH   9  10
ATOM     10  C   UNL     1       2.490  16.246  -3.403  1.00  0.00    -0.000 C 
BRANCH  10  11
ATOM     11  C   UNL     1       2.653  15.530  -4.749  1.00  0.00    -0.003 C 
ATOM     12  C   UNL     1       1.300  15.280  -5.409  1.00  0.00     0.004 C 
ENDBRANCH  10  11
ENDBRANCH   9  10
ENDBRANCH   8   9
ENDBRANCH   7   8
ENDBRANCH   6   7
ENDBRANCH   5   6
ENDBRANCH   4   5
ENDBRANCH   3   4
ENDBRANCH   2   3
ENDBRANCH   1   2
BRANCH   1  13
ATOM     13  C   UNL     1       0.710   8.786  -5.078  1.00  0.00     0.000 C 
BRANCH  13  14
ATOM     14  C   UNL     1       0.111   7.563  -4.361  1.00  0.00     0.000 C 
BRANCH  14  15
ATOM     15  C   UNL     1       1.071   6.830  -3.407  1.00  0.00     0.000 C 
BRANCH  15  16
ATOM     16  C   UNL     1       2.431   7.535  -3.266  1.00  0.00     0.000 C 
BRANCH  16  17
ATOM     17  C   UNL     1       3.285   6.938  -2.135  1.00  0.00     0.000 C 
BRANCH  17  18
ATOM     18  C   UNL     1       4.427   7.878  -1.711  1.00  0.00     0.000 C 
BRANCH  18  19
ATOM     19  C   UNL     1       5.719   7.640  -2.508  1.00  0.00     0.000 C 
BRANCH  19  20
ATOM     20  C   UNL     1       6.114   6.158  -2.574  1.00  0.00     0.006 C 
BRANCH  20  21
ATOM     21  C   UNL     1       5.245   5.403  -3.586  1.00  0.00     0.053 C 
BRANCH  21  22
ATOM     22  C   UNL     1       6.074   4.442  -4.379  1.00  0.00     0.041 C 
ATOM     23  O   UNL     1       6.095   4.511  -5.637  1.00  0.00    -0.550 OA
ATOM     24  O   UNL     1       6.854   3.493  -3.729  1.00  0.00    -0.550 OA
ENDBRANCH  21  22
ENDBRANCH  20  21
ENDBRANCH  19  20
ENDBRANCH  18  19
ENDBRANCH  17  18
ENDBRANCH  16  17
ENDBRANCH  15  16
ENDBRANCH  14  15
ENDBRANCH  13  14
ENDBRANCH   1  13
TORSDOF 20
ENDMDL
MODEL 5
REMARK VINA RESULT:    14.642      5.303      7.575
REMARK INTER + INTRA:          30.710
REMARK INTER:                  31.560
REMARK INTRA:                  -0.850
REMARK UNBOUND:                -1.053
REMARK SMILES CCCCCCCCCCCCCCCCCCCCCC(=O)[O-]
REMARK SMILES IDX 12 1 11 2 10 3 9 4 8 5 7 6 6 7 5 8 4 9 3 10 2 11 1 12 13 13
REMARK SMILES IDX 14 14 15 15 16 16 17 17 18 18 19 19 20 20 21 21 22 22 23 23
REMARK SMILES IDX 24 24
REMARK H PARENT
REMARK Flexibility Score: inf
ROOT
ATOM      1  C   UNL     1       1.153   8.742  -5.883  1.00  0.00     0.000 C 
ENDROOT
BRANCH   1   2
ATOM      2  C   UNL     1       0.222   9.122  -4.719  1.00  0.00     0.000 C 
BRANCH   2   3
ATOM      3  C   UNL     1       0.130   8.022  -3.649  1.00  0.00     0.000 C 
BRANCH   3   4
ATOM      4  C   UNL     1       1.353   7.095  -3.708  1.00  0.00    -0.000 C 
BRANCH   4   5
ATOM      5  C   UNL     1       2.672   7.832  -3.411  1.00  0.00    -0.000 C 
BRANCH   5   6
ATOM      6  C   UNL     1       3.538   7.193  -2.305  1.00  0.00    -0.000 C 
BRANCH   6   7
ATOM      7  C   UNL     1       5.048   7.478  -2.416  1.00  0.00    -0.000 C 
BRANCH   7   8
ATOM      8  C   UNL     1       5.930   6.237  -2.663  1.00  0.00    -0.000 C 
BRANCH   8   9
ATOM      9  C   UNL     1       5.397   5.261  -3.729  1.00  0.00    -0.000 C 
BRANCH   9  10
ATOM     10  C   UNL     1       6.421   4.186  -4.120  1.00  0.00    -0.000 C 
BRANCH  10  11
ATOM     11  C   UNL     1       6.969   3.472  -2.878  1.00  0.00    -0.003 C 
ATOM     12  C   UNL     1       7.247   1.999  -3.165  1.00  0.00     0.004 C 
ENDBRANCH  10  11
ENDBRANCH   9  10
ENDBRANCH   8   9
ENDBRANCH   7   8
ENDBRANCH   6   7
ENDBRANCH   5   6
ENDBRANCH   4   5
ENDBRANCH   3   4
ENDBRANCH   2   3
ENDBRANCH   1   2
BRANCH   1  13
ATOM     13  C   UNL     1       0.396   8.570  -7.212  1.00  0.00     0.000 C 
BRANCH  13  14
ATOM     14  C   UNL     1       1.330   8.553  -8.436  1.00  0.00     0.000 C 
BRANCH  14  15
ATOM     15  C   UNL     1       2.794   8.929  -8.146  1.00  0.00     0.000 C 
BRANCH  15  16
ATOM     16  C   UNL     1       3.508   9.546  -9.362  1.00  0.00     0.000 C 
BRANCH  16  17
ATOM     17  C   UNL     1       2.546   9.814 -10.531  1.00  0.00     0.000 C 
BRANCH  17  18
ATOM     18  C   UNL     1       3.277   9.874 -11.883  1.00  0.00     0.000 C 
BRANCH  18  19
ATOM     19  C   UNL     1       2.553   9.084 -12.985  1.00  0.00     0.000 C 
BRANCH  19  20
ATOM     20  C   UNL     1       1.040   9.342 -13.007  1.00  0.00     0.006 C 
BRANCH  20  21
ATOM     21  C   UNL     1       0.268   8.058 -13.326  1.00  0.00     0.053 C 
BRANCH  21  22
ATOM     22  C   UNL     1      -0.657   7.706 -12.203  1.00  0.00     0.041 C 
ATOM     23  O   UNL     1      -1.420   6.708 -12.300  1.00  0.00    -0.550 OA
ATOM     24  O   UNL     1      -0.651   8.458 -11.034  1.00  0.00    -0.550 OA
ENDBRANCH  21  22
ENDBRANCH  20  21
ENDBRANCH  19  20
ENDBRANCH  18  19
ENDBRANCH  17  18
ENDBRANCH  16  17
ENDBRANCH  15  16
ENDBRANCH  14  15
ENDBRANCH  13  14
ENDBRANCH   1  13
TORSDOF 20
ENDMDL
MODEL 6
REMARK VINA RESULT:    14.739      6.031      9.622
REMARK INTER + INTRA:          30.918
REMARK INTER:                  32.266
REMARK INTRA:                  -1.348
REMARK UNBOUND:                -1.053
REMARK SMILES CCCCCCCCCCCCCCCCCCCCCC(=O)[O-]
REMARK SMILES IDX 12 1 11 2 10 3 9 4 8 5 7 6 6 7 5 8 4 9 3 10 2 11 1 12 13 13
REMARK SMILES IDX 14 14 15 15 16 16 17 17 18 18 19 19 20 20 21 21 22 22 23 23
REMARK SMILES IDX 24 24
REMARK H PARENT
REMARK Flexibility Score: inf
ROOT
ATOM      1  C   UNL     1       1.581   8.535  -6.509  1.00  0.00     0.000 C 
ENDROOT
BRANCH   1   2
ATOM      2  C   UNL     1       1.426   8.660  -8.035  1.00  0.00     0.000 C 
BRANCH   2   3
ATOM      3  C   UNL     1       0.023   8.263  -8.522  1.00  0.00     0.000 C 
BRANCH   3   4
ATOM      4  C   UNL     1      -0.192   8.689  -9.982  1.00  0.00    -0.000 C 
BRANCH   4   5
ATOM      5  C   UNL     1      -0.213   7.494 -10.954  1.00  0.00    -0.000 C 
BRANCH   5   6
ATOM      6  C   UNL     1      -0.946   7.753 -12.286  1.00  0.00    -0.000 C 
BRANCH   6   7
ATOM      7  C   UNL     1      -0.084   8.400 -13.387  1.00  0.00    -0.000 C 
BRANCH   7   8
ATOM      8  C   UNL     1       1.332   7.808 -13.539  1.00  0.00    -0.000 C 
BRANCH   8   9
ATOM      9  C   UNL     1       2.482   8.801 -13.290  1.00  0.00    -0.000 C 
BRANCH   9  10
ATOM     10  C   UNL     1       2.066  10.264 -13.502  1.00  0.00    -0.000 C 
BRANCH  10  11
ATOM     11  C   UNL     1       2.718  11.177 -12.458  1.00  0.00    -0.003 C 
ATOM     12  C   UNL     1       3.267  10.371 -11.284  1.00  0.00     0.004 C 
ENDBRANCH  10  11
ENDBRANCH   9  10
ENDBRANCH   8   9
ENDBRANCH   7   8
ENDBRANCH   6   7
ENDBRANCH   5   6
ENDBRANCH   4   5
ENDBRANCH   3   4
ENDBRANCH   2   3
ENDBRANCH   1   2
BRANCH   1  13
ATOM     13  C   UNL     1       0.397   9.151  -5.743  1.00  0.00     0.000 C 
BRANCH  13  14
ATOM     14  C   UNL     1       0.303   8.658  -4.288  1.00  0.00     0.000 C 
BRANCH  14  15
ATOM     15  C   UNL     1       0.648   7.173  -4.078  1.00  0.00     0.000 C 
BRANCH  15  16
ATOM     16  C   UNL     1       1.675   6.948  -2.954  1.00  0.00     0.000 C 
BRANCH  16  17
ATOM     17  C   UNL     1       3.036   7.591  -3.268  1.00  0.00     0.000 C 
BRANCH  17  18
ATOM     18  C   UNL     1       3.965   7.614  -2.043  1.00  0.00     0.000 C 
BRANCH  18  19
ATOM     19  C   UNL     1       5.453   7.637  -2.425  1.00  0.00     0.000 C 
BRANCH  19  20
ATOM     20  C   UNL     1       6.061   6.232  -2.538  1.00  0.00     0.006 C 
BRANCH  20  21
ATOM     21  C   UNL     1       5.194   5.328  -3.420  1.00  0.00     0.053 C 
BRANCH  21  22
ATOM     22  C   UNL     1       6.049   4.497  -4.325  1.00  0.00     0.041 C 
ATOM     23  O   UNL     1       6.061   4.719  -5.566  1.00  0.00    -0.550 OA
ATOM     24  O   UNL     1       6.863   3.502  -3.796  1.00  0.00    -0.550 OA
ENDBRANCH  21  22
ENDBRANCH  20  21
ENDBRANCH  19  20
ENDBRANCH  18  19
ENDBRANCH  17  18
ENDBRANCH  16  17
ENDBRANCH  15  16
ENDBRANCH  14  15
ENDBRANCH  13  14
ENDBRANCH   1  13
TORSDOF 20
ENDMDL
MODEL 7
REMARK VINA RESULT:    15.199      5.896      9.418
REMARK INTER + INTRA:          31.917
REMARK INTER:                  32.674
REMARK INTRA:                  -0.757
REMARK UNBOUND:                -1.053
REMARK SMILES CCCCCCCCCCCCCCCCCCCCCC(=O)[O-]
REMARK SMILES IDX 12 1 11 2 10 3 9 4 8 5 7 6 6 7 5 8 4 9 3 10 2 11 1 12 13 13
REMARK SMILES IDX 14 14 15 15 16 16 17 17 18 18 19 19 20 20 21 21 22 22 23 23
REMARK SMILES IDX 24 24
REMARK H PARENT
REMARK Flexibility Score: inf
ROOT
ATOM      1  C   UNL     1       0.162   8.682  -6.940  1.00  0.00     0.000 C 
ENDROOT
BRANCH   1   2
ATOM      2  C   UNL     1       1.136   8.670  -8.131  1.00  0.00     0.000 C 
BRANCH   2   3
ATOM      3  C   UNL     1       2.607   8.763  -7.695  1.00  0.00     0.000 C 
BRANCH   3   4
ATOM      4  C   UNL     1       3.499   9.212  -8.862  1.00  0.00    -0.000 C 
BRANCH   4   5
ATOM      5  C   UNL     1       2.699   9.862 -10.006  1.00  0.00    -0.000 C 
BRANCH   5   6
ATOM      6  C   UNL     1       3.451   9.963 -11.348  1.00  0.00    -0.000 C 
BRANCH   6   7
ATOM      7  C   UNL     1       2.728  10.777 -12.439  1.00  0.00    -0.000 C 
BRANCH   7   8
ATOM      8  C   UNL     1       1.894   9.940 -13.432  1.00  0.00    -0.000 C 
BRANCH   8   9
ATOM      9  C   UNL     1       1.600   8.498 -12.980  1.00  0.00    -0.000 C 
BRANCH   9  10
ATOM     10  C   UNL     1       0.355   7.903 -13.654  1.00  0.00    -0.000 C 
BRANCH  10  11
ATOM     11  C   UNL     1      -0.852   7.940 -12.709  1.00  0.00    -0.003 C 
ATOM     12  C   UNL     1      -0.414   7.843 -11.250  1.00  0.00     0.004 C 
ENDBRANCH  10  11
ENDBRANCH   9  10
ENDBRANCH   8   9
ENDBRANCH   7   8
ENDBRANCH   6   7
ENDBRANCH   5   6
ENDBRANCH   4   5
ENDBRANCH   3   4
ENDBRANCH   2   3
ENDBRANCH   1   2
BRANCH   1  13
ATOM     13  C   UNL     1       0.879   8.869  -5.592  1.00  0.00     0.000 C 
BRANCH  13  14
ATOM     14  C   UNL     1       0.146   8.188  -4.422  1.00  0.00     0.000 C 
BRANCH  14  15
ATOM     15  C   UNL     1       0.998   7.199  -3.606  1.00  0.00     0.000 C 
BRANCH  15  16
ATOM     16  C   UNL     1       2.461   7.650  -3.455  1.00  0.00     0.000 C 
BRANCH  16  17
ATOM     17  C   UNL     1       3.181   6.925  -2.306  1.00  0.00     0.000 C 
BRANCH  17  18
ATOM     18  C   UNL     1       4.313   7.773  -1.702  1.00  0.00     0.000 C 
BRANCH  18  19
ATOM     19  C   UNL     1       5.634   7.639  -2.476  1.00  0.00     0.000 C 
BRANCH  19  20
ATOM     20  C   UNL     1       6.124   6.188  -2.571  1.00  0.00     0.006 C 
BRANCH  20  21
ATOM     21  C   UNL     1       5.244   5.373  -3.525  1.00  0.00     0.053 C 
BRANCH  21  22
ATOM     22  C   UNL     1       6.079   4.443  -4.348  1.00  0.00     0.041 C 
ATOM     23  O   UNL     1       6.099   4.551  -5.604  1.00  0.00    -0.550 OA
ATOM     24  O   UNL     1       6.867   3.480  -3.728  1.00  0.00    -0.550 OA
ENDBRANCH  21  22
ENDBRANCH  20  21
ENDBRANCH  19  20
ENDBRANCH  18  19
ENDBRANCH  17  18
ENDBRANCH  16  17
ENDBRANCH  15  16
ENDBRANCH  14  15
ENDBRANCH  13  14
ENDBRANCH   1  13
TORSDOF 20
ENDMDL
MODEL 8
REMARK VINA RESULT:    16.026      6.213     10.320
REMARK INTER + INTRA:          33.712
REMARK INTER:                  34.689
REMARK INTRA:                  -0.977
REMARK UNBOUND:                -1.053
REMARK SMILES CCCCCCCCCCCCCCCCCCCCCC(=O)[O-]
REMARK SMILES IDX 12 1 11 2 10 3 9 4 8 5 7 6 6 7 5 8 4 9 3 10 2 11 1 12 13 13
REMARK SMILES IDX 14 14 15 15 16 16 17 17 18 18 19 19 20 20 21 21 22 22 23 23
REMARK SMILES IDX 24 24
REMARK H PARENT
REMARK Flexibility Score: inf
ROOT
ATOM      1  C   UNL     1       1.099   8.711  -5.213  1.00  0.00     0.000 C 
ENDROOT
BRANCH   1   2
ATOM      2  C   UNL     1       0.147   8.968  -6.394  1.00  0.00     0.000 C 
BRANCH   2   3
ATOM      3  C   UNL     1       0.288   7.918  -7.508  1.00  0.00     0.000 C 
BRANCH   3   4
ATOM      4  C   UNL     1       0.679   8.579  -8.839  1.00  0.00    -0.000 C 
BRANCH   4   5
ATOM      5  C   UNL     1      -0.469   8.577  -9.864  1.00  0.00    -0.000 C 
BRANCH   5   6
ATOM      6  C   UNL     1      -0.311   7.561 -11.014  1.00  0.00    -0.000 C 
BRANCH   6   7
ATOM      7  C   UNL     1      -0.818   8.048 -12.386  1.00  0.00    -0.000 C 
BRANCH   7   8
ATOM      8  C   UNL     1       0.124   7.752 -13.571  1.00  0.00    -0.000 C 
BRANCH   8   9
ATOM      9  C   UNL     1       1.621   7.955 -13.280  1.00  0.00    -0.000 C 
BRANCH   9  10
ATOM     10  C   UNL     1       2.054   9.426 -13.372  1.00  0.00    -0.000 C 
BRANCH  10  11
ATOM     11  C   UNL     1       2.829   9.850 -12.119  1.00  0.00    -0.003 C 
ATOM     12  C   UNL     1       2.912  11.370 -12.009  1.00  0.00     0.004 C 
ENDBRANCH  10  11
ENDBRANCH   9  10
ENDBRANCH   8   9
ENDBRANCH   7   8
ENDBRANCH   6   7
ENDBRANCH   5   6
ENDBRANCH   4   5
ENDBRANCH   3   4
ENDBRANCH   2   3
ENDBRANCH   1   2
BRANCH   1  13
ATOM     13  C   UNL     1       0.388   8.068  -4.009  1.00  0.00     0.000 C 
BRANCH  13  14
ATOM     14  C   UNL     1       1.326   7.199  -3.152  1.00  0.00     0.000 C 
BRANCH  14  15
ATOM     15  C   UNL     1       2.821   7.542  -3.268  1.00  0.00     0.000 C 
BRANCH  15  16
ATOM     16  C   UNL     1       3.638   7.088  -2.045  1.00  0.00     0.000 C 
BRANCH  16  17
ATOM     17  C   UNL     1       5.089   7.595  -2.089  1.00  0.00     0.000 C 
BRANCH  17  18
ATOM     18  C   UNL     1       6.034   6.594  -2.775  1.00  0.00     0.000 C 
BRANCH  18  19
ATOM     19  C   UNL     1       5.293   5.614  -3.698  1.00  0.00     0.000 C 
BRANCH  19  20
ATOM     20  C   UNL     1       6.182   4.457  -4.175  1.00  0.00     0.006 C 
BRANCH  20  21
ATOM     21  C   UNL     1       6.821   3.730  -2.987  1.00  0.00     0.053 C 
BRANCH  21  22
ATOM     22  C   UNL     1       7.114   2.304  -3.338  1.00  0.00     0.041 C 
ATOM     23  O   UNL     1       7.416   1.478  -2.435  1.00  0.00    -0.550 OA
ATOM     24  O   UNL     1       7.017   1.877  -4.657  1.00  0.00    -0.550 OA
ENDBRANCH  21  22
ENDBRANCH  20  21
ENDBRANCH  19  20
ENDBRANCH  18  19
ENDBRANCH  17  18
ENDBRANCH  16  17
ENDBRANCH  15  16
ENDBRANCH  14  15
ENDBRANCH  13  14
ENDBRANCH   1  13
TORSDOF 20
ENDMDL
