MODEL 1
REMARK VINA RESULT:    -3.272      0.000      0.000
REMARK INTER + INTRA:          -7.354
REMARK INTER:                  -5.568
REMARK INTRA:                  -1.786
REMARK UNBOUND:                -1.786
REMARK SMILES CCCCCCCCCCCCCC(=O)[O-]
REMARK SMILES IDX 8 1 9 2 10 3 11 4 12 5 13 6 14 7 15 8 16 9 7 10 6 11 5 12
REMARK SMILES IDX 4 13 3 14 2 15 1 16
REMARK H PARENT
REMARK Flexibility Score: inf
ROOT
ATOM      1  C   UNL     1      43.400  29.530  88.285  1.00  0.00     0.000 C 
ENDROOT
BRANCH   1   2
ATOM      2  C   UNL     1      42.779  30.935  88.294  1.00  0.00     0.000 C 
BRANCH   2   3
ATOM      3  C   UNL     1      41.543  30.994  87.384  1.00  0.00     0.000 C 
BRANCH   3   4
ATOM      4  C   UNL     1      40.223  30.938  88.170  1.00  0.00     0.000 C 
BRANCH   4   5
ATOM      5  C   UNL     1      39.673  29.510  88.302  1.00  0.00     0.006 C 
BRANCH   5   6
ATOM      6  C   UNL     1      39.998  28.680  87.057  1.00  0.00     0.053 C 
BRANCH   6   7
ATOM      7  C   UNL     1      40.551  27.345  87.445  1.00  0.00     0.041 C 
ATOM      8  O   UNL     1      41.413  26.781  86.721  1.00  0.00    -0.550 OA
ATOM      9  O   UNL     1      40.152  26.747  88.633  1.00  0.00    -0.550 OA
ENDBRANCH   6   7
ENDBRANCH   5   6
ENDBRANCH   4   5
ENDBRANCH   3   4
ENDBRANCH   2   3
ENDBRANCH   1   2
BRANCH   1  10
ATOM     10  C   UNL     1      43.193  28.782  89.610  1.00  0.00     0.000 C 
BRANCH  10  11
ATOM     11  C   UNL     1      42.638  29.691  90.722  1.00  0.00    -0.000 C 
BRANCH  11  12
ATOM     12  C   UNL     1      43.409  29.546  92.043  1.00  0.00    -0.000 C 
BRANCH  12  13
ATOM     13  C   UNL     1      44.902  29.889  91.898  1.00  0.00    -0.000 C 
BRANCH  13  14
ATOM     14  C   UNL     1      45.120  31.261  91.224  1.00  0.00    -0.000 C 
BRANCH  14  15
ATOM     15  C   UNL     1      46.489  31.397  90.537  1.00  0.00    -0.003 C 
ATOM     16  C   UNL     1      46.383  31.659  89.036  1.00  0.00     0.004 C 
ENDBRANCH  14  15
ENDBRANCH  13  14
ENDBRANCH  12  13
ENDBRANCH  11  12
ENDBRANCH  10  11
ENDBRANCH   1  10
TORSDOF 12
ENDMDL
MODEL 2
REMARK VINA RESULT:    -3.241      1.542      2.737
REMARK INTER + INTRA:          -7.300
REMARK INTER:                  -5.648
REMARK INTRA:                  -1.652
REMARK UNBOUND:                -1.786
REMARK SMILES CCCCCCCCCCCCCC(=O)[O-]
REMARK SMILES IDX 8 1 9 2 10 3 11 4 12 5 13 6 14 7 15 8 16 9 7 10 6 11 5 12
REMARK SMILES IDX 4 13 3 14 2 15 1 16
REMARK H PARENT
REMARK Flexibility Score: inf
ROOT
ATOM      1  C   UNL     1      43.885  30.142  87.808  1.00  0.00     0.000 C 
ENDROOT
BRANCH   1   2
ATOM      2  C   UNL     1      42.980  31.298  88.259  1.00  0.00     0.000 C 
BRANCH   2   3
ATOM      3  C   UNL     1      41.640  31.271  87.507  1.00  0.00     0.000 C 
BRANCH   3   4
ATOM      4  C   UNL     1      40.555  30.480  88.256  1.00  0.00     0.000 C 
BRANCH   4   5
ATOM      5  C   UNL     1      40.377  29.055  87.708  1.00  0.00     0.006 C 
BRANCH   5   6
ATOM      6  C   UNL     1      39.445  28.237  88.606  1.00  0.00     0.053 C 
BRANCH   6   7
ATOM      7  C   UNL     1      38.125  28.023  87.935  1.00  0.00     0.041 C 
ATOM      8  O   UNL     1      37.893  28.542  86.812  1.00  0.00    -0.550 OA
ATOM      9  O   UNL     1      37.168  27.209  88.528  1.00  0.00    -0.550 OA
ENDBRANCH   6   7
ENDBRANCH   5   6
ENDBRANCH   4   5
ENDBRANCH   3   4
ENDBRANCH   2   3
ENDBRANCH   1   2
BRANCH   1  10
ATOM     10  C   UNL     1      45.253  30.154  88.508  1.00  0.00     0.000 C 
BRANCH  10  11
ATOM     11  C   UNL     1      45.510  31.460  89.282  1.00  0.00    -0.000 C 
BRANCH  11  12
ATOM     12  C   UNL     1      45.902  31.209  90.747  1.00  0.00    -0.000 C 
BRANCH  12  13
ATOM     13  C   UNL     1      44.712  31.354  91.711  1.00  0.00    -0.000 C 
BRANCH  13  14
ATOM     14  C   UNL     1      44.099  29.988  92.087  1.00  0.00    -0.000 C 
BRANCH  14  15
ATOM     15  C   UNL     1      42.755  29.705  91.394  1.00  0.00    -0.003 C 
ATOM     16  C   UNL     1      42.648  28.282  90.851  1.00  0.00     0.004 C 
ENDBRANCH  14  15
ENDBRANCH  13  14
ENDBRANCH  12  13
ENDBRANCH  11  12
ENDBRANCH  10  11
ENDBRANCH   1  10
TORSDOF 12
ENDMDL
MODEL 3
REMARK VINA RESULT:    -3.226      1.173      2.721
REMARK INTER + INTRA:          -7.275
REMARK INTER:                  -5.394
REMARK INTRA:                  -1.880
REMARK UNBOUND:                -1.786
REMARK SMILES CCCCCCCCCCCCCC(=O)[O-]
REMARK SMILES IDX 8 1 9 2 10 3 11 4 12 5 13 6 14 7 15 8 16 9 7 10 6 11 5 12
REMARK SMILES IDX 4 13 3 14 2 15 1 16
REMARK H PARENT
REMARK Flexibility Score: inf
ROOT
ATOM      1  C   UNL     1      45.356  30.817  88.253  1.00  0.00     0.000 C 
ENDROOT
BRANCH   1   2
ATOM      2  C   UNL     1      43.958  30.211  88.061  1.00  0.00     0.000 C 
BRANCH   2   3
ATOM      3  C   UNL     1      42.869  31.280  88.234  1.00  0.00     0.000 C 
BRANCH   3   4
ATOM      4  C   UNL     1      41.640  31.025  87.346  1.00  0.00     0.000 C 
BRANCH   4   5
ATOM      5  C   UNL     1      40.336  30.933  88.153  1.00  0.00     0.006 C 
BRANCH   5   6
ATOM      6  C   UNL     1      40.320  29.675  89.026  1.00  0.00     0.053 C 
BRANCH   6   7
ATOM      7  C   UNL     1      40.403  28.446  88.176  1.00  0.00     0.041 C 
ATOM      8  O   UNL     1      41.262  27.560  88.425  1.00  0.00    -0.550 OA
ATOM      9  O   UNL     1      39.499  28.257  87.139  1.00  0.00    -0.550 OA
ENDBRANCH   6   7
ENDBRANCH   5   6
ENDBRANCH   4   5
ENDBRANCH   3   4
ENDBRANCH   2   3
ENDBRANCH   1   2
BRANCH   1  10
ATOM     10  C   UNL     1      46.165  30.104  89.347  1.00  0.00     0.000 C 
BRANCH  10  11
ATOM     11  C   UNL     1      46.456  31.013  90.555  1.00  0.00    -0.000 C 
BRANCH  11  12
ATOM     12  C   UNL     1      45.176  31.449  91.286  1.00  0.00    -0.000 C 
BRANCH  12  13
ATOM     13  C   UNL     1      44.555  30.314  92.119  1.00  0.00    -0.000 C 
BRANCH  13  14
ATOM     14  C   UNL     1      43.103  30.007  91.693  1.00  0.00    -0.000 C 
BRANCH  14  15
ATOM     15  C   UNL     1      42.832  28.510  91.469  1.00  0.00    -0.003 C 
ATOM     16  C   UNL     1      44.084  27.726  91.083  1.00  0.00     0.004 C 
ENDBRANCH  14  15
ENDBRANCH  13  14
ENDBRANCH  12  13
ENDBRANCH  11  12
ENDBRANCH  10  11
ENDBRANCH   1  10
TORSDOF 12
ENDMDL
MODEL 4
REMARK VINA RESULT:    -3.165      2.614      5.887
REMARK INTER + INTRA:          -7.171
REMARK INTER:                  -5.456
REMARK INTRA:                  -1.715
REMARK UNBOUND:                -1.786
REMARK SMILES CCCCCCCCCCCCCC(=O)[O-]
REMARK SMILES IDX 8 1 9 2 10 3 11 4 12 5 13 6 14 7 15 8 16 9 7 10 6 11 5 12
REMARK SMILES IDX 4 13 3 14 2 15 1 16
REMARK H PARENT
REMARK Flexibility Score: inf
ROOT
ATOM      1  C   UNL     1      43.060  29.749  86.771  1.00  0.00     0.000 C 
ENDROOT
BRANCH   1   2
ATOM      2  C   UNL     1      43.565  29.244  88.131  1.00  0.00     0.000 C 
BRANCH   2   3
ATOM      3  C   UNL     1      45.100  29.262  88.187  1.00  0.00     0.000 C 
BRANCH   3   4
ATOM      4  C   UNL     1      45.663  30.638  88.579  1.00  0.00     0.000 C 
BRANCH   4   5
ATOM      5  C   UNL     1      44.765  31.383  89.579  1.00  0.00     0.006 C 
BRANCH   5   6
ATOM      6  C   UNL     1      45.394  31.394  90.975  1.00  0.00     0.053 C 
BRANCH   6   7
ATOM      7  C   UNL     1      44.388  30.989  92.007  1.00  0.00     0.041 C 
ATOM      8  O   UNL     1      44.212  31.696  93.034  1.00  0.00    -0.550 OA
ATOM      9  O   UNL     1      43.610  29.856  91.810  1.00  0.00    -0.550 OA
ENDBRANCH   6   7
ENDBRANCH   5   6
ENDBRANCH   4   5
ENDBRANCH   3   4
ENDBRANCH   2   3
ENDBRANCH   1   2
BRANCH   1  10
ATOM     10  C   UNL     1      41.894  30.740  86.903  1.00  0.00     0.000 C 
BRANCH  10  11
ATOM     11  C   UNL     1      41.336  30.808  88.336  1.00  0.00    -0.000 C 
BRANCH  11  12
ATOM     12  C   UNL     1      39.801  30.735  88.376  1.00  0.00    -0.000 C 
BRANCH  12  13
ATOM     13  C   UNL     1      39.262  29.373  87.907  1.00  0.00    -0.000 C 
BRANCH  13  14
ATOM     14  C   UNL     1      39.947  28.195  88.633  1.00  0.00    -0.000 C 
BRANCH  14  15
ATOM     15  C   UNL     1      40.481  27.113  87.679  1.00  0.00    -0.003 C 
ATOM     16  C   UNL     1      40.197  27.416  86.210  1.00  0.00     0.004 C 
ENDBRANCH  14  15
ENDBRANCH  13  14
ENDBRANCH  12  13
ENDBRANCH  11  12
ENDBRANCH  10  11
ENDBRANCH   1  10
TORSDOF 12
ENDMDL
MODEL 5
REMARK VINA RESULT:    -3.163      2.921      5.359
REMARK INTER + INTRA:          -7.169
REMARK INTER:                  -5.326
REMARK INTRA:                  -1.843
REMARK UNBOUND:                -1.786
REMARK SMILES CCCCCCCCCCCCCC(=O)[O-]
REMARK SMILES IDX 8 1 9 2 10 3 11 4 12 5 13 6 14 7 15 8 16 9 7 10 6 11 5 12
REMARK SMILES IDX 4 13 3 14 2 15 1 16
REMARK H PARENT
REMARK Flexibility Score: inf
ROOT
ATOM      1  C   UNL     1      44.019  27.815  91.592  1.00  0.00     0.000 C 
ENDROOT
BRANCH   1   2
ATOM      2  C   UNL     1      43.637  28.799  92.708  1.00  0.00     0.000 C 
BRANCH   2   3
ATOM      3  C   UNL     1      43.670  30.247  92.197  1.00  0.00     0.000 C 
BRANCH   3   4
ATOM      4  C   UNL     1      44.895  30.538  91.315  1.00  0.00     0.000 C 
BRANCH   4   5
ATOM      5  C   UNL     1      44.520  31.202  89.981  1.00  0.00     0.006 C 
BRANCH   5   6
ATOM      6  C   UNL     1      45.051  30.390  88.797  1.00  0.00     0.053 C 
BRANCH   6   7
ATOM      7  C   UNL     1      46.295  31.014  88.248  1.00  0.00     0.041 C 
ATOM      8  O   UNL     1      46.759  30.636  87.140  1.00  0.00    -0.550 OA
ATOM      9  O   UNL     1      46.915  32.049  88.936  1.00  0.00    -0.550 OA
ENDBRANCH   6   7
ENDBRANCH   5   6
ENDBRANCH   4   5
ENDBRANCH   3   4
ENDBRANCH   2   3
ENDBRANCH   1   2
BRANCH   1  10
ATOM     10  C   UNL     1      42.793  27.188  90.910  1.00  0.00     0.000 C 
BRANCH  10  11
ATOM     11  C   UNL     1      42.353  27.965  89.656  1.00  0.00    -0.000 C 
BRANCH  11  12
ATOM     12  C   UNL     1      40.908  28.480  89.758  1.00  0.00    -0.000 C 
BRANCH  12  13
ATOM     13  C   UNL     1      40.825  30.016  89.737  1.00  0.00    -0.000 C 
BRANCH  13  14
ATOM     14  C   UNL     1      40.324  30.553  88.379  1.00  0.00    -0.000 C 
BRANCH  14  15
ATOM     15  C   UNL     1      41.432  31.191  87.524  1.00  0.00    -0.003 C 
ATOM     16  C   UNL     1      42.119  30.194  86.593  1.00  0.00     0.004 C 
ENDBRANCH  14  15
ENDBRANCH  13  14
ENDBRANCH  12  13
ENDBRANCH  11  12
ENDBRANCH  10  11
ENDBRANCH   1  10
TORSDOF 12
ENDMDL
MODEL 6
REMARK VINA RESULT:    -3.147      1.674      2.980
REMARK INTER + INTRA:          -7.141
REMARK INTER:                  -5.225
REMARK INTRA:                  -1.916
REMARK UNBOUND:                -1.786
REMARK SMILES CCCCCCCCCCCCCC(=O)[O-]
REMARK SMILES IDX 8 1 9 2 10 3 11 4 12 5 13 6 14 7 15 8 16 9 7 10 6 11 5 12
REMARK SMILES IDX 4 13 3 14 2 15 1 16
REMARK H PARENT
REMARK Flexibility Score: inf
ROOT
ATOM      1  C   UNL     1      40.231  30.902  88.249  1.00  0.00     0.000 C 
ENDROOT
BRANCH   1   2
ATOM      2  C   UNL     1      40.479  29.983  89.454  1.00  0.00     0.000 C 
BRANCH   2   3
ATOM      3  C   UNL     1      40.136  28.525  89.112  1.00  0.00     0.000 C 
BRANCH   3   4
ATOM      4  C   UNL     1      41.385  27.645  88.947  1.00  0.00     0.000 C 
BRANCH   4   5
ATOM      5  C   UNL     1      41.730  27.376  87.474  1.00  0.00     0.006 C 
BRANCH   5   6
ATOM      6  C   UNL     1      40.475  27.431  86.599  1.00  0.00     0.053 C 
BRANCH   6   7
ATOM      7  C   UNL     1      40.811  27.929  85.229  1.00  0.00     0.041 C 
ATOM      8  O   UNL     1      41.874  28.575  85.032  1.00  0.00    -0.550 OA
ATOM      9  O   UNL     1      39.976  27.637  84.159  1.00  0.00    -0.550 OA
ENDBRANCH   6   7
ENDBRANCH   5   6
ENDBRANCH   4   5
ENDBRANCH   3   4
ENDBRANCH   2   3
ENDBRANCH   1   2
BRANCH   1  10
ATOM     10  C   UNL     1      41.487  31.100  87.387  1.00  0.00     0.000 C 
BRANCH  10  11
ATOM     11  C   UNL     1      42.752  31.335  88.231  1.00  0.00    -0.000 C 
BRANCH  11  12
ATOM     12  C   UNL     1      43.866  30.322  87.919  1.00  0.00    -0.000 C 
BRANCH  12  13
ATOM     13  C   UNL     1      44.509  29.740  89.190  1.00  0.00    -0.000 C 
BRANCH  13  14
ATOM     14  C   UNL     1      43.970  30.408  90.473  1.00  0.00    -0.000 C 
BRANCH  14  15
ATOM     15  C   UNL     1      44.986  31.342  91.152  1.00  0.00    -0.003 C 
ATOM     16  C   UNL     1      46.347  31.354  90.458  1.00  0.00     0.004 C 
ENDBRANCH  14  15
ENDBRANCH  13  14
ENDBRANCH  12  13
ENDBRANCH  11  12
ENDBRANCH  10  11
ENDBRANCH   1  10
TORSDOF 12
ENDMDL
MODEL 7
REMARK VINA RESULT:    -3.119      1.478      2.103
REMARK INTER + INTRA:          -7.093
REMARK INTER:                  -5.666
REMARK INTRA:                  -1.427
REMARK UNBOUND:                -1.786
REMARK SMILES CCCCCCCCCCCCCC(=O)[O-]
REMARK SMILES IDX 8 1 9 2 10 3 11 4 12 5 13 6 14 7 15 8 16 9 7 10 6 11 5 12
REMARK SMILES IDX 4 13 3 14 2 15 1 16
REMARK H PARENT
REMARK Flexibility Score: inf
ROOT
ATOM      1  C   UNL     1      43.609  30.185  87.741  1.00  0.00     0.000 C 
ENDROOT
BRANCH   1   2
ATOM      2  C   UNL     1      42.274  30.274  86.988  1.00  0.00     0.000 C 
BRANCH   2   3
ATOM      3  C   UNL     1      41.400  31.405  87.552  1.00  0.00     0.000 C 
BRANCH   3   4
ATOM      4  C   UNL     1      40.095  30.890  88.181  1.00  0.00     0.000 C 
BRANCH   4   5
ATOM      5  C   UNL     1      40.075  29.361  88.336  1.00  0.00     0.006 C 
BRANCH   5   6
ATOM      6  C   UNL     1      40.373  28.954  89.781  1.00  0.00     0.053 C 
BRANCH   6   7
ATOM      7  C   UNL     1      41.270  27.756  89.814  1.00  0.00     0.041 C 
ATOM      8  O   UNL     1      41.729  27.278  88.743  1.00  0.00    -0.550 OA
ATOM      9  O   UNL     1      41.640  27.198  91.031  1.00  0.00    -0.550 OA
ENDBRANCH   6   7
ENDBRANCH   5   6
ENDBRANCH   4   5
ENDBRANCH   3   4
ENDBRANCH   2   3
ENDBRANCH   1   2
BRANCH   1  10
ATOM     10  C   UNL     1      43.654  31.095  88.978  1.00  0.00     0.000 C 
BRANCH  10  11
ATOM     11  C   UNL     1      43.827  30.305  90.288  1.00  0.00    -0.000 C 
BRANCH  11  12
ATOM     12  C   UNL     1      45.275  30.331  90.804  1.00  0.00    -0.000 C 
BRANCH  12  13
ATOM     13  C   UNL     1      46.035  31.596  90.372  1.00  0.00    -0.000 C 
BRANCH  13  14
ATOM     14  C   UNL     1      47.307  31.262  89.563  1.00  0.00    -0.000 C 
BRANCH  14  15
ATOM     15  C   UNL     1      47.169  31.542  88.057  1.00  0.00    -0.003 C 
ATOM     16  C   UNL     1      48.220  32.518  87.530  1.00  0.00     0.004 C 
ENDBRANCH  14  15
ENDBRANCH  13  14
ENDBRANCH  12  13
ENDBRANCH  11  12
ENDBRANCH  10  11
ENDBRANCH   1  10
TORSDOF 12
ENDMDL
MODEL 8
REMARK VINA RESULT:    -3.115      2.814      5.375
REMARK INTER + INTRA:          -7.087
REMARK INTER:                  -5.030
REMARK INTRA:                  -2.057
REMARK UNBOUND:                -1.786
REMARK SMILES CCCCCCCCCCCCCC(=O)[O-]
REMARK SMILES IDX 8 1 9 2 10 3 11 4 12 5 13 6 14 7 15 8 16 9 7 10 6 11 5 12
REMARK SMILES IDX 4 13 3 14 2 15 1 16
REMARK H PARENT
REMARK Flexibility Score: inf
ROOT
ATOM      1  C   UNL     1      44.642  29.468  92.329  1.00  0.00     0.000 C 
ENDROOT
BRANCH   1   2
ATOM      2  C   UNL     1      44.374  30.971  92.495  1.00  0.00     0.000 C 
BRANCH   2   3
ATOM      3  C   UNL     1      44.944  31.764  91.310  1.00  0.00     0.000 C 
BRANCH   3   4
ATOM      4  C   UNL     1      46.052  31.003  90.563  1.00  0.00     0.000 C 
BRANCH   4   5
ATOM      5  C   UNL     1      46.450  31.680  89.244  1.00  0.00     0.006 C 
BRANCH   5   6
ATOM      6  C   UNL     1      46.449  30.674  88.090  1.00  0.00     0.053 C 
BRANCH   6   7
ATOM      7  C   UNL     1      47.376  29.537  88.384  1.00  0.00     0.041 C 
ATOM      8  O   UNL     1      46.940  28.356  88.420  1.00  0.00    -0.550 OA
ATOM      9  O   UNL     1      48.731  29.776  88.572  1.00  0.00    -0.550 OA
ENDBRANCH   6   7
ENDBRANCH   5   6
ENDBRANCH   4   5
ENDBRANCH   3   4
ENDBRANCH   2   3
ENDBRANCH   1   2
BRANCH   1  10
ATOM     10  C   UNL     1      43.379  28.616  92.529  1.00  0.00     0.000 C 
BRANCH  10  11
ATOM     11  C   UNL     1      42.722  28.210  91.198  1.00  0.00    -0.000 C 
BRANCH  11  12
ATOM     12  C   UNL     1      43.745  28.042  90.063  1.00  0.00    -0.000 C 
BRANCH  12  13
ATOM     13  C   UNL     1      43.330  28.780  88.778  1.00  0.00    -0.000 C 
BRANCH  13  14
ATOM     14  C   UNL     1      42.429  29.998  89.073  1.00  0.00    -0.000 C 
BRANCH  14  15
ATOM     15  C   UNL     1      42.799  31.249  88.257  1.00  0.00    -0.003 C 
ATOM     16  C   UNL     1      41.787  31.569  87.159  1.00  0.00     0.004 C 
ENDBRANCH  14  15
ENDBRANCH  13  14
ENDBRANCH  12  13
ENDBRANCH  11  12
ENDBRANCH  10  11
ENDBRANCH   1  10
TORSDOF 12
ENDMDL
MODEL 9
REMARK VINA RESULT:    -3.109      3.418      6.320
REMARK INTER + INTRA:          -7.076
REMARK INTER:                  -5.570
REMARK INTRA:                  -1.506
REMARK UNBOUND:                -1.786
REMARK SMILES CCCCCCCCCCCCCC(=O)[O-]
REMARK SMILES IDX 8 1 9 2 10 3 11 4 12 5 13 6 14 7 15 8 16 9 7 10 6 11 5 12
REMARK SMILES IDX 4 13 3 14 2 15 1 16
REMARK H PARENT
REMARK Flexibility Score: inf
ROOT
ATOM      1  C   UNL     1      43.817  30.192  87.889  1.00  0.00     0.000 C 
ENDROOT
BRANCH   1   2
ATOM      2  C   UNL     1      43.838  31.255  88.996  1.00  0.00     0.000 C 
BRANCH   2   3
ATOM      3  C   UNL     1      43.905  30.601  90.384  1.00  0.00     0.000 C 
BRANCH   3   4
ATOM      4  C   UNL     1      44.652  29.257  90.372  1.00  0.00     0.000 C 
BRANCH   4   5
ATOM      5  C   UNL     1      46.071  29.363  90.950  1.00  0.00     0.006 C 
BRANCH   5   6
ATOM      6  C   UNL     1      47.107  29.520  89.833  1.00  0.00     0.053 C 
BRANCH   6   7
ATOM      7  C   UNL     1      47.733  30.878  89.886  1.00  0.00     0.041 C 
ATOM      8  O   UNL     1      48.742  31.083  90.610  1.00  0.00    -0.550 OA
ATOM      9  O   UNL     1      47.233  31.905  89.096  1.00  0.00    -0.550 OA
ENDBRANCH   6   7
ENDBRANCH   5   6
ENDBRANCH   4   5
ENDBRANCH   3   4
ENDBRANCH   2   3
ENDBRANCH   1   2
BRANCH   1  10
ATOM     10  C   UNL     1      42.513  30.208  87.077  1.00  0.00     0.000 C 
BRANCH  10  11
ATOM     11  C   UNL     1      41.527  31.286  87.564  1.00  0.00    -0.000 C 
BRANCH  11  12
ATOM     12  C   UNL     1      40.225  30.687  88.118  1.00  0.00    -0.000 C 
BRANCH  12  13
ATOM     13  C   UNL     1      40.380  30.160  89.555  1.00  0.00    -0.000 C 
BRANCH  13  14
ATOM     14  C   UNL     1      40.459  28.619  89.605  1.00  0.00    -0.000 C 
BRANCH  14  15
ATOM     15  C   UNL     1      39.632  27.926  88.509  1.00  0.00    -0.003 C 
ATOM     16  C   UNL     1      38.466  27.110  89.064  1.00  0.00     0.004 C 
ENDBRANCH  14  15
ENDBRANCH  13  14
ENDBRANCH  12  13
ENDBRANCH  11  12
ENDBRANCH  10  11
ENDBRANCH   1  10
TORSDOF 12
ENDMDL
