MODEL 1
REMARK VINA RESULT:    -4.798      0.000      0.000
REMARK INTER + INTRA:          -5.270
REMARK INTER:                  -5.079
REMARK INTRA:                  -0.191
REMARK UNBOUND:                -0.191
REMARK SMILES CC1=CC[C@H](C(C)C)C=C1
REMARK SMILES IDX 1 1 2 2 3 3 4 4 5 5 9 6 10 7 6 8 7 9 8 10
REMARK H PARENT
REMARK Flexibility Score: inf
ROOT
ATOM      1  C   UNL     1     144.774 140.100 165.023  1.00  0.00     0.044 C 
ATOM      2  C   UNL     1     144.447 140.568 163.637  1.00  0.00    -0.055 C 
ATOM      3  C   UNL     1     145.154 140.122 162.586  1.00  0.00    -0.023 C 
ATOM      4  C   UNL     1     144.878 140.643 161.200  1.00  0.00     0.035 C 
ATOM      5  C   UNL     1     143.365 140.895 161.001  1.00  0.00     0.018 C 
ATOM      6  C   UNL     1     142.799 141.659 162.182  1.00  0.00    -0.023 C 
ATOM      7  C   UNL     1     143.281 141.457 163.414  1.00  0.00    -0.001 C 
ENDROOT
BRANCH   5   8
ATOM      8  C   UNL     1     143.055 141.556 159.626  1.00  0.00    -0.010 C 
ATOM      9  C   UNL     1     144.312 142.028 158.872  1.00  0.00     0.008 C 
ATOM     10  C   UNL     1     142.062 142.719 159.775  1.00  0.00     0.008 C 
ENDBRANCH   5   8
TORSDOF 1
ENDMDL
MODEL 2
REMARK VINA RESULT:    -4.785      5.861      6.539
REMARK INTER + INTRA:          -5.256
REMARK INTER:                  -5.065
REMARK INTRA:                  -0.191
REMARK UNBOUND:                -0.191
REMARK SMILES CC1=CC[C@H](C(C)C)C=C1
REMARK SMILES IDX 1 1 2 2 3 3 4 4 5 5 9 6 10 7 6 8 7 9 8 10
REMARK H PARENT
REMARK Flexibility Score: inf
ROOT
ATOM      1  C   UNL     1     150.625 144.719 164.993  1.00  0.00     0.044 C 
ATOM      2  C   UNL     1     150.172 144.382 163.604  1.00  0.00    -0.055 C 
ATOM      3  C   UNL     1     150.712 145.006 162.545  1.00  0.00    -0.023 C 
ATOM      4  C   UNL     1     150.211 144.725 161.153  1.00  0.00     0.035 C 
ATOM      5  C   UNL     1     149.831 143.233 160.998  1.00  0.00     0.018 C 
ATOM      6  C   UNL     1     148.983 142.783 162.172  1.00  0.00    -0.023 C 
ATOM      7  C   UNL     1     149.189 143.292 163.392  1.00  0.00    -0.001 C 
ENDROOT
BRANCH   5   8
ATOM      8  C   UNL     1     149.188 142.931 159.613  1.00  0.00    -0.010 C 
ATOM      9  C   UNL     1     148.796 144.195 158.827  1.00  0.00     0.008 C 
ATOM     10  C   UNL     1     147.975 141.999 159.751  1.00  0.00     0.008 C 
ENDBRANCH   5   8
TORSDOF 1
ENDMDL
MODEL 3
REMARK VINA RESULT:    -4.783      8.584      9.335
REMARK INTER + INTRA:          -5.254
REMARK INTER:                  -5.063
REMARK INTRA:                  -0.191
REMARK UNBOUND:                -0.191
REMARK SMILES CC1=CC[C@H](C(C)C)C=C1
REMARK SMILES IDX 1 1 2 2 3 3 4 4 5 5 9 6 10 7 6 8 7 9 8 10
REMARK H PARENT
REMARK Flexibility Score: inf
ROOT
ATOM      1  C   UNL     1     146.019 150.641 164.954  1.00  0.00     0.044 C 
ATOM      2  C   UNL     1     146.354 150.176 163.568  1.00  0.00    -0.055 C 
ATOM      3  C   UNL     1     145.662 150.635 162.513  1.00  0.00    -0.023 C 
ATOM      4  C   UNL     1     145.945 150.117 161.128  1.00  0.00     0.035 C 
ATOM      5  C   UNL     1     147.457 149.849 160.941  1.00  0.00     0.018 C 
ATOM      6  C   UNL     1     148.002 149.072 162.124  1.00  0.00    -0.023 C 
ATOM      7  C   UNL     1     147.511 149.274 163.352  1.00  0.00    -0.001 C 
ENDROOT
BRANCH   5   8
ATOM      8  C   UNL     1     147.772 149.190 159.565  1.00  0.00    -0.010 C 
ATOM      9  C   UNL     1     146.516 148.746 158.794  1.00  0.00     0.008 C 
ATOM     10  C   UNL     1     148.742 148.010 159.719  1.00  0.00     0.008 C 
ENDBRANCH   5   8
TORSDOF 1
ENDMDL
MODEL 4
REMARK VINA RESULT:    -4.773      6.008      6.654
REMARK INTER + INTRA:          -5.243
REMARK INTER:                  -5.052
REMARK INTRA:                  -0.191
REMARK UNBOUND:                -0.191
REMARK SMILES CC1=CC[C@H](C(C)C)C=C1
REMARK SMILES IDX 1 1 2 2 3 3 4 4 5 5 9 6 10 7 6 8 7 9 8 10
REMARK H PARENT
REMARK Flexibility Score: inf
ROOT
ATOM      1  C   UNL     1     140.134 145.998 164.975  1.00  0.00     0.044 C 
ATOM      2  C   UNL     1     140.599 146.350 163.593  1.00  0.00    -0.055 C 
ATOM      3  C   UNL     1     140.100 145.707 162.526  1.00  0.00    -0.023 C 
ATOM      4  C   UNL     1     140.615 146.005 161.142  1.00  0.00     0.035 C 
ATOM      5  C   UNL     1     140.945 147.508 160.993  1.00  0.00     0.018 C 
ATOM      6  C   UNL     1     141.756 147.989 162.181  1.00  0.00    -0.023 C 
ATOM      7  C   UNL     1     141.546 147.473 163.398  1.00  0.00    -0.001 C 
ENDROOT
BRANCH   5   8
ATOM      8  C   UNL     1     141.601 147.832 159.618  1.00  0.00    -0.010 C 
ATOM      9  C   UNL     1     141.978 146.580 158.806  1.00  0.00     0.008 C 
ATOM     10  C   UNL     1     142.828 148.742 159.785  1.00  0.00     0.008 C 
ENDBRANCH   5   8
TORSDOF 1
ENDMDL
MODEL 5
REMARK VINA RESULT:    -4.761      2.084      4.555
REMARK INTER + INTRA:          -5.230
REMARK INTER:                  -5.039
REMARK INTRA:                  -0.191
REMARK UNBOUND:                -0.191
REMARK SMILES CC1=CC[C@H](C(C)C)C=C1
REMARK SMILES IDX 1 1 2 2 3 3 4 4 5 5 9 6 10 7 6 8 7 9 8 10
REMARK H PARENT
REMARK Flexibility Score: inf
ROOT
ATOM      1  C   UNL     1     141.761 145.620 163.415  1.00  0.00     0.044 C 
ATOM      2  C   UNL     1     142.487 144.317 163.576  1.00  0.00    -0.055 C 
ATOM      3  C   UNL     1     142.807 143.866 164.799  1.00  0.00    -0.023 C 
ATOM      4  C   UNL     1     143.599 142.595 164.964  1.00  0.00     0.035 C 
ATOM      5  C   UNL     1     143.198 141.557 163.890  1.00  0.00     0.018 C 
ATOM      6  C   UNL     1     143.157 142.206 162.520  1.00  0.00    -0.023 C 
ATOM      7  C   UNL     1     142.774 143.481 162.386  1.00  0.00    -0.001 C 
ENDROOT
BRANCH   5   8
ATOM      8  C   UNL     1     144.086 140.279 163.948  1.00  0.00    -0.010 C 
ATOM      9  C   UNL     1     144.973 140.202 165.204  1.00  0.00     0.008 C 
ATOM     10  C   UNL     1     144.947 140.139 162.684  1.00  0.00     0.008 C 
ENDBRANCH   5   8
TORSDOF 1
ENDMDL
MODEL 6
REMARK VINA RESULT:    -4.757      8.193      8.722
REMARK INTER + INTRA:          -5.226
REMARK INTER:                  -5.035
REMARK INTRA:                  -0.191
REMARK UNBOUND:                -0.191
REMARK SMILES CC1=CC[C@H](C(C)C)C=C1
REMARK SMILES IDX 1 1 2 2 3 3 4 4 5 5 9 6 10 7 6 8 7 9 8 10
REMARK H PARENT
REMARK Flexibility Score: inf
ROOT
ATOM      1  C   UNL     1     148.973 145.129 163.399  1.00  0.00     0.044 C 
ATOM      2  C   UNL     1     148.248 146.431 163.568  1.00  0.00    -0.055 C 
ATOM      3  C   UNL     1     147.925 146.873 164.793  1.00  0.00    -0.023 C 
ATOM      4  C   UNL     1     147.133 148.143 164.965  1.00  0.00     0.035 C 
ATOM      5  C   UNL     1     147.538 149.189 163.900  1.00  0.00     0.018 C 
ATOM      6  C   UNL     1     147.581 148.550 162.525  1.00  0.00    -0.023 C 
ATOM      7  C   UNL     1     147.964 147.275 162.383  1.00  0.00    -0.001 C 
ENDROOT
BRANCH   5   8
ATOM      8  C   UNL     1     146.650 150.467 163.965  1.00  0.00    -0.010 C 
ATOM      9  C   UNL     1     145.763 150.537 165.220  1.00  0.00     0.008 C 
ATOM     10  C   UNL     1     145.788 150.614 162.701  1.00  0.00     0.008 C 
ENDBRANCH   5   8
TORSDOF 1
ENDMDL
MODEL 7
REMARK VINA RESULT:    -4.753      6.281      7.397
REMARK INTER + INTRA:          -5.223
REMARK INTER:                  -5.032
REMARK INTRA:                  -0.191
REMARK UNBOUND:                -0.191
REMARK SMILES CC1=CC[C@H](C(C)C)C=C1
REMARK SMILES IDX 1 1 2 2 3 3 4 4 5 5 9 6 10 7 6 8 7 9 8 10
REMARK H PARENT
REMARK Flexibility Score: inf
ROOT
ATOM      1  C   UNL     1     145.577 148.977 163.469  1.00  0.00     0.044 C 
ATOM      2  C   UNL     1     144.281 148.236 163.614  1.00  0.00    -0.055 C 
ATOM      3  C   UNL     1     143.835 147.883 164.830  1.00  0.00    -0.023 C 
ATOM      4  C   UNL     1     142.572 147.076 164.978  1.00  0.00     0.035 C 
ATOM      5  C   UNL     1     141.528 147.492 163.915  1.00  0.00     0.018 C 
ATOM      6  C   UNL     1     142.175 147.571 162.546  1.00  0.00    -0.023 C 
ATOM      7  C   UNL     1     143.446 147.969 162.419  1.00  0.00    -0.001 C 
ENDROOT
BRANCH   5   8
ATOM      8  C   UNL     1     140.259 146.591 163.954  1.00  0.00    -0.010 C 
ATOM      9  C   UNL     1     140.157 145.725 165.223  1.00  0.00     0.008 C 
ATOM     10  C   UNL     1     140.163 145.706 162.702  1.00  0.00     0.008 C 
ENDBRANCH   5   8
TORSDOF 1
ENDMDL
MODEL 8
REMARK VINA RESULT:    -4.723      5.124      6.420
REMARK INTER + INTRA:          -5.191
REMARK INTER:                  -5.002
REMARK INTRA:                  -0.188
REMARK UNBOUND:                -0.191
REMARK SMILES CC1=CC[C@H](C(C)C)C=C1
REMARK SMILES IDX 1 1 2 2 3 3 4 4 5 5 9 6 10 7 6 8 7 9 8 10
REMARK H PARENT
REMARK Flexibility Score: inf
ROOT
ATOM      1  C   UNL     1     145.187 141.640 163.442  1.00  0.00     0.044 C 
ATOM      2  C   UNL     1     146.453 142.437 163.556  1.00  0.00    -0.055 C 
ATOM      3  C   UNL     1     146.904 142.824 164.760  1.00  0.00    -0.023 C 
ATOM      4  C   UNL     1     148.134 143.685 164.877  1.00  0.00     0.035 C 
ATOM      5  C   UNL     1     149.176 143.300 163.802  1.00  0.00     0.018 C 
ATOM      6  C   UNL     1     148.511 143.176 162.444  1.00  0.00    -0.023 C 
ATOM      7  C   UNL     1     147.256 142.723 162.344  1.00  0.00    -0.001 C 
ENDROOT
BRANCH   5   8
ATOM      8  C   UNL     1     150.407 144.254 163.808  1.00  0.00    -0.010 C 
ATOM      9  C   UNL     1     150.648 144.940 165.164  1.00  0.00     0.008 C 
ATOM     10  C   UNL     1     150.303 145.308 162.695  1.00  0.00     0.008 C 
ENDBRANCH   5   8
TORSDOF 1
ENDMDL
MODEL 9
REMARK VINA RESULT:    -4.534      0.774      2.009
REMARK INTER + INTRA:          -4.990
REMARK INTER:                  -4.800
REMARK INTRA:                  -0.190
REMARK UNBOUND:                -0.191
REMARK SMILES CC1=CC[C@H](C(C)C)C=C1
REMARK SMILES IDX 1 1 2 2 3 3 4 4 5 5 9 6 10 7 6 8 7 9 8 10
REMARK H PARENT
REMARK Flexibility Score: inf
ROOT
ATOM      1  C   UNL     1     144.915 140.075 165.202  1.00  0.00     0.044 C 
ATOM      2  C   UNL     1     144.401 140.635 163.909  1.00  0.00    -0.055 C 
ATOM      3  C   UNL     1     143.537 141.662 163.911  1.00  0.00    -0.023 C 
ATOM      4  C   UNL     1     142.961 142.182 162.620  1.00  0.00     0.035 C 
ATOM      5  C   UNL     1     144.014 142.123 161.488  1.00  0.00     0.018 C 
ATOM      6  C   UNL     1     144.699 140.770 161.477  1.00  0.00    -0.023 C 
ATOM      7  C   UNL     1     144.917 140.112 162.621  1.00  0.00    -0.001 C 
ENDROOT
BRANCH   5   8
ATOM      8  C   UNL     1     143.417 142.531 160.109  1.00  0.00    -0.010 C 
ATOM      9  C   UNL     1     142.130 143.368 160.218  1.00  0.00     0.008 C 
ATOM     10  C   UNL     1     143.174 141.302 159.220  1.00  0.00     0.008 C 
ENDBRANCH   5   8
TORSDOF 1
ENDMDL
