MODEL 1
REMARK VINA RESULT:    -7.285      0.000      0.000
REMARK INTER + INTRA:          -9.077
REMARK INTER:                  -8.775
REMARK INTRA:                  -0.301
REMARK UNBOUND:                -0.301
REMARK SMILES O=c1c(O)c(-c2ccc(O)cc2O)oc2cc(O)cc(O)c12
REMARK SMILES IDX 5 1 3 2 2 3 1 4 22 5 20 6 19 7 17 8 16 9 15 10 14 11 6 12
REMARK SMILES IDX 8 13 7 14 9 15 11 16 12 17 10 18 13 20 4 22 21 24 18 26
REMARK H PARENT 10 19 13 21 4 23 21 25 18 27
REMARK Flexibility Score: inf
ROOT
ATOM      1  C   UNL     1     -15.863  35.870  -1.735  1.00  0.00     0.184 A 
ATOM      2  C   UNL     1     -17.008  36.611  -2.071  1.00  0.00     0.208 A 
ATOM      3  C   UNL     1     -17.783  37.171  -1.044  1.00  0.00     0.238 A 
ATOM      4  O   UNL     1     -18.838  37.785  -1.350  1.00  0.00    -0.285 OA
ATOM      5  C   UNL     1     -17.393  37.000   0.306  1.00  0.00     0.111 A 
ATOM      6  C   UNL     1     -18.081  37.557   1.426  1.00  0.00     0.134 A 
ATOM      7  C   UNL     1     -17.679  37.216   2.723  1.00  0.00     0.093 A 
ATOM      8  C   UNL     1     -16.572  36.391   2.941  1.00  0.00     0.123 A 
ATOM      9  C   UNL     1     -15.858  35.891   1.855  1.00  0.00     0.094 A 
ATOM     10  C   UNL     1     -16.257  36.184   0.549  1.00  0.00     0.146 A 
ATOM     11  O   UNL     1     -15.556  35.676  -0.457  1.00  0.00    -0.451 OA
ENDROOT
BRANCH   1  12
ATOM     12  C   UNL     1     -14.986  35.273  -2.768  1.00  0.00     0.063 A 
ATOM     13  C   UNL     1     -13.601  35.514  -4.757  1.00  0.00     0.047 A 
ATOM     14  C   UNL     1     -14.450  36.070  -3.796  1.00  0.00     0.020 A 
ATOM     15  C   UNL     1     -13.267  34.156  -4.698  1.00  0.00     0.119 A 
ATOM     16  C   UNL     1     -13.783  33.358  -3.673  1.00  0.00     0.093 A 
ATOM     17  C   UNL     1     -14.637  33.908  -2.705  1.00  0.00     0.130 A 
BRANCH  15  18
ATOM     18  O   UNL     1     -12.421  33.591  -5.649  1.00  0.00    -0.508 OA
ATOM     19  H   UNL     1     -12.749  32.887  -6.299  1.00  0.00     0.293 HD
ENDBRANCH  15  18
BRANCH  17  20
ATOM     20  O   UNL     1     -15.150  33.098  -1.692  1.00  0.00    -0.507 OA
ATOM     21  H   UNL     1     -14.830  33.178  -0.733  1.00  0.00     0.293 HD
ENDBRANCH  17  20
ENDBRANCH   1  12
BRANCH   2  22
ATOM     22  O   UNL     1     -17.380  36.755  -3.411  1.00  0.00    -0.502 OA
ATOM     23  H   UNL     1     -17.324  35.991  -4.075  1.00  0.00     0.293 HD
ENDBRANCH   2  22
BRANCH   6  24
ATOM     24  O   UNL     1     -19.140  38.463   1.319  1.00  0.00    -0.507 OA
ATOM     25  H   UNL     1     -19.035  39.461   1.216  1.00  0.00     0.293 HD
ENDBRANCH   6  24
BRANCH   8  26
ATOM     26  O   UNL     1     -16.169  36.070   4.235  1.00  0.00    -0.508 OA
ATOM     27  H   UNL     1     -15.191  36.065   4.500  1.00  0.00     0.293 HD
ENDBRANCH   8  26
TORSDOF 6
ENDMDL
MODEL 2
REMARK VINA RESULT:    -7.218      6.890      9.468
REMARK INTER + INTRA:          -8.996
REMARK INTER:                  -8.514
REMARK INTRA:                  -0.482
REMARK UNBOUND:                -0.301
REMARK SMILES O=c1c(O)c(-c2ccc(O)cc2O)oc2cc(O)cc(O)c12
REMARK SMILES IDX 5 1 3 2 2 3 1 4 22 5 20 6 19 7 17 8 16 9 15 10 14 11 6 12
REMARK SMILES IDX 8 13 7 14 9 15 11 16 12 17 10 18 13 20 4 22 21 24 18 26
REMARK H PARENT 10 19 13 21 4 23 21 25 18 27
REMARK Flexibility Score: inf
ROOT
ATOM      1  C   UNL     1     -11.773  38.794  -7.044  1.00  0.00     0.184 A 
ATOM      2  C   UNL     1     -11.147  38.774  -8.302  1.00  0.00     0.208 A 
ATOM      3  C   UNL     1     -11.866  39.204  -9.427  1.00  0.00     0.238 A 
ATOM      4  O   UNL     1     -11.318  39.129 -10.558  1.00  0.00    -0.285 OA
ATOM      5  C   UNL     1     -13.196  39.667  -9.280  1.00  0.00     0.111 A 
ATOM      6  C   UNL     1     -14.005  40.163 -10.346  1.00  0.00     0.134 A 
ATOM      7  C   UNL     1     -15.349  40.474 -10.105  1.00  0.00     0.093 A 
ATOM      8  C   UNL     1     -15.895  40.370  -8.824  1.00  0.00     0.123 A 
ATOM      9  C   UNL     1     -15.097  39.943  -7.765  1.00  0.00     0.094 A 
ATOM     10  C   UNL     1     -13.763  39.591  -7.981  1.00  0.00     0.146 A 
ATOM     11  O   UNL     1     -13.041  39.177  -6.946  1.00  0.00    -0.451 OA
ENDROOT
BRANCH   1  12
ATOM     12  C   UNL     1     -11.065  38.379  -5.812  1.00  0.00     0.063 A 
ATOM     13  C   UNL     1      -9.470  38.851  -4.033  1.00  0.00     0.047 A 
ATOM     14  C   UNL     1     -10.119  39.230  -5.211  1.00  0.00     0.020 A 
ATOM     15  C   UNL     1      -9.763  37.621  -3.433  1.00  0.00     0.119 A 
ATOM     16  C   UNL     1     -10.711  36.775  -4.014  1.00  0.00     0.093 A 
ATOM     17  C   UNL     1     -11.367  37.146  -5.197  1.00  0.00     0.130 A 
BRANCH  15  18
ATOM     18  O   UNL     1      -9.123  37.234  -2.258  1.00  0.00    -0.508 OA
ATOM     19  H   UNL     1      -9.139  37.816  -1.429  1.00  0.00     0.293 HD
ENDBRANCH  15  18
BRANCH  17  20
ATOM     20  O   UNL     1     -12.306  36.287  -5.770  1.00  0.00    -0.507 OA
ATOM     21  H   UNL     1     -12.044  35.605  -6.471  1.00  0.00     0.293 HD
ENDBRANCH  17  20
ENDBRANCH   1  12
BRANCH   2  22
ATOM     22  O   UNL     1      -9.838  38.300  -8.424  1.00  0.00    -0.502 OA
ATOM     23  H   UNL     1      -9.100  38.570  -7.784  1.00  0.00     0.293 HD
ENDBRANCH   2  22
BRANCH   6  24
ATOM     24  O   UNL     1     -13.534  40.392 -11.642  1.00  0.00    -0.507 OA
ATOM     25  H   UNL     1     -12.560  40.426 -11.902  1.00  0.00     0.293 HD
ENDBRANCH   6  24
BRANCH   8  26
ATOM     26  O   UNL     1     -17.228  40.697  -8.590  1.00  0.00    -0.508 OA
ATOM     27  H   UNL     1     -17.487  41.515  -8.051  1.00  0.00     0.293 HD
ENDBRANCH   8  26
TORSDOF 6
ENDMDL
MODEL 3
REMARK VINA RESULT:    -7.156      1.950      6.848
REMARK INTER + INTRA:          -8.921
REMARK INTER:                  -8.458
REMARK INTRA:                  -0.463
REMARK UNBOUND:                -0.301
REMARK SMILES O=c1c(O)c(-c2ccc(O)cc2O)oc2cc(O)cc(O)c12
REMARK SMILES IDX 5 1 3 2 2 3 1 4 22 5 20 6 19 7 17 8 16 9 15 10 14 11 6 12
REMARK SMILES IDX 8 13 7 14 9 15 11 16 12 17 10 18 13 20 4 22 21 24 18 26
REMARK H PARENT 10 19 13 21 4 23 21 25 18 27
REMARK Flexibility Score: inf
ROOT
ATOM      1  C   UNL     1     -15.031  36.289  -0.498  1.00  0.00     0.184 A 
ATOM      2  C   UNL     1     -13.777  36.923  -0.500  1.00  0.00     0.208 A 
ATOM      3  C   UNL     1     -12.832  36.559  -1.471  1.00  0.00     0.238 A 
ATOM      4  O   UNL     1     -11.691  37.090  -1.433  1.00  0.00    -0.285 OA
ATOM      5  C   UNL     1     -13.158  35.580  -2.440  1.00  0.00     0.111 A 
ATOM      6  C   UNL     1     -12.292  35.162  -3.496  1.00  0.00     0.134 A 
ATOM      7  C   UNL     1     -12.671  34.094  -4.318  1.00  0.00     0.093 A 
ATOM      8  C   UNL     1     -13.912  33.473  -4.167  1.00  0.00     0.123 A 
ATOM      9  C   UNL     1     -14.790  33.913  -3.178  1.00  0.00     0.094 A 
ATOM     10  C   UNL     1     -14.425  34.951  -2.318  1.00  0.00     0.146 A 
ATOM     11  O   UNL     1     -15.286  35.331  -1.382  1.00  0.00    -0.451 OA
ENDROOT
BRANCH   1  12
ATOM     12  C   UNL     1     -16.084  36.641   0.482  1.00  0.00     0.063 A 
ATOM     13  C   UNL     1     -17.953  38.049   1.156  1.00  0.00     0.047 A 
ATOM     14  C   UNL     1     -16.942  37.731   0.246  1.00  0.00     0.020 A 
ATOM     15  C   UNL     1     -18.128  37.277   2.310  1.00  0.00     0.119 A 
ATOM     16  C   UNL     1     -17.290  36.184   2.548  1.00  0.00     0.093 A 
ATOM     17  C   UNL     1     -16.271  35.858   1.640  1.00  0.00     0.130 A 
BRANCH  15  18
ATOM     18  O   UNL     1     -19.134  37.584   3.224  1.00  0.00    -0.508 OA
ATOM     19  H   UNL     1     -19.711  36.862   3.639  1.00  0.00     0.293 HD
ENDBRANCH  15  18
BRANCH  17  20
ATOM     20  O   UNL     1     -15.437  34.769   1.893  1.00  0.00    -0.507 OA
ATOM     21  H   UNL     1     -14.431  34.836   1.798  1.00  0.00     0.293 HD
ENDBRANCH  17  20
ENDBRANCH   1  12
BRANCH   2  22
ATOM     22  O   UNL     1     -13.474  37.877   0.475  1.00  0.00    -0.502 OA
ATOM     23  H   UNL     1     -14.190  38.413   0.951  1.00  0.00     0.293 HD
ENDBRANCH   2  22
BRANCH   6  24
ATOM     24  O   UNL     1     -11.070  35.775  -3.791  1.00  0.00    -0.507 OA
ATOM     25  H   UNL     1     -10.925  36.435  -4.540  1.00  0.00     0.293 HD
ENDBRANCH   6  24
BRANCH   8  26
ATOM     26  O   UNL     1     -14.288  32.422  -5.000  1.00  0.00    -0.508 OA
ATOM     27  H   UNL     1     -13.599  31.832  -5.453  1.00  0.00     0.293 HD
ENDBRANCH   8  26
TORSDOF 6
ENDMDL
MODEL 4
REMARK VINA RESULT:    -7.101      6.464      9.122
REMARK INTER + INTRA:          -8.855
REMARK INTER:                  -8.441
REMARK INTRA:                  -0.415
REMARK UNBOUND:                -0.301
REMARK SMILES O=c1c(O)c(-c2ccc(O)cc2O)oc2cc(O)cc(O)c12
REMARK SMILES IDX 5 1 3 2 2 3 1 4 22 5 20 6 19 7 17 8 16 9 15 10 14 11 6 12
REMARK SMILES IDX 8 13 7 14 9 15 11 16 12 17 10 18 13 20 4 22 21 24 18 26
REMARK H PARENT 10 19 13 21 4 23 21 25 18 27
REMARK Flexibility Score: inf
ROOT
ATOM      1  C   UNL     1     -12.430  39.016  -6.167  1.00  0.00     0.184 A 
ATOM      2  C   UNL     1     -13.786  38.650  -6.125  1.00  0.00     0.208 A 
ATOM      3  C   UNL     1     -14.646  39.104  -7.137  1.00  0.00     0.238 A 
ATOM      4  O   UNL     1     -15.870  38.820  -7.062  1.00  0.00    -0.285 OA
ATOM      5  C   UNL     1     -14.136  39.903  -8.189  1.00  0.00     0.111 A 
ATOM      6  C   UNL     1     -14.908  40.386  -9.288  1.00  0.00     0.134 A 
ATOM      7  C   UNL     1     -14.328  41.274 -10.202  1.00  0.00     0.093 A 
ATOM      8  C   UNL     1     -12.985  41.644 -10.095  1.00  0.00     0.123 A 
ATOM      9  C   UNL     1     -12.207  41.131  -9.059  1.00  0.00     0.094 A 
ATOM     10  C   UNL     1     -12.768  40.272  -8.111  1.00  0.00     0.146 A 
ATOM     11  O   UNL     1     -11.994  39.816  -7.133  1.00  0.00    -0.451 OA
ENDROOT
BRANCH   1  12
ATOM     12  C   UNL     1     -11.463  38.552  -5.146  1.00  0.00     0.063 A 
ATOM     13  C   UNL     1     -10.623  38.594  -2.861  1.00  0.00     0.047 A 
ATOM     14  C   UNL     1     -11.517  39.052  -3.833  1.00  0.00     0.020 A 
ATOM     15  C   UNL     1      -9.669  37.623  -3.186  1.00  0.00     0.119 A 
ATOM     16  C   UNL     1      -9.616  37.109  -4.485  1.00  0.00     0.093 A 
ATOM     17  C   UNL     1     -10.509  37.563  -5.466  1.00  0.00     0.130 A 
BRANCH  15  18
ATOM     18  O   UNL     1      -8.773  37.159  -2.226  1.00  0.00    -0.508 OA
ATOM     19  H   UNL     1      -8.556  37.701  -1.398  1.00  0.00     0.293 HD
ENDBRANCH  15  18
BRANCH  17  20
ATOM     20  O   UNL     1     -10.440  37.047  -6.760  1.00  0.00    -0.507 OA
ATOM     21  H   UNL     1      -9.587  36.638  -7.125  1.00  0.00     0.293 HD
ENDBRANCH  17  20
ENDBRANCH   1  12
BRANCH   2  22
ATOM     22  O   UNL     1     -14.269  37.872  -5.069  1.00  0.00    -0.502 OA
ATOM     23  H   UNL     1     -13.915  36.943  -4.874  1.00  0.00     0.293 HD
ENDBRANCH   2  22
BRANCH   6  24
ATOM     24  O   UNL     1     -16.230  40.007  -9.540  1.00  0.00    -0.507 OA
ATOM     25  H   UNL     1     -16.949  39.925  -8.836  1.00  0.00     0.293 HD
ENDBRANCH   6  24
BRANCH   8  26
ATOM     26  O   UNL     1     -12.412  42.515 -11.018  1.00  0.00    -0.508 OA
ATOM     27  H   UNL     1     -12.809  42.646 -11.941  1.00  0.00     0.293 HD
ENDBRANCH   8  26
TORSDOF 6
ENDMDL
MODEL 5
REMARK VINA RESULT:    -7.071      4.582      6.659
REMARK INTER + INTRA:          -8.820
REMARK INTER:                  -8.424
REMARK INTRA:                  -0.395
REMARK UNBOUND:                -0.301
REMARK SMILES O=c1c(O)c(-c2ccc(O)cc2O)oc2cc(O)cc(O)c12
REMARK SMILES IDX 5 1 3 2 2 3 1 4 22 5 20 6 19 7 17 8 16 9 15 10 14 11 6 12
REMARK SMILES IDX 8 13 7 14 9 15 11 16 12 17 10 18 13 20 4 22 21 24 18 26
REMARK H PARENT 10 19 13 21 4 23 21 25 18 27
REMARK Flexibility Score: inf
ROOT
ATOM      1  C   UNL     1     -14.789  39.012  -5.922  1.00  0.00     0.184 A 
ATOM      2  C   UNL     1     -14.133  37.774  -5.823  1.00  0.00     0.208 A 
ATOM      3  C   UNL     1     -14.535  36.867  -4.831  1.00  0.00     0.238 A 
ATOM      4  O   UNL     1     -13.905  35.784  -4.712  1.00  0.00    -0.285 OA
ATOM      5  C   UNL     1     -15.601  37.200  -3.962  1.00  0.00     0.111 A 
ATOM      6  C   UNL     1     -16.119  36.341  -2.946  1.00  0.00     0.134 A 
ATOM      7  C   UNL     1     -17.091  36.826  -2.062  1.00  0.00     0.093 A 
ATOM      8  C   UNL     1     -17.612  38.115  -2.198  1.00  0.00     0.123 A 
ATOM      9  C   UNL     1     -17.155  38.940  -3.223  1.00  0.00     0.094 A 
ATOM     10  C   UNL     1     -16.160  38.498  -4.098  1.00  0.00     0.146 A 
ATOM     11  O   UNL     1     -15.746  39.321  -5.054  1.00  0.00    -0.451 OA
ENDROOT
BRANCH   1  12
ATOM     12  C   UNL     1     -14.433  40.005  -6.961  1.00  0.00     0.063 A 
ATOM     13  C   UNL     1     -12.830  41.560  -7.933  1.00  0.00     0.047 A 
ATOM     14  C   UNL     1     -13.179  40.642  -6.938  1.00  0.00     0.020 A 
ATOM     15  C   UNL     1     -13.725  41.845  -8.971  1.00  0.00     0.119 A 
ATOM     16  C   UNL     1     -14.968  41.207  -9.010  1.00  0.00     0.093 A 
ATOM     17  C   UNL     1     -15.327  40.286  -8.015  1.00  0.00     0.130 A 
BRANCH  15  18
ATOM     18  O   UNL     1     -13.388  42.757  -9.969  1.00  0.00    -0.508 OA
ATOM     19  H   UNL     1     -12.785  42.498 -10.741  1.00  0.00     0.293 HD
ENDBRANCH  15  18
BRANCH  17  20
ATOM     20  O   UNL     1     -16.573  39.661  -8.064  1.00  0.00    -0.507 OA
ATOM     21  H   UNL     1     -16.675  38.664  -7.912  1.00  0.00     0.293 HD
ENDBRANCH  17  20
ENDBRANCH   1  12
BRANCH   2  22
ATOM     22  O   UNL     1     -13.073  37.472  -6.684  1.00  0.00    -0.502 OA
ATOM     23  H   UNL     1     -12.257  36.955  -6.381  1.00  0.00     0.293 HD
ENDBRANCH   2  22
BRANCH   6  24
ATOM     24  O   UNL     1     -15.735  35.008  -2.781  1.00  0.00    -0.507 OA
ATOM     25  H   UNL     1     -16.291  34.211  -3.053  1.00  0.00     0.293 HD
ENDBRANCH   6  24
BRANCH   8  26
ATOM     26  O   UNL     1     -18.589  38.583  -1.324  1.00  0.00    -0.508 OA
ATOM     27  H   UNL     1     -19.189  39.363  -1.567  1.00  0.00     0.293 HD
ENDBRANCH   8  26
TORSDOF 6
ENDMDL
MODEL 6
REMARK VINA RESULT:    -7.067      6.264      9.803
REMARK INTER + INTRA:          -8.814
REMARK INTER:                  -8.530
REMARK INTRA:                  -0.284
REMARK UNBOUND:                -0.301
REMARK SMILES O=c1c(O)c(-c2ccc(O)cc2O)oc2cc(O)cc(O)c12
REMARK SMILES IDX 5 1 3 2 2 3 1 4 22 5 20 6 19 7 17 8 16 9 15 10 14 11 6 12
REMARK SMILES IDX 8 13 7 14 9 15 11 16 12 17 10 18 13 20 4 22 21 24 18 26
REMARK H PARENT 10 19 13 21 4 23 21 25 18 27
REMARK Flexibility Score: inf
ROOT
ATOM      1  C   UNL     1     -11.372  39.141  -5.650  1.00  0.00     0.184 A 
ATOM      2  C   UNL     1     -11.028  38.138  -6.571  1.00  0.00     0.208 A 
ATOM      3  C   UNL     1     -11.299  38.341  -7.933  1.00  0.00     0.238 A 
ATOM      4  O   UNL     1     -11.041  37.415  -8.745  1.00  0.00    -0.285 OA
ATOM      5  C   UNL     1     -11.893  39.553  -8.360  1.00  0.00     0.111 A 
ATOM      6  C   UNL     1     -12.177  39.883  -9.719  1.00  0.00     0.134 A 
ATOM      7  C   UNL     1     -12.883  41.056 -10.013  1.00  0.00     0.093 A 
ATOM      8  C   UNL     1     -13.258  41.944  -9.001  1.00  0.00     0.123 A 
ATOM      9  C   UNL     1     -12.933  41.660  -7.676  1.00  0.00     0.094 A 
ATOM     10  C   UNL     1     -12.262  40.480  -7.349  1.00  0.00     0.146 A 
ATOM     11  O   UNL     1     -11.983  40.242  -6.073  1.00  0.00    -0.451 OA
ENDROOT
BRANCH   1  12
ATOM     12  C   UNL     1     -11.091  39.003  -4.202  1.00  0.00     0.063 A 
ATOM     13  C   UNL     1     -11.873  38.619  -1.928  1.00  0.00     0.047 A 
ATOM     14  C   UNL     1     -12.139  38.777  -3.291  1.00  0.00     0.020 A 
ATOM     15  C   UNL     1     -10.556  38.676  -1.458  1.00  0.00     0.119 A 
ATOM     16  C   UNL     1      -9.507  38.887  -2.357  1.00  0.00     0.093 A 
ATOM     17  C   UNL     1      -9.764  39.047  -3.726  1.00  0.00     0.130 A 
BRANCH  15  18
ATOM     18  O   UNL     1     -10.279  38.519  -0.102  1.00  0.00    -0.508 OA
ATOM     19  H   UNL     1      -9.432  38.065   0.217  1.00  0.00     0.293 HD
ENDBRANCH  15  18
BRANCH  17  20
ATOM     20  O   UNL     1      -8.708  39.264  -4.611  1.00  0.00    -0.507 OA
ATOM     21  H   UNL     1      -8.053  38.528  -4.847  1.00  0.00     0.293 HD
ENDBRANCH  17  20
ENDBRANCH   1  12
BRANCH   2  22
ATOM     22  O   UNL     1     -10.454  36.945  -6.124  1.00  0.00    -0.502 OA
ATOM     23  H   UNL     1     -10.909  36.344  -5.446  1.00  0.00     0.293 HD
ENDBRANCH   2  22
BRANCH   6  24
ATOM     24  O   UNL     1     -11.767  39.112 -10.811  1.00  0.00    -0.507 OA
ATOM     25  H   UNL     1     -11.038  39.373 -11.458  1.00  0.00     0.293 HD
ENDBRANCH   6  24
BRANCH   8  26
ATOM     26  O   UNL     1     -13.946  43.116  -9.303  1.00  0.00    -0.508 OA
ATOM     27  H   UNL     1     -13.458  43.991  -9.465  1.00  0.00     0.293 HD
ENDBRANCH   8  26
TORSDOF 6
ENDMDL
MODEL 7
REMARK VINA RESULT:    -7.032      3.795      5.589
REMARK INTER + INTRA:          -8.773
REMARK INTER:                  -8.366
REMARK INTRA:                  -0.407
REMARK UNBOUND:                -0.301
REMARK SMILES O=c1c(O)c(-c2ccc(O)cc2O)oc2cc(O)cc(O)c12
REMARK SMILES IDX 5 1 3 2 2 3 1 4 22 5 20 6 19 7 17 8 16 9 15 10 14 11 6 12
REMARK SMILES IDX 8 13 7 14 9 15 11 16 12 17 10 18 13 20 4 22 21 24 18 26
REMARK H PARENT 10 19 13 21 4 23 21 25 18 27
REMARK Flexibility Score: inf
ROOT
ATOM      1  C   UNL     1     -17.632  37.209   2.047  1.00  0.00     0.184 A 
ATOM      2  C   UNL     1     -16.593  36.385   2.511  1.00  0.00     0.208 A 
ATOM      3  C   UNL     1     -16.586  35.992   3.858  1.00  0.00     0.238 A 
ATOM      4  O   UNL     1     -15.622  35.301   4.281  1.00  0.00    -0.285 OA
ATOM      5  C   UNL     1     -17.627  36.411   4.721  1.00  0.00     0.111 A 
ATOM      6  C   UNL     1     -17.742  36.041   6.094  1.00  0.00     0.134 A 
ATOM      7  C   UNL     1     -18.744  36.618   6.884  1.00  0.00     0.093 A 
ATOM      8  C   UNL     1     -19.676  37.502   6.334  1.00  0.00     0.123 A 
ATOM      9  C   UNL     1     -19.608  37.824   4.980  1.00  0.00     0.094 A 
ATOM     10  C   UNL     1     -18.598  37.292   4.176  1.00  0.00     0.146 A 
ATOM     11  O   UNL     1     -18.563  37.635   2.893  1.00  0.00    -0.451 OA
ENDROOT
BRANCH   1  12
ATOM     12  C   UNL     1     -17.716  37.640   0.633  1.00  0.00     0.063 A 
ATOM     13  C   UNL     1     -16.828  38.919  -1.240  1.00  0.00     0.047 A 
ATOM     14  C   UNL     1     -16.767  38.533   0.102  1.00  0.00     0.020 A 
ATOM     15  C   UNL     1     -17.831  38.411  -2.073  1.00  0.00     0.119 A 
ATOM     16  C   UNL     1     -18.771  37.513  -1.558  1.00  0.00     0.093 A 
ATOM     17  C   UNL     1     -18.718  37.120  -0.213  1.00  0.00     0.130 A 
BRANCH  15  18
ATOM     18  O   UNL     1     -17.901  38.789  -3.411  1.00  0.00    -0.508 OA
ATOM     19  H   UNL     1     -17.211  39.404  -3.825  1.00  0.00     0.293 HD
ENDBRANCH  15  18
BRANCH  17  20
ATOM     20  O   UNL     1     -19.666  36.228   0.288  1.00  0.00    -0.507 OA
ATOM     21  H   UNL     1     -19.980  35.428  -0.250  1.00  0.00     0.293 HD
ENDBRANCH  17  20
ENDBRANCH   1  12
BRANCH   2  22
ATOM     22  O   UNL     1     -15.569  35.995   1.644  1.00  0.00    -0.502 OA
ATOM     23  H   UNL     1     -14.629  35.798   1.967  1.00  0.00     0.293 HD
ENDBRANCH   2  22
BRANCH   6  24
ATOM     24  O   UNL     1     -16.921  35.098   6.720  1.00  0.00    -0.507 OA
ATOM     25  H   UNL     1     -16.114  34.667   6.295  1.00  0.00     0.293 HD
ENDBRANCH   6  24
BRANCH   8  26
ATOM     26  O   UNL     1     -20.679  38.059   7.123  1.00  0.00    -0.508 OA
ATOM     27  H   UNL     1     -21.450  38.574   6.715  1.00  0.00     0.293 HD
ENDBRANCH   8  26
TORSDOF 6
ENDMDL
MODEL 8
REMARK VINA RESULT:    -6.975      4.884      8.904
REMARK INTER + INTRA:          -8.704
REMARK INTER:                  -8.296
REMARK INTRA:                  -0.408
REMARK UNBOUND:                -0.301
REMARK SMILES O=c1c(O)c(-c2ccc(O)cc2O)oc2cc(O)cc(O)c12
REMARK SMILES IDX 5 1 3 2 2 3 1 4 22 5 20 6 19 7 17 8 16 9 15 10 14 11 6 12
REMARK SMILES IDX 8 13 7 14 9 15 11 16 12 17 10 18 13 20 4 22 21 24 18 26
REMARK H PARENT 10 19 13 21 4 23 21 25 18 27
REMARK Flexibility Score: inf
ROOT
ATOM      1  C   UNL     1     -12.578  35.991  -6.004  1.00  0.00     0.184 A 
ATOM      2  C   UNL     1     -12.873  37.364  -5.991  1.00  0.00     0.208 A 
ATOM      3  C   UNL     1     -12.444  38.163  -7.062  1.00  0.00     0.238 A 
ATOM      4  O   UNL     1     -12.663  39.402  -7.016  1.00  0.00    -0.285 OA
ATOM      5  C   UNL     1     -11.742  37.577  -8.142  1.00  0.00     0.111 A 
ATOM      6  C   UNL     1     -11.294  38.284  -9.298  1.00  0.00     0.134 A 
ATOM      7  C   UNL     1     -10.497  37.626 -10.244  1.00  0.00     0.093 A 
ATOM      8  C   UNL     1     -10.187  36.271 -10.109  1.00  0.00     0.123 A 
ATOM      9  C   UNL     1     -10.670  35.557  -9.014  1.00  0.00     0.094 A 
ATOM     10  C   UNL     1     -11.436  36.194  -8.035  1.00  0.00     0.146 A 
ATOM     11  O   UNL     1     -11.865  35.480  -7.001  1.00  0.00    -0.451 OA
ENDROOT
BRANCH   1  12
ATOM     12  C   UNL     1     -13.022  35.085  -4.919  1.00  0.00     0.063 A 
ATOM     13  C   UNL     1     -12.896  34.347  -2.602  1.00  0.00     0.047 A 
ATOM     14  C   UNL     1     -12.459  35.182  -3.634  1.00  0.00     0.020 A 
ATOM     15  C   UNL     1     -13.909  33.410  -2.838  1.00  0.00     0.119 A 
ATOM     16  C   UNL     1     -14.484  33.315  -4.108  1.00  0.00     0.093 A 
ATOM     17  C   UNL     1     -14.051  34.149  -5.150  1.00  0.00     0.130 A 
BRANCH  15  18
ATOM     18  O   UNL     1     -14.353  32.573  -1.817  1.00  0.00    -0.508 OA
ATOM     19  H   UNL     1     -14.542  31.592  -1.981  1.00  0.00     0.293 HD
ENDBRANCH  15  18
BRANCH  17  20
ATOM     20  O   UNL     1     -14.630  34.038  -6.414  1.00  0.00    -0.507 OA
ATOM     21  H   UNL     1     -14.171  34.400  -7.242  1.00  0.00     0.293 HD
ENDBRANCH  17  20
ENDBRANCH   1  12
BRANCH   2  22
ATOM     22  O   UNL     1     -13.556  37.923  -4.907  1.00  0.00    -0.502 OA
ATOM     23  H   UNL     1     -13.544  38.917  -4.712  1.00  0.00     0.293 HD
ENDBRANCH   2  22
BRANCH   6  24
ATOM     24  O   UNL     1     -11.623  39.613  -9.576  1.00  0.00    -0.507 OA
ATOM     25  H   UNL     1     -12.212  40.193  -8.997  1.00  0.00     0.293 HD
ENDBRANCH   6  24
BRANCH   8  26
ATOM     26  O   UNL     1      -9.408  35.621 -11.062  1.00  0.00    -0.508 OA
ATOM     27  H   UNL     1      -8.638  35.018 -10.796  1.00  0.00     0.293 HD
ENDBRANCH   8  26
TORSDOF 6
ENDMDL
MODEL 9
REMARK VINA RESULT:    -6.932      1.744      6.873
REMARK INTER + INTRA:          -8.652
REMARK INTER:                  -8.236
REMARK INTRA:                  -0.415
REMARK UNBOUND:                -0.301
REMARK SMILES O=c1c(O)c(-c2ccc(O)cc2O)oc2cc(O)cc(O)c12
REMARK SMILES IDX 5 1 3 2 2 3 1 4 22 5 20 6 19 7 17 8 16 9 15 10 14 11 6 12
REMARK SMILES IDX 8 13 7 14 9 15 11 16 12 17 10 18 13 20 4 22 21 24 18 26
REMARK H PARENT 10 19 13 21 4 23 21 25 18 27
REMARK Flexibility Score: inf
ROOT
ATOM      1  C   UNL     1     -16.177  36.501  -0.180  1.00  0.00     0.184 A 
ATOM      2  C   UNL     1     -15.342  35.412  -0.481  1.00  0.00     0.208 A 
ATOM      3  C   UNL     1     -14.970  35.187  -1.815  1.00  0.00     0.238 A 
ATOM      4  O   UNL     1     -14.269  34.177  -2.084  1.00  0.00    -0.285 OA
ATOM      5  C   UNL     1     -15.422  36.063  -2.830  1.00  0.00     0.111 A 
ATOM      6  C   UNL     1     -15.075  35.954  -4.211  1.00  0.00     0.134 A 
ATOM      7  C   UNL     1     -15.684  36.801  -5.145  1.00  0.00     0.093 A 
ATOM      8  C   UNL     1     -16.576  37.797  -4.742  1.00  0.00     0.123 A 
ATOM      9  C   UNL     1     -16.875  37.951  -3.390  1.00  0.00     0.094 A 
ATOM     10  C   UNL     1     -16.312  37.097  -2.438  1.00  0.00     0.146 A 
ATOM     11  O   UNL     1     -16.634  37.271  -1.162  1.00  0.00    -0.451 OA
ENDROOT
BRANCH   1  12
ATOM     12  C   UNL     1     -16.588  36.812   1.208  1.00  0.00     0.063 A 
ATOM     13  C   UNL     1     -16.017  37.496   3.474  1.00  0.00     0.047 A 
ATOM     14  C   UNL     1     -15.628  37.176   2.171  1.00  0.00     0.020 A 
ATOM     15  C   UNL     1     -17.369  37.468   3.832  1.00  0.00     0.119 A 
ATOM     16  C   UNL     1     -18.332  37.121   2.879  1.00  0.00     0.093 A 
ATOM     17  C   UNL     1     -17.951  36.797   1.569  1.00  0.00     0.130 A 
BRANCH  15  18
ATOM     18  O   UNL     1     -17.768  37.786   5.128  1.00  0.00    -0.508 OA
ATOM     19  H   UNL     1     -18.739  37.738   5.411  1.00  0.00     0.293 HD
ENDBRANCH  15  18
BRANCH  17  20
ATOM     20  O   UNL     1     -18.922  36.446   0.630  1.00  0.00    -0.507 OA
ATOM     21  H   UNL     1     -19.348  37.136   0.023  1.00  0.00     0.293 HD
ENDBRANCH  17  20
ENDBRANCH   1  12
BRANCH   2  22
ATOM     22  O   UNL     1     -14.919  34.553   0.537  1.00  0.00    -0.502 OA
ATOM     23  H   UNL     1     -13.972  34.561   0.896  1.00  0.00     0.293 HD
ENDBRANCH   2  22
BRANCH   6  24
ATOM     24  O   UNL     1     -14.128  35.054  -4.708  1.00  0.00    -0.507 OA
ATOM     25  H   UNL     1     -13.646  35.155  -5.589  1.00  0.00     0.293 HD
ENDBRANCH   6  24
BRANCH   8  26
ATOM     26  O   UNL     1     -17.164  38.646  -5.676  1.00  0.00    -0.508 OA
ATOM     27  H   UNL     1     -16.732  38.825  -6.576  1.00  0.00     0.293 HD
ENDBRANCH   8  26
TORSDOF 6
ENDMDL
