MODEL 1
REMARK VINA RESULT:    -5.772      0.000      0.000
REMARK INTER + INTRA:          -7.077
REMARK INTER:                  -6.784
REMARK INTRA:                  -0.294
REMARK UNBOUND:                -0.294
REMARK SMILES O=c1cc(-c2ccc(O)c(O)c2)oc2cc(O)cc(O)c12
REMARK SMILES IDX 4 1 3 2 2 3 1 4 21 5 19 6 18 7 16 8 15 9 14 10 13 11 5 12
REMARK SMILES IDX 6 13 7 14 8 15 12 16 10 17 9 18 11 20 20 22 17 24
REMARK H PARENT 9 19 11 21 20 23 17 25
REMARK Flexibility Score: inf
ROOT
ATOM      1  C   UNL     1      19.125  15.617  52.914  1.00  0.00     0.138 A 
ATOM      2  C   UNL     1      18.637  16.177  51.726  1.00  0.00     0.100 A 
ATOM      3  C   UNL     1      17.285  16.045  51.404  1.00  0.00     0.197 A 
ATOM      4  O   UNL     1      16.890  16.509  50.303  1.00  0.00    -0.289 OA
ATOM      5  C   UNL     1      16.411  15.380  52.295  1.00  0.00     0.107 A 
ATOM      6  C   UNL     1      15.008  15.214  52.089  1.00  0.00     0.134 A 
ATOM      7  C   UNL     1      14.262  14.451  52.997  1.00  0.00     0.093 A 
ATOM      8  C   UNL     1      14.854  13.896  54.131  1.00  0.00     0.123 A 
ATOM      9  C   UNL     1      16.215  14.094  54.369  1.00  0.00     0.094 A 
ATOM     10  C   UNL     1      16.993  14.821  53.465  1.00  0.00     0.146 A 
ATOM     11  O   UNL     1      18.289  14.971  53.720  1.00  0.00    -0.456 OA
ENDROOT
BRANCH   1  12
ATOM     12  C   UNL     1      20.552  15.730  53.308  1.00  0.00     0.021 A 
ATOM     13  C   UNL     1      21.077  15.023  54.406  1.00  0.00     0.016 A 
ATOM     14  C   UNL     1      22.422  15.158  54.758  1.00  0.00     0.051 A 
ATOM     15  C   UNL     1      23.264  16.005  54.026  1.00  0.00     0.157 A 
ATOM     16  C   UNL     1      21.401  16.589  52.587  1.00  0.00     0.062 A 
ATOM     17  C   UNL     1      22.749  16.725  52.937  1.00  0.00     0.158 A 
BRANCH  15  18
ATOM     18  O   UNL     1      24.607  16.136  54.380  1.00  0.00    -0.504 OA
ATOM     19  H   UNL     1      24.995  15.647  55.179  1.00  0.00     0.293 HD
ENDBRANCH  15  18
BRANCH  17  20
ATOM     20  O   UNL     1      23.561  17.580  52.190  1.00  0.00    -0.504 OA
ATOM     21  H   UNL     1      24.130  17.246  51.423  1.00  0.00     0.293 HD
ENDBRANCH  17  20
ENDBRANCH   1  12
BRANCH   6  22
ATOM     22  O   UNL     1      14.297  15.791  51.033  1.00  0.00    -0.507 OA
ATOM     23  H   UNL     1      14.151  16.781  50.905  1.00  0.00     0.293 HD
ENDBRANCH   6  22
BRANCH   8  24
ATOM     24  O   UNL     1      14.078  13.156  55.019  1.00  0.00    -0.508 OA
ATOM     25  H   UNL     1      13.679  12.262  54.756  1.00  0.00     0.293 HD
ENDBRANCH   8  24
TORSDOF 5
ENDMDL
MODEL 2
REMARK VINA RESULT:    -4.968      1.484      7.575
REMARK INTER + INTRA:          -6.132
REMARK INTER:                  -5.846
REMARK INTRA:                  -0.287
REMARK UNBOUND:                -0.294
REMARK SMILES O=c1cc(-c2ccc(O)c(O)c2)oc2cc(O)cc(O)c12
REMARK SMILES IDX 4 1 3 2 2 3 1 4 21 5 19 6 18 7 16 8 15 9 14 10 13 11 5 12
REMARK SMILES IDX 6 13 7 14 8 15 12 16 10 17 9 18 11 20 20 22 17 24
REMARK H PARENT 9 19 11 21 20 23 17 25
REMARK Flexibility Score: inf
ROOT
ATOM      1  C   UNL     1      19.578  15.891  52.888  1.00  0.00     0.138 A 
ATOM      2  C   UNL     1      20.133  15.095  53.899  1.00  0.00     0.100 A 
ATOM      3  C   UNL     1      21.486  15.226  54.216  1.00  0.00     0.197 A 
ATOM      4  O   UNL     1      21.967  14.459  55.089  1.00  0.00    -0.289 OA
ATOM      5  C   UNL     1      22.277  16.186  53.541  1.00  0.00     0.107 A 
ATOM      6  C   UNL     1      23.659  16.433  53.804  1.00  0.00     0.134 A 
ATOM      7  C   UNL     1      24.363  17.341  53.003  1.00  0.00     0.093 A 
ATOM      8  C   UNL     1      23.724  18.053  51.987  1.00  0.00     0.123 A 
ATOM      9  C   UNL     1      22.362  17.856  51.755  1.00  0.00     0.094 A 
ATOM     10  C   UNL     1      21.640  16.932  52.514  1.00  0.00     0.146 A 
ATOM     11  O   UNL     1      20.349  16.763  52.248  1.00  0.00    -0.456 OA
ENDROOT
BRANCH   1  12
ATOM     12  C   UNL     1      18.144  15.795  52.512  1.00  0.00     0.021 A 
ATOM     13  C   UNL     1      17.692  16.134  51.223  1.00  0.00     0.016 A 
ATOM     14  C   UNL     1      16.335  16.044  50.901  1.00  0.00     0.051 A 
ATOM     15  C   UNL     1      15.407  15.620  51.861  1.00  0.00     0.157 A 
ATOM     16  C   UNL     1      17.204  15.384  53.474  1.00  0.00     0.062 A 
ATOM     17  C   UNL     1      15.845  15.291  53.154  1.00  0.00     0.158 A 
BRANCH  15  18
ATOM     18  O   UNL     1      14.054  15.529  51.536  1.00  0.00    -0.504 OA
ATOM     19  H   UNL     1      13.543  14.659  51.634  1.00  0.00     0.293 HD
ENDBRANCH  15  18
BRANCH  17  20
ATOM     20  O   UNL     1      14.945  14.869  54.134  1.00  0.00    -0.504 OA
ATOM     21  H   UNL     1      15.033  13.972  54.593  1.00  0.00     0.293 HD
ENDBRANCH  17  20
ENDBRANCH   1  12
BRANCH   6  22
ATOM     22  O   UNL     1      24.378  15.837  54.845  1.00  0.00    -0.507 OA
ATOM     23  H   UNL     1      25.377  15.897  54.969  1.00  0.00     0.293 HD
ENDBRANCH   6  22
BRANCH   8  24
ATOM     24  O   UNL     1      24.453  18.959  51.221  1.00  0.00    -0.508 OA
ATOM     25  H   UNL     1      24.836  19.805  51.625  1.00  0.00     0.293 HD
ENDBRANCH   8  24
TORSDOF 5
ENDMDL
MODEL 3
REMARK VINA RESULT:    -3.484      1.495      7.435
REMARK INTER + INTRA:          -4.389
REMARK INTER:                  -4.083
REMARK INTRA:                  -0.307
REMARK UNBOUND:                -0.294
REMARK SMILES O=c1cc(-c2ccc(O)c(O)c2)oc2cc(O)cc(O)c12
REMARK SMILES IDX 4 1 3 2 2 3 1 4 21 5 19 6 18 7 16 8 15 9 14 10 13 11 5 12
REMARK SMILES IDX 6 13 7 14 8 15 12 16 10 17 9 18 11 20 20 22 17 24
REMARK H PARENT 9 19 11 21 20 23 17 25
REMARK Flexibility Score: inf
ROOT
ATOM      1  C   UNL     1      19.600  15.826  53.031  1.00  0.00     0.138 A 
ATOM      2  C   UNL     1      20.198  15.021  54.010  1.00  0.00     0.100 A 
ATOM      3  C   UNL     1      21.560  15.157  54.279  1.00  0.00     0.197 A 
ATOM      4  O   UNL     1      22.078  14.382  55.124  1.00  0.00    -0.289 OA
ATOM      5  C   UNL     1      22.320  16.131  53.589  1.00  0.00     0.107 A 
ATOM      6  C   UNL     1      23.709  16.384  53.804  1.00  0.00     0.134 A 
ATOM      7  C   UNL     1      24.377  17.307  52.990  1.00  0.00     0.093 A 
ATOM      8  C   UNL     1      23.697  18.028  52.008  1.00  0.00     0.123 A 
ATOM      9  C   UNL     1      22.329  17.826  51.823  1.00  0.00     0.094 A 
ATOM     10  C   UNL     1      21.641  16.886  52.596  1.00  0.00     0.146 A 
ATOM     11  O   UNL     1      20.342  16.712  52.375  1.00  0.00    -0.456 OA
ENDROOT
BRANCH   1  12
ATOM     12  C   UNL     1      18.154  15.725  52.707  1.00  0.00     0.021 A 
ATOM     13  C   UNL     1      17.207  15.316  53.664  1.00  0.00     0.016 A 
ATOM     14  C   UNL     1      15.854  15.221  53.326  1.00  0.00     0.051 A 
ATOM     15  C   UNL     1      15.426  15.524  52.028  1.00  0.00     0.157 A 
ATOM     16  C   UNL     1      17.718  16.014  51.401  1.00  0.00     0.062 A 
ATOM     17  C   UNL     1      16.364  15.921  51.061  1.00  0.00     0.158 A 
BRANCH  15  18
ATOM     18  O   UNL     1      14.075  15.429  51.694  1.00  0.00    -0.504 OA
ATOM     19  H   UNL     1      13.421  16.172  51.916  1.00  0.00     0.293 HD
ENDBRANCH  15  18
BRANCH  17  20
ATOM     20  O   UNL     1      15.970  16.226  49.758  1.00  0.00    -0.504 OA
ATOM     21  H   UNL     1      15.799  17.178  49.457  1.00  0.00     0.293 HD
ENDBRANCH  17  20
ENDBRANCH   1  12
BRANCH   6  22
ATOM     22  O   UNL     1      24.470  15.779  54.809  1.00  0.00    -0.507 OA
ATOM     23  H   UNL     1      24.451  14.797  55.039  1.00  0.00     0.293 HD
ENDBRANCH   6  22
BRANCH   8  24
ATOM     24  O   UNL     1      24.391  18.949  51.228  1.00  0.00    -0.508 OA
ATOM     25  H   UNL     1      25.394  19.067  51.314  1.00  0.00     0.293 HD
ENDBRANCH   8  24
TORSDOF 5
ENDMDL
MODEL 4
REMARK VINA RESULT:    -3.270      1.251      6.850
REMARK INTER + INTRA:          -4.137
REMARK INTER:                  -3.844
REMARK INTRA:                  -0.293
REMARK UNBOUND:                -0.294
REMARK SMILES O=c1cc(-c2ccc(O)c(O)c2)oc2cc(O)cc(O)c12
REMARK SMILES IDX 4 1 3 2 2 3 1 4 21 5 19 6 18 7 16 8 15 9 14 10 13 11 5 12
REMARK SMILES IDX 6 13 7 14 8 15 12 16 10 17 9 18 11 20 20 22 17 24
REMARK H PARENT 9 19 11 21 20 23 17 25
REMARK Flexibility Score: inf
ROOT
ATOM      1  C   UNL     1      18.566  15.618  52.649  1.00  0.00     0.138 A 
ATOM      2  C   UNL     1      18.879  16.073  51.361  1.00  0.00     0.100 A 
ATOM      3  C   UNL     1      20.203  16.376  51.039  1.00  0.00     0.197 A 
ATOM      4  O   UNL     1      20.443  16.836  49.893  1.00  0.00    -0.289 OA
ATOM      5  C   UNL     1      21.223  16.188  52.001  1.00  0.00     0.107 A 
ATOM      6  C   UNL     1      22.611  16.430  51.775  1.00  0.00     0.134 A 
ATOM      7  C   UNL     1      23.517  16.301  52.836  1.00  0.00     0.093 A 
ATOM      8  C   UNL     1      23.095  15.882  54.098  1.00  0.00     0.123 A 
ATOM      9  C   UNL     1      21.747  15.594  54.317  1.00  0.00     0.094 A 
ATOM     10  C   UNL     1      20.814  15.747  53.289  1.00  0.00     0.146 A 
ATOM     11  O   UNL     1      19.538  15.478  53.544  1.00  0.00    -0.456 OA
ENDROOT
BRANCH   1  12
ATOM     12  C   UNL     1      17.175  15.278  53.045  1.00  0.00     0.021 A 
ATOM     13  C   UNL     1      16.892  14.586  54.238  1.00  0.00     0.016 A 
ATOM     14  C   UNL     1      15.575  14.271  54.579  1.00  0.00     0.051 A 
ATOM     15  C   UNL     1      14.519  14.633  53.734  1.00  0.00     0.157 A 
ATOM     16  C   UNL     1      16.111  15.626  52.195  1.00  0.00     0.062 A 
ATOM     17  C   UNL     1      14.790  15.312  52.534  1.00  0.00     0.158 A 
BRANCH  15  18
ATOM     18  O   UNL     1      13.205  14.319  54.077  1.00  0.00    -0.504 OA
ATOM     19  H   UNL     1      12.960  14.014  55.013  1.00  0.00     0.293 HD
ENDBRANCH  15  18
BRANCH  17  20
ATOM     20  O   UNL     1      13.761  15.685  51.669  1.00  0.00    -0.504 OA
ATOM     21  H   UNL     1      13.404  16.631  51.634  1.00  0.00     0.293 HD
ENDBRANCH  17  20
ENDBRANCH   1  12
BRANCH   6  22
ATOM     22  O   UNL     1      23.155  16.775  50.534  1.00  0.00    -0.507 OA
ATOM     23  H   UNL     1      24.127  16.682  50.280  1.00  0.00     0.293 HD
ENDBRANCH   6  22
BRANCH   8  24
ATOM     24  O   UNL     1      24.026  15.750  55.125  1.00  0.00    -0.508 OA
ATOM     25  H   UNL     1      24.991  16.035  55.004  1.00  0.00     0.293 HD
ENDBRANCH   8  24
TORSDOF 5
ENDMDL
MODEL 5
REMARK VINA RESULT:    -3.016      1.767      3.365
REMARK INTER + INTRA:          -3.839
REMARK INTER:                  -3.576
REMARK INTRA:                  -0.263
REMARK UNBOUND:                -0.294
REMARK SMILES O=c1cc(-c2ccc(O)c(O)c2)oc2cc(O)cc(O)c12
REMARK SMILES IDX 4 1 3 2 2 3 1 4 21 5 19 6 18 7 16 8 15 9 14 10 13 11 5 12
REMARK SMILES IDX 6 13 7 14 8 15 12 16 10 17 9 18 11 20 20 22 17 24
REMARK H PARENT 9 19 11 21 20 23 17 25
REMARK Flexibility Score: inf
ROOT
ATOM      1  C   UNL     1      20.392  16.023  52.386  1.00  0.00     0.138 A 
ATOM      2  C   UNL     1      20.434  15.193  53.514  1.00  0.00     0.100 A 
ATOM      3  C   UNL     1      19.251  14.652  54.019  1.00  0.00     0.197 A 
ATOM      4  O   UNL     1      19.316  13.956  55.065  1.00  0.00    -0.289 OA
ATOM      5  C   UNL     1      18.023  14.917  53.368  1.00  0.00     0.107 A 
ATOM      6  C   UNL     1      16.757  14.393  53.771  1.00  0.00     0.134 A 
ATOM      7  C   UNL     1      15.595  14.805  53.106  1.00  0.00     0.093 A 
ATOM      8  C   UNL     1      15.657  15.675  52.017  1.00  0.00     0.123 A 
ATOM      9  C   UNL     1      16.894  16.154  51.583  1.00  0.00     0.094 A 
ATOM     10  C   UNL     1      18.067  15.789  52.247  1.00  0.00     0.146 A 
ATOM     11  O   UNL     1      19.222  16.281  51.811  1.00  0.00    -0.456 OA
ENDROOT
BRANCH   1  12
ATOM     12  C   UNL     1      21.621  16.622  51.805  1.00  0.00     0.021 A 
ATOM     13  C   UNL     1      22.329  15.996  50.762  1.00  0.00     0.016 A 
ATOM     14  C   UNL     1      23.488  16.579  50.243  1.00  0.00     0.051 A 
ATOM     15  C   UNL     1      23.964  17.790  50.760  1.00  0.00     0.157 A 
ATOM     16  C   UNL     1      22.113  17.831  52.329  1.00  0.00     0.062 A 
ATOM     17  C   UNL     1      23.273  18.417  51.810  1.00  0.00     0.158 A 
BRANCH  15  18
ATOM     18  O   UNL     1      25.120  18.370  50.239  1.00  0.00    -0.504 OA
ATOM     19  H   UNL     1      26.030  18.204  50.655  1.00  0.00     0.293 HD
ENDBRANCH  15  18
BRANCH  17  20
ATOM     20  O   UNL     1      23.724  19.623  52.350  1.00  0.00    -0.504 OA
ATOM     21  H   UNL     1      24.090  20.367  51.771  1.00  0.00     0.293 HD
ENDBRANCH  17  20
ENDBRANCH   1  12
BRANCH   6  22
ATOM     22  O   UNL     1      16.587  13.456  54.795  1.00  0.00    -0.507 OA
ATOM     23  H   UNL     1      17.218  12.694  54.994  1.00  0.00     0.293 HD
ENDBRANCH   6  22
BRANCH   8  24
ATOM     24  O   UNL     1      14.482  16.051  51.371  1.00  0.00    -0.508 OA
ATOM     25  H   UNL     1      13.913  16.818  51.710  1.00  0.00     0.293 HD
ENDBRANCH   8  24
TORSDOF 5
ENDMDL
MODEL 6
REMARK VINA RESULT:    -2.857      2.260      7.429
REMARK INTER + INTRA:          -3.651
REMARK INTER:                  -3.389
REMARK INTRA:                  -0.262
REMARK UNBOUND:                -0.294
REMARK SMILES O=c1cc(-c2ccc(O)c(O)c2)oc2cc(O)cc(O)c12
REMARK SMILES IDX 4 1 3 2 2 3 1 4 21 5 19 6 18 7 16 8 15 9 14 10 13 11 5 12
REMARK SMILES IDX 6 13 7 14 8 15 12 16 10 17 9 18 11 20 20 22 17 24
REMARK H PARENT 9 19 11 21 20 23 17 25
REMARK Flexibility Score: inf
ROOT
ATOM      1  C   UNL     1      20.447  16.147  51.994  1.00  0.00     0.138 A 
ATOM      2  C   UNL     1      21.049  15.215  51.138  1.00  0.00     0.100 A 
ATOM      3  C   UNL     1      22.296  15.497  50.576  1.00  0.00     0.197 A 
ATOM      4  O   UNL     1      22.784  14.666  49.768  1.00  0.00    -0.289 OA
ATOM      5  C   UNL     1      22.958  16.704  50.904  1.00  0.00     0.107 A 
ATOM      6  C   UNL     1      24.246  17.084  50.420  1.00  0.00     0.134 A 
ATOM      7  C   UNL     1      24.757  18.349  50.736  1.00  0.00     0.093 A 
ATOM      8  C   UNL     1      24.056  19.225  51.564  1.00  0.00     0.123 A 
ATOM      9  C   UNL     1      22.818  18.844  52.084  1.00  0.00     0.094 A 
ATOM     10  C   UNL     1      22.265  17.603  51.759  1.00  0.00     0.146 A 
ATOM     11  O   UNL     1      21.076  17.286  52.261  1.00  0.00    -0.456 OA
ENDROOT
BRANCH   1  12
ATOM     12  C   UNL     1      19.124  15.896  52.621  1.00  0.00     0.021 A 
ATOM     13  C   UNL     1      19.004  15.509  53.969  1.00  0.00     0.016 A 
ATOM     14  C   UNL     1      17.746  15.271  54.528  1.00  0.00     0.051 A 
ATOM     15  C   UNL     1      16.589  15.407  53.752  1.00  0.00     0.157 A 
ATOM     16  C   UNL     1      17.958  16.017  51.844  1.00  0.00     0.062 A 
ATOM     17  C   UNL     1      16.697  15.780  52.402  1.00  0.00     0.158 A 
BRANCH  15  18
ATOM     18  O   UNL     1      15.335  15.169  54.313  1.00  0.00    -0.504 OA
ATOM     19  H   UNL     1      14.902  15.835  54.944  1.00  0.00     0.293 HD
ENDBRANCH  15  18
BRANCH  17  20
ATOM     20  O   UNL     1      15.563  15.921  51.600  1.00  0.00    -0.504 OA
ATOM     21  H   UNL     1      15.322  15.244  50.888  1.00  0.00     0.293 HD
ENDBRANCH  17  20
ENDBRANCH   1  12
BRANCH   6  22
ATOM     22  O   UNL     1      25.070  16.256  49.650  1.00  0.00    -0.507 OA
ATOM     23  H   UNL     1      25.013  16.150  48.649  1.00  0.00     0.293 HD
ENDBRANCH   6  22
BRANCH   8  24
ATOM     24  O   UNL     1      24.602  20.468  51.869  1.00  0.00    -0.508 OA
ATOM     25  H   UNL     1      24.844  20.721  52.820  1.00  0.00     0.293 HD
ENDBRANCH   8  24
TORSDOF 5
ENDMDL
