MODEL 1
REMARK VINA RESULT:     0.000      0.000      0.000
REMARK INTER + INTRA:           0.000
REMARK INTER:                   0.000
REMARK INTRA:                   0.000
REMARK UNBOUND:                 0.000
REMARK SMILES O=c1ccc2cc(O)c(O)cc2o1
REMARK SMILES IDX 4 1 3 2 2 3 1 4 13 5 12 6 11 7 9 8 7 9 6 10 5 11 8 12 10 14
REMARK H PARENT 8 13 10 15
REMARK Flexibility Score: inf
ROOT
ATOM      1  C   UNL     1     -17.219  32.765  92.579  1.00  0.00     0.019 A 
ATOM      2  C   UNL     1     -17.513  33.823  91.720  1.00  0.00     0.094 A 
ATOM      3  C   UNL     1     -17.860  33.544  90.394  1.00  0.00     0.336 A 
ATOM      4  O   UNL     1     -18.130  34.485  89.603  1.00  0.00    -0.246 OA
ATOM      5  O   UNL     1     -17.909  32.286  89.961  1.00  0.00    -0.423 OA
ATOM      6  C   UNL     1     -17.635  31.248  90.748  1.00  0.00     0.142 A 
ATOM      7  C   UNL     1     -17.701  29.948  90.237  1.00  0.00     0.098 A 
ATOM      8  C   UNL     1     -17.415  28.850  91.057  1.00  0.00     0.161 A 
ATOM      9  C   UNL     1     -17.058  29.053  92.403  1.00  0.00     0.158 A 
ATOM     10  C   UNL     1     -16.990  30.356  92.920  1.00  0.00     0.062 A 
ATOM     11  C   UNL     1     -17.276  31.454  92.097  1.00  0.00     0.022 A 
ENDROOT
BRANCH   9  12
ATOM     12  O   UNL     1     -16.772  27.962  93.221  1.00  0.00    -0.504 OA
ATOM     13  H   UNL     1     -15.999  27.977  93.877  1.00  0.00     0.293 HD
ENDBRANCH   9  12
BRANCH   8  14
ATOM     14  O   UNL     1     -17.490  27.566  90.519  1.00  0.00    -0.504 OA
ATOM     15  H   UNL     1     -16.971  26.788  90.908  1.00  0.00     0.293 HD
ENDBRANCH   8  14
TORSDOF 2
ENDMDL
MODEL 2
REMARK VINA RESULT:     0.000      1.965      2.369
REMARK INTER + INTRA:           0.000
REMARK INTER:                   0.000
REMARK INTRA:                   0.000
REMARK UNBOUND:                 0.000
REMARK SMILES O=c1ccc2cc(O)c(O)cc2o1
REMARK SMILES IDX 4 1 3 2 2 3 1 4 13 5 12 6 11 7 9 8 7 9 6 10 5 11 8 12 10 14
REMARK H PARENT 8 13 10 15
REMARK Flexibility Score: inf
ROOT
ATOM      1  C   UNL     1     -15.535  33.922  90.826  1.00  0.00     0.019 A 
ATOM      2  C   UNL     1     -16.180  34.235  89.630  1.00  0.00     0.094 A 
ATOM      3  C   UNL     1     -16.909  33.240  88.972  1.00  0.00     0.336 A 
ATOM      4  O   UNL     1     -17.499  33.503  87.891  1.00  0.00    -0.246 OA
ATOM      5  O   UNL     1     -16.987  32.013  89.481  1.00  0.00    -0.423 OA
ATOM      6  C   UNL     1     -16.386  31.672  90.619  1.00  0.00     0.142 A 
ATOM      7  C   UNL     1     -16.501  30.366  91.106  1.00  0.00     0.098 A 
ATOM      8  C   UNL     1     -15.874  29.999  92.302  1.00  0.00     0.161 A 
ATOM      9  C   UNL     1     -15.122  30.947  93.020  1.00  0.00     0.158 A 
ATOM     10  C   UNL     1     -15.003  32.258  92.536  1.00  0.00     0.062 A 
ATOM     11  C   UNL     1     -15.632  32.624  91.338  1.00  0.00     0.022 A 
ENDROOT
BRANCH   9  12
ATOM     12  O   UNL     1     -14.496  30.583  94.211  1.00  0.00    -0.504 OA
ATOM     13  H   UNL     1     -13.486  30.565  94.297  1.00  0.00     0.293 HD
ENDBRANCH   9  12
BRANCH   8  14
ATOM     14  O   UNL     1     -16.008  28.689  92.761  1.00  0.00    -0.504 OA
ATOM     15  H   UNL     1     -16.586  28.454  93.560  1.00  0.00     0.293 HD
ENDBRANCH   8  14
TORSDOF 2
ENDMDL
MODEL 3
REMARK VINA RESULT:     0.000      3.698      5.196
REMARK INTER + INTRA:           0.000
REMARK INTER:                   0.000
REMARK INTRA:                   0.000
REMARK UNBOUND:                 0.000
REMARK SMILES O=c1ccc2cc(O)c(O)cc2o1
REMARK SMILES IDX 4 1 3 2 2 3 1 4 13 5 12 6 11 7 9 8 7 9 6 10 5 11 8 12 10 14
REMARK H PARENT 8 13 10 15
REMARK Flexibility Score: inf
ROOT
ATOM      1  C   UNL     1     -15.782  28.779  91.463  1.00  0.00     0.019 A 
ATOM      2  C   UNL     1     -16.915  28.733  90.652  1.00  0.00     0.094 A 
ATOM      3  C   UNL     1     -17.735  27.601  90.696  1.00  0.00     0.336 A 
ATOM      4  O   UNL     1     -18.763  27.540  89.971  1.00  0.00    -0.246 OA
ATOM      5  O   UNL     1     -17.436  26.583  91.500  1.00  0.00    -0.423 OA
ATOM      6  C   UNL     1     -16.365  26.586  92.289  1.00  0.00     0.142 A 
ATOM      7  C   UNL     1     -16.100  25.488  93.113  1.00  0.00     0.098 A 
ATOM      8  C   UNL     1     -14.976  25.483  93.947  1.00  0.00     0.161 A 
ATOM      9  C   UNL     1     -14.104  26.588  93.957  1.00  0.00     0.158 A 
ATOM     10  C   UNL     1     -14.365  27.692  93.132  1.00  0.00     0.062 A 
ATOM     11  C   UNL     1     -15.492  27.695  92.298  1.00  0.00     0.022 A 
ENDROOT
BRANCH   9  12
ATOM     12  O   UNL     1     -12.984  26.584  94.786  1.00  0.00    -0.504 OA
ATOM     13  H   UNL     1     -12.043  26.573  94.408  1.00  0.00     0.293 HD
ENDBRANCH   9  12
BRANCH   8  14
ATOM     14  O   UNL     1     -14.740  24.372  94.757  1.00  0.00    -0.504 OA
ATOM     15  H   UNL     1     -14.880  24.398  95.760  1.00  0.00     0.293 HD
ENDBRANCH   8  14
TORSDOF 2
ENDMDL
MODEL 4
REMARK VINA RESULT:     0.000     10.590     10.861
REMARK INTER + INTRA:           0.000
REMARK INTER:                   0.000
REMARK INTRA:                   0.000
REMARK UNBOUND:                 0.000
REMARK SMILES O=c1ccc2cc(O)c(O)cc2o1
REMARK SMILES IDX 4 1 3 2 2 3 1 4 13 5 12 6 11 7 9 8 7 9 6 10 5 11 8 12 10 14
REMARK H PARENT 8 13 10 15
REMARK Flexibility Score: inf
ROOT
ATOM      1  C   UNL     1     -12.010  26.450  99.772  1.00  0.00     0.019 A 
ATOM      2  C   UNL     1     -10.971  27.040  99.053  1.00  0.00     0.094 A 
ATOM      3  C   UNL     1     -10.603  26.491  97.820  1.00  0.00     0.336 A 
ATOM      4  O   UNL     1      -9.668  27.009  97.155  1.00  0.00    -0.246 OA
ATOM      5  O   UNL     1     -11.237  25.423  97.342  1.00  0.00    -0.423 OA
ATOM      6  C   UNL     1     -12.232  24.830  97.996  1.00  0.00     0.142 A 
ATOM      7  C   UNL     1     -12.861  23.709  97.445  1.00  0.00     0.098 A 
ATOM      8  C   UNL     1     -13.909  23.079  98.126  1.00  0.00     0.161 A 
ATOM      9  C   UNL     1     -14.335  23.574  99.372  1.00  0.00     0.158 A 
ATOM     10  C   UNL     1     -13.707  24.699  99.929  1.00  0.00     0.062 A 
ATOM     11  C   UNL     1     -12.657  25.328  99.246  1.00  0.00     0.022 A 
ENDROOT
BRANCH   9  12
ATOM     12  O   UNL     1     -15.378  22.948 100.052  1.00  0.00    -0.504 OA
ATOM     13  H   UNL     1     -15.955  22.244  99.607  1.00  0.00     0.293 HD
ENDBRANCH   9  12
BRANCH   8  14
ATOM     14  O   UNL     1     -14.516  21.963  97.550  1.00  0.00    -0.504 OA
ATOM     15  H   UNL     1     -14.814  21.952  96.582  1.00  0.00     0.293 HD
ENDBRANCH   8  14
TORSDOF 2
ENDMDL
MODEL 5
REMARK VINA RESULT:     0.000      9.921     10.232
REMARK INTER + INTRA:           0.000
REMARK INTER:                   0.000
REMARK INTRA:                   0.000
REMARK UNBOUND:                 0.000
REMARK SMILES O=c1ccc2cc(O)c(O)cc2o1
REMARK SMILES IDX 4 1 3 2 2 3 1 4 13 5 12 6 11 7 9 8 7 9 6 10 5 11 8 12 10 14
REMARK H PARENT 8 13 10 15
REMARK Flexibility Score: inf
ROOT
ATOM      1  C   UNL     1     -10.577  28.945  99.458  1.00  0.00     0.019 A 
ATOM      2  C   UNL     1      -9.539  29.534  98.739  1.00  0.00     0.094 A 
ATOM      3  C   UNL     1      -9.171  28.986  97.506  1.00  0.00     0.336 A 
ATOM      4  O   UNL     1      -8.235  29.504  96.842  1.00  0.00    -0.246 OA
ATOM      5  O   UNL     1      -9.804  27.917  97.028  1.00  0.00    -0.423 OA
ATOM      6  C   UNL     1     -10.800  27.324  97.683  1.00  0.00     0.142 A 
ATOM      7  C   UNL     1     -11.428  26.203  97.131  1.00  0.00     0.098 A 
ATOM      8  C   UNL     1     -12.477  25.574  97.812  1.00  0.00     0.161 A 
ATOM      9  C   UNL     1     -12.902  26.069  99.059  1.00  0.00     0.158 A 
ATOM     10  C   UNL     1     -12.275  27.193  99.616  1.00  0.00     0.062 A 
ATOM     11  C   UNL     1     -11.225  27.822  98.933  1.00  0.00     0.022 A 
ENDROOT
BRANCH   9  12
ATOM     12  O   UNL     1     -13.946  25.443  99.739  1.00  0.00    -0.504 OA
ATOM     13  H   UNL     1     -14.523  24.739  99.293  1.00  0.00     0.293 HD
ENDBRANCH   9  12
BRANCH   8  14
ATOM     14  O   UNL     1     -13.083  24.457  97.236  1.00  0.00    -0.504 OA
ATOM     15  H   UNL     1     -13.382  24.446  96.268  1.00  0.00     0.293 HD
ENDBRANCH   8  14
TORSDOF 2
ENDMDL
MODEL 6
REMARK VINA RESULT:     0.000      6.777      8.411
REMARK INTER + INTRA:           0.000
REMARK INTER:                   0.000
REMARK INTRA:                   0.000
REMARK UNBOUND:                 0.000
REMARK SMILES O=c1ccc2cc(O)c(O)cc2o1
REMARK SMILES IDX 4 1 3 2 2 3 1 4 13 5 12 6 11 7 9 8 7 9 6 10 5 11 8 12 10 14
REMARK H PARENT 8 13 10 15
REMARK Flexibility Score: inf
ROOT
ATOM      1  C   UNL     1     -10.211  29.469  92.813  1.00  0.00     0.019 A 
ATOM      2  C   UNL     1      -8.824  29.438  92.954  1.00  0.00     0.094 A 
ATOM      3  C   UNL     1      -8.209  28.247  93.354  1.00  0.00     0.336 A 
ATOM      4  O   UNL     1      -6.958  28.199  93.486  1.00  0.00    -0.246 OA
ATOM      5  O   UNL     1      -8.939  27.161  93.596  1.00  0.00    -0.423 OA
ATOM      6  C   UNL     1     -10.264  27.148  93.475  1.00  0.00     0.142 A 
ATOM      7  C   UNL     1     -10.979  25.976  93.744  1.00  0.00     0.098 A 
ATOM      8  C   UNL     1     -12.373  25.953  93.618  1.00  0.00     0.161 A 
ATOM      9  C   UNL     1     -13.062  27.114  93.220  1.00  0.00     0.158 A 
ATOM     10  C   UNL     1     -12.349  28.292  92.949  1.00  0.00     0.062 A 
ATOM     11  C   UNL     1     -10.953  28.313  93.075  1.00  0.00     0.022 A 
ENDROOT
BRANCH   9  12
ATOM     12  O   UNL     1     -14.450  27.094  93.095  1.00  0.00    -0.504 OA
ATOM     13  H   UNL     1     -15.054  26.972  93.899  1.00  0.00     0.293 HD
ENDBRANCH   9  12
BRANCH   8  14
ATOM     14  O   UNL     1     -13.058  24.770  93.893  1.00  0.00    -0.504 OA
ATOM     15  H   UNL     1     -13.807  24.431  93.302  1.00  0.00     0.293 HD
ENDBRANCH   8  14
TORSDOF 2
ENDMDL
MODEL 7
REMARK VINA RESULT:     0.000      7.811      9.014
REMARK INTER + INTRA:           0.000
REMARK INTER:                   0.000
REMARK INTRA:                   0.000
REMARK UNBOUND:                 0.000
REMARK SMILES O=c1ccc2cc(O)c(O)cc2o1
REMARK SMILES IDX 4 1 3 2 2 3 1 4 13 5 12 6 11 7 9 8 7 9 6 10 5 11 8 12 10 14
REMARK H PARENT 8 13 10 15
REMARK Flexibility Score: inf
ROOT
ATOM      1  C   UNL     1      -9.125  30.912  92.532  1.00  0.00     0.019 A 
ATOM      2  C   UNL     1      -7.796  31.216  92.827  1.00  0.00     0.094 A 
ATOM      3  C   UNL     1      -7.142  30.493  93.829  1.00  0.00     0.336 A 
ATOM      4  O   UNL     1      -5.942  30.751  94.110  1.00  0.00    -0.246 OA
ATOM      5  O   UNL     1      -7.780  29.529  94.490  1.00  0.00    -0.423 OA
ATOM      6  C   UNL     1      -9.047  29.209  94.241  1.00  0.00     0.142 A 
ATOM      7  C   UNL     1      -9.666  28.188  94.969  1.00  0.00     0.098 A 
ATOM      8  C   UNL     1     -10.998  27.844  94.713  1.00  0.00     0.161 A 
ATOM      9  C   UNL     1     -11.722  28.528  93.718  1.00  0.00     0.158 A 
ATOM     10  C   UNL     1     -11.105  29.553  92.985  1.00  0.00     0.062 A 
ATOM     11  C   UNL     1      -9.771  29.896  93.243  1.00  0.00     0.022 A 
ENDROOT
BRANCH   9  12
ATOM     12  O   UNL     1     -13.048  28.187  93.462  1.00  0.00    -0.504 OA
ATOM     13  H   UNL     1     -13.779  28.344  94.147  1.00  0.00     0.293 HD
ENDBRANCH   9  12
BRANCH   8  14
ATOM     14  O   UNL     1     -11.588  26.821  95.456  1.00  0.00    -0.504 OA
ATOM     15  H   UNL     1     -12.562  26.849  95.731  1.00  0.00     0.293 HD
ENDBRANCH   8  14
TORSDOF 2
ENDMDL
MODEL 8
REMARK VINA RESULT:     0.000      9.620     10.886
REMARK INTER + INTRA:           0.000
REMARK INTER:                   0.000
REMARK INTRA:                   0.000
REMARK UNBOUND:                 0.000
REMARK SMILES O=c1ccc2cc(O)c(O)cc2o1
REMARK SMILES IDX 4 1 3 2 2 3 1 4 13 5 12 6 11 7 9 8 7 9 6 10 5 11 8 12 10 14
REMARK H PARENT 8 13 10 15
REMARK Flexibility Score: inf
ROOT
ATOM      1  C   UNL     1     -13.215  21.902  96.137  1.00  0.00     0.019 A 
ATOM      2  C   UNL     1     -14.552  21.627  96.418  1.00  0.00     0.094 A 
ATOM      3  C   UNL     1     -15.344  22.627  96.991  1.00  0.00     0.336 A 
ATOM      4  O   UNL     1     -16.554  22.399  97.252  1.00  0.00    -0.246 OA
ATOM      5  O   UNL     1     -14.826  23.822  97.264  1.00  0.00    -0.423 OA
ATOM      6  C   UNL     1     -13.555  24.126  97.013  1.00  0.00     0.142 A 
ATOM      7  C   UNL     1     -13.066  25.398  97.322  1.00  0.00     0.098 A 
ATOM      8  C   UNL     1     -11.731  25.726  97.060  1.00  0.00     0.161 A 
ATOM      9  C   UNL     1     -10.873  24.771  96.484  1.00  0.00     0.158 A 
ATOM     10  C   UNL     1     -11.359  23.492  96.172  1.00  0.00     0.062 A 
ATOM     11  C   UNL     1     -12.696  23.166  96.435  1.00  0.00     0.022 A 
ENDROOT
BRANCH   9  12
ATOM     12  O   UNL     1      -9.542  25.095  96.223  1.00  0.00    -0.504 OA
ATOM     13  H   UNL     1      -8.891  25.308  96.970  1.00  0.00     0.293 HD
ENDBRANCH   9  12
BRANCH   8  14
ATOM     14  O   UNL     1     -11.273  27.004  97.380  1.00  0.00    -0.504 OA
ATOM     15  H   UNL     1     -11.198  27.325  98.338  1.00  0.00     0.293 HD
ENDBRANCH   8  14
TORSDOF 2
ENDMDL
MODEL 9
REMARK VINA RESULT:     0.000      9.096     11.209
REMARK INTER + INTRA:           0.000
REMARK INTER:                   0.000
REMARK INTRA:                   0.000
REMARK UNBOUND:                 0.000
REMARK SMILES O=c1ccc2cc(O)c(O)cc2o1
REMARK SMILES IDX 4 1 3 2 2 3 1 4 13 5 12 6 11 7 9 8 7 9 6 10 5 11 8 12 10 14
REMARK H PARENT 8 13 10 15
REMARK Flexibility Score: inf
ROOT
ATOM      1  C   UNL     1     -13.839  21.763  96.812  1.00  0.00     0.019 A 
ATOM      2  C   UNL     1     -14.726  20.876  97.420  1.00  0.00     0.094 A 
ATOM      3  C   UNL     1     -15.674  21.374  98.320  1.00  0.00     0.336 A 
ATOM      4  O   UNL     1     -16.484  20.588  98.878  1.00  0.00    -0.246 OA
ATOM      5  O   UNL     1     -15.727  22.676  98.591  1.00  0.00    -0.423 OA
ATOM      6  C   UNL     1     -14.899  23.556  98.034  1.00  0.00     0.142 A 
ATOM      7  C   UNL     1     -15.001  24.913  98.357  1.00  0.00     0.098 A 
ATOM      8  C   UNL     1     -14.134  25.846  97.776  1.00  0.00     0.161 A 
ATOM      9  C   UNL     1     -13.154  25.419  96.860  1.00  0.00     0.158 A 
ATOM     10  C   UNL     1     -13.048  24.059  96.532  1.00  0.00     0.062 A 
ATOM     11  C   UNL     1     -13.916  23.126  97.116  1.00  0.00     0.022 A 
ENDROOT
BRANCH   9  12
ATOM     12  O   UNL     1     -12.290  26.347  96.281  1.00  0.00    -0.504 OA
ATOM     13  H   UNL     1     -11.622  26.869  96.835  1.00  0.00     0.293 HD
ENDBRANCH   9  12
BRANCH   8  14
ATOM     14  O   UNL     1     -14.261  27.192  98.119  1.00  0.00    -0.504 OA
ATOM     15  H   UNL     1     -14.054  27.532  99.051  1.00  0.00     0.293 HD
ENDBRANCH   8  14
TORSDOF 2
ENDMDL
