MODEL 1
REMARK VINA RESULT:    -4.991      0.000      0.000
REMARK INTER + INTRA:          -9.781
REMARK INTER:                  -9.077
REMARK INTRA:                  -0.705
REMARK UNBOUND:                -0.705
REMARK SMILES CCCCCCCCCCCCCCCC(=O)[O-]
REMARK SMILES IDX 9 1 10 2 11 3 12 4 13 5 14 6 15 7 16 8 17 9 18 10 8 11 7 12
REMARK SMILES IDX 6 13 5 14 4 15 3 16 2 17 1 18
REMARK H PARENT
REMARK Flexibility Score: inf
ROOT
ATOM      1  C   UNL     1      -3.060   7.061   4.288  1.00  0.00     0.000 C 
ENDROOT
BRANCH   1   2
ATOM      2  C   UNL     1      -4.231   7.882   4.847  1.00  0.00     0.000 C 
BRANCH   2   3
ATOM      3  C   UNL     1      -4.257   7.824   6.380  1.00  0.00     0.000 C 
BRANCH   3   4
ATOM      4  C   UNL     1      -5.142   6.669   6.874  1.00  0.00     0.000 C 
BRANCH   4   5
ATOM      5  C   UNL     1      -5.966   7.058   8.120  1.00  0.00     0.000 C 
BRANCH   5   6
ATOM      6  C   UNL     1      -7.302   6.305   8.234  1.00  0.00     0.006 C 
BRANCH   6   7
ATOM      7  C   UNL     1      -7.455   5.560   9.564  1.00  0.00     0.053 C 
BRANCH   7   8
ATOM      8  C   UNL     1      -7.057   4.125   9.410  1.00  0.00     0.041 C 
ATOM      9  O   UNL     1      -5.855   3.782   9.556  1.00  0.00    -0.550 OA
ATOM     10  O   UNL     1      -8.023   3.160   9.154  1.00  0.00    -0.550 OA
ENDBRANCH   7   8
ENDBRANCH   6   7
ENDBRANCH   5   6
ENDBRANCH   4   5
ENDBRANCH   3   4
ENDBRANCH   2   3
ENDBRANCH   1   2
BRANCH   1  11
ATOM     11  C   UNL     1      -3.275   5.541   4.423  1.00  0.00     0.000 C 
BRANCH  11  12
ATOM     12  C   UNL     1      -2.111   4.776   5.082  1.00  0.00    -0.000 C 
BRANCH  12  13
ATOM     13  C   UNL     1      -2.489   3.419   5.704  1.00  0.00    -0.000 C 
BRANCH  13  14
ATOM     14  C   UNL     1      -2.311   3.365   7.237  1.00  0.00    -0.000 C 
BRANCH  14  15
ATOM     15  C   UNL     1      -1.160   2.442   7.663  1.00  0.00    -0.000 C 
BRANCH  15  16
ATOM     16  C   UNL     1      -0.769   2.690   9.127  1.00  0.00    -0.000 C 
BRANCH  16  17
ATOM     17  C   UNL     1      -1.399   1.669  10.088  1.00  0.00    -0.003 C 
ATOM     18  C   UNL     1      -0.831   0.261   9.910  1.00  0.00     0.004 C 
ENDBRANCH  16  17
ENDBRANCH  15  16
ENDBRANCH  14  15
ENDBRANCH  13  14
ENDBRANCH  12  13
ENDBRANCH  11  12
ENDBRANCH   1  11
TORSDOF 14
ENDMDL
MODEL 2
REMARK VINA RESULT:    -4.681     15.880     17.781
REMARK INTER + INTRA:          -9.217
REMARK INTER:                  -7.431
REMARK INTRA:                  -1.786
REMARK UNBOUND:                -0.705
REMARK SMILES CCCCCCCCCCCCCCCC(=O)[O-]
REMARK SMILES IDX 9 1 10 2 11 3 12 4 13 5 14 6 15 7 16 8 17 9 18 10 8 11 7 12
REMARK SMILES IDX 6 13 5 14 4 15 3 16 2 17 1 18
REMARK H PARENT
REMARK Flexibility Score: inf
ROOT
ATOM      1  C   UNL     1      -0.146  -4.345  -6.338  1.00  0.00     0.000 C 
ENDROOT
BRANCH   1   2
ATOM      2  C   UNL     1      -1.364  -4.836  -7.132  1.00  0.00     0.000 C 
BRANCH   2   3
ATOM      3  C   UNL     1      -2.501  -3.808  -7.080  1.00  0.00     0.000 C 
BRANCH   3   4
ATOM      4  C   UNL     1      -3.508  -4.039  -8.217  1.00  0.00     0.000 C 
BRANCH   4   5
ATOM      5  C   UNL     1      -4.919  -4.369  -7.689  1.00  0.00     0.000 C 
BRANCH   5   6
ATOM      6  C   UNL     1      -5.096  -4.091  -6.186  1.00  0.00     0.006 C 
BRANCH   6   7
ATOM      7  C   UNL     1      -6.560  -4.153  -5.736  1.00  0.00     0.053 C 
BRANCH   7   8
ATOM      8  C   UNL     1      -7.187  -2.796  -5.809  1.00  0.00     0.041 C 
ATOM      9  O   UNL     1      -8.048  -2.543  -6.692  1.00  0.00    -0.550 OA
ATOM     10  O   UNL     1      -6.858  -1.828  -4.869  1.00  0.00    -0.550 OA
ENDBRANCH   7   8
ENDBRANCH   6   7
ENDBRANCH   5   6
ENDBRANCH   4   5
ENDBRANCH   3   4
ENDBRANCH   2   3
ENDBRANCH   1   2
BRANCH   1  11
ATOM     11  C   UNL     1       1.046  -5.320  -6.405  1.00  0.00     0.000 C 
BRANCH  11  12
ATOM     12  C   UNL     1       2.072  -5.017  -7.513  1.00  0.00    -0.000 C 
BRANCH  12  13
ATOM     13  C   UNL     1       1.752  -5.635  -8.887  1.00  0.00    -0.000 C 
BRANCH  13  14
ATOM     14  C   UNL     1       1.161  -4.630  -9.899  1.00  0.00    -0.000 C 
BRANCH  14  15
ATOM     15  C   UNL     1       1.324  -3.173  -9.444  1.00  0.00    -0.000 C 
BRANCH  15  16
ATOM     16  C   UNL     1       0.008  -2.397  -9.598  1.00  0.00    -0.000 C 
BRANCH  16  17
ATOM     17  C   UNL     1      -0.146  -1.283  -8.551  1.00  0.00    -0.003 C 
ATOM     18  C   UNL     1      -1.500  -0.578  -8.633  1.00  0.00     0.004 C 
ENDBRANCH  16  17
ENDBRANCH  15  16
ENDBRANCH  14  15
ENDBRANCH  13  14
ENDBRANCH  12  13
ENDBRANCH  11  12
ENDBRANCH   1  11
TORSDOF 14
ENDMDL
MODEL 3
REMARK VINA RESULT:    -4.653     15.093     18.096
REMARK INTER + INTRA:          -9.165
REMARK INTER:                  -7.873
REMARK INTRA:                  -1.293
REMARK UNBOUND:                -0.705
REMARK SMILES CCCCCCCCCCCCCCCC(=O)[O-]
REMARK SMILES IDX 9 1 10 2 11 3 12 4 13 5 14 6 15 7 16 8 17 9 18 10 8 11 7 12
REMARK SMILES IDX 6 13 5 14 4 15 3 16 2 17 1 18
REMARK H PARENT
REMARK Flexibility Score: inf
ROOT
ATOM      1  C   UNL     1       8.283   4.505  -1.310  1.00  0.00     0.000 C 
ENDROOT
BRANCH   1   2
ATOM      2  C   UNL     1       8.576   5.092  -2.698  1.00  0.00     0.000 C 
BRANCH   2   3
ATOM      3  C   UNL     1       7.280   5.285  -3.494  1.00  0.00     0.000 C 
BRANCH   3   4
ATOM      4  C   UNL     1       7.557   5.961  -4.846  1.00  0.00     0.000 C 
BRANCH   4   5
ATOM      5  C   UNL     1       8.570   5.169  -5.698  1.00  0.00     0.000 C 
BRANCH   5   6
ATOM      6  C   UNL     1       8.078   4.875  -7.125  1.00  0.00     0.006 C 
BRANCH   6   7
ATOM      7  C   UNL     1       9.172   5.059  -8.183  1.00  0.00     0.053 C 
BRANCH   7   8
ATOM      8  C   UNL     1       9.537   3.742  -8.793  1.00  0.00     0.041 C 
ATOM      9  O   UNL     1       9.348   2.673  -8.154  1.00  0.00    -0.550 OA
ATOM     10  O   UNL     1      10.039   3.691 -10.087  1.00  0.00    -0.550 OA
ENDBRANCH   7   8
ENDBRANCH   6   7
ENDBRANCH   5   6
ENDBRANCH   4   5
ENDBRANCH   3   4
ENDBRANCH   2   3
ENDBRANCH   1   2
BRANCH   1  11
ATOM     11  C   UNL     1       8.683   5.452  -0.162  1.00  0.00     0.000 C 
BRANCH  11  12
ATOM     12  C   UNL     1       9.351   6.767  -0.607  1.00  0.00    -0.000 C 
BRANCH  12  13
ATOM     13  C   UNL     1       9.012   7.997   0.256  1.00  0.00    -0.000 C 
BRANCH  13  14
ATOM     14  C   UNL     1       8.206   9.080  -0.494  1.00  0.00    -0.000 C 
BRANCH  14  15
ATOM     15  C   UNL     1       7.713   8.601  -1.866  1.00  0.00    -0.000 C 
BRANCH  15  16
ATOM     16  C   UNL     1       6.181   8.652  -1.950  1.00  0.00    -0.000 C 
BRANCH  16  17
ATOM     17  C   UNL     1       5.606   9.983  -1.442  1.00  0.00    -0.003 C 
ATOM     18  C   UNL     1       4.119  10.145  -1.761  1.00  0.00     0.004 C 
ENDBRANCH  16  17
ENDBRANCH  15  16
ENDBRANCH  14  15
ENDBRANCH  13  14
ENDBRANCH  12  13
ENDBRANCH  11  12
ENDBRANCH   1  11
TORSDOF 14
ENDMDL
MODEL 4
REMARK VINA RESULT:    -4.643     16.753     18.785
REMARK INTER + INTRA:          -9.147
REMARK INTER:                  -6.886
REMARK INTRA:                  -2.261
REMARK UNBOUND:                -0.705
REMARK SMILES CCCCCCCCCCCCCCCC(=O)[O-]
REMARK SMILES IDX 9 1 10 2 11 3 12 4 13 5 14 6 15 7 16 8 17 9 18 10 8 11 7 12
REMARK SMILES IDX 6 13 5 14 4 15 3 16 2 17 1 18
REMARK H PARENT
REMARK Flexibility Score: inf
ROOT
ATOM      1  C   UNL     1      -0.245  -5.644  -6.409  1.00  0.00     0.000 C 
ENDROOT
BRANCH   1   2
ATOM      2  C   UNL     1       0.084  -7.075  -6.857  1.00  0.00     0.000 C 
BRANCH   2   3
ATOM      3  C   UNL     1      -0.796  -7.494  -8.040  1.00  0.00     0.000 C 
BRANCH   3   4
ATOM      4  C   UNL     1      -1.514  -6.281  -8.652  1.00  0.00     0.000 C 
BRANCH   4   5
ATOM      5  C   UNL     1      -3.046  -6.464  -8.686  1.00  0.00     0.000 C 
BRANCH   5   6
ATOM      6  C   UNL     1      -3.823  -5.141  -8.783  1.00  0.00     0.006 C 
BRANCH   6   7
ATOM      7  C   UNL     1      -3.810  -4.344  -7.474  1.00  0.00     0.053 C 
BRANCH   7   8
ATOM      8  C   UNL     1      -5.208  -4.062  -7.019  1.00  0.00     0.041 C 
ATOM      9  O   UNL     1      -5.523  -4.213  -5.809  1.00  0.00    -0.550 OA
ATOM     10  O   UNL     1      -6.149  -3.584  -7.922  1.00  0.00    -0.550 OA
ENDBRANCH   7   8
ENDBRANCH   6   7
ENDBRANCH   5   6
ENDBRANCH   4   5
ENDBRANCH   3   4
ENDBRANCH   2   3
ENDBRANCH   1   2
BRANCH   1  11
ATOM     11  C   UNL     1       0.987  -4.717  -6.411  1.00  0.00     0.000 C 
BRANCH  11  12
ATOM     12  C   UNL     1       2.141  -5.172  -7.325  1.00  0.00    -0.000 C 
BRANCH  12  13
ATOM     13  C   UNL     1       2.025  -4.725  -8.794  1.00  0.00    -0.000 C 
BRANCH  13  14
ATOM     14  C   UNL     1       1.297  -3.377  -8.980  1.00  0.00    -0.000 C 
BRANCH  14  15
ATOM     15  C   UNL     1       0.150  -3.463  -9.997  1.00  0.00    -0.000 C 
BRANCH  15  16
ATOM     16  C   UNL     1      -1.079  -2.684  -9.509  1.00  0.00    -0.000 C 
BRANCH  16  17
ATOM     17  C   UNL     1      -0.891  -2.110  -8.095  1.00  0.00    -0.003 C 
ATOM     18  C   UNL     1      -1.099  -0.596  -8.040  1.00  0.00     0.004 C 
ENDBRANCH  16  17
ENDBRANCH  15  16
ENDBRANCH  14  15
ENDBRANCH  13  14
ENDBRANCH  12  13
ENDBRANCH  11  12
ENDBRANCH   1  11
TORSDOF 14
ENDMDL
MODEL 5
REMARK VINA RESULT:    -4.573     15.487     17.274
REMARK INTER + INTRA:          -9.020
REMARK INTER:                  -7.474
REMARK INTRA:                  -1.546
REMARK UNBOUND:                -0.705
REMARK SMILES CCCCCCCCCCCCCCCC(=O)[O-]
REMARK SMILES IDX 9 1 10 2 11 3 12 4 13 5 14 6 15 7 16 8 17 9 18 10 8 11 7 12
REMARK SMILES IDX 6 13 5 14 4 15 3 16 2 17 1 18
REMARK H PARENT
REMARK Flexibility Score: inf
ROOT
ATOM      1  C   UNL     1      -1.949  -3.652  -7.283  1.00  0.00     0.000 C 
ENDROOT
BRANCH   1   2
ATOM      2  C   UNL     1      -2.796  -4.193  -8.443  1.00  0.00     0.000 C 
BRANCH   2   3
ATOM      3  C   UNL     1      -4.073  -4.863  -7.923  1.00  0.00     0.000 C 
BRANCH   3   4
ATOM      4  C   UNL     1      -5.077  -3.818  -7.412  1.00  0.00     0.000 C 
BRANCH   4   5
ATOM      5  C   UNL     1      -5.632  -4.175  -6.018  1.00  0.00     0.000 C 
BRANCH   5   6
ATOM      6  C   UNL     1      -6.825  -3.304  -5.588  1.00  0.00     0.006 C 
BRANCH   6   7
ATOM      7  C   UNL     1      -7.168  -2.216  -6.611  1.00  0.00     0.053 C 
BRANCH   7   8
ATOM      8  C   UNL     1      -7.655  -0.982  -5.918  1.00  0.00     0.041 C 
ATOM      9  O   UNL     1      -7.265  -0.713  -4.752  1.00  0.00    -0.550 OA
ATOM     10  O   UNL     1      -8.501  -0.101  -6.581  1.00  0.00    -0.550 OA
ENDBRANCH   7   8
ENDBRANCH   6   7
ENDBRANCH   5   6
ENDBRANCH   4   5
ENDBRANCH   3   4
ENDBRANCH   2   3
ENDBRANCH   1   2
BRANCH   1  11
ATOM     11  C   UNL     1      -1.095  -2.432  -7.680  1.00  0.00     0.000 C 
BRANCH  11  12
ATOM     12  C   UNL     1      -0.434  -2.526  -9.069  1.00  0.00    -0.000 C 
BRANCH  12  13
ATOM     13  C   UNL     1       1.016  -3.045  -9.068  1.00  0.00    -0.000 C 
BRANCH  13  14
ATOM     14  C   UNL     1       1.191  -4.405  -9.777  1.00  0.00    -0.000 C 
BRANCH  14  15
ATOM     15  C   UNL     1       1.569  -5.531  -8.804  1.00  0.00    -0.000 C 
BRANCH  15  16
ATOM     16  C   UNL     1       1.975  -4.963  -7.436  1.00  0.00    -0.000 C 
BRANCH  16  17
ATOM     17  C   UNL     1       1.060  -5.449  -6.300  1.00  0.00    -0.003 C 
ATOM     18  C   UNL     1       0.188  -6.636  -6.709  1.00  0.00     0.004 C 
ENDBRANCH  16  17
ENDBRANCH  15  16
ENDBRANCH  14  15
ENDBRANCH  13  14
ENDBRANCH  12  13
ENDBRANCH  11  12
ENDBRANCH   1  11
TORSDOF 14
ENDMDL
MODEL 6
REMARK VINA RESULT:    -4.499     14.312     15.591
REMARK INTER + INTRA:          -8.886
REMARK INTER:                  -7.518
REMARK INTRA:                  -1.368
REMARK UNBOUND:                -0.705
REMARK SMILES CCCCCCCCCCCCCCCC(=O)[O-]
REMARK SMILES IDX 9 1 10 2 11 3 12 4 13 5 14 6 15 7 16 8 17 9 18 10 8 11 7 12
REMARK SMILES IDX 6 13 5 14 4 15 3 16 2 17 1 18
REMARK H PARENT
REMARK Flexibility Score: inf
ROOT
ATOM      1  C   UNL     1       6.366  11.069  -0.690  1.00  0.00     0.000 C 
ENDROOT
BRANCH   1   2
ATOM      2  C   UNL     1       7.816  11.005  -0.190  1.00  0.00     0.000 C 
BRANCH   2   3
ATOM      3  C   UNL     1       7.873  11.118   1.338  1.00  0.00     0.000 C 
BRANCH   3   4
ATOM      4  C   UNL     1       8.820  10.065   1.935  1.00  0.00     0.000 C 
BRANCH   4   5
ATOM      5  C   UNL     1       9.264   9.021   0.891  1.00  0.00     0.000 C 
BRANCH   5   6
ATOM      6  C   UNL     1       9.307   7.583   1.436  1.00  0.00     0.006 C 
BRANCH   6   7
ATOM      7  C   UNL     1       9.280   7.525   2.967  1.00  0.00     0.053 C 
BRANCH   7   8
ATOM      8  C   UNL     1       9.533   6.129   3.443  1.00  0.00     0.041 C 
ATOM      9  O   UNL     1       9.308   5.817   4.641  1.00  0.00    -0.550 OA
ATOM     10  O   UNL     1       9.969   5.159   2.549  1.00  0.00    -0.550 OA
ENDBRANCH   7   8
ENDBRANCH   6   7
ENDBRANCH   5   6
ENDBRANCH   4   5
ENDBRANCH   3   4
ENDBRANCH   2   3
ENDBRANCH   1   2
BRANCH   1  11
ATOM     11  C   UNL     1       6.038   9.973  -1.722  1.00  0.00     0.000 C 
BRANCH  11  12
ATOM     12  C   UNL     1       7.131   8.902  -1.902  1.00  0.00    -0.000 C 
BRANCH  12  13
ATOM     13  C   UNL     1       6.613   7.471  -2.136  1.00  0.00    -0.000 C 
BRANCH  13  14
ATOM     14  C   UNL     1       7.494   6.377  -1.495  1.00  0.00    -0.000 C 
BRANCH  14  15
ATOM     15  C   UNL     1       7.943   5.315  -2.508  1.00  0.00    -0.000 C 
BRANCH  15  16
ATOM     16  C   UNL     1       7.126   5.411  -3.805  1.00  0.00    -0.000 C 
BRANCH  16  17
ATOM     17  C   UNL     1       8.006   5.347  -5.064  1.00  0.00    -0.003 C 
ATOM     18  C   UNL     1       7.799   6.545  -5.990  1.00  0.00     0.004 C 
ENDBRANCH  16  17
ENDBRANCH  15  16
ENDBRANCH  14  15
ENDBRANCH  13  14
ENDBRANCH  12  13
ENDBRANCH  11  12
ENDBRANCH   1  11
TORSDOF 14
ENDMDL
MODEL 7
REMARK VINA RESULT:    -4.473     13.982     15.766
REMARK INTER + INTRA:          -8.838
REMARK INTER:                  -7.098
REMARK INTRA:                  -1.740
REMARK UNBOUND:                -0.705
REMARK SMILES CCCCCCCCCCCCCCCC(=O)[O-]
REMARK SMILES IDX 9 1 10 2 11 3 12 4 13 5 14 6 15 7 16 8 17 9 18 10 8 11 7 12
REMARK SMILES IDX 6 13 5 14 4 15 3 16 2 17 1 18
REMARK H PARENT
REMARK Flexibility Score: inf
ROOT
ATOM      1  C   UNL     1       8.598   5.141  -0.027  1.00  0.00     0.000 C 
ENDROOT
BRANCH   1   2
ATOM      2  C   UNL     1       9.966   5.736  -0.386  1.00  0.00     0.000 C 
BRANCH   2   3
ATOM      3  C   UNL     1      10.020   7.230  -0.043  1.00  0.00     0.000 C 
BRANCH   3   4
ATOM      4  C   UNL     1       8.866   7.625   0.890  1.00  0.00     0.000 C 
BRANCH   4   5
ATOM      5  C   UNL     1       9.367   8.273   2.198  1.00  0.00     0.000 C 
BRANCH   5   6
ATOM      6  C   UNL     1      10.197   7.323   3.078  1.00  0.00     0.006 C 
BRANCH   6   7
ATOM      7  C   UNL     1       9.485   5.995   3.359  1.00  0.00     0.053 C 
BRANCH   7   8
ATOM      8  C   UNL     1      10.476   4.941   3.741  1.00  0.00     0.041 C 
ATOM      9  O   UNL     1      10.910   4.136   2.876  1.00  0.00    -0.550 OA
ATOM     10  O   UNL     1      10.959   4.880   5.042  1.00  0.00    -0.550 OA
ENDBRANCH   7   8
ENDBRANCH   6   7
ENDBRANCH   5   6
ENDBRANCH   4   5
ENDBRANCH   3   4
ENDBRANCH   2   3
ENDBRANCH   1   2
BRANCH   1  11
ATOM     11  C   UNL     1       7.850   4.575  -1.250  1.00  0.00     0.000 C 
BRANCH  11  12
ATOM     12  C   UNL     1       8.168   5.273  -2.586  1.00  0.00    -0.000 C 
BRANCH  12  13
ATOM     13  C   UNL     1       7.085   6.243  -3.092  1.00  0.00    -0.000 C 
BRANCH  13  14
ATOM     14  C   UNL     1       6.645   7.286  -2.043  1.00  0.00    -0.000 C 
BRANCH  14  15
ATOM     15  C   UNL     1       7.233   8.678  -2.314  1.00  0.00    -0.000 C 
BRANCH  15  16
ATOM     16  C   UNL     1       6.363   9.775  -1.684  1.00  0.00    -0.000 C 
BRANCH  16  17
ATOM     17  C   UNL     1       4.860   9.476  -1.799  1.00  0.00    -0.003 C 
ATOM     18  C   UNL     1       4.036  10.715  -2.151  1.00  0.00     0.004 C 
ENDBRANCH  16  17
ENDBRANCH  15  16
ENDBRANCH  14  15
ENDBRANCH  13  14
ENDBRANCH  12  13
ENDBRANCH  11  12
ENDBRANCH   1  11
TORSDOF 14
ENDMDL
MODEL 8
REMARK VINA RESULT:    -4.463     15.554     17.504
REMARK INTER + INTRA:          -8.820
REMARK INTER:                  -6.611
REMARK INTRA:                  -2.209
REMARK UNBOUND:                -0.705
REMARK SMILES CCCCCCCCCCCCCCCC(=O)[O-]
REMARK SMILES IDX 9 1 10 2 11 3 12 4 13 5 14 6 15 7 16 8 17 9 18 10 8 11 7 12
REMARK SMILES IDX 6 13 5 14 4 15 3 16 2 17 1 18
REMARK H PARENT
REMARK Flexibility Score: inf
ROOT
ATOM      1  C   UNL     1       8.083   4.723  -1.206  1.00  0.00     0.000 C 
ENDROOT
BRANCH   1   2
ATOM      2  C   UNL     1       9.497   4.197  -1.490  1.00  0.00     0.000 C 
BRANCH   2   3
ATOM      3  C   UNL     1      10.387   5.304  -2.068  1.00  0.00     0.000 C 
BRANCH   3   4
ATOM      4  C   UNL     1      10.843   4.960  -3.494  1.00  0.00     0.000 C 
BRANCH   4   5
ATOM      5  C   UNL     1      10.205   5.886  -4.551  1.00  0.00     0.000 C 
BRANCH   5   6
ATOM      6  C   UNL     1       9.507   5.129  -5.694  1.00  0.00     0.006 C 
BRANCH   6   7
ATOM      7  C   UNL     1       8.123   5.696  -6.027  1.00  0.00     0.053 C 
BRANCH   7   8
ATOM      8  C   UNL     1       7.738   5.347  -7.431  1.00  0.00     0.041 C 
ATOM      9  O   UNL     1       7.011   6.125  -8.101  1.00  0.00    -0.550 OA
ATOM     10  O   UNL     1       8.225   4.184  -8.015  1.00  0.00    -0.550 OA
ENDBRANCH   7   8
ENDBRANCH   6   7
ENDBRANCH   5   6
ENDBRANCH   4   5
ENDBRANCH   3   4
ENDBRANCH   2   3
ENDBRANCH   1   2
BRANCH   1  11
ATOM     11  C   UNL     1       7.272   4.985  -2.489  1.00  0.00     0.000 C 
BRANCH  11  12
ATOM     12  C   UNL     1       6.980   6.469  -2.783  1.00  0.00    -0.000 C 
BRANCH  12  13
ATOM     13  C   UNL     1       7.090   7.410  -1.569  1.00  0.00    -0.000 C 
BRANCH  13  14
ATOM     14  C   UNL     1       8.296   8.372  -1.635  1.00  0.00    -0.000 C 
BRANCH  14  15
ATOM     15  C   UNL     1       8.754   8.838  -0.246  1.00  0.00    -0.000 C 
BRANCH  15  16
ATOM     16  C   UNL     1       9.744   7.839   0.371  1.00  0.00    -0.000 C 
BRANCH  16  17
ATOM     17  C   UNL     1       9.193   7.168   1.639  1.00  0.00    -0.003 C 
ATOM     18  C   UNL     1       9.834   5.807   1.914  1.00  0.00     0.004 C 
ENDBRANCH  16  17
ENDBRANCH  15  16
ENDBRANCH  14  15
ENDBRANCH  13  14
ENDBRANCH  12  13
ENDBRANCH  11  12
ENDBRANCH   1  11
TORSDOF 14
ENDMDL
MODEL 9
REMARK VINA RESULT:    -4.447     15.000     17.872
REMARK INTER + INTRA:          -8.791
REMARK INTER:                  -7.581
REMARK INTRA:                  -1.210
REMARK UNBOUND:                -0.705
REMARK SMILES CCCCCCCCCCCCCCCC(=O)[O-]
REMARK SMILES IDX 9 1 10 2 11 3 12 4 13 5 14 6 15 7 16 8 17 9 18 10 8 11 7 12
REMARK SMILES IDX 6 13 5 14 4 15 3 16 2 17 1 18
REMARK H PARENT
REMARK Flexibility Score: inf
ROOT
ATOM      1  C   UNL     1       8.109   5.536  -0.665  1.00  0.00     0.000 C 
ENDROOT
BRANCH   1   2
ATOM      2  C   UNL     1       8.127   4.673  -1.934  1.00  0.00     0.000 C 
BRANCH   2   3
ATOM      3  C   UNL     1       7.384   5.371  -3.080  1.00  0.00     0.000 C 
BRANCH   3   4
ATOM      4  C   UNL     1       8.352   5.771  -4.204  1.00  0.00     0.000 C 
BRANCH   4   5
ATOM      5  C   UNL     1       7.823   5.375  -5.598  1.00  0.00     0.000 C 
BRANCH   5   6
ATOM      6  C   UNL     1       7.733   6.554  -6.582  1.00  0.00     0.006 C 
BRANCH   6   7
ATOM      7  C   UNL     1       7.315   6.124  -7.992  1.00  0.00     0.053 C 
BRANCH   7   8
ATOM      8  C   UNL     1       8.472   6.226  -8.935  1.00  0.00     0.041 C 
ATOM      9  O   UNL     1       8.369   6.895  -9.996  1.00  0.00    -0.550 OA
ATOM     10  O   UNL     1       9.682   5.622  -8.616  1.00  0.00    -0.550 OA
ENDBRANCH   7   8
ENDBRANCH   6   7
ENDBRANCH   5   6
ENDBRANCH   4   5
ENDBRANCH   3   4
ENDBRANCH   2   3
ENDBRANCH   1   2
BRANCH   1  11
ATOM     11  C   UNL     1       9.181   6.642  -0.676  1.00  0.00     0.000 C 
BRANCH  11  12
ATOM     12  C   UNL     1       8.772   7.951   0.025  1.00  0.00    -0.000 C 
BRANCH  12  13
ATOM     13  C   UNL     1       8.694   9.187  -0.890  1.00  0.00    -0.000 C 
BRANCH  13  14
ATOM     14  C   UNL     1       7.859   8.963  -2.169  1.00  0.00    -0.000 C 
BRANCH  14  15
ATOM     15  C   UNL     1       6.364   8.782  -1.870  1.00  0.00    -0.000 C 
BRANCH  15  16
ATOM     16  C   UNL     1       5.697  10.130  -1.562  1.00  0.00    -0.000 C 
BRANCH  16  17
ATOM     17  C   UNL     1       4.162  10.041  -1.553  1.00  0.00    -0.003 C 
ATOM     18  C   UNL     1       3.514  10.898  -2.641  1.00  0.00     0.004 C 
ENDBRANCH  16  17
ENDBRANCH  15  16
ENDBRANCH  14  15
ENDBRANCH  13  14
ENDBRANCH  12  13
ENDBRANCH  11  12
ENDBRANCH   1  11
TORSDOF 14
ENDMDL
