MODEL 1
REMARK VINA RESULT:    -5.960      0.000      0.000
REMARK INTER + INTRA:         -11.473
REMARK INTER:                 -10.838
REMARK INTRA:                  -0.635
REMARK UNBOUND:                -0.635
REMARK SMILES CCCCCCCCCCCCCCCC(=O)[O-]
REMARK SMILES IDX 9 1 10 2 11 3 12 4 13 5 14 6 15 7 16 8 17 9 18 10 8 11 7 12
REMARK SMILES IDX 6 13 5 14 4 15 3 16 2 17 1 18
REMARK H PARENT
REMARK Flexibility Score: inf
ROOT
ATOM      1  C   UNL     1     103.743 312.801 196.899  1.00  0.00     0.000 C 
ENDROOT
BRANCH   1   2
ATOM      2  C   UNL     1     103.815 311.838 198.097  1.00  0.00     0.000 C 
BRANCH   2   3
ATOM      3  C   UNL     1     104.188 312.551 199.407  1.00  0.00     0.000 C 
BRANCH   3   4
ATOM      4  C   UNL     1     104.074 311.632 200.633  1.00  0.00     0.000 C 
BRANCH   4   5
ATOM      5  C   UNL     1     102.619 311.549 201.121  1.00  0.00     0.000 C 
BRANCH   5   6
ATOM      6  C   UNL     1     102.496 310.905 202.511  1.00  0.00     0.006 C 
BRANCH   6   7
ATOM      7  C   UNL     1     103.842 310.820 203.243  1.00  0.00     0.053 C 
BRANCH   7   8
ATOM      8  C   UNL     1     103.635 310.886 204.724  1.00  0.00     0.041 C 
ATOM      9  O   UNL     1     104.569 311.269 205.477  1.00  0.00    -0.550 OA
ATOM     10  O   UNL     1     102.426 310.482 205.276  1.00  0.00    -0.550 OA
ENDBRANCH   7   8
ENDBRANCH   6   7
ENDBRANCH   5   6
ENDBRANCH   4   5
ENDBRANCH   3   4
ENDBRANCH   2   3
ENDBRANCH   1   2
BRANCH   1  11
ATOM     11  C   UNL     1     104.392 312.222 195.632  1.00  0.00     0.000 C 
BRANCH  11  12
ATOM     12  C   UNL     1     103.354 311.750 194.599  1.00  0.00    -0.000 C 
BRANCH  12  13
ATOM     13  C   UNL     1     103.991 311.382 193.249  1.00  0.00    -0.000 C 
BRANCH  13  14
ATOM     14  C   UNL     1     105.413 311.952 193.098  1.00  0.00    -0.000 C 
BRANCH  14  15
ATOM     15  C   UNL     1     105.470 313.158 192.145  1.00  0.00    -0.000 C 
BRANCH  15  16
ATOM     16  C   UNL     1     104.141 313.398 191.411  1.00  0.00    -0.000 C 
BRANCH  16  17
ATOM     17  C   UNL     1     104.194 314.693 190.593  1.00  0.00    -0.003 C 
ATOM     18  C   UNL     1     103.316 314.598 189.350  1.00  0.00     0.004 C 
ENDBRANCH  16  17
ENDBRANCH  15  16
ENDBRANCH  14  15
ENDBRANCH  13  14
ENDBRANCH  12  13
ENDBRANCH  11  12
ENDBRANCH   1  11
TORSDOF 14
ENDMDL
MODEL 2
REMARK VINA RESULT:    -5.913     19.516     20.567
REMARK INTER + INTRA:         -11.388
REMARK INTER:                 -10.641
REMARK INTRA:                  -0.747
REMARK UNBOUND:                -0.635
REMARK SMILES CCCCCCCCCCCCCCCC(=O)[O-]
REMARK SMILES IDX 9 1 10 2 11 3 12 4 13 5 14 6 15 7 16 8 17 9 18 10 8 11 7 12
REMARK SMILES IDX 6 13 5 14 4 15 3 16 2 17 1 18
REMARK H PARENT
REMARK Flexibility Score: inf
ROOT
ATOM      1  C   UNL     1      86.526 326.491 196.003  1.00  0.00     0.000 C 
ENDROOT
BRANCH   1   2
ATOM      2  C   UNL     1      87.757 325.807 196.625  1.00  0.00     0.000 C 
BRANCH   2   3
ATOM      3  C   UNL     1      88.471 326.698 197.654  1.00  0.00     0.000 C 
BRANCH   3   4
ATOM      4  C   UNL     1      88.887 325.927 198.916  1.00  0.00     0.000 C 
BRANCH   4   5
ATOM      5  C   UNL     1      89.760 326.801 199.829  1.00  0.00     0.000 C 
BRANCH   5   6
ATOM      6  C   UNL     1      90.459 325.991 200.933  1.00  0.00     0.006 C 
BRANCH   6   7
ATOM      7  C   UNL     1      91.133 326.884 201.983  1.00  0.00     0.053 C 
BRANCH   7   8
ATOM      8  C   UNL     1      90.257 327.022 203.188  1.00  0.00     0.041 C 
ATOM      9  O   UNL     1      89.081 326.571 203.172  1.00  0.00    -0.550 OA
ATOM     10  O   UNL     1      90.721 327.692 204.313  1.00  0.00    -0.550 OA
ENDBRANCH   7   8
ENDBRANCH   6   7
ENDBRANCH   5   6
ENDBRANCH   4   5
ENDBRANCH   3   4
ENDBRANCH   2   3
ENDBRANCH   1   2
BRANCH   1  11
ATOM     11  C   UNL     1      86.698 326.771 194.501  1.00  0.00     0.000 C 
BRANCH  11  12
ATOM     12  C   UNL     1      88.105 326.412 193.991  1.00  0.00    -0.000 C 
BRANCH  12  13
ATOM     13  C   UNL     1      88.073 325.378 192.854  1.00  0.00    -0.000 C 
BRANCH  13  14
ATOM     14  C   UNL     1      88.348 323.948 193.353  1.00  0.00    -0.000 C 
BRANCH  14  15
ATOM     15  C   UNL     1      88.095 322.885 192.272  1.00  0.00    -0.000 C 
BRANCH  15  16
ATOM     16  C   UNL     1      87.547 323.482 190.967  1.00  0.00    -0.000 C 
BRANCH  16  17
ATOM     17  C   UNL     1      88.106 322.742 189.748  1.00  0.00    -0.003 C 
ATOM     18  C   UNL     1      89.226 323.537 189.084  1.00  0.00     0.004 C 
ENDBRANCH  16  17
ENDBRANCH  15  16
ENDBRANCH  14  15
ENDBRANCH  13  14
ENDBRANCH  12  13
ENDBRANCH  11  12
ENDBRANCH   1  11
TORSDOF 14
ENDMDL
MODEL 3
REMARK VINA RESULT:    -5.900      1.057      1.445
REMARK INTER + INTRA:         -11.365
REMARK INTER:                 -10.219
REMARK INTRA:                  -1.145
REMARK UNBOUND:                -0.635
REMARK SMILES CCCCCCCCCCCCCCCC(=O)[O-]
REMARK SMILES IDX 9 1 10 2 11 3 12 4 13 5 14 6 15 7 16 8 17 9 18 10 8 11 7 12
REMARK SMILES IDX 6 13 5 14 4 15 3 16 2 17 1 18
REMARK H PARENT
REMARK Flexibility Score: inf
ROOT
ATOM      1  C   UNL     1     103.699 313.431 196.412  1.00  0.00     0.000 C 
ENDROOT
BRANCH   1   2
ATOM      2  C   UNL     1     103.880 313.235 197.928  1.00  0.00     0.000 C 
BRANCH   2   3
ATOM      3  C   UNL     1     103.696 311.771 198.360  1.00  0.00     0.000 C 
BRANCH   3   4
ATOM      4  C   UNL     1     102.990 311.640 199.718  1.00  0.00     0.000 C 
BRANCH   4   5
ATOM      5  C   UNL     1     104.012 311.605 200.865  1.00  0.00     0.000 C 
BRANCH   5   6
ATOM      6  C   UNL     1     103.348 311.593 202.251  1.00  0.00     0.006 C 
BRANCH   6   7
ATOM      7  C   UNL     1     104.171 310.826 203.294  1.00  0.00     0.053 C 
BRANCH   7   8
ATOM      8  C   UNL     1     104.597 311.741 204.398  1.00  0.00     0.041 C 
ATOM      9  O   UNL     1     105.121 312.855 204.130  1.00  0.00    -0.550 OA
ATOM     10  O   UNL     1     104.459 311.346 205.722  1.00  0.00    -0.550 OA
ENDBRANCH   7   8
ENDBRANCH   6   7
ENDBRANCH   5   6
ENDBRANCH   4   5
ENDBRANCH   3   4
ENDBRANCH   2   3
ENDBRANCH   1   2
BRANCH   1  11
ATOM     11  C   UNL     1     104.342 312.305 195.587  1.00  0.00     0.000 C 
BRANCH  11  12
ATOM     12  C   UNL     1     103.375 311.708 194.548  1.00  0.00    -0.000 C 
BRANCH  12  13
ATOM     13  C   UNL     1     104.073 311.372 193.220  1.00  0.00    -0.000 C 
BRANCH  13  14
ATOM     14  C   UNL     1     105.480 311.990 193.125  1.00  0.00    -0.000 C 
BRANCH  14  15
ATOM     15  C   UNL     1     105.557 313.128 192.094  1.00  0.00    -0.000 C 
BRANCH  15  16
ATOM     16  C   UNL     1     104.191 313.469 191.481  1.00  0.00    -0.000 C 
BRANCH  16  17
ATOM     17  C   UNL     1     103.856 314.952 191.679  1.00  0.00    -0.003 C 
ATOM     18  C   UNL     1     103.479 315.245 193.128  1.00  0.00     0.004 C 
ENDBRANCH  16  17
ENDBRANCH  15  16
ENDBRANCH  14  15
ENDBRANCH  13  14
ENDBRANCH  12  13
ENDBRANCH  11  12
ENDBRANCH   1  11
TORSDOF 14
ENDMDL
MODEL 4
REMARK VINA RESULT:    -5.897     19.869     20.690
REMARK INTER + INTRA:         -11.358
REMARK INTER:                 -10.764
REMARK INTRA:                  -0.594
REMARK UNBOUND:                -0.635
REMARK SMILES CCCCCCCCCCCCCCCC(=O)[O-]
REMARK SMILES IDX 9 1 10 2 11 3 12 4 13 5 14 6 15 7 16 8 17 9 18 10 8 11 7 12
REMARK SMILES IDX 6 13 5 14 4 15 3 16 2 17 1 18
REMARK H PARENT
REMARK Flexibility Score: inf
ROOT
ATOM      1  C   UNL     1      87.990 326.051 196.812  1.00  0.00     0.000 C 
ENDROOT
BRANCH   1   2
ATOM      2  C   UNL     1      88.640 325.609 198.135  1.00  0.00     0.000 C 
BRANCH   2   3
ATOM      3  C   UNL     1      89.050 326.799 199.019  1.00  0.00     0.000 C 
BRANCH   3   4
ATOM      4  C   UNL     1      89.938 326.380 200.200  1.00  0.00     0.000 C 
BRANCH   4   5
ATOM      5  C   UNL     1      89.143 326.396 201.515  1.00  0.00     0.000 C 
BRANCH   5   6
ATOM      6  C   UNL     1      90.028 326.680 202.739  1.00  0.00     0.006 C 
BRANCH   6   7
ATOM      7  C   UNL     1      89.275 327.417 203.854  1.00  0.00     0.053 C 
BRANCH   7   8
ATOM      8  C   UNL     1      89.112 326.530 205.048  1.00  0.00     0.041 C 
ATOM      9  O   UNL     1      89.013 327.030 206.199  1.00  0.00    -0.550 OA
ATOM     10  O   UNL     1      89.118 325.149 204.895  1.00  0.00    -0.550 OA
ENDBRANCH   7   8
ENDBRANCH   6   7
ENDBRANCH   5   6
ENDBRANCH   4   5
ENDBRANCH   3   4
ENDBRANCH   2   3
ENDBRANCH   1   2
BRANCH   1  11
ATOM     11  C   UNL     1      89.013 326.228 195.678  1.00  0.00     0.000 C 
BRANCH  11  12
ATOM     12  C   UNL     1      88.352 326.604 194.340  1.00  0.00    -0.000 C 
BRANCH  12  13
ATOM     13  C   UNL     1      86.855 326.252 194.304  1.00  0.00    -0.000 C 
BRANCH  13  14
ATOM     14  C   UNL     1      86.550 325.086 193.346  1.00  0.00    -0.000 C 
BRANCH  14  15
ATOM     15  C   UNL     1      87.785 324.636 192.550  1.00  0.00    -0.000 C 
BRANCH  15  16
ATOM     16  C   UNL     1      87.445 323.617 191.451  1.00  0.00    -0.000 C 
BRANCH  16  17
ATOM     17  C   UNL     1      88.474 323.671 190.317  1.00  0.00    -0.003 C 
ATOM     18  C   UNL     1      88.053 322.789 189.145  1.00  0.00     0.004 C 
ENDBRANCH  16  17
ENDBRANCH  15  16
ENDBRANCH  14  15
ENDBRANCH  13  14
ENDBRANCH  12  13
ENDBRANCH  11  12
ENDBRANCH   1  11
TORSDOF 14
ENDMDL
MODEL 5
REMARK VINA RESULT:    -5.889     19.406     21.851
REMARK INTER + INTRA:         -11.344
REMARK INTER:                  -9.475
REMARK INTRA:                  -1.869
REMARK UNBOUND:                -0.635
REMARK SMILES CCCCCCCCCCCCCCCC(=O)[O-]
REMARK SMILES IDX 9 1 10 2 11 3 12 4 13 5 14 6 15 7 16 8 17 9 18 10 8 11 7 12
REMARK SMILES IDX 6 13 5 14 4 15 3 16 2 17 1 18
REMARK H PARENT
REMARK Flexibility Score: inf
ROOT
ATOM      1  C   UNL     1      88.028 326.497 193.921  1.00  0.00     0.000 C 
ENDROOT
BRANCH   1   2
ATOM      2  C   UNL     1      88.037 325.366 192.876  1.00  0.00     0.000 C 
BRANCH   2   3
ATOM      3  C   UNL     1      86.697 324.616 192.806  1.00  0.00     0.000 C 
BRANCH   3   4
ATOM      4  C   UNL     1      86.763 323.369 191.911  1.00  0.00     0.000 C 
BRANCH   4   5
ATOM      5  C   UNL     1      88.153 323.227 191.273  1.00  0.00     0.000 C 
BRANCH   5   6
ATOM      6  C   UNL     1      88.096 323.155 189.738  1.00  0.00     0.006 C 
BRANCH   6   7
ATOM      7  C   UNL     1      89.333 323.772 189.072  1.00  0.00     0.053 C 
BRANCH   7   8
ATOM      8  C   UNL     1      90.259 322.697 188.596  1.00  0.00     0.041 C 
ATOM      9  O   UNL     1      91.481 322.946 188.422  1.00  0.00    -0.550 OA
ATOM     10  O   UNL     1      89.764 321.434 188.299  1.00  0.00    -0.550 OA
ENDBRANCH   7   8
ENDBRANCH   6   7
ENDBRANCH   5   6
ENDBRANCH   4   5
ENDBRANCH   3   4
ENDBRANCH   2   3
ENDBRANCH   1   2
BRANCH   1  11
ATOM     11  C   UNL     1      86.727 326.539 194.739  1.00  0.00     0.000 C 
BRANCH  11  12
ATOM     12  C   UNL     1      86.951 326.194 196.222  1.00  0.00    -0.000 C 
BRANCH  12  13
ATOM     13  C   UNL     1      88.421 326.341 196.645  1.00  0.00    -0.000 C 
BRANCH  13  14
ATOM     14  C   UNL     1      88.754 325.521 197.905  1.00  0.00    -0.000 C 
BRANCH  14  15
ATOM     15  C   UNL     1      88.651 324.006 197.670  1.00  0.00    -0.000 C 
BRANCH  15  16
ATOM     16  C   UNL     1      89.684 323.490 196.656  1.00  0.00    -0.000 C 
BRANCH  16  17
ATOM     17  C   UNL     1      89.008 323.090 195.340  1.00  0.00    -0.003 C 
ATOM     18  C   UNL     1      87.719 322.315 195.594  1.00  0.00     0.004 C 
ENDBRANCH  16  17
ENDBRANCH  15  16
ENDBRANCH  14  15
ENDBRANCH  13  14
ENDBRANCH  12  13
ENDBRANCH  11  12
ENDBRANCH   1  11
TORSDOF 14
ENDMDL
MODEL 6
REMARK VINA RESULT:    -5.849     19.974     20.804
REMARK INTER + INTRA:         -11.271
REMARK INTER:                 -10.852
REMARK INTRA:                  -0.419
REMARK UNBOUND:                -0.635
REMARK SMILES CCCCCCCCCCCCCCCC(=O)[O-]
REMARK SMILES IDX 9 1 10 2 11 3 12 4 13 5 14 6 15 7 16 8 17 9 18 10 8 11 7 12
REMARK SMILES IDX 6 13 5 14 4 15 3 16 2 17 1 18
REMARK H PARENT
REMARK Flexibility Score: inf
ROOT
ATOM      1  C   UNL     1      89.026 325.771 199.144  1.00  0.00     0.000 C 
ENDROOT
BRANCH   1   2
ATOM      2  C   UNL     1      89.703 326.517 200.307  1.00  0.00     0.000 C 
BRANCH   2   3
ATOM      3  C   UNL     1      88.989 326.291 201.650  1.00  0.00     0.000 C 
BRANCH   3   4
ATOM      4  C   UNL     1      89.853 326.695 202.854  1.00  0.00     0.000 C 
BRANCH   4   5
ATOM      5  C   UNL     1      88.981 327.245 203.993  1.00  0.00     0.000 C 
BRANCH   5   6
ATOM      6  C   UNL     1      89.685 327.188 205.359  1.00  0.00     0.006 C 
BRANCH   6   7
ATOM      7  C   UNL     1      88.770 326.662 206.472  1.00  0.00     0.053 C 
BRANCH   7   8
ATOM      8  C   UNL     1      88.147 325.364 206.066  1.00  0.00     0.041 C 
ATOM      9  O   UNL     1      88.872 324.394 205.720  1.00  0.00    -0.550 OA
ATOM     10  O   UNL     1      86.764 325.239 206.024  1.00  0.00    -0.550 OA
ENDBRANCH   7   8
ENDBRANCH   6   7
ENDBRANCH   5   6
ENDBRANCH   4   5
ENDBRANCH   3   4
ENDBRANCH   2   3
ENDBRANCH   1   2
BRANCH   1  11
ATOM     11  C   UNL     1      88.625 326.707 197.992  1.00  0.00     0.000 C 
BRANCH  11  12
ATOM     12  C   UNL     1      88.019 325.948 196.798  1.00  0.00    -0.000 C 
BRANCH  12  13
ATOM     13  C   UNL     1      88.893 326.042 195.537  1.00  0.00    -0.000 C 
BRANCH  13  14
ATOM     14  C   UNL     1      88.139 326.657 194.344  1.00  0.00    -0.000 C 
BRANCH  14  15
ATOM     15  C   UNL     1      87.299 325.622 193.579  1.00  0.00    -0.000 C 
BRANCH  15  16
ATOM     16  C   UNL     1      88.158 324.647 192.759  1.00  0.00    -0.000 C 
BRANCH  16  17
ATOM     17  C   UNL     1      87.306 323.901 191.726  1.00  0.00    -0.003 C 
ATOM     18  C   UNL     1      88.151 323.436 190.545  1.00  0.00     0.004 C 
ENDBRANCH  16  17
ENDBRANCH  15  16
ENDBRANCH  14  15
ENDBRANCH  13  14
ENDBRANCH  12  13
ENDBRANCH  11  12
ENDBRANCH   1  11
TORSDOF 14
ENDMDL
MODEL 7
REMARK VINA RESULT:    -5.848      1.737      2.935
REMARK INTER + INTRA:         -11.269
REMARK INTER:                  -9.538
REMARK INTRA:                  -1.731
REMARK UNBOUND:                -0.635
REMARK SMILES CCCCCCCCCCCCCCCC(=O)[O-]
REMARK SMILES IDX 9 1 10 2 11 3 12 4 13 5 14 6 15 7 16 8 17 9 18 10 8 11 7 12
REMARK SMILES IDX 6 13 5 14 4 15 3 16 2 17 1 18
REMARK H PARENT
REMARK Flexibility Score: inf
ROOT
ATOM      1  C   UNL     1     103.408 311.554 194.755  1.00  0.00     0.000 C 
ENDROOT
BRANCH   1   2
ATOM      2  C   UNL     1     104.573 311.941 195.685  1.00  0.00     0.000 C 
BRANCH   2   3
ATOM      3  C   UNL     1     104.188 311.876 197.172  1.00  0.00     0.000 C 
BRANCH   3   4
ATOM      4  C   UNL     1     103.466 313.144 197.651  1.00  0.00     0.000 C 
BRANCH   4   5
ATOM      5  C   UNL     1     103.162 313.066 199.155  1.00  0.00     0.000 C 
BRANCH   5   6
ATOM      6  C   UNL     1     103.384 311.658 199.731  1.00  0.00     0.006 C 
BRANCH   6   7
ATOM      7  C   UNL     1     104.230 311.670 201.011  1.00  0.00     0.053 C 
BRANCH   7   8
ATOM      8  C   UNL     1     103.433 311.157 202.168  1.00  0.00     0.041 C 
ATOM      9  O   UNL     1     103.986 310.971 203.285  1.00  0.00    -0.550 OA
ATOM     10  O   UNL     1     102.091 310.840 202.003  1.00  0.00    -0.550 OA
ENDBRANCH   7   8
ENDBRANCH   6   7
ENDBRANCH   5   6
ENDBRANCH   4   5
ENDBRANCH   3   4
ENDBRANCH   2   3
ENDBRANCH   1   2
BRANCH   1  11
ATOM     11  C   UNL     1     103.859 311.322 193.304  1.00  0.00     0.000 C 
BRANCH  11  12
ATOM     12  C   UNL     1     105.366 311.564 193.108  1.00  0.00    -0.000 C 
BRANCH  12  13
ATOM     13  C   UNL     1     105.659 312.867 192.346  1.00  0.00    -0.000 C 
BRANCH  13  14
ATOM     14  C   UNL     1     104.416 313.413 191.619  1.00  0.00    -0.000 C 
BRANCH  14  15
ATOM     15  C   UNL     1     103.960 314.775 192.168  1.00  0.00    -0.000 C 
BRANCH  15  16
ATOM     16  C   UNL     1     105.007 315.427 193.084  1.00  0.00    -0.000 C 
BRANCH  16  17
ATOM     17  C   UNL     1     104.535 315.427 194.542  1.00  0.00    -0.003 C 
ATOM     18  C   UNL     1     103.024 315.235 194.634  1.00  0.00     0.004 C 
ENDBRANCH  16  17
ENDBRANCH  15  16
ENDBRANCH  14  15
ENDBRANCH  13  14
ENDBRANCH  12  13
ENDBRANCH  11  12
ENDBRANCH   1  11
TORSDOF 14
ENDMDL
MODEL 8
REMARK VINA RESULT:    -5.788     19.039     20.317
REMARK INTER + INTRA:         -11.160
REMARK INTER:                 -10.051
REMARK INTRA:                  -1.108
REMARK UNBOUND:                -0.635
REMARK SMILES CCCCCCCCCCCCCCCC(=O)[O-]
REMARK SMILES IDX 9 1 10 2 11 3 12 4 13 5 14 6 15 7 16 8 17 9 18 10 8 11 7 12
REMARK SMILES IDX 6 13 5 14 4 15 3 16 2 17 1 18
REMARK H PARENT
REMARK Flexibility Score: inf
ROOT
ATOM      1  C   UNL     1      88.019 326.618 193.986  1.00  0.00     0.000 C 
ENDROOT
BRANCH   1   2
ATOM      2  C   UNL     1      88.908 326.512 195.239  1.00  0.00     0.000 C 
BRANCH   2   3
ATOM      3  C   UNL     1      88.963 325.084 195.805  1.00  0.00     0.000 C 
BRANCH   3   4
ATOM      4  C   UNL     1      88.700 325.037 197.318  1.00  0.00     0.000 C 
BRANCH   4   5
ATOM      5  C   UNL     1      88.264 326.414 197.840  1.00  0.00     0.000 C 
BRANCH   5   6
ATOM      6  C   UNL     1      89.183 326.945 198.952  1.00  0.00     0.006 C 
BRANCH   6   7
ATOM      7  C   UNL     1      89.517 325.877 200.001  1.00  0.00     0.053 C 
BRANCH   7   8
ATOM      8  C   UNL     1      89.890 326.520 201.300  1.00  0.00     0.041 C 
ATOM      9  O   UNL     1      91.076 326.892 201.505  1.00  0.00    -0.550 OA
ATOM     10  O   UNL     1      88.939 326.667 202.302  1.00  0.00    -0.550 OA
ENDBRANCH   7   8
ENDBRANCH   6   7
ENDBRANCH   5   6
ENDBRANCH   4   5
ENDBRANCH   3   4
ENDBRANCH   2   3
ENDBRANCH   1   2
BRANCH   1  11
ATOM     11  C   UNL     1      86.697 325.847 194.130  1.00  0.00     0.000 C 
BRANCH  11  12
ATOM     12  C   UNL     1      86.516 324.777 193.039  1.00  0.00    -0.000 C 
BRANCH  12  13
ATOM     13  C   UNL     1      87.774 324.601 192.173  1.00  0.00    -0.000 C 
BRANCH  13  14
ATOM     14  C   UNL     1      88.218 323.129 192.076  1.00  0.00    -0.000 C 
BRANCH  14  15
ATOM     15  C   UNL     1      88.214 322.605 190.631  1.00  0.00    -0.000 C 
BRANCH  15  16
ATOM     16  C   UNL     1      88.818 323.605 189.634  1.00  0.00    -0.000 C 
BRANCH  16  17
ATOM     17  C   UNL     1      89.879 322.931 188.756  1.00  0.00    -0.003 C 
ATOM     18  C   UNL     1      90.374 321.633 189.386  1.00  0.00     0.004 C 
ENDBRANCH  16  17
ENDBRANCH  15  16
ENDBRANCH  14  15
ENDBRANCH  13  14
ENDBRANCH  12  13
ENDBRANCH  11  12
ENDBRANCH   1  11
TORSDOF 14
ENDMDL
MODEL 9
REMARK VINA RESULT:    -5.765     19.675     20.497
REMARK INTER + INTRA:         -11.117
REMARK INTER:                 -10.235
REMARK INTRA:                  -0.882
REMARK UNBOUND:                -0.635
REMARK SMILES CCCCCCCCCCCCCCCC(=O)[O-]
REMARK SMILES IDX 9 1 10 2 11 3 12 4 13 5 14 6 15 7 16 8 17 9 18 10 8 11 7 12
REMARK SMILES IDX 6 13 5 14 4 15 3 16 2 17 1 18
REMARK H PARENT
REMARK Flexibility Score: inf
ROOT
ATOM      1  C   UNL     1      88.873 326.289 198.246  1.00  0.00     0.000 C 
ENDROOT
BRANCH   1   2
ATOM      2  C   UNL     1      88.857 326.160 199.780  1.00  0.00     0.000 C 
BRANCH   2   3
ATOM      3  C   UNL     1      90.259 325.930 200.367  1.00  0.00     0.000 C 
BRANCH   3   4
ATOM      4  C   UNL     1      90.480 326.688 201.685  1.00  0.00     0.000 C 
BRANCH   4   5
ATOM      5  C   UNL     1      89.296 326.478 202.642  1.00  0.00     0.000 C 
BRANCH   5   6
ATOM      6  C   UNL     1      89.277 327.497 203.793  1.00  0.00     0.006 C 
BRANCH   6   7
ATOM      7  C   UNL     1      89.568 326.853 205.155  1.00  0.00     0.053 C 
BRANCH   7   8
ATOM      8  C   UNL     1      91.040 326.838 205.421  1.00  0.00     0.041 C 
ATOM      9  O   UNL     1      91.735 325.844 205.081  1.00  0.00    -0.550 OA
ATOM     10  O   UNL     1      91.637 327.901 206.087  1.00  0.00    -0.550 OA
ENDBRANCH   7   8
ENDBRANCH   6   7
ENDBRANCH   5   6
ENDBRANCH   4   5
ENDBRANCH   3   4
ENDBRANCH   2   3
ENDBRANCH   1   2
BRANCH   1  11
ATOM     11  C   UNL     1      88.548 324.964 197.536  1.00  0.00     0.000 C 
BRANCH  11  12
ATOM     12  C   UNL     1      88.878 325.003 196.034  1.00  0.00    -0.000 C 
BRANCH  12  13
ATOM     13  C   UNL     1      88.944 326.436 195.482  1.00  0.00    -0.000 C 
BRANCH  13  14
ATOM     14  C   UNL     1      88.247 326.572 194.116  1.00  0.00    -0.000 C 
BRANCH  14  15
ATOM     15  C   UNL     1      86.845 325.941 194.102  1.00  0.00    -0.000 C 
BRANCH  15  16
ATOM     16  C   UNL     1      86.705 324.830 193.050  1.00  0.00    -0.000 C 
BRANCH  16  17
ATOM     17  C   UNL     1      88.054 324.526 192.390  1.00  0.00    -0.003 C 
ATOM     18  C   UNL     1      87.871 323.749 191.090  1.00  0.00     0.004 C 
ENDBRANCH  16  17
ENDBRANCH  15  16
ENDBRANCH  14  15
ENDBRANCH  13  14
ENDBRANCH  12  13
ENDBRANCH  11  12
ENDBRANCH   1  11
TORSDOF 14
ENDMDL
