MODEL 1
REMARK VINA RESULT:    -3.705      0.000      0.000
REMARK INTER + INTRA:          -9.127
REMARK INTER:                  -6.736
REMARK INTRA:                  -2.391
REMARK UNBOUND:                -2.391
REMARK SMILES CCCCCCCCCCCCCCCC(=O)[O-]
REMARK SMILES IDX 9 1 10 2 11 3 12 4 13 5 14 6 15 7 16 8 17 9 18 10 8 11 7 12
REMARK SMILES IDX 6 13 5 14 4 15 3 16 2 17 1 18
REMARK H PARENT
REMARK Flexibility Score: inf
ROOT
ATOM      1  C   UNL     1      21.981  38.678  33.979  1.00  0.00     0.000 C 
ENDROOT
BRANCH   1   2
ATOM      2  C   UNL     1      22.425  38.091  35.328  1.00  0.00     0.000 C 
BRANCH   2   3
ATOM      3  C   UNL     1      21.980  36.629  35.508  1.00  0.00     0.000 C 
BRANCH   3   4
ATOM      4  C   UNL     1      21.711  36.269  36.979  1.00  0.00     0.000 C 
BRANCH   4   5
ATOM      5  C   UNL     1      22.794  36.810  37.928  1.00  0.00     0.000 C 
BRANCH   5   6
ATOM      6  C   UNL     1      22.210  37.573  39.133  1.00  0.00     0.006 C 
BRANCH   6   7
ATOM      7  C   UNL     1      21.041  38.507  38.776  1.00  0.00     0.053 C 
BRANCH   7   8
ATOM      8  C   UNL     1      19.871  38.349  39.699  1.00  0.00     0.041 C 
ATOM      9  O   UNL     1      20.017  38.494  40.941  1.00  0.00    -0.550 OA
ATOM     10  O   UNL     1      18.621  38.019  39.189  1.00  0.00    -0.550 OA
ENDBRANCH   7   8
ENDBRANCH   6   7
ENDBRANCH   5   6
ENDBRANCH   4   5
ENDBRANCH   3   4
ENDBRANCH   2   3
ENDBRANCH   1   2
BRANCH   1  11
ATOM     11  C   UNL     1      20.877  39.739  34.128  1.00  0.00     0.000 C 
BRANCH  11  12
ATOM     12  C   UNL     1      20.506  40.001  35.597  1.00  0.00    -0.000 C 
BRANCH  12  13
ATOM     13  C   UNL     1      19.016  39.739  35.884  1.00  0.00    -0.000 C 
BRANCH  13  14
ATOM     14  C   UNL     1      18.600  38.293  35.573  1.00  0.00    -0.000 C 
BRANCH  14  15
ATOM     15  C   UNL     1      17.355  38.219  34.673  1.00  0.00    -0.000 C 
BRANCH  15  16
ATOM     16  C   UNL     1      17.465  37.133  33.589  1.00  0.00    -0.000 C 
BRANCH  16  17
ATOM     17  C   UNL     1      18.883  36.540  33.449  1.00  0.00    -0.003 C 
ATOM     18  C   UNL     1      19.504  36.833  32.084  1.00  0.00     0.004 C 
ENDBRANCH  16  17
ENDBRANCH  15  16
ENDBRANCH  14  15
ENDBRANCH  13  14
ENDBRANCH  12  13
ENDBRANCH  11  12
ENDBRANCH   1  11
TORSDOF 14
ENDMDL
MODEL 2
REMARK VINA RESULT:    -3.607      2.697      5.353
REMARK INTER + INTRA:          -8.951
REMARK INTER:                  -6.809
REMARK INTRA:                  -2.142
REMARK UNBOUND:                -2.391
REMARK SMILES CCCCCCCCCCCCCCCC(=O)[O-]
REMARK SMILES IDX 9 1 10 2 11 3 12 4 13 5 14 6 15 7 16 8 17 9 18 10 8 11 7 12
REMARK SMILES IDX 6 13 5 14 4 15 3 16 2 17 1 18
REMARK H PARENT
REMARK Flexibility Score: inf
ROOT
ATOM      1  C   UNL     1      22.018  36.367  36.141  1.00  0.00     0.000 C 
ENDROOT
BRANCH   1   2
ATOM      2  C   UNL     1      21.782  37.118  34.821  1.00  0.00     0.000 C 
BRANCH   2   3
ATOM      3  C   UNL     1      22.303  38.565  34.865  1.00  0.00     0.000 C 
BRANCH   3   4
ATOM      4  C   UNL     1      21.916  39.373  33.616  1.00  0.00     0.000 C 
BRANCH   4   5
ATOM      5  C   UNL     1      22.027  38.550  32.321  1.00  0.00     0.000 C 
BRANCH   5   6
ATOM      6  C   UNL     1      20.695  38.455  31.552  1.00  0.00     0.006 C 
BRANCH   6   7
ATOM      7  C   UNL     1      20.187  37.017  31.352  1.00  0.00     0.053 C 
BRANCH   7   8
ATOM      8  C   UNL     1      18.874  36.767  32.030  1.00  0.00     0.041 C 
ATOM      9  O   UNL     1      17.807  37.207  31.528  1.00  0.00    -0.550 OA
ATOM     10  O   UNL     1      18.832  36.066  33.229  1.00  0.00    -0.550 OA
ENDBRANCH   7   8
ENDBRANCH   6   7
ENDBRANCH   5   6
ENDBRANCH   4   5
ENDBRANCH   3   4
ENDBRANCH   2   3
ENDBRANCH   1   2
BRANCH   1  11
ATOM     11  C   UNL     1      22.728  37.232  37.197  1.00  0.00     0.000 C 
BRANCH  11  12
ATOM     12  C   UNL     1      22.041  37.165  38.571  1.00  0.00    -0.000 C 
BRANCH  12  13
ATOM     13  C   UNL     1      20.547  36.809  38.467  1.00  0.00    -0.000 C 
BRANCH  13  14
ATOM     14  C   UNL     1      19.656  37.751  39.290  1.00  0.00    -0.000 C 
BRANCH  14  15
ATOM     15  C   UNL     1      18.704  38.579  38.410  1.00  0.00    -0.000 C 
BRANCH  15  16
ATOM     16  C   UNL     1      19.229  38.767  36.976  1.00  0.00    -0.000 C 
BRANCH  16  17
ATOM     17  C   UNL     1      18.219  38.343  35.887  1.00  0.00    -0.003 C 
ATOM     18  C   UNL     1      18.238  39.280  34.679  1.00  0.00     0.004 C 
ENDBRANCH  16  17
ENDBRANCH  15  16
ENDBRANCH  14  15
ENDBRANCH  13  14
ENDBRANCH  12  13
ENDBRANCH  11  12
ENDBRANCH   1  11
TORSDOF 14
ENDMDL
MODEL 3
REMARK VINA RESULT:    -3.602      2.343      3.957
REMARK INTER + INTRA:          -8.941
REMARK INTER:                  -6.950
REMARK INTRA:                  -1.991
REMARK UNBOUND:                -2.391
REMARK SMILES CCCCCCCCCCCCCCCC(=O)[O-]
REMARK SMILES IDX 9 1 10 2 11 3 12 4 13 5 14 6 15 7 16 8 17 9 18 10 8 11 7 12
REMARK SMILES IDX 6 13 5 14 4 15 3 16 2 17 1 18
REMARK H PARENT
REMARK Flexibility Score: inf
ROOT
ATOM      1  C   UNL     1      22.115  36.254  36.691  1.00  0.00     0.000 C 
ENDROOT
BRANCH   1   2
ATOM      2  C   UNL     1      21.636  36.005  38.130  1.00  0.00     0.000 C 
BRANCH   2   3
ATOM      3  C   UNL     1      21.173  37.295  38.828  1.00  0.00     0.000 C 
BRANCH   3   4
ATOM      4  C   UNL     1      19.642  37.403  38.917  1.00  0.00     0.000 C 
BRANCH   4   5
ATOM      5  C   UNL     1      19.125  38.803  38.542  1.00  0.00     0.000 C 
BRANCH   5   6
ATOM      6  C   UNL     1      19.312  39.134  37.049  1.00  0.00     0.006 C 
BRANCH   6   7
ATOM      7  C   UNL     1      18.379  38.349  36.111  1.00  0.00     0.053 C 
BRANCH   7   8
ATOM      8  C   UNL     1      17.875  39.179  34.969  1.00  0.00     0.041 C 
ATOM      9  O   UNL     1      16.740  38.952  34.472  1.00  0.00    -0.550 OA
ATOM     10  O   UNL     1      18.668  40.190  34.440  1.00  0.00    -0.550 OA
ENDBRANCH   7   8
ENDBRANCH   6   7
ENDBRANCH   5   6
ENDBRANCH   4   5
ENDBRANCH   3   4
ENDBRANCH   2   3
ENDBRANCH   1   2
BRANCH   1  11
ATOM     11  C   UNL     1      22.748  37.645  36.508  1.00  0.00     0.000 C 
BRANCH  11  12
ATOM     12  C   UNL     1      22.343  38.306  35.181  1.00  0.00    -0.000 C 
BRANCH  12  13
ATOM     13  C   UNL     1      21.458  37.392  34.313  1.00  0.00    -0.000 C 
BRANCH  13  14
ATOM     14  C   UNL     1      21.070  38.041  32.976  1.00  0.00    -0.000 C 
BRANCH  14  15
ATOM     15  C   UNL     1      20.542  37.018  31.956  1.00  0.00    -0.000 C 
BRANCH  15  16
ATOM     16  C   UNL     1      19.006  36.998  31.870  1.00  0.00    -0.000 C 
BRANCH  16  17
ATOM     17  C   UNL     1      18.338  36.111  32.942  1.00  0.00    -0.003 C 
ATOM     18  C   UNL     1      16.918  35.699  32.555  1.00  0.00     0.004 C 
ENDBRANCH  16  17
ENDBRANCH  15  16
ENDBRANCH  14  15
ENDBRANCH  13  14
ENDBRANCH  12  13
ENDBRANCH  11  12
ENDBRANCH   1  11
TORSDOF 14
ENDMDL
MODEL 4
REMARK VINA RESULT:    -3.585      2.216      3.818
REMARK INTER + INTRA:          -8.909
REMARK INTER:                  -6.221
REMARK INTRA:                  -2.688
REMARK UNBOUND:                -2.391
REMARK SMILES CCCCCCCCCCCCCCCC(=O)[O-]
REMARK SMILES IDX 9 1 10 2 11 3 12 4 13 5 14 6 15 7 16 8 17 9 18 10 8 11 7 12
REMARK SMILES IDX 6 13 5 14 4 15 3 16 2 17 1 18
REMARK H PARENT
REMARK Flexibility Score: inf
ROOT
ATOM      1  C   UNL     1      17.224  37.057  33.078  1.00  0.00     0.000 C 
ENDROOT
BRANCH   1   2
ATOM      2  C   UNL     1      18.575  36.347  33.252  1.00  0.00     0.000 C 
BRANCH   2   3
ATOM      3  C   UNL     1      19.618  36.803  32.216  1.00  0.00     0.000 C 
BRANCH   3   4
ATOM      4  C   UNL     1      20.941  37.244  32.862  1.00  0.00     0.000 C 
BRANCH   4   5
ATOM      5  C   UNL     1      20.989  36.954  34.371  1.00  0.00     0.000 C 
BRANCH   5   6
ATOM      6  C   UNL     1      21.948  37.888  35.134  1.00  0.00     0.006 C 
BRANCH   6   7
ATOM      7  C   UNL     1      21.472  38.256  36.550  1.00  0.00     0.053 C 
BRANCH   7   8
ATOM      8  C   UNL     1      21.233  37.052  37.410  1.00  0.00     0.041 C 
ATOM      9  O   UNL     1      20.186  36.967  38.105  1.00  0.00    -0.550 OA
ATOM     10  O   UNL     1      22.177  36.034  37.462  1.00  0.00    -0.550 OA
ENDBRANCH   7   8
ENDBRANCH   6   7
ENDBRANCH   5   6
ENDBRANCH   4   5
ENDBRANCH   3   4
ENDBRANCH   2   3
ENDBRANCH   1   2
BRANCH   1  11
ATOM     11  C   UNL     1      16.763  37.777  34.358  1.00  0.00     0.000 C 
BRANCH  11  12
ATOM     12  C   UNL     1      17.936  38.366  35.157  1.00  0.00    -0.000 C 
BRANCH  12  13
ATOM     13  C   UNL     1      18.005  39.901  35.059  1.00  0.00    -0.000 C 
BRANCH  13  14
ATOM     14  C   UNL     1      19.251  40.391  34.306  1.00  0.00    -0.000 C 
BRANCH  14  15
ATOM     15  C   UNL     1      19.073  40.343  32.779  1.00  0.00    -0.000 C 
BRANCH  15  16
ATOM     16  C   UNL     1      17.819  41.095  32.300  1.00  0.00    -0.000 C 
BRANCH  16  17
ATOM     17  C   UNL     1      16.906  40.254  31.382  1.00  0.00    -0.003 C 
ATOM     18  C   UNL     1      17.682  39.575  30.254  1.00  0.00     0.004 C 
ENDBRANCH  16  17
ENDBRANCH  15  16
ENDBRANCH  14  15
ENDBRANCH  13  14
ENDBRANCH  12  13
ENDBRANCH  11  12
ENDBRANCH   1  11
TORSDOF 14
ENDMDL
MODEL 5
REMARK VINA RESULT:    -3.582      9.737     12.983
REMARK INTER + INTRA:          -8.905
REMARK INTER:                  -6.920
REMARK INTRA:                  -1.985
REMARK UNBOUND:                -2.391
REMARK SMILES CCCCCCCCCCCCCCCC(=O)[O-]
REMARK SMILES IDX 9 1 10 2 11 3 12 4 13 5 14 6 15 7 16 8 17 9 18 10 8 11 7 12
REMARK SMILES IDX 6 13 5 14 4 15 3 16 2 17 1 18
REMARK H PARENT
REMARK Flexibility Score: inf
ROOT
ATOM      1  C   UNL     1      17.779  31.085  25.066  1.00  0.00     0.000 C 
ENDROOT
BRANCH   1   2
ATOM      2  C   UNL     1      17.310  32.389  24.404  1.00  0.00     0.000 C 
BRANCH   2   3
ATOM      3  C   UNL     1      15.983  32.903  24.988  1.00  0.00     0.000 C 
BRANCH   3   4
ATOM      4  C   UNL     1      16.115  33.355  26.452  1.00  0.00     0.000 C 
BRANCH   4   5
ATOM      5  C   UNL     1      14.775  33.809  27.055  1.00  0.00     0.000 C 
BRANCH   5   6
ATOM      6  C   UNL     1      13.708  32.697  27.052  1.00  0.00     0.006 C 
BRANCH   6   7
ATOM      7  C   UNL     1      14.017  31.529  28.004  1.00  0.00     0.053 C 
BRANCH   7   8
ATOM      8  C   UNL     1      14.312  30.252  27.276  1.00  0.00     0.041 C 
ATOM      9  O   UNL     1      15.451  29.722  27.361  1.00  0.00    -0.550 OA
ATOM     10  O   UNL     1      13.335  29.658  26.488  1.00  0.00    -0.550 OA
ENDBRANCH   7   8
ENDBRANCH   6   7
ENDBRANCH   5   6
ENDBRANCH   4   5
ENDBRANCH   3   4
ENDBRANCH   2   3
ENDBRANCH   1   2
BRANCH   1  11
ATOM     11  C   UNL     1      19.217  31.175  25.604  1.00  0.00     0.000 C 
BRANCH  11  12
ATOM     12  C   UNL     1      20.271  30.919  24.514  1.00  0.00    -0.000 C 
BRANCH  12  13
ATOM     13  C   UNL     1      21.019  32.200  24.104  1.00  0.00    -0.000 C 
BRANCH  13  14
ATOM     14  C   UNL     1      20.897  33.317  25.153  1.00  0.00    -0.000 C 
BRANCH  14  15
ATOM     15  C   UNL     1      20.298  34.609  24.570  1.00  0.00    -0.000 C 
BRANCH  15  16
ATOM     16  C   UNL     1      19.405  35.358  25.573  1.00  0.00    -0.000 C 
BRANCH  16  17
ATOM     17  C   UNL     1      19.433  34.758  26.995  1.00  0.00    -0.003 C 
ATOM     18  C   UNL     1      18.950  35.748  28.055  1.00  0.00     0.004 C 
ENDBRANCH  16  17
ENDBRANCH  15  16
ENDBRANCH  14  15
ENDBRANCH  13  14
ENDBRANCH  12  13
ENDBRANCH  11  12
ENDBRANCH   1  11
TORSDOF 14
ENDMDL
MODEL 6
REMARK VINA RESULT:    -3.553      1.434      3.146
REMARK INTER + INTRA:          -8.852
REMARK INTER:                  -6.450
REMARK INTRA:                  -2.403
REMARK UNBOUND:                -2.391
REMARK SMILES CCCCCCCCCCCCCCCC(=O)[O-]
REMARK SMILES IDX 9 1 10 2 11 3 12 4 13 5 14 6 15 7 16 8 17 9 18 10 8 11 7 12
REMARK SMILES IDX 6 13 5 14 4 15 3 16 2 17 1 18
REMARK H PARENT
REMARK Flexibility Score: inf
ROOT
ATOM      1  C   UNL     1      18.581  38.122  35.632  1.00  0.00     0.000 C 
ENDROOT
BRANCH   1   2
ATOM      2  C   UNL     1      19.713  39.144  35.443  1.00  0.00     0.000 C 
BRANCH   2   3
ATOM      3  C   UNL     1      21.081  38.474  35.229  1.00  0.00     0.000 C 
BRANCH   3   4
ATOM      4  C   UNL     1      21.062  36.971  35.555  1.00  0.00     0.000 C 
BRANCH   4   5
ATOM      5  C   UNL     1      22.257  36.539  36.423  1.00  0.00     0.000 C 
BRANCH   5   6
ATOM      6  C   UNL     1      21.841  36.074  37.831  1.00  0.00     0.006 C 
BRANCH   6   7
ATOM      7  C   UNL     1      20.575  36.763  38.370  1.00  0.00     0.053 C 
BRANCH   7   8
ATOM      8  C   UNL     1      20.877  38.027  39.116  1.00  0.00     0.041 C 
ATOM      9  O   UNL     1      22.041  38.253  39.539  1.00  0.00    -0.550 OA
ATOM     10  O   UNL     1      19.866  38.948  39.363  1.00  0.00    -0.550 OA
ENDBRANCH   7   8
ENDBRANCH   6   7
ENDBRANCH   5   6
ENDBRANCH   4   5
ENDBRANCH   3   4
ENDBRANCH   2   3
ENDBRANCH   1   2
BRANCH   1  11
ATOM     11  C   UNL     1      17.287  38.527  34.906  1.00  0.00     0.000 C 
BRANCH  11  12
ATOM     12  C   UNL     1      17.209  37.959  33.479  1.00  0.00    -0.000 C 
BRANCH  12  13
ATOM     13  C   UNL     1      18.092  36.712  33.293  1.00  0.00    -0.000 C 
BRANCH  13  14
ATOM     14  C   UNL     1      18.797  36.684  31.928  1.00  0.00    -0.000 C 
BRANCH  14  15
ATOM     15  C   UNL     1      20.327  36.766  32.053  1.00  0.00    -0.000 C 
BRANCH  15  16
ATOM     16  C   UNL     1      20.911  38.041  31.419  1.00  0.00    -0.000 C 
BRANCH  16  17
ATOM     17  C   UNL     1      19.839  39.072  31.007  1.00  0.00    -0.003 C 
ATOM     18  C   UNL     1      19.814  40.288  31.933  1.00  0.00     0.004 C 
ENDBRANCH  16  17
ENDBRANCH  15  16
ENDBRANCH  14  15
ENDBRANCH  13  14
ENDBRANCH  12  13
ENDBRANCH  11  12
ENDBRANCH   1  11
TORSDOF 14
ENDMDL
MODEL 7
REMARK VINA RESULT:    -3.543      1.211      2.484
REMARK INTER + INTRA:          -8.834
REMARK INTER:                  -6.870
REMARK INTRA:                  -1.964
REMARK UNBOUND:                -2.391
REMARK SMILES CCCCCCCCCCCCCCCC(=O)[O-]
REMARK SMILES IDX 9 1 10 2 11 3 12 4 13 5 14 6 15 7 16 8 17 9 18 10 8 11 7 12
REMARK SMILES IDX 6 13 5 14 4 15 3 16 2 17 1 18
REMARK H PARENT
REMARK Flexibility Score: inf
ROOT
ATOM      1  C   UNL     1      21.170  39.134  34.388  1.00  0.00     0.000 C 
ENDROOT
BRANCH   1   2
ATOM      2  C   UNL     1      22.069  37.936  34.734  1.00  0.00     0.000 C 
BRANCH   2   3
ATOM      3  C   UNL     1      21.304  36.818  35.463  1.00  0.00     0.000 C 
BRANCH   3   4
ATOM      4  C   UNL     1      22.133  36.167  36.583  1.00  0.00     0.000 C 
BRANCH   4   5
ATOM      5  C   UNL     1      22.590  37.180  37.647  1.00  0.00     0.000 C 
BRANCH   5   6
ATOM      6  C   UNL     1      21.627  37.267  38.846  1.00  0.00     0.006 C 
BRANCH   6   7
ATOM      7  C   UNL     1      20.742  38.526  38.849  1.00  0.00     0.053 C 
BRANCH   7   8
ATOM      8  C   UNL     1      19.292  38.215  38.630  1.00  0.00     0.041 C 
ATOM      9  O   UNL     1      18.584  37.786  39.578  1.00  0.00    -0.550 OA
ATOM     10  O   UNL     1      18.728  38.379  37.370  1.00  0.00    -0.550 OA
ENDBRANCH   7   8
ENDBRANCH   6   7
ENDBRANCH   5   6
ENDBRANCH   4   5
ENDBRANCH   3   4
ENDBRANCH   2   3
ENDBRANCH   1   2
BRANCH   1  11
ATOM     11  C   UNL     1      21.022  39.347  32.871  1.00  0.00     0.000 C 
BRANCH  11  12
ATOM     12  C   UNL     1      21.750  38.270  32.051  1.00  0.00    -0.000 C 
BRANCH  12  13
ATOM     13  C   UNL     1      20.785  37.419  31.207  1.00  0.00    -0.000 C 
BRANCH  13  14
ATOM     14  C   UNL     1      19.334  37.919  31.283  1.00  0.00    -0.000 C 
BRANCH  14  15
ATOM     15  C   UNL     1      18.350  36.812  31.697  1.00  0.00    -0.000 C 
BRANCH  15  16
ATOM     16  C   UNL     1      18.452  36.449  33.188  1.00  0.00    -0.000 C 
BRANCH  16  17
ATOM     17  C   UNL     1      17.842  37.512  34.127  1.00  0.00    -0.003 C 
ATOM     18  C   UNL     1      16.333  37.660  33.935  1.00  0.00     0.004 C 
ENDBRANCH  16  17
ENDBRANCH  15  16
ENDBRANCH  14  15
ENDBRANCH  13  14
ENDBRANCH  12  13
ENDBRANCH  11  12
ENDBRANCH   1  11
TORSDOF 14
ENDMDL
MODEL 8
REMARK VINA RESULT:    -3.534      3.326      6.177
REMARK INTER + INTRA:          -8.818
REMARK INTER:                  -6.299
REMARK INTRA:                  -2.519
REMARK UNBOUND:                -2.391
REMARK SMILES CCCCCCCCCCCCCCCC(=O)[O-]
REMARK SMILES IDX 9 1 10 2 11 3 12 4 13 5 14 6 15 7 16 8 17 9 18 10 8 11 7 12
REMARK SMILES IDX 6 13 5 14 4 15 3 16 2 17 1 18
REMARK H PARENT
REMARK Flexibility Score: inf
ROOT
ATOM      1  C   UNL     1      19.871  40.349  36.544  1.00  0.00     0.000 C 
ENDROOT
BRANCH   1   2
ATOM      2  C   UNL     1      18.926  39.824  35.452  1.00  0.00     0.000 C 
BRANCH   2   3
ATOM      3  C   UNL     1      18.152  38.570  35.896  1.00  0.00     0.000 C 
BRANCH   3   4
ATOM      4  C   UNL     1      17.703  37.700  34.711  1.00  0.00     0.000 C 
BRANCH   4   5
ATOM      5  C   UNL     1      18.552  37.933  33.450  1.00  0.00     0.000 C 
BRANCH   5   6
ATOM      6  C   UNL     1      19.225  36.648  32.932  1.00  0.00     0.006 C 
BRANCH   6   7
ATOM      7  C   UNL     1      20.475  36.898  32.069  1.00  0.00     0.053 C 
BRANCH   7   8
ATOM      8  C   UNL     1      20.142  37.431  30.709  1.00  0.00     0.041 C 
ATOM      9  O   UNL     1      20.128  38.672  30.499  1.00  0.00    -0.550 OA
ATOM     10  O   UNL     1      19.827  36.555  29.676  1.00  0.00    -0.550 OA
ENDBRANCH   7   8
ENDBRANCH   6   7
ENDBRANCH   5   6
ENDBRANCH   4   5
ENDBRANCH   3   4
ENDBRANCH   2   3
ENDBRANCH   1   2
BRANCH   1  11
ATOM     11  C   UNL     1      21.354  40.250  36.144  1.00  0.00     0.000 C 
BRANCH  11  12
ATOM     12  C   UNL     1      21.588  39.264  34.988  1.00  0.00    -0.000 C 
BRANCH  12  13
ATOM     13  C   UNL     1      22.462  38.067  35.403  1.00  0.00    -0.000 C 
BRANCH  13  14
ATOM     14  C   UNL     1      21.634  36.811  35.717  1.00  0.00    -0.000 C 
BRANCH  14  15
ATOM     15  C   UNL     1      21.758  36.376  37.187  1.00  0.00    -0.000 C 
BRANCH  15  16
ATOM     16  C   UNL     1      20.639  36.946  38.075  1.00  0.00    -0.000 C 
BRANCH  16  17
ATOM     17  C   UNL     1      21.139  37.965  39.121  1.00  0.00    -0.003 C 
ATOM     18  C   UNL     1      19.990  38.647  39.865  1.00  0.00     0.004 C 
ENDBRANCH  16  17
ENDBRANCH  15  16
ENDBRANCH  14  15
ENDBRANCH  13  14
ENDBRANCH  12  13
ENDBRANCH  11  12
ENDBRANCH   1  11
TORSDOF 14
ENDMDL
MODEL 9
REMARK VINA RESULT:    -3.528      0.943      2.825
REMARK INTER + INTRA:          -8.807
REMARK INTER:                  -6.502
REMARK INTRA:                  -2.305
REMARK UNBOUND:                -2.391
REMARK SMILES CCCCCCCCCCCCCCCC(=O)[O-]
REMARK SMILES IDX 9 1 10 2 11 3 12 4 13 5 14 6 15 7 16 8 17 9 18 10 8 11 7 12
REMARK SMILES IDX 6 13 5 14 4 15 3 16 2 17 1 18
REMARK H PARENT
REMARK Flexibility Score: inf
ROOT
ATOM      1  C   UNL     1      21.107  38.321  32.370  1.00  0.00     0.000 C 
ENDROOT
BRANCH   1   2
ATOM      2  C   UNL     1      21.909  38.373  33.679  1.00  0.00     0.000 C 
BRANCH   2   3
ATOM      3  C   UNL     1      21.523  37.245  34.652  1.00  0.00     0.000 C 
BRANCH   3   4
ATOM      4  C   UNL     1      22.086  37.463  36.066  1.00  0.00     0.000 C 
BRANCH   4   5
ATOM      5  C   UNL     1      21.850  36.256  36.989  1.00  0.00     0.000 C 
BRANCH   5   6
ATOM      6  C   UNL     1      20.899  36.572  38.160  1.00  0.00     0.006 C 
BRANCH   6   7
ATOM      7  C   UNL     1      21.081  37.979  38.754  1.00  0.00     0.053 C 
BRANCH   7   8
ATOM      8  C   UNL     1      19.948  38.381  39.649  1.00  0.00     0.041 C 
ATOM      9  O   UNL     1      18.849  37.770  39.596  1.00  0.00    -0.550 OA
ATOM     10  O   UNL     1      20.100  39.447  40.528  1.00  0.00    -0.550 OA
ENDBRANCH   7   8
ENDBRANCH   6   7
ENDBRANCH   5   6
ENDBRANCH   4   5
ENDBRANCH   3   4
ENDBRANCH   2   3
ENDBRANCH   1   2
BRANCH   1  11
ATOM     11  C   UNL     1      20.360  36.988  32.184  1.00  0.00     0.000 C 
BRANCH  11  12
ATOM     12  C   UNL     1      18.955  37.178  31.591  1.00  0.00    -0.000 C 
BRANCH  12  13
ATOM     13  C   UNL     1      18.004  37.914  32.553  1.00  0.00    -0.000 C 
BRANCH  13  14
ATOM     14  C   UNL     1      17.878  37.210  33.913  1.00  0.00    -0.000 C 
BRANCH  14  15
ATOM     15  C   UNL     1      17.626  38.198  35.065  1.00  0.00    -0.000 C 
BRANCH  15  16
ATOM     16  C   UNL     1      18.479  39.473  34.956  1.00  0.00    -0.000 C 
BRANCH  16  17
ATOM     17  C   UNL     1      19.200  39.848  36.268  1.00  0.00    -0.003 C 
ATOM     18  C   UNL     1      20.372  40.802  36.036  1.00  0.00     0.004 C 
ENDBRANCH  16  17
ENDBRANCH  15  16
ENDBRANCH  14  15
ENDBRANCH  13  14
ENDBRANCH  12  13
ENDBRANCH  11  12
ENDBRANCH   1  11
TORSDOF 14
ENDMDL
