MODEL 1
REMARK VINA RESULT:    -2.418      0.000      0.000
REMARK INTER + INTRA:          -5.890
REMARK INTER:                  -4.680
REMARK INTRA:                  -1.211
REMARK UNBOUND:                -1.211
REMARK SMILES CCCCCCCCCCCCCCCCCC(=O)[O-]
REMARK SMILES IDX 10 1 11 2 12 3 13 4 14 5 15 6 16 7 17 8 18 9 19 10 20 11
REMARK SMILES IDX 9 12 8 13 7 14 6 15 5 16 4 17 3 18 2 19 1 20
REMARK H PARENT
REMARK Flexibility Score: inf
ROOT
ATOM      1  C   UNL     1       3.204   8.870   3.780  1.00  0.00     0.000 C 
ENDROOT
BRANCH   1   2
ATOM      2  C   UNL     1       2.729   9.006   5.236  1.00  0.00     0.000 C 
BRANCH   2   3
ATOM      3  C   UNL     1       1.219   8.758   5.398  1.00  0.00     0.000 C 
BRANCH   3   4
ATOM      4  C   UNL     1       0.307   9.733   4.625  1.00  0.00     0.000 C 
BRANCH   4   5
ATOM      5  C   UNL     1      -0.412   9.130   3.402  1.00  0.00     0.000 C 
BRANCH   5   6
ATOM      6  C   UNL     1      -0.987   7.718   3.617  1.00  0.00     0.000 C 
BRANCH   6   7
ATOM      7  C   UNL     1      -0.857   6.826   2.371  1.00  0.00     0.006 C 
BRANCH   7   8
ATOM      8  C   UNL     1      -0.400   5.403   2.723  1.00  0.00     0.053 C 
BRANCH   8   9
ATOM      9  C   UNL     1       0.669   5.407   3.772  1.00  0.00     0.041 C 
ATOM     10  O   UNL     1       1.797   5.910   3.528  1.00  0.00    -0.550 OA
ATOM     11  O   UNL     1       0.428   4.829   5.013  1.00  0.00    -0.550 OA
ENDBRANCH   8   9
ENDBRANCH   7   8
ENDBRANCH   6   7
ENDBRANCH   5   6
ENDBRANCH   4   5
ENDBRANCH   3   4
ENDBRANCH   2   3
ENDBRANCH   1   2
BRANCH   1  12
ATOM     12  C   UNL     1       4.337   9.850   3.423  1.00  0.00     0.000 C 
BRANCH  12  13
ATOM     13  C   UNL     1       5.015   9.609   2.062  1.00  0.00    -0.000 C 
BRANCH  13  14
ATOM     14  C   UNL     1       6.532   9.862   2.094  1.00  0.00    -0.000 C 
BRANCH  14  15
ATOM     15  C   UNL     1       7.344   8.561   2.200  1.00  0.00    -0.000 C 
BRANCH  15  16
ATOM     16  C   UNL     1       6.516   7.396   2.771  1.00  0.00    -0.000 C 
BRANCH  16  17
ATOM     17  C   UNL     1       6.561   6.146   1.877  1.00  0.00    -0.000 C 
BRANCH  17  18
ATOM     18  C   UNL     1       5.291   5.287   1.994  1.00  0.00    -0.000 C 
BRANCH  18  19
ATOM     19  C   UNL     1       5.532   3.982   2.769  1.00  0.00    -0.003 C 
ATOM     20  C   UNL     1       6.062   2.857   1.881  1.00  0.00     0.004 C 
ENDBRANCH  18  19
ENDBRANCH  17  18
ENDBRANCH  16  17
ENDBRANCH  15  16
ENDBRANCH  14  15
ENDBRANCH  13  14
ENDBRANCH  12  13
ENDBRANCH   1  12
TORSDOF 16
ENDMDL
MODEL 2
REMARK VINA RESULT:    -2.294      3.066      6.507
REMARK INTER + INTRA:          -5.650
REMARK INTER:                  -4.263
REMARK INTRA:                  -1.387
REMARK UNBOUND:                -1.211
REMARK SMILES CCCCCCCCCCCCCCCCCC(=O)[O-]
REMARK SMILES IDX 10 1 11 2 12 3 13 4 14 5 15 6 16 7 17 8 18 9 19 10 20 11
REMARK SMILES IDX 9 12 8 13 7 14 6 15 5 16 4 17 3 18 2 19 1 20
REMARK H PARENT
REMARK Flexibility Score: inf
ROOT
ATOM      1  C   UNL     1       2.502   8.511   2.224  1.00  0.00     0.000 C 
ENDROOT
BRANCH   1   2
ATOM      2  C   UNL     1       3.492   7.373   1.920  1.00  0.00     0.000 C 
BRANCH   2   3
ATOM      3  C   UNL     1       3.258   6.128   2.794  1.00  0.00     0.000 C 
BRANCH   3   4
ATOM      4  C   UNL     1       4.528   5.519   3.423  1.00  0.00     0.000 C 
BRANCH   4   5
ATOM      5  C   UNL     1       5.451   4.768   2.443  1.00  0.00     0.000 C 
BRANCH   5   6
ATOM      6  C   UNL     1       6.613   5.603   1.876  1.00  0.00     0.000 C 
BRANCH   6   7
ATOM      7  C   UNL     1       7.091   6.696   2.848  1.00  0.00     0.006 C 
BRANCH   7   8
ATOM      8  C   UNL     1       7.005   8.098   2.230  1.00  0.00     0.053 C 
BRANCH   8   9
ATOM      9  C   UNL     1       8.355   8.733   2.100  1.00  0.00     0.041 C 
ATOM     10  O   UNL     1       9.384   8.018   1.977  1.00  0.00    -0.550 OA
ATOM     11  O   UNL     1       8.480  10.116   2.144  1.00  0.00    -0.550 OA
ENDBRANCH   8   9
ENDBRANCH   7   8
ENDBRANCH   6   7
ENDBRANCH   5   6
ENDBRANCH   4   5
ENDBRANCH   3   4
ENDBRANCH   2   3
ENDBRANCH   1   2
BRANCH   1  12
ATOM     12  C   UNL     1       3.188   9.768   2.790  1.00  0.00     0.000 C 
BRANCH  12  13
ATOM     13  C   UNL     1       3.999   9.552   4.081  1.00  0.00    -0.000 C 
BRANCH  13  14
ATOM     14  C   UNL     1       3.117   9.197   5.292  1.00  0.00    -0.000 C 
BRANCH  14  15
ATOM     15  C   UNL     1       1.859  10.078   5.380  1.00  0.00    -0.000 C 
BRANCH  15  16
ATOM     16  C   UNL     1       0.560   9.264   5.235  1.00  0.00    -0.000 C 
BRANCH  16  17
ATOM     17  C   UNL     1       0.762   7.972   4.427  1.00  0.00    -0.000 C 
BRANCH  17  18
ATOM     18  C   UNL     1      -0.506   7.542   3.669  1.00  0.00    -0.000 C 
BRANCH  18  19
ATOM     19  C   UNL     1      -0.573   6.023   3.448  1.00  0.00    -0.003 C 
ATOM     20  C   UNL     1       0.172   5.237   4.526  1.00  0.00     0.004 C 
ENDBRANCH  18  19
ENDBRANCH  17  18
ENDBRANCH  16  17
ENDBRANCH  15  16
ENDBRANCH  14  15
ENDBRANCH  13  14
ENDBRANCH  12  13
ENDBRANCH   1  12
TORSDOF 16
ENDMDL
MODEL 3
REMARK VINA RESULT:    -1.973      1.797      3.144
REMARK INTER + INTRA:          -5.029
REMARK INTER:                  -4.760
REMARK INTRA:                  -0.269
REMARK UNBOUND:                -1.211
REMARK SMILES CCCCCCCCCCCCCCCCCC(=O)[O-]
REMARK SMILES IDX 10 1 11 2 12 3 13 4 14 5 15 6 16 7 17 8 18 9 19 10 20 11
REMARK SMILES IDX 9 12 8 13 7 14 6 15 5 16 4 17 3 18 2 19 1 20
REMARK H PARENT
REMARK Flexibility Score: inf
ROOT
ATOM      1  C   UNL     1       4.283   8.509   4.359  1.00  0.00     0.000 C 
ENDROOT
BRANCH   1   2
ATOM      2  C   UNL     1       3.328   9.563   4.945  1.00  0.00     0.000 C 
BRANCH   2   3
ATOM      3  C   UNL     1       1.971   8.970   5.368  1.00  0.00     0.000 C 
BRANCH   3   4
ATOM      4  C   UNL     1       0.752   9.493   4.582  1.00  0.00     0.000 C 
BRANCH   4   5
ATOM      5  C   UNL     1       0.909   9.487   3.048  1.00  0.00     0.000 C 
BRANCH   5   6
ATOM      6  C   UNL     1      -0.235   8.799   2.280  1.00  0.00     0.000 C 
BRANCH   6   7
ATOM      7  C   UNL     1      -0.070   7.271   2.210  1.00  0.00     0.006 C 
BRANCH   7   8
ATOM      8  C   UNL     1      -0.381   6.593   3.551  1.00  0.00     0.053 C 
BRANCH   8   9
ATOM      9  C   UNL     1       0.718   5.666   3.973  1.00  0.00     0.041 C 
ATOM     10  O   UNL     1       1.880   5.807   3.510  1.00  0.00    -0.550 OA
ATOM     11  O   UNL     1       0.452   4.628   4.858  1.00  0.00    -0.550 OA
ENDBRANCH   8   9
ENDBRANCH   7   8
ENDBRANCH   6   7
ENDBRANCH   5   6
ENDBRANCH   4   5
ENDBRANCH   3   4
ENDBRANCH   2   3
ENDBRANCH   1   2
BRANCH   1  12
ATOM     12  C   UNL     1       4.720   8.831   2.918  1.00  0.00     0.000 C 
BRANCH  12  13
ATOM     13  C   UNL     1       4.758   7.629   1.956  1.00  0.00    -0.000 C 
BRANCH  13  14
ATOM     14  C   UNL     1       6.071   6.831   2.044  1.00  0.00    -0.000 C 
BRANCH  14  15
ATOM     15  C   UNL     1       7.198   7.626   2.725  1.00  0.00    -0.000 C 
BRANCH  15  16
ATOM     16  C   UNL     1       7.319   9.060   2.179  1.00  0.00    -0.000 C 
BRANCH  16  17
ATOM     17  C   UNL     1       8.775   9.458   1.886  1.00  0.00    -0.000 C 
BRANCH  17  18
ATOM     18  C   UNL     1       9.771   8.321   2.177  1.00  0.00    -0.000 C 
BRANCH  18  19
ATOM     19  C   UNL     1      11.164   8.844   2.562  1.00  0.00    -0.003 C 
ATOM     20  C   UNL     1      12.294   8.009   1.959  1.00  0.00     0.004 C 
ENDBRANCH  18  19
ENDBRANCH  17  18
ENDBRANCH  16  17
ENDBRANCH  15  16
ENDBRANCH  14  15
ENDBRANCH  13  14
ENDBRANCH  12  13
ENDBRANCH   1  12
TORSDOF 16
ENDMDL
MODEL 4
REMARK VINA RESULT:    -1.514      2.383      3.684
REMARK INTER + INTRA:          -4.140
REMARK INTER:                  -3.953
REMARK INTRA:                  -0.188
REMARK UNBOUND:                -1.211
REMARK SMILES CCCCCCCCCCCCCCCCCC(=O)[O-]
REMARK SMILES IDX 10 1 11 2 12 3 13 4 14 5 15 6 16 7 17 8 18 9 19 10 20 11
REMARK SMILES IDX 9 12 8 13 7 14 6 15 5 16 4 17 3 18 2 19 1 20
REMARK H PARENT
REMARK Flexibility Score: inf
ROOT
ATOM      1  C   UNL     1       5.238   8.321   3.896  1.00  0.00     0.000 C 
ENDROOT
BRANCH   1   2
ATOM      2  C   UNL     1       3.800   8.059   4.377  1.00  0.00     0.000 C 
BRANCH   2   3
ATOM      3  C   UNL     1       2.788   7.982   3.220  1.00  0.00     0.000 C 
BRANCH   3   4
ATOM      4  C   UNL     1       1.455   8.718   3.462  1.00  0.00     0.000 C 
BRANCH   4   5
ATOM      5  C   UNL     1       0.500   8.762   2.253  1.00  0.00     0.000 C 
BRANCH   5   6
ATOM      6  C   UNL     1      -0.955   8.364   2.559  1.00  0.00     0.000 C 
BRANCH   6   7
ATOM      7  C   UNL     1      -1.056   7.122   3.461  1.00  0.00     0.006 C 
BRANCH   7   8
ATOM      8  C   UNL     1      -0.299   5.921   2.878  1.00  0.00     0.053 C 
BRANCH   8   9
ATOM      9  C   UNL     1      -0.002   4.890   3.924  1.00  0.00     0.041 C 
ATOM     10  O   UNL     1      -0.912   4.128   4.341  1.00  0.00    -0.550 OA
ATOM     11  O   UNL     1       1.278   4.790   4.458  1.00  0.00    -0.550 OA
ENDBRANCH   8   9
ENDBRANCH   7   8
ENDBRANCH   6   7
ENDBRANCH   5   6
ENDBRANCH   4   5
ENDBRANCH   3   4
ENDBRANCH   2   3
ENDBRANCH   1   2
BRANCH   1  12
ATOM     12  C   UNL     1       5.308   9.319   2.725  1.00  0.00     0.000 C 
BRANCH  12  13
ATOM     13  C   UNL     1       6.597   9.260   1.884  1.00  0.00    -0.000 C 
BRANCH  13  14
ATOM     14  C   UNL     1       7.730  10.125   2.464  1.00  0.00    -0.000 C 
BRANCH  14  15
ATOM     15  C   UNL     1       9.111   9.729   1.916  1.00  0.00    -0.000 C 
BRANCH  15  16
ATOM     16  C   UNL     1       9.312   8.203   1.875  1.00  0.00    -0.000 C 
BRANCH  16  17
ATOM     17  C   UNL     1      10.354   7.718   2.897  1.00  0.00    -0.000 C 
BRANCH  17  18
ATOM     18  C   UNL     1      11.613   7.139   2.230  1.00  0.00    -0.000 C 
BRANCH  18  19
ATOM     19  C   UNL     1      12.710   8.196   2.027  1.00  0.00    -0.003 C 
ATOM     20  C   UNL     1      12.180   9.625   2.135  1.00  0.00     0.004 C 
ENDBRANCH  18  19
ENDBRANCH  17  18
ENDBRANCH  16  17
ENDBRANCH  15  16
ENDBRANCH  14  15
ENDBRANCH  13  14
ENDBRANCH  12  13
ENDBRANCH   1  12
TORSDOF 16
ENDMDL
MODEL 5
REMARK VINA RESULT:    -0.851      1.692      6.024
REMARK INTER + INTRA:          -2.859
REMARK INTER:                  -2.824
REMARK INTRA:                  -0.034
REMARK UNBOUND:                -1.211
REMARK SMILES CCCCCCCCCCCCCCCCCC(=O)[O-]
REMARK SMILES IDX 10 1 11 2 12 3 13 4 14 5 15 6 16 7 17 8 18 9 19 10 20 11
REMARK SMILES IDX 9 12 8 13 7 14 6 15 5 16 4 17 3 18 2 19 1 20
REMARK H PARENT
REMARK Flexibility Score: inf
ROOT
ATOM      1  C   UNL     1       3.165   8.340   2.727  1.00  0.00     0.000 C 
ENDROOT
BRANCH   1   2
ATOM      2  C   UNL     1       4.600   8.412   3.278  1.00  0.00     0.000 C 
BRANCH   2   3
ATOM      3  C   UNL     1       5.225   9.811   3.137  1.00  0.00     0.000 C 
BRANCH   3   4
ATOM      4  C   UNL     1       6.386   9.914   2.128  1.00  0.00     0.000 C 
BRANCH   4   5
ATOM      5  C   UNL     1       7.442   8.795   2.226  1.00  0.00     0.000 C 
BRANCH   5   6
ATOM      6  C   UNL     1       6.931   7.386   1.875  1.00  0.00     0.000 C 
BRANCH   6   7
ATOM      7  C   UNL     1       7.180   6.364   2.998  1.00  0.00     0.006 C 
BRANCH   7   8
ATOM      8  C   UNL     1       5.872   5.862   3.624  1.00  0.00     0.053 C 
BRANCH   8   9
ATOM      9  C   UNL     1       5.230   4.796   2.790  1.00  0.00     0.041 C 
ATOM     10  O   UNL     1       4.362   5.099   1.930  1.00  0.00    -0.550 OA
ATOM     11  O   UNL     1       5.571   3.462   2.981  1.00  0.00    -0.550 OA
ENDBRANCH   8   9
ENDBRANCH   7   8
ENDBRANCH   6   7
ENDBRANCH   5   6
ENDBRANCH   4   5
ENDBRANCH   3   4
ENDBRANCH   2   3
ENDBRANCH   1   2
BRANCH   1  12
ATOM     12  C   UNL     1       2.589   9.723   2.369  1.00  0.00     0.000 C 
BRANCH  12  13
ATOM     13  C   UNL     1       1.314  10.124   3.133  1.00  0.00    -0.000 C 
BRANCH  13  14
ATOM     14  C   UNL     1       0.802   9.015   4.070  1.00  0.00    -0.000 C 
BRANCH  14  15
ATOM     15  C   UNL     1      -0.713   8.789   3.940  1.00  0.00    -0.000 C 
BRANCH  15  16
ATOM     16  C   UNL     1      -1.087   7.296   3.935  1.00  0.00    -0.000 C 
BRANCH  16  17
ATOM     17  C   UNL     1      -1.097   6.696   2.519  1.00  0.00    -0.000 C 
BRANCH  17  18
ATOM     18  C   UNL     1      -0.291   5.389   2.423  1.00  0.00    -0.000 C 
BRANCH  18  19
ATOM     19  C   UNL     1       0.494   5.086   3.708  1.00  0.00    -0.003 C 
ATOM     20  C   UNL     1      -0.294   4.220   4.691  1.00  0.00     0.004 C 
ENDBRANCH  18  19
ENDBRANCH  17  18
ENDBRANCH  16  17
ENDBRANCH  15  16
ENDBRANCH  14  15
ENDBRANCH  13  14
ENDBRANCH  12  13
ENDBRANCH   1  12
TORSDOF 16
ENDMDL
MODEL 6
REMARK VINA RESULT:    -0.740      1.066      1.506
REMARK INTER + INTRA:          -2.644
REMARK INTER:                  -1.328
REMARK INTRA:                  -1.316
REMARK UNBOUND:                -1.211
REMARK SMILES CCCCCCCCCCCCCCCCCC(=O)[O-]
REMARK SMILES IDX 10 1 11 2 12 3 13 4 14 5 15 6 16 7 17 8 18 9 19 10 20 11
REMARK SMILES IDX 9 12 8 13 7 14 6 15 5 16 4 17 3 18 2 19 1 20
REMARK H PARENT
REMARK Flexibility Score: inf
ROOT
ATOM      1  C   UNL     1       4.038   9.885   3.739  1.00  0.00     0.000 C 
ENDROOT
BRANCH   1   2
ATOM      2  C   UNL     1       3.228   8.689   4.270  1.00  0.00     0.000 C 
BRANCH   2   3
ATOM      3  C   UNL     1       1.720   8.818   3.991  1.00  0.00     0.000 C 
BRANCH   3   4
ATOM      4  C   UNL     1       1.349   9.213   2.547  1.00  0.00     0.000 C 
BRANCH   4   5
ATOM      5  C   UNL     1      -0.158   9.181   2.224  1.00  0.00     0.000 C 
BRANCH   5   6
ATOM      6  C   UNL     1      -1.026   8.425   3.246  1.00  0.00     0.000 C 
BRANCH   6   7
ATOM      7  C   UNL     1      -1.125   6.920   2.946  1.00  0.00     0.006 C 
BRANCH   7   8
ATOM      8  C   UNL     1      -1.023   6.068   4.219  1.00  0.00     0.053 C 
BRANCH   8   9
ATOM      9  C   UNL     1       0.227   5.242   4.237  1.00  0.00     0.041 C 
ATOM     10  O   UNL     1       1.169   5.500   3.443  1.00  0.00    -0.550 OA
ATOM     11  O   UNL     1       0.339   4.169   5.113  1.00  0.00    -0.550 OA
ENDBRANCH   8   9
ENDBRANCH   7   8
ENDBRANCH   6   7
ENDBRANCH   5   6
ENDBRANCH   4   5
ENDBRANCH   3   4
ENDBRANCH   2   3
ENDBRANCH   1   2
BRANCH   1  12
ATOM     12  C   UNL     1       5.552   9.610   3.688  1.00  0.00     0.000 C 
BRANCH  12  13
ATOM     13  C   UNL     1       6.159   9.517   2.276  1.00  0.00    -0.000 C 
BRANCH  13  14
ATOM     14  C   UNL     1       6.527   8.078   1.875  1.00  0.00    -0.000 C 
BRANCH  14  15
ATOM     15  C   UNL     1       5.921   7.030   2.823  1.00  0.00    -0.000 C 
BRANCH  15  16
ATOM     16  C   UNL     1       4.653   6.377   2.245  1.00  0.00    -0.000 C 
BRANCH  16  17
ATOM     17  C   UNL     1       4.780   4.849   2.124  1.00  0.00    -0.000 C 
BRANCH  17  18
ATOM     18  C   UNL     1       6.241   4.382   2.013  1.00  0.00    -0.000 C 
BRANCH  18  19
ATOM     19  C   UNL     1       6.363   2.855   1.887  1.00  0.00    -0.003 C 
ATOM     20  C   UNL     1       6.110   2.132   3.209  1.00  0.00     0.004 C 
ENDBRANCH  18  19
ENDBRANCH  17  18
ENDBRANCH  16  17
ENDBRANCH  15  16
ENDBRANCH  14  15
ENDBRANCH  13  14
ENDBRANCH  12  13
ENDBRANCH   1  12
TORSDOF 16
ENDMDL
