MODEL 1
REMARK VINA RESULT:    -4.791      0.000      0.000
REMARK INTER + INTRA:          -8.405
REMARK INTER:                  -7.592
REMARK INTRA:                  -0.813
REMARK UNBOUND:                -0.813
REMARK SMILES CCCCCCCCCCCC(=O)[O-]
REMARK SMILES IDX 7 1 8 2 9 3 10 4 11 5 12 6 13 7 14 8 6 9 5 10 4 11 3 12 2 13
REMARK SMILES IDX 1 14
REMARK H PARENT
REMARK Flexibility Score: inf
ROOT
ATOM      1  C   UNL     1      17.408 -45.004 -24.054  1.00  0.00     0.000 C 
ENDROOT
BRANCH   1   2
ATOM      2  C   UNL     1      18.776 -44.301 -24.066  1.00  0.00     0.000 C 
BRANCH   2   3
ATOM      3  C   UNL     1      18.670 -42.798 -23.751  1.00  0.00     0.000 C 
BRANCH   3   4
ATOM      4  C   UNL     1      17.414 -42.156 -24.361  1.00  0.00     0.006 C 
BRANCH   4   5
ATOM      5  C   UNL     1      16.734 -41.162 -23.411  1.00  0.00     0.053 C 
BRANCH   5   6
ATOM      6  C   UNL     1      15.647 -41.839 -22.638  1.00  0.00     0.041 C 
ATOM      7  O   UNL     1      14.666 -42.351 -23.240  1.00  0.00    -0.550 OA
ATOM      8  O   UNL     1      15.740 -41.949 -21.256  1.00  0.00    -0.550 OA
ENDBRANCH   5   6
ENDBRANCH   4   5
ENDBRANCH   3   4
ENDBRANCH   2   3
ENDBRANCH   1   2
BRANCH   1   9
ATOM      9  C   UNL     1      16.948 -45.376 -22.634  1.00  0.00     0.000 C 
BRANCH   9  10
ATOM     10  C   UNL     1      17.850 -46.436 -21.981  1.00  0.00    -0.000 C 
BRANCH  10  11
ATOM     11  C   UNL     1      17.093 -47.732 -21.641  1.00  0.00    -0.000 C 
BRANCH  11  12
ATOM     12  C   UNL     1      15.596 -47.646 -21.980  1.00  0.00    -0.000 C 
BRANCH  12  13
ATOM     13  C   UNL     1      14.721 -48.432 -20.993  1.00  0.00    -0.003 C 
ATOM     14  C   UNL     1      15.330 -49.798 -20.688  1.00  0.00     0.004 C 
ENDBRANCH  12  13
ENDBRANCH  11  12
ENDBRANCH  10  11
ENDBRANCH   9  10
ENDBRANCH   1   9
TORSDOF 10
ENDMDL
MODEL 2
REMARK VINA RESULT:    -4.747     11.373     13.046
REMARK INTER + INTRA:          -8.335
REMARK INTER:                  -7.973
REMARK INTRA:                  -0.362
REMARK UNBOUND:                -0.813
REMARK SMILES CCCCCCCCCCCC(=O)[O-]
REMARK SMILES IDX 7 1 8 2 9 3 10 4 11 5 12 6 13 7 14 8 6 9 5 10 4 11 3 12 2 13
REMARK SMILES IDX 1 14
REMARK H PARENT
REMARK Flexibility Score: inf
ROOT
ATOM      1  C   UNL     1      20.242 -49.397 -33.170  1.00  0.00     0.000 C 
ENDROOT
BRANCH   1   2
ATOM      2  C   UNL     1      19.811 -50.605 -32.321  1.00  0.00     0.000 C 
BRANCH   2   3
ATOM      3  C   UNL     1      20.954 -51.615 -32.110  1.00  0.00     0.000 C 
BRANCH   3   4
ATOM      4  C   UNL     1      21.149 -52.544 -33.319  1.00  0.00     0.006 C 
BRANCH   4   5
ATOM      5  C   UNL     1      20.054 -53.614 -33.428  1.00  0.00     0.053 C 
BRANCH   5   6
ATOM      6  C   UNL     1      20.496 -54.722 -34.330  1.00  0.00     0.041 C 
ATOM      7  O   UNL     1      21.701 -55.090 -34.339  1.00  0.00    -0.550 OA
ATOM      8  O   UNL     1      19.569 -55.384 -35.125  1.00  0.00    -0.550 OA
ENDBRANCH   5   6
ENDBRANCH   4   5
ENDBRANCH   3   4
ENDBRANCH   2   3
ENDBRANCH   1   2
BRANCH   1   9
ATOM      9  C   UNL     1      19.808 -48.056 -32.552  1.00  0.00     0.000 C 
BRANCH   9  10
ATOM     10  C   UNL     1      18.879 -48.240 -31.341  1.00  0.00    -0.000 C 
BRANCH  10  11
ATOM     11  C   UNL     1      18.755 -46.964 -30.489  1.00  0.00    -0.000 C 
BRANCH  11  12
ATOM     12  C   UNL     1      17.751 -47.120 -29.336  1.00  0.00    -0.000 C 
BRANCH  12  13
ATOM     13  C   UNL     1      17.209 -45.772 -28.839  1.00  0.00    -0.003 C 
ATOM     14  C   UNL     1      17.831 -45.391 -27.498  1.00  0.00     0.004 C 
ENDBRANCH  12  13
ENDBRANCH  11  12
ENDBRANCH  10  11
ENDBRANCH   9  10
ENDBRANCH   1   9
TORSDOF 10
ENDMDL
MODEL 3
REMARK VINA RESULT:    -4.735      2.628      5.391
REMARK INTER + INTRA:          -8.316
REMARK INTER:                  -6.808
REMARK INTRA:                  -1.508
REMARK UNBOUND:                -0.813
REMARK SMILES CCCCCCCCCCCC(=O)[O-]
REMARK SMILES IDX 7 1 8 2 9 3 10 4 11 5 12 6 13 7 14 8 6 9 5 10 4 11 3 12 2 13
REMARK SMILES IDX 1 14
REMARK H PARENT
REMARK Flexibility Score: inf
ROOT
ATOM      1  C   UNL     1      19.531 -43.934 -25.574  1.00  0.00     0.000 C 
ENDROOT
BRANCH   1   2
ATOM      2  C   UNL     1      18.096 -44.480 -25.661  1.00  0.00     0.000 C 
BRANCH   2   3
ATOM      3  C   UNL     1      17.826 -45.596 -24.635  1.00  0.00     0.000 C 
BRANCH   3   4
ATOM      4  C   UNL     1      16.891 -45.141 -23.503  1.00  0.00     0.006 C 
BRANCH   4   5
ATOM      5  C   UNL     1      17.368 -45.601 -22.119  1.00  0.00     0.053 C 
BRANCH   5   6
ATOM      6  C   UNL     1      17.186 -47.079 -21.970  1.00  0.00     0.041 C 
ATOM      7  O   UNL     1      18.187 -47.828 -21.822  1.00  0.00    -0.550 OA
ATOM      8  O   UNL     1      15.909 -47.624 -21.944  1.00  0.00    -0.550 OA
ENDBRANCH   5   6
ENDBRANCH   4   5
ENDBRANCH   3   4
ENDBRANCH   2   3
ENDBRANCH   1   2
BRANCH   1   9
ATOM      9  C   UNL     1      19.588 -42.517 -24.977  1.00  0.00     0.000 C 
BRANCH   9  10
ATOM     10  C   UNL     1      19.662 -42.526 -23.442  1.00  0.00    -0.000 C 
BRANCH  10  11
ATOM     11  C   UNL     1      18.450 -41.844 -22.785  1.00  0.00    -0.000 C 
BRANCH  11  12
ATOM     12  C   UNL     1      17.460 -41.279 -23.817  1.00  0.00    -0.000 C 
BRANCH  12  13
ATOM     13  C   UNL     1      16.004 -41.646 -23.499  1.00  0.00    -0.003 C 
ATOM     14  C   UNL     1      15.776 -41.735 -21.993  1.00  0.00     0.004 C 
ENDBRANCH  12  13
ENDBRANCH  11  12
ENDBRANCH  10  11
ENDBRANCH   9  10
ENDBRANCH   1   9
TORSDOF 10
ENDMDL
MODEL 4
REMARK VINA RESULT:    -4.710      2.143      2.949
REMARK INTER + INTRA:          -8.276
REMARK INTER:                  -6.848
REMARK INTRA:                  -1.428
REMARK UNBOUND:                -0.813
REMARK SMILES CCCCCCCCCCCC(=O)[O-]
REMARK SMILES IDX 7 1 8 2 9 3 10 4 11 5 12 6 13 7 14 8 6 9 5 10 4 11 3 12 2 13
REMARK SMILES IDX 1 14
REMARK H PARENT
REMARK Flexibility Score: inf
ROOT
ATOM      1  C   UNL     1      17.998 -43.947 -25.102  1.00  0.00     0.000 C 
ENDROOT
BRANCH   1   2
ATOM      2  C   UNL     1      19.181 -42.972 -24.972  1.00  0.00     0.000 C 
BRANCH   2   3
ATOM      3  C   UNL     1      18.755 -41.597 -24.425  1.00  0.00     0.000 C 
BRANCH   3   4
ATOM      4  C   UNL     1      17.276 -41.562 -24.007  1.00  0.00     0.006 C 
BRANCH   4   5
ATOM      5  C   UNL     1      17.080 -41.101 -22.557  1.00  0.00     0.053 C 
BRANCH   5   6
ATOM      6  C   UNL     1      15.816 -41.670 -21.995  1.00  0.00     0.041 C 
ATOM      7  O   UNL     1      14.993 -42.252 -22.750  1.00  0.00    -0.550 OA
ATOM      8  O   UNL     1      15.569 -41.602 -20.630  1.00  0.00    -0.550 OA
ENDBRANCH   5   6
ENDBRANCH   4   5
ENDBRANCH   3   4
ENDBRANCH   2   3
ENDBRANCH   1   2
BRANCH   1   9
ATOM      9  C   UNL     1      18.453 -45.402 -25.310  1.00  0.00     0.000 C 
BRANCH   9  10
ATOM     10  C   UNL     1      18.029 -46.323 -24.154  1.00  0.00    -0.000 C 
BRANCH  10  11
ATOM     11  C   UNL     1      17.078 -45.631 -23.163  1.00  0.00    -0.000 C 
BRANCH  11  12
ATOM     12  C   UNL     1      17.673 -45.526 -21.749  1.00  0.00    -0.000 C 
BRANCH  12  13
ATOM     13  C   UNL     1      18.528 -44.264 -21.562  1.00  0.00    -0.003 C 
ATOM     14  C   UNL     1      20.017 -44.599 -21.604  1.00  0.00     0.004 C 
ENDBRANCH  12  13
ENDBRANCH  11  12
ENDBRANCH  10  11
ENDBRANCH   9  10
ENDBRANCH   1   9
TORSDOF 10
ENDMDL
MODEL 5
REMARK VINA RESULT:    -4.695     11.126     12.047
REMARK INTER + INTRA:          -8.253
REMARK INTER:                  -7.691
REMARK INTRA:                  -0.562
REMARK UNBOUND:                -0.813
REMARK SMILES CCCCCCCCCCCC(=O)[O-]
REMARK SMILES IDX 7 1 8 2 9 3 10 4 11 5 12 6 13 7 14 8 6 9 5 10 4 11 3 12 2 13
REMARK SMILES IDX 1 14
REMARK H PARENT
REMARK Flexibility Score: inf
ROOT
ATOM      1  C   UNL     1      19.867 -51.188 -32.598  1.00  0.00     0.000 C 
ENDROOT
BRANCH   1   2
ATOM      2  C   UNL     1      20.182 -49.683 -32.556  1.00  0.00     0.000 C 
BRANCH   2   3
ATOM      3  C   UNL     1      19.193 -48.898 -31.674  1.00  0.00     0.000 C 
BRANCH   3   4
ATOM      4  C   UNL     1      19.347 -47.376 -31.827  1.00  0.00     0.006 C 
BRANCH   4   5
ATOM      5  C   UNL     1      19.079 -46.618 -30.520  1.00  0.00     0.053 C 
BRANCH   5   6
ATOM      6  C   UNL     1      17.812 -45.830 -30.625  1.00  0.00     0.041 C 
ATOM      7  O   UNL     1      17.179 -45.789 -31.713  1.00  0.00    -0.550 OA
ATOM      8  O   UNL     1      17.302 -45.181 -29.508  1.00  0.00    -0.550 OA
ENDBRANCH   5   6
ENDBRANCH   4   5
ENDBRANCH   3   4
ENDBRANCH   2   3
ENDBRANCH   1   2
BRANCH   1   9
ATOM      9  C   UNL     1      21.118 -52.046 -32.854  1.00  0.00     0.000 C 
BRANCH   9  10
ATOM     10  C   UNL     1      21.647 -51.901 -34.291  1.00  0.00    -0.000 C 
BRANCH  10  11
ATOM     11  C   UNL     1      21.698 -53.243 -35.042  1.00  0.00    -0.000 C 
BRANCH  11  12
ATOM     12  C   UNL     1      21.235 -54.423 -34.173  1.00  0.00    -0.000 C 
BRANCH  12  13
ATOM     13  C   UNL     1      19.916 -55.036 -34.665  1.00  0.00    -0.003 C 
ATOM     14  C   UNL     1      18.756 -54.645 -33.754  1.00  0.00     0.004 C 
ENDBRANCH  12  13
ENDBRANCH  11  12
ENDBRANCH  10  11
ENDBRANCH   9  10
ENDBRANCH   1   9
TORSDOF 10
ENDMDL
MODEL 6
REMARK VINA RESULT:    -4.641      3.245      5.440
REMARK INTER + INTRA:          -8.167
REMARK INTER:                  -6.636
REMARK INTRA:                  -1.530
REMARK UNBOUND:                -0.813
REMARK SMILES CCCCCCCCCCCC(=O)[O-]
REMARK SMILES IDX 7 1 8 2 9 3 10 4 11 5 12 6 13 7 14 8 6 9 5 10 4 11 3 12 2 13
REMARK SMILES IDX 1 14
REMARK H PARENT
REMARK Flexibility Score: inf
ROOT
ATOM      1  C   UNL     1      17.999 -44.290 -25.380  1.00  0.00     0.000 C 
ENDROOT
BRANCH   1   2
ATOM      2  C   UNL     1      17.944 -45.538 -24.482  1.00  0.00     0.000 C 
BRANCH   2   3
ATOM      3  C   UNL     1      16.892 -45.415 -23.364  1.00  0.00     0.000 C 
BRANCH   3   4
ATOM      4  C   UNL     1      17.481 -45.677 -21.969  1.00  0.00     0.006 C 
BRANCH   4   5
ATOM      5  C   UNL     1      18.714 -44.812 -21.674  1.00  0.00     0.053 C 
BRANCH   5   6
ATOM      6  C   UNL     1      19.923 -45.673 -21.488  1.00  0.00     0.041 C 
ATOM      7  O   UNL     1      19.816 -46.928 -21.506  1.00  0.00    -0.550 OA
ATOM      8  O   UNL     1      21.176 -45.091 -21.345  1.00  0.00    -0.550 OA
ENDBRANCH   5   6
ENDBRANCH   4   5
ENDBRANCH   3   4
ENDBRANCH   2   3
ENDBRANCH   1   2
BRANCH   1   9
ATOM      9  C   UNL     1      19.294 -43.482 -25.188  1.00  0.00     0.000 C 
BRANCH   9  10
ATOM     10  C   UNL     1      19.112 -42.300 -24.222  1.00  0.00    -0.000 C 
BRANCH  10  11
ATOM     11  C   UNL     1      17.667 -41.771 -24.195  1.00  0.00    -0.000 C 
BRANCH  11  12
ATOM     12  C   UNL     1      17.278 -41.188 -22.828  1.00  0.00    -0.000 C 
BRANCH  12  13
ATOM     13  C   UNL     1      16.122 -41.952 -22.168  1.00  0.00    -0.003 C 
ATOM     14  C   UNL     1      14.982 -42.185 -23.157  1.00  0.00     0.004 C 
ENDBRANCH  12  13
ENDBRANCH  11  12
ENDBRANCH  10  11
ENDBRANCH   9  10
ENDBRANCH   1   9
TORSDOF 10
ENDMDL
MODEL 7
REMARK VINA RESULT:    -4.593      2.776      5.791
REMARK INTER + INTRA:          -8.091
REMARK INTER:                  -6.649
REMARK INTRA:                  -1.442
REMARK UNBOUND:                -0.813
REMARK SMILES CCCCCCCCCCCC(=O)[O-]
REMARK SMILES IDX 7 1 8 2 9 3 10 4 11 5 12 6 13 7 14 8 6 9 5 10 4 11 3 12 2 13
REMARK SMILES IDX 1 14
REMARK H PARENT
REMARK Flexibility Score: inf
ROOT
ATOM      1  C   UNL     1      17.079 -41.383 -20.839  1.00  0.00     0.000 C 
ENDROOT
BRANCH   1   2
ATOM      2  C   UNL     1      17.785 -42.675 -20.394  1.00  0.00     0.000 C 
BRANCH   2   3
ATOM      3  C   UNL     1      18.984 -43.031 -21.293  1.00  0.00     0.000 C 
BRANCH   3   4
ATOM      4  C   UNL     1      18.993 -44.513 -21.702  1.00  0.00     0.006 C 
BRANCH   4   5
ATOM      5  C   UNL     1      17.585 -45.068 -21.952  1.00  0.00     0.053 C 
BRANCH   5   6
ATOM      6  C   UNL     1      17.596 -46.563 -21.900  1.00  0.00     0.041 C 
ATOM      7  O   UNL     1      18.681 -47.192 -22.014  1.00  0.00    -0.550 OA
ATOM      8  O   UNL     1      16.416 -47.261 -21.675  1.00  0.00    -0.550 OA
ENDBRANCH   5   6
ENDBRANCH   4   5
ENDBRANCH   3   4
ENDBRANCH   2   3
ENDBRANCH   1   2
BRANCH   1   9
ATOM      9  C   UNL     1      15.607 -41.616 -21.223  1.00  0.00     0.000 C 
BRANCH   9  10
ATOM     10  C   UNL     1      15.448 -42.107 -22.672  1.00  0.00    -0.000 C 
BRANCH  10  11
ATOM     11  C   UNL     1      16.338 -41.334 -23.661  1.00  0.00    -0.000 C 
BRANCH  11  12
ATOM     12  C   UNL     1      17.354 -42.242 -24.373  1.00  0.00    -0.000 C 
BRANCH  12  13
ATOM     13  C   UNL     1      18.711 -41.556 -24.584  1.00  0.00    -0.003 C 
ATOM     14  C   UNL     1      19.791 -42.574 -24.940  1.00  0.00     0.004 C 
ENDBRANCH  12  13
ENDBRANCH  11  12
ENDBRANCH  10  11
ENDBRANCH   9  10
ENDBRANCH   1   9
TORSDOF 10
ENDMDL
MODEL 8
REMARK VINA RESULT:    -4.591      2.650      5.422
REMARK INTER + INTRA:          -8.087
REMARK INTER:                  -6.471
REMARK INTRA:                  -1.616
REMARK UNBOUND:                -0.813
REMARK SMILES CCCCCCCCCCCC(=O)[O-]
REMARK SMILES IDX 7 1 8 2 9 3 10 4 11 5 12 6 13 7 14 8 6 9 5 10 4 11 3 12 2 13
REMARK SMILES IDX 1 14
REMARK H PARENT
REMARK Flexibility Score: inf
ROOT
ATOM      1  C   UNL     1      20.295 -42.056 -23.431  1.00  0.00     0.000 C 
ENDROOT
BRANCH   1   2
ATOM      2  C   UNL     1      20.477 -43.292 -22.533  1.00  0.00     0.000 C 
BRANCH   2   3
ATOM      3  C   UNL     1      19.517 -44.437 -22.904  1.00  0.00     0.000 C 
BRANCH   3   4
ATOM      4  C   UNL     1      18.674 -44.909 -21.708  1.00  0.00     0.006 C 
BRANCH   4   5
ATOM      5  C   UNL     1      17.270 -45.371 -22.118  1.00  0.00     0.053 C 
BRANCH   5   6
ATOM      6  C   UNL     1      17.136 -46.851 -21.944  1.00  0.00     0.041 C 
ATOM      7  O   UNL     1      15.995 -47.383 -21.905  1.00  0.00    -0.550 OA
ATOM      8  O   UNL     1      18.271 -47.649 -21.875  1.00  0.00    -0.550 OA
ENDBRANCH   5   6
ENDBRANCH   4   5
ENDBRANCH   3   4
ENDBRANCH   2   3
ENDBRANCH   1   2
BRANCH   1   9
ATOM      9  C   UNL     1      19.186 -42.248 -24.480  1.00  0.00     0.000 C 
BRANCH   9  10
ATOM     10  C   UNL     1      17.978 -41.328 -24.235  1.00  0.00    -0.000 C 
BRANCH  10  11
ATOM     11  C   UNL     1      16.718 -42.103 -23.814  1.00  0.00    -0.000 C 
BRANCH  11  12
ATOM     12  C   UNL     1      16.183 -41.659 -22.443  1.00  0.00    -0.000 C 
BRANCH  12  13
ATOM     13  C   UNL     1      17.280 -41.069 -21.545  1.00  0.00    -0.003 C 
ATOM     14  C   UNL     1      17.324 -41.778 -20.194  1.00  0.00     0.004 C 
ENDBRANCH  12  13
ENDBRANCH  11  12
ENDBRANCH  10  11
ENDBRANCH   9  10
ENDBRANCH   1   9
TORSDOF 10
ENDMDL
MODEL 9
REMARK VINA RESULT:    -4.561      2.103      3.540
REMARK INTER + INTRA:          -8.040
REMARK INTER:                  -7.064
REMARK INTRA:                  -0.976
REMARK UNBOUND:                -0.813
REMARK SMILES CCCCCCCCCCCC(=O)[O-]
REMARK SMILES IDX 7 1 8 2 9 3 10 4 11 5 12 6 13 7 14 8 6 9 5 10 4 11 3 12 2 13
REMARK SMILES IDX 1 14
REMARK H PARENT
REMARK Flexibility Score: inf
ROOT
ATOM      1  C   UNL     1      17.538 -42.434 -24.055  1.00  0.00     0.000 C 
ENDROOT
BRANCH   1   2
ATOM      2  C   UNL     1      16.585 -41.340 -23.546  1.00  0.00     0.000 C 
BRANCH   2   3
ATOM      3  C   UNL     1      16.887 -40.924 -22.094  1.00  0.00     0.000 C 
BRANCH   3   4
ATOM      4  C   UNL     1      16.001 -41.660 -21.075  1.00  0.00     0.006 C 
BRANCH   4   5
ATOM      5  C   UNL     1      16.753 -42.020 -19.787  1.00  0.00     0.053 C 
BRANCH   5   6
ATOM      6  C   UNL     1      15.870 -41.823 -18.595  1.00  0.00     0.041 C 
ATOM      7  O   UNL     1      14.656 -41.525 -18.749  1.00  0.00    -0.550 OA
ATOM      8  O   UNL     1      16.374 -42.017 -17.315  1.00  0.00    -0.550 OA
ENDBRANCH   5   6
ENDBRANCH   4   5
ENDBRANCH   3   4
ENDBRANCH   2   3
ENDBRANCH   1   2
BRANCH   1   9
ATOM      9  C   UNL     1      18.802 -42.568 -23.187  1.00  0.00     0.000 C 
BRANCH   9  10
ATOM     10  C   UNL     1      19.359 -44.001 -23.176  1.00  0.00    -0.000 C 
BRANCH  10  11
ATOM     11  C   UNL     1      18.962 -44.782 -21.910  1.00  0.00    -0.000 C 
BRANCH  11  12
ATOM     12  C   UNL     1      17.460 -45.104 -21.862  1.00  0.00    -0.000 C 
BRANCH  12  13
ATOM     13  C   UNL     1      17.083 -46.294 -22.756  1.00  0.00    -0.003 C 
ATOM     14  C   UNL     1      16.216 -47.296 -21.999  1.00  0.00     0.004 C 
ENDBRANCH  12  13
ENDBRANCH  11  12
ENDBRANCH  10  11
ENDBRANCH   9  10
ENDBRANCH   1   9
TORSDOF 10
ENDMDL
