MODEL 1
REMARK VINA RESULT:    -6.567      0.000      0.000
REMARK INTER + INTRA:         -11.242
REMARK INTER:                  -9.638
REMARK INTRA:                  -1.604
REMARK UNBOUND:                -1.604
REMARK SMILES O=c1c(O[C@@H]2O[C@H](CO)[C@@H](O)[C@@H](O)[C@@H]2O)c(-c2ccc(O)c(O)c2)oc2cc(O)cc(O)c12
REMARK SMILES IDX 4 1 3 2 16 3 25 4 2 5 26 6 1 7 33 8 27 9 31 10 28 11 30 12
REMARK SMILES IDX 17 13 18 14 19 15 20 16 24 17 22 18 21 19 23 21 32 23 29 25
REMARK SMILES IDX 5 27 14 28 6 29 12 30 7 31 10 32 15 33 13 35 8 37 9 38 11 40
REMARK H PARENT 21 20 23 22 32 24 29 26 15 34 13 36 9 39 11 41
REMARK Flexibility Score: inf
ROOT
ATOM      1  O   UNL     1     -14.801  37.069  -0.636  1.00  0.00    -0.454 OA
ENDROOT
BRANCH   1   2
ATOM      2  C   UNL     1     -14.155  37.540  -1.794  1.00  0.00     0.214 A 
ATOM      3  C   UNL     1     -14.912  38.248  -2.748  1.00  0.00     0.180 A 
ATOM      4  O   UNL     1     -14.324  38.756  -3.825  1.00  0.00    -0.452 OA
ATOM      5  C   UNL     1     -12.778  37.352  -2.037  1.00  0.00     0.239 A 
ATOM      6  C   UNL     1     -13.030  38.620  -4.082  1.00  0.00     0.146 A 
ATOM      7  O   UNL     1     -12.080  36.683  -1.228  1.00  0.00    -0.285 OA
ATOM      8  C   UNL     1     -12.192  37.905  -3.195  1.00  0.00     0.111 A 
ATOM      9  C   UNL     1     -12.502  39.193  -5.243  1.00  0.00     0.094 A 
ATOM     10  C   UNL     1     -10.814  37.779  -3.501  1.00  0.00     0.134 A 
ATOM     11  C   UNL     1     -11.142  39.067  -5.538  1.00  0.00     0.123 A 
ATOM     12  C   UNL     1     -10.306  38.362  -4.670  1.00  0.00     0.093 A 
BRANCH   3  13
ATOM     13  C   UNL     1     -16.360  38.496  -2.563  1.00  0.00     0.025 A 
ATOM     14  C   UNL     1     -17.289  37.724  -3.274  1.00  0.00     0.016 A 
ATOM     15  C   UNL     1     -18.657  37.955  -3.127  1.00  0.00     0.051 A 
ATOM     16  C   UNL     1     -19.125  38.950  -2.260  1.00  0.00     0.157 A 
ATOM     17  C   UNL     1     -16.825  39.472  -1.667  1.00  0.00     0.062 A 
ATOM     18  C   UNL     1     -18.197  39.712  -1.513  1.00  0.00     0.158 A 
BRANCH  16  19
ATOM     19  O   UNL     1     -20.505  39.146  -2.175  1.00  0.00    -0.504 OA
ATOM     20  H   UNL     1     -21.129  39.121  -2.970  1.00  0.00     0.293 HD
ENDBRANCH  16  19
BRANCH  18  21
ATOM     21  O   UNL     1     -18.587  40.703  -0.611  1.00  0.00    -0.504 OA
ATOM     22  H   UNL     1     -18.033  40.997   0.180  1.00  0.00     0.293 HD
ENDBRANCH  18  21
ENDBRANCH   3  13
BRANCH  10  23
ATOM     23  O   UNL     1      -9.949  37.085  -2.653  1.00  0.00    -0.507 OA
ATOM     24  H   UNL     1      -8.946  37.214  -2.695  1.00  0.00     0.293 HD
ENDBRANCH  10  23
BRANCH  11  25
ATOM     25  O   UNL     1     -10.611  39.638  -6.693  1.00  0.00    -0.508 OA
ATOM     26  H   UNL     1     -10.032  40.470  -6.655  1.00  0.00     0.293 HD
ENDBRANCH  11  25
ENDBRANCH   1   2
BRANCH   1  27
ATOM     27  C   UNL     1     -15.637  35.912  -0.551  1.00  0.00     0.339 C 
ATOM     28  C   UNL     1     -14.952  34.824   0.294  1.00  0.00     0.214 C 
ATOM     29  O   UNL     1     -16.940  36.230  -0.076  1.00  0.00    -0.332 OA
ATOM     30  C   UNL     1     -14.894  35.250   1.761  1.00  0.00     0.180 C 
ATOM     31  C   UNL     1     -16.988  36.644   1.285  1.00  0.00     0.179 C 
ATOM     32  C   UNL     1     -16.296  35.651   2.258  1.00  0.00     0.177 C 
BRANCH  28  33
ATOM     33  O   UNL     1     -13.647  34.600  -0.175  1.00  0.00    -0.384 OA
ATOM     34  H   UNL     1     -13.033  34.797   0.581  1.00  0.00     0.211 HD
ENDBRANCH  28  33
BRANCH  30  35
ATOM     35  O   UNL     1     -14.387  34.194   2.535  1.00  0.00    -0.387 OA
ATOM     36  H   UNL     1     -14.863  34.223   3.406  1.00  0.00     0.211 HD
ENDBRANCH  30  35
BRANCH  31  37
ATOM     37  C   UNL     1     -16.528  38.102   1.469  1.00  0.00     0.191 C 
BRANCH  37  38
ATOM     38  O   UNL     1     -17.626  38.911   1.793  1.00  0.00    -0.394 OA
ATOM     39  H   UNL     1     -17.599  39.678   1.164  1.00  0.00     0.210 HD
ENDBRANCH  37  38
ENDBRANCH  31  37
BRANCH  32  40
ATOM     40  O   UNL     1     -17.097  34.514   2.476  1.00  0.00    -0.387 OA
ATOM     41  H   UNL     1     -17.475  34.571   3.392  1.00  0.00     0.211 HD
ENDBRANCH  32  40
ENDBRANCH   1  27
TORSDOF 12
ENDMDL
MODEL 2
REMARK VINA RESULT:    -6.408      1.231      2.516
REMARK INTER + INTRA:         -11.009
REMARK INTER:                  -9.626
REMARK INTRA:                  -1.383
REMARK UNBOUND:                -1.604
REMARK SMILES O=c1c(O[C@@H]2O[C@H](CO)[C@@H](O)[C@@H](O)[C@@H]2O)c(-c2ccc(O)c(O)c2)oc2cc(O)cc(O)c12
REMARK SMILES IDX 4 1 3 2 16 3 25 4 2 5 26 6 1 7 33 8 27 9 31 10 28 11 30 12
REMARK SMILES IDX 17 13 18 14 19 15 20 16 24 17 22 18 21 19 23 21 32 23 29 25
REMARK SMILES IDX 5 27 14 28 6 29 12 30 7 31 10 32 15 33 13 35 8 37 9 38 11 40
REMARK H PARENT 21 20 23 22 32 24 29 26 15 34 13 36 9 39 11 41
REMARK Flexibility Score: inf
ROOT
ATOM      1  O   UNL     1     -14.158  36.321  -1.536  1.00  0.00    -0.454 OA
ENDROOT
BRANCH   1   2
ATOM      2  C   UNL     1     -13.548  37.056  -2.570  1.00  0.00     0.214 A 
ATOM      3  C   UNL     1     -14.331  37.973  -3.299  1.00  0.00     0.180 A 
ATOM      4  O   UNL     1     -13.776  38.724  -4.243  1.00  0.00    -0.452 OA
ATOM      5  C   UNL     1     -12.182  36.931  -2.899  1.00  0.00     0.239 A 
ATOM      6  C   UNL     1     -12.493  38.652  -4.571  1.00  0.00     0.146 A 
ATOM      7  O   UNL     1     -11.463  36.088  -2.300  1.00  0.00    -0.285 OA
ATOM      8  C   UNL     1     -11.631  37.745  -3.911  1.00  0.00     0.111 A 
ATOM      9  C   UNL     1     -12.000  39.486  -5.579  1.00  0.00     0.094 A 
ATOM     10  C   UNL     1     -10.266  37.695  -4.288  1.00  0.00     0.134 A 
ATOM     11  C   UNL     1     -10.652  39.433  -5.944  1.00  0.00     0.123 A 
ATOM     12  C   UNL     1      -9.793  38.541  -5.301  1.00  0.00     0.093 A 
BRANCH   3  13
ATOM     13  C   UNL     1     -15.770  38.170  -3.008  1.00  0.00     0.025 A 
ATOM     14  C   UNL     1     -16.697  37.208  -3.430  1.00  0.00     0.016 A 
ATOM     15  C   UNL     1     -18.059  37.385  -3.182  1.00  0.00     0.051 A 
ATOM     16  C   UNL     1     -18.520  38.517  -2.498  1.00  0.00     0.157 A 
ATOM     17  C   UNL     1     -16.223  39.289  -2.292  1.00  0.00     0.062 A 
ATOM     18  C   UNL     1     -17.588  39.477  -2.039  1.00  0.00     0.158 A 
BRANCH  16  19
ATOM     19  O   UNL     1     -19.896  38.646  -2.301  1.00  0.00    -0.504 OA
ATOM     20  H   UNL     1     -20.586  38.034  -2.716  1.00  0.00     0.293 HD
ENDBRANCH  16  19
BRANCH  18  21
ATOM     21  O   UNL     1     -17.968  40.617  -1.329  1.00  0.00    -0.504 OA
ATOM     22  H   UNL     1     -18.235  41.489  -1.761  1.00  0.00     0.293 HD
ENDBRANCH  18  21
ENDBRANCH   3  13
BRANCH  10  23
ATOM     23  O   UNL     1      -9.379  36.818  -3.662  1.00  0.00    -0.507 OA
ATOM     24  H   UNL     1      -9.129  36.919  -2.686  1.00  0.00     0.293 HD
ENDBRANCH  10  23
BRANCH  11  25
ATOM     25  O   UNL     1     -10.156  40.265  -6.947  1.00  0.00    -0.508 OA
ATOM     26  H   UNL     1     -10.767  40.686  -7.637  1.00  0.00     0.293 HD
ENDBRANCH  11  25
ENDBRANCH   1   2
BRANCH   1  27
ATOM     27  C   UNL     1     -13.749  36.298  -0.167  1.00  0.00     0.339 C 
ATOM     28  C   UNL     1     -14.981  36.340   0.755  1.00  0.00     0.214 C 
ATOM     29  O   UNL     1     -12.896  35.195   0.116  1.00  0.00    -0.332 OA
ATOM     30  C   UNL     1     -15.759  35.027   0.661  1.00  0.00     0.180 C 
ATOM     31  C   UNL     1     -13.531  33.923   0.048  1.00  0.00     0.179 C 
ATOM     32  C   UNL     1     -14.821  33.830   0.908  1.00  0.00     0.177 C 
BRANCH  28  33
ATOM     33  O   UNL     1     -15.822  37.403   0.387  1.00  0.00    -0.384 OA
ATOM     34  H   UNL     1     -15.639  37.596  -0.570  1.00  0.00     0.211 HD
ENDBRANCH  28  33
BRANCH  30  35
ATOM     35  O   UNL     1     -16.801  35.033   1.601  1.00  0.00    -0.387 OA
ATOM     36  H   UNL     1     -17.291  35.888   1.479  1.00  0.00     0.211 HD
ENDBRANCH  30  35
BRANCH  31  37
ATOM     37  C   UNL     1     -13.726  33.444  -1.401  1.00  0.00     0.191 C 
BRANCH  37  38
ATOM     38  O   UNL     1     -12.513  33.524  -2.098  1.00  0.00    -0.394 OA
ATOM     39  H   UNL     1     -12.748  33.536  -3.062  1.00  0.00     0.210 HD
ENDBRANCH  37  38
ENDBRANCH  31  37
BRANCH  32  40
ATOM     40  O   UNL     1     -14.510  33.709   2.277  1.00  0.00    -0.387 OA
ATOM     41  H   UNL     1     -14.123  34.569   2.585  1.00  0.00     0.211 HD
ENDBRANCH  32  40
ENDBRANCH   1  27
TORSDOF 12
ENDMDL
MODEL 3
REMARK VINA RESULT:    -6.216      1.907      2.891
REMARK INTER + INTRA:         -10.726
REMARK INTER:                  -9.713
REMARK INTRA:                  -1.013
REMARK UNBOUND:                -1.604
REMARK SMILES O=c1c(O[C@@H]2O[C@H](CO)[C@@H](O)[C@@H](O)[C@@H]2O)c(-c2ccc(O)c(O)c2)oc2cc(O)cc(O)c12
REMARK SMILES IDX 4 1 3 2 16 3 25 4 2 5 26 6 1 7 33 8 27 9 31 10 28 11 30 12
REMARK SMILES IDX 17 13 18 14 19 15 20 16 24 17 22 18 21 19 23 21 32 23 29 25
REMARK SMILES IDX 5 27 14 28 6 29 12 30 7 31 10 32 15 33 13 35 8 37 9 38 11 40
REMARK H PARENT 21 20 23 22 32 24 29 26 15 34 13 36 9 39 11 41
REMARK Flexibility Score: inf
ROOT
ATOM      1  O   UNL     1     -13.452  36.927  -2.389  1.00  0.00    -0.454 OA
ENDROOT
BRANCH   1   2
ATOM      2  C   UNL     1     -13.100  37.978  -3.256  1.00  0.00     0.214 A 
ATOM      3  C   UNL     1     -14.032  39.011  -3.476  1.00  0.00     0.180 A 
ATOM      4  O   UNL     1     -13.712  40.047  -4.244  1.00  0.00    -0.452 OA
ATOM      5  C   UNL     1     -11.848  38.055  -3.901  1.00  0.00     0.239 A 
ATOM      6  C   UNL     1     -12.541  40.169  -4.853  1.00  0.00     0.146 A 
ATOM      7  O   UNL     1     -11.009  37.126  -3.764  1.00  0.00    -0.285 OA
ATOM      8  C   UNL     1     -11.548  39.171  -4.711  1.00  0.00     0.111 A 
ATOM      9  C   UNL     1     -12.297  41.298  -5.640  1.00  0.00     0.094 A 
ATOM     10  C   UNL     1     -10.309  39.334  -5.377  1.00  0.00     0.134 A 
ATOM     11  C   UNL     1     -11.071  41.454  -6.293  1.00  0.00     0.123 A 
ATOM     12  C   UNL     1     -10.085  40.475  -6.161  1.00  0.00     0.093 A 
BRANCH   3  13
ATOM     13  C   UNL     1     -15.364  39.009  -2.829  1.00  0.00     0.025 A 
ATOM     14  C   UNL     1     -15.492  39.473  -1.513  1.00  0.00     0.016 A 
ATOM     15  C   UNL     1     -16.735  39.462  -0.879  1.00  0.00     0.051 A 
ATOM     16  C   UNL     1     -17.875  39.001  -1.549  1.00  0.00     0.157 A 
ATOM     17  C   UNL     1     -16.509  38.578  -3.516  1.00  0.00     0.062 A 
ATOM     18  C   UNL     1     -17.762  38.562  -2.889  1.00  0.00     0.158 A 
BRANCH  16  19
ATOM     19  O   UNL     1     -19.085  38.995  -0.852  1.00  0.00    -0.504 OA
ATOM     20  H   UNL     1     -19.856  39.615  -1.054  1.00  0.00     0.293 HD
ENDBRANCH  16  19
BRANCH  18  21
ATOM     21  O   UNL     1     -18.856  38.112  -3.630  1.00  0.00    -0.504 OA
ATOM     22  H   UNL     1     -19.685  38.661  -3.803  1.00  0.00     0.293 HD
ENDBRANCH  18  21
ENDBRANCH   3  13
BRANCH  10  23
ATOM     23  O   UNL     1      -9.300  38.377  -5.263  1.00  0.00    -0.507 OA
ATOM     24  H   UNL     1      -9.439  37.514  -4.751  1.00  0.00     0.293 HD
ENDBRANCH  10  23
BRANCH  11  25
ATOM     25  O   UNL     1     -10.822  42.580  -7.076  1.00  0.00    -0.508 OA
ATOM     26  H   UNL     1      -9.925  42.726  -7.525  1.00  0.00     0.293 HD
ENDBRANCH  11  25
ENDBRANCH   1   2
BRANCH   1  27
ATOM     27  C   UNL     1     -13.043  35.563  -2.511  1.00  0.00     0.339 C 
ATOM     28  C   UNL     1     -12.121  35.179  -1.340  1.00  0.00     0.214 C 
ATOM     29  O   UNL     1     -14.153  34.682  -2.641  1.00  0.00    -0.332 OA
ATOM     30  C   UNL     1     -12.917  35.128  -0.034  1.00  0.00     0.180 C 
ATOM     31  C   UNL     1     -14.960  34.572  -1.473  1.00  0.00     0.179 C 
ATOM     32  C   UNL     1     -14.151  34.222  -0.194  1.00  0.00     0.177 C 
BRANCH  28  33
ATOM     33  O   UNL     1     -11.085  36.119  -1.214  1.00  0.00    -0.384 OA
ATOM     34  H   UNL     1     -11.074  36.410  -0.265  1.00  0.00     0.211 HD
ENDBRANCH  28  33
BRANCH  30  35
ATOM     35  O   UNL     1     -12.092  34.651   0.996  1.00  0.00    -0.387 OA
ATOM     36  H   UNL     1     -11.363  35.317   1.111  1.00  0.00     0.211 HD
ENDBRANCH  30  35
BRANCH  31  37
ATOM     37  C   UNL     1     -15.896  35.781  -1.294  1.00  0.00     0.191 C 
BRANCH  37  38
ATOM     38  O   UNL     1     -17.193  35.445  -1.704  1.00  0.00    -0.394 OA
ATOM     39  H   UNL     1     -17.769  36.214  -1.455  1.00  0.00     0.210 HD
ENDBRANCH  37  38
ENDBRANCH  31  37
BRANCH  32  40
ATOM     40  O   UNL     1     -13.783  32.863  -0.184  1.00  0.00    -0.387 OA
ATOM     41  H   UNL     1     -13.023  32.752   0.445  1.00  0.00     0.211 HD
ENDBRANCH  32  40
ENDBRANCH   1  27
TORSDOF 12
ENDMDL
MODEL 4
REMARK VINA RESULT:    -5.976      2.284      3.882
REMARK INTER + INTRA:         -10.375
REMARK INTER:                  -8.957
REMARK INTRA:                  -1.418
REMARK UNBOUND:                -1.604
REMARK SMILES O=c1c(O[C@@H]2O[C@H](CO)[C@@H](O)[C@@H](O)[C@@H]2O)c(-c2ccc(O)c(O)c2)oc2cc(O)cc(O)c12
REMARK SMILES IDX 4 1 3 2 16 3 25 4 2 5 26 6 1 7 33 8 27 9 31 10 28 11 30 12
REMARK SMILES IDX 17 13 18 14 19 15 20 16 24 17 22 18 21 19 23 21 32 23 29 25
REMARK SMILES IDX 5 27 14 28 6 29 12 30 7 31 10 32 15 33 13 35 8 37 9 38 11 40
REMARK H PARENT 21 20 23 22 32 24 29 26 15 34 13 36 9 39 11 41
REMARK Flexibility Score: inf
ROOT
ATOM      1  O   UNL     1     -12.534  36.958  -3.077  1.00  0.00    -0.454 OA
ENDROOT
BRANCH   1   2
ATOM      2  C   UNL     1     -12.402  38.161  -3.794  1.00  0.00     0.214 A 
ATOM      3  C   UNL     1     -13.480  39.069  -3.794  1.00  0.00     0.180 A 
ATOM      4  O   UNL     1     -13.369  40.239  -4.413  1.00  0.00    -0.452 OA
ATOM      5  C   UNL     1     -11.232  38.511  -4.500  1.00  0.00     0.239 A 
ATOM      6  C   UNL     1     -12.281  40.615  -5.072  1.00  0.00     0.146 A 
ATOM      7  O   UNL     1     -10.266  37.703  -4.561  1.00  0.00    -0.285 OA
ATOM      8  C   UNL     1     -11.155  39.762  -5.148  1.00  0.00     0.111 A 
ATOM      9  C   UNL     1     -12.259  41.868  -5.691  1.00  0.00     0.094 A 
ATOM     10  C   UNL     1     -10.010  40.196  -5.860  1.00  0.00     0.134 A 
ATOM     11  C   UNL     1     -11.125  42.291  -6.390  1.00  0.00     0.123 A 
ATOM     12  C   UNL     1     -10.009  41.457  -6.473  1.00  0.00     0.093 A 
BRANCH   3  13
ATOM     13  C   UNL     1     -14.739  38.781  -3.069  1.00  0.00     0.025 A 
ATOM     14  C   UNL     1     -14.906  39.254  -1.761  1.00  0.00     0.016 A 
ATOM     15  C   UNL     1     -16.077  38.978  -1.055  1.00  0.00     0.051 A 
ATOM     16  C   UNL     1     -17.109  38.237  -1.645  1.00  0.00     0.157 A 
ATOM     17  C   UNL     1     -15.784  38.068  -3.677  1.00  0.00     0.062 A 
ATOM     18  C   UNL     1     -16.964  37.784  -2.977  1.00  0.00     0.158 A 
BRANCH  16  19
ATOM     19  O   UNL     1     -18.246  37.975  -0.878  1.00  0.00    -0.504 OA
ATOM     20  H   UNL     1     -18.273  37.312  -0.116  1.00  0.00     0.293 HD
ENDBRANCH  16  19
BRANCH  18  21
ATOM     21  O   UNL     1     -17.958  37.062  -3.641  1.00  0.00    -0.504 OA
ATOM     22  H   UNL     1     -17.773  36.309  -4.286  1.00  0.00     0.293 HD
ENDBRANCH  18  21
ENDBRANCH   3  13
BRANCH  10  23
ATOM     23  O   UNL     1      -8.875  39.389  -5.959  1.00  0.00    -0.507 OA
ATOM     24  H   UNL     1      -8.060  39.544  -5.378  1.00  0.00     0.293 HD
ENDBRANCH  10  23
BRANCH  11  25
ATOM     25  O   UNL     1     -11.098  43.541  -7.007  1.00  0.00    -0.508 OA
ATOM     26  H   UNL     1     -11.036  43.634  -8.015  1.00  0.00     0.293 HD
ENDBRANCH  11  25
ENDBRANCH   1   2
BRANCH   1  27
ATOM     27  C   UNL     1     -13.115  35.747  -3.565  1.00  0.00     0.339 C 
ATOM     28  C   UNL     1     -12.047  34.641  -3.645  1.00  0.00     0.214 C 
ATOM     29  O   UNL     1     -14.249  35.353  -2.803  1.00  0.00    -0.332 OA
ATOM     30  C   UNL     1     -11.621  34.214  -2.240  1.00  0.00     0.180 C 
ATOM     31  C   UNL     1     -13.953  34.941  -1.473  1.00  0.00     0.179 C 
ATOM     32  C   UNL     1     -12.855  33.845  -1.396  1.00  0.00     0.177 C 
BRANCH  28  33
ATOM     33  O   UNL     1     -10.923  35.107  -4.348  1.00  0.00    -0.384 OA
ATOM     34  H   UNL     1     -10.342  34.320  -4.515  1.00  0.00     0.211 HD
ENDBRANCH  28  33
BRANCH  30  35
ATOM     35  O   UNL     1     -10.746  33.120  -2.330  1.00  0.00    -0.387 OA
ATOM     36  H   UNL     1      -9.850  33.446  -2.053  1.00  0.00     0.211 HD
ENDBRANCH  30  35
BRANCH  31  37
ATOM     37  C   UNL     1     -13.694  36.133  -0.535  1.00  0.00     0.191 C 
BRANCH  37  38
ATOM     38  O   UNL     1     -12.850  35.742   0.513  1.00  0.00    -0.394 OA
ATOM     39  H   UNL     1     -12.986  34.766   0.628  1.00  0.00     0.210 HD
ENDBRANCH  37  38
ENDBRANCH  31  37
BRANCH  32  40
ATOM     40  O   UNL     1     -13.366  32.588  -1.773  1.00  0.00    -0.387 OA
ATOM     41  H   UNL     1     -14.246  32.729  -2.209  1.00  0.00     0.211 HD
ENDBRANCH  32  40
ENDBRANCH   1  27
TORSDOF 12
ENDMDL
MODEL 5
REMARK VINA RESULT:    -5.943      1.788      4.834
REMARK INTER + INTRA:         -10.326
REMARK INTER:                  -9.449
REMARK INTRA:                  -0.877
REMARK UNBOUND:                -1.604
REMARK SMILES O=c1c(O[C@@H]2O[C@H](CO)[C@@H](O)[C@@H](O)[C@@H]2O)c(-c2ccc(O)c(O)c2)oc2cc(O)cc(O)c12
REMARK SMILES IDX 4 1 3 2 16 3 25 4 2 5 26 6 1 7 33 8 27 9 31 10 28 11 30 12
REMARK SMILES IDX 17 13 18 14 19 15 20 16 24 17 22 18 21 19 23 21 32 23 29 25
REMARK SMILES IDX 5 27 14 28 6 29 12 30 7 31 10 32 15 33 13 35 8 37 9 38 11 40
REMARK H PARENT 21 20 23 22 32 24 29 26 15 34 13 36 9 39 11 41
REMARK Flexibility Score: inf
ROOT
ATOM      1  O   UNL     1     -15.163  38.515  -1.788  1.00  0.00    -0.454 OA
ENDROOT
BRANCH   1   2
ATOM      2  C   UNL     1     -14.103  38.739  -2.685  1.00  0.00     0.214 A 
ATOM      3  C   UNL     1     -13.171  37.704  -2.901  1.00  0.00     0.180 A 
ATOM      4  O   UNL     1     -12.191  37.861  -3.784  1.00  0.00    -0.452 OA
ATOM      5  C   UNL     1     -13.940  39.947  -3.396  1.00  0.00     0.239 A 
ATOM      6  C   UNL     1     -12.013  38.972  -4.486  1.00  0.00     0.146 A 
ATOM      7  O   UNL     1     -14.727  40.910  -3.193  1.00  0.00    -0.285 OA
ATOM      8  C   UNL     1     -12.883  40.074  -4.323  1.00  0.00     0.111 A 
ATOM      9  C   UNL     1     -10.951  39.040  -5.393  1.00  0.00     0.094 A 
ATOM     10  C   UNL     1     -12.662  41.245  -5.089  1.00  0.00     0.134 A 
ATOM     11  C   UNL     1     -10.740  40.197  -6.148  1.00  0.00     0.123 A 
ATOM     12  C   UNL     1     -11.592  41.292  -5.994  1.00  0.00     0.093 A 
BRANCH   3  13
ATOM     13  C   UNL     1     -13.278  36.403  -2.203  1.00  0.00     0.025 A 
ATOM     14  C   UNL     1     -14.079  35.391  -2.747  1.00  0.00     0.016 A 
ATOM     15  C   UNL     1     -14.207  34.164  -2.094  1.00  0.00     0.051 A 
ATOM     16  C   UNL     1     -13.529  33.920  -0.894  1.00  0.00     0.157 A 
ATOM     17  C   UNL     1     -12.569  36.150  -1.018  1.00  0.00     0.062 A 
ATOM     18  C   UNL     1     -12.692  34.923  -0.354  1.00  0.00     0.158 A 
BRANCH  16  19
ATOM     19  O   UNL     1     -13.717  32.680  -0.279  1.00  0.00    -0.504 OA
ATOM     20  H   UNL     1     -14.181  32.555   0.610  1.00  0.00     0.293 HD
ENDBRANCH  16  19
BRANCH  18  21
ATOM     21  O   UNL     1     -11.964  34.745   0.825  1.00  0.00    -0.504 OA
ATOM     22  H   UNL     1     -11.467  33.898   1.058  1.00  0.00     0.293 HD
ENDBRANCH  18  21
ENDBRANCH   3  13
BRANCH  10  23
ATOM     23  O   UNL     1     -13.498  42.356  -4.962  1.00  0.00    -0.507 OA
ATOM     24  H   UNL     1     -13.149  43.250  -4.639  1.00  0.00     0.293 HD
ENDBRANCH  10  23
BRANCH  11  25
ATOM     25  O   UNL     1      -9.685  40.269  -7.056  1.00  0.00    -0.508 OA
ATOM     26  H   UNL     1      -8.742  40.493  -6.757  1.00  0.00     0.293 HD
ENDBRANCH  11  25
ENDBRANCH   1   2
BRANCH   1  27
ATOM     27  C   UNL     1     -15.642  39.436  -0.805  1.00  0.00     0.339 C 
ATOM     28  C   UNL     1     -17.095  39.836  -1.119  1.00  0.00     0.214 C 
ATOM     29  O   UNL     1     -15.490  38.935   0.516  1.00  0.00    -0.332 OA
ATOM     30  C   UNL     1     -18.033  38.650  -0.888  1.00  0.00     0.180 C 
ATOM     31  C   UNL     1     -16.321  37.821   0.826  1.00  0.00     0.179 C 
ATOM     32  C   UNL     1     -17.824  38.070   0.523  1.00  0.00     0.177 C 
BRANCH  28  33
ATOM     33  O   UNL     1     -17.202  40.257  -2.455  1.00  0.00    -0.384 OA
ATOM     34  H   UNL     1     -17.210  39.436  -3.015  1.00  0.00     0.211 HD
ENDBRANCH  28  33
BRANCH  30  35
ATOM     35  O   UNL     1     -19.363  39.068  -1.051  1.00  0.00    -0.387 OA
ATOM     36  H   UNL     1     -19.638  38.794  -1.966  1.00  0.00     0.211 HD
ENDBRANCH  30  35
BRANCH  31  37
ATOM     37  C   UNL     1     -15.785  36.508   0.229  1.00  0.00     0.191 C 
BRANCH  37  38
ATOM     38  O   UNL     1     -16.850  35.637  -0.039  1.00  0.00    -0.394 OA
ATOM     39  H   UNL     1     -16.497  34.719   0.097  1.00  0.00     0.210 HD
ENDBRANCH  37  38
ENDBRANCH  31  37
BRANCH  32  40
ATOM     40  O   UNL     1     -18.407  38.899   1.501  1.00  0.00    -0.387 OA
ATOM     41  H   UNL     1     -19.193  39.350   1.096  1.00  0.00     0.211 HD
ENDBRANCH  32  40
ENDBRANCH   1  27
TORSDOF 12
ENDMDL
MODEL 6
REMARK VINA RESULT:    -5.890      2.158      6.056
REMARK INTER + INTRA:         -10.248
REMARK INTER:                  -9.467
REMARK INTRA:                  -0.781
REMARK UNBOUND:                -1.604
REMARK SMILES O=c1c(O[C@@H]2O[C@H](CO)[C@@H](O)[C@@H](O)[C@@H]2O)c(-c2ccc(O)c(O)c2)oc2cc(O)cc(O)c12
REMARK SMILES IDX 4 1 3 2 16 3 25 4 2 5 26 6 1 7 33 8 27 9 31 10 28 11 30 12
REMARK SMILES IDX 17 13 18 14 19 15 20 16 24 17 22 18 21 19 23 21 32 23 29 25
REMARK SMILES IDX 5 27 14 28 6 29 12 30 7 31 10 32 15 33 13 35 8 37 9 38 11 40
REMARK H PARENT 21 20 23 22 32 24 29 26 15 34 13 36 9 39 11 41
REMARK Flexibility Score: inf
ROOT
ATOM      1  O   UNL     1     -13.135  38.029  -2.016  1.00  0.00    -0.454 OA
ENDROOT
BRANCH   1   2
ATOM      2  C   UNL     1     -13.310  36.917  -1.172  1.00  0.00     0.214 A 
ATOM      3  C   UNL     1     -14.594  36.348  -1.063  1.00  0.00     0.180 A 
ATOM      4  O   UNL     1     -14.784  35.264  -0.319  1.00  0.00    -0.452 OA
ATOM      5  C   UNL     1     -12.254  36.333  -0.442  1.00  0.00     0.239 A 
ATOM      6  C   UNL     1     -13.816  34.672   0.368  1.00  0.00     0.146 A 
ATOM      7  O   UNL     1     -11.102  36.844  -0.478  1.00  0.00    -0.285 OA
ATOM      8  C   UNL     1     -12.498  35.183   0.340  1.00  0.00     0.111 A 
ATOM      9  C   UNL     1     -14.115  33.533   1.121  1.00  0.00     0.094 A 
ATOM     10  C   UNL     1     -11.489  34.526   1.086  1.00  0.00     0.134 A 
ATOM     11  C   UNL     1     -13.114  32.888   1.854  1.00  0.00     0.123 A 
ATOM     12  C   UNL     1     -11.810  33.385   1.834  1.00  0.00     0.093 A 
BRANCH   3  13
ATOM     13  C   UNL     1     -15.753  36.895  -1.804  1.00  0.00     0.025 A 
ATOM     14  C   UNL     1     -16.563  36.032  -2.555  1.00  0.00     0.016 A 
ATOM     15  C   UNL     1     -17.649  36.532  -3.274  1.00  0.00     0.051 A 
ATOM     16  C   UNL     1     -17.955  37.898  -3.250  1.00  0.00     0.157 A 
ATOM     17  C   UNL     1     -16.077  38.260  -1.749  1.00  0.00     0.062 A 
ATOM     18  C   UNL     1     -17.163  38.772  -2.469  1.00  0.00     0.158 A 
BRANCH  16  19
ATOM     19  O   UNL     1     -19.041  38.338  -4.010  1.00  0.00    -0.504 OA
ATOM     20  H   UNL     1     -19.045  39.194  -4.547  1.00  0.00     0.293 HD
ENDBRANCH  16  19
BRANCH  18  21
ATOM     21  O   UNL     1     -17.421  40.141  -2.374  1.00  0.00    -0.504 OA
ATOM     22  H   UNL     1     -18.238  40.532  -1.929  1.00  0.00     0.293 HD
ENDBRANCH  18  21
ENDBRANCH   3  13
BRANCH  10  23
ATOM     23  O   UNL     1     -10.174  34.993   1.086  1.00  0.00    -0.507 OA
ATOM     24  H   UNL     1      -9.932  35.904   0.714  1.00  0.00     0.293 HD
ENDBRANCH  10  23
BRANCH  11  25
ATOM     25  O   UNL     1     -13.406  31.750   2.604  1.00  0.00    -0.508 OA
ATOM     26  H   UNL     1     -13.775  30.911   2.173  1.00  0.00     0.293 HD
ENDBRANCH  11  25
ENDBRANCH   1   2
BRANCH   1  27
ATOM     27  C   UNL     1     -11.964  38.329  -2.780  1.00  0.00     0.339 C 
ATOM     28  C   UNL     1     -12.249  38.146  -4.281  1.00  0.00     0.214 C 
ATOM     29  O   UNL     1     -11.447  39.619  -2.478  1.00  0.00    -0.332 OA
ATOM     30  C   UNL     1     -13.206  39.232  -4.775  1.00  0.00     0.180 C 
ATOM     31  C   UNL     1     -12.273  40.700  -2.896  1.00  0.00     0.179 C 
ATOM     32  C   UNL     1     -12.674  40.627  -4.395  1.00  0.00     0.177 C 
BRANCH  28  33
ATOM     33  O   UNL     1     -12.823  36.885  -4.513  1.00  0.00    -0.384 OA
ATOM     34  H   UNL     1     -13.101  36.866  -5.466  1.00  0.00     0.211 HD
ENDBRANCH  28  33
BRANCH  30  35
ATOM     35  O   UNL     1     -13.351  39.129  -6.168  1.00  0.00    -0.387 OA
ATOM     36  H   UNL     1     -12.685  39.745  -6.571  1.00  0.00     0.211 HD
ENDBRANCH  30  35
BRANCH  31  37
ATOM     37  C   UNL     1     -13.468  40.921  -1.953  1.00  0.00     0.191 C 
BRANCH  37  38
ATOM     38  O   UNL     1     -14.577  41.369  -2.684  1.00  0.00    -0.394 OA
ATOM     39  H   UNL     1     -14.602  40.822  -3.512  1.00  0.00     0.210 HD
ENDBRANCH  37  38
ENDBRANCH  31  37
BRANCH  32  40
ATOM     40  O   UNL     1     -11.600  41.000  -5.226  1.00  0.00    -0.387 OA
ATOM     41  H   UNL     1     -10.855  41.311  -4.650  1.00  0.00     0.211 HD
ENDBRANCH  32  40
ENDBRANCH   1  27
TORSDOF 12
ENDMDL
MODEL 7
REMARK VINA RESULT:    -5.866      1.904      2.750
REMARK INTER + INTRA:         -10.213
REMARK INTER:                  -9.403
REMARK INTRA:                  -0.810
REMARK UNBOUND:                -1.604
REMARK SMILES O=c1c(O[C@@H]2O[C@H](CO)[C@@H](O)[C@@H](O)[C@@H]2O)c(-c2ccc(O)c(O)c2)oc2cc(O)cc(O)c12
REMARK SMILES IDX 4 1 3 2 16 3 25 4 2 5 26 6 1 7 33 8 27 9 31 10 28 11 30 12
REMARK SMILES IDX 17 13 18 14 19 15 20 16 24 17 22 18 21 19 23 21 32 23 29 25
REMARK SMILES IDX 5 27 14 28 6 29 12 30 7 31 10 32 15 33 13 35 8 37 9 38 11 40
REMARK H PARENT 21 20 23 22 32 24 29 26 15 34 13 36 9 39 11 41
REMARK Flexibility Score: inf
ROOT
ATOM      1  O   UNL     1     -13.447  36.917  -2.092  1.00  0.00    -0.454 OA
ENDROOT
BRANCH   1   2
ATOM      2  C   UNL     1     -13.024  37.848  -3.058  1.00  0.00     0.214 A 
ATOM      3  C   UNL     1     -13.964  38.764  -3.570  1.00  0.00     0.180 A 
ATOM      4  O   UNL     1     -13.586  39.693  -4.441  1.00  0.00    -0.452 OA
ATOM      5  C   UNL     1     -11.695  37.920  -3.525  1.00  0.00     0.239 A 
ATOM      6  C   UNL     1     -12.344  39.808  -4.891  1.00  0.00     0.146 A 
ATOM      7  O   UNL     1     -10.838  37.087  -3.124  1.00  0.00    -0.285 OA
ATOM      8  C   UNL     1     -11.334  38.920  -4.453  1.00  0.00     0.111 A 
ATOM      9  C   UNL     1     -12.043  40.821  -5.807  1.00  0.00     0.094 A 
ATOM     10  C   UNL     1     -10.019  39.072  -4.956  1.00  0.00     0.134 A 
ATOM     11  C   UNL     1     -10.742  40.967  -6.298  1.00  0.00     0.123 A 
ATOM     12  C   UNL     1      -9.738  40.095  -5.873  1.00  0.00     0.093 A 
BRANCH   3  13
ATOM     13  C   UNL     1     -15.375  38.761  -3.124  1.00  0.00     0.025 A 
ATOM     14  C   UNL     1     -16.319  37.999  -3.824  1.00  0.00     0.016 A 
ATOM     15  C   UNL     1     -17.658  37.997  -3.430  1.00  0.00     0.051 A 
ATOM     16  C   UNL     1     -18.078  38.745  -2.324  1.00  0.00     0.157 A 
ATOM     17  C   UNL     1     -15.785  39.484  -1.993  1.00  0.00     0.062 A 
ATOM     18  C   UNL     1     -17.127  39.491  -1.590  1.00  0.00     0.158 A 
BRANCH  16  19
ATOM     19  O   UNL     1     -19.435  38.718  -1.995  1.00  0.00    -0.504 OA
ATOM     20  H   UNL     1     -19.988  39.544  -1.814  1.00  0.00     0.293 HD
ENDBRANCH  16  19
BRANCH  18  21
ATOM     21  O   UNL     1     -17.464  40.240  -0.461  1.00  0.00    -0.504 OA
ATOM     22  H   UNL     1     -17.219  39.980   0.483  1.00  0.00     0.293 HD
ENDBRANCH  18  21
ENDBRANCH   3  13
BRANCH  10  23
ATOM     23  O   UNL     1      -8.990  38.220  -4.549  1.00  0.00    -0.507 OA
ATOM     24  H   UNL     1      -8.045  38.556  -4.409  1.00  0.00     0.293 HD
ENDBRANCH  10  23
BRANCH  11  25
ATOM     25  O   UNL     1     -10.437  41.976  -7.209  1.00  0.00    -0.508 OA
ATOM     26  H   UNL     1     -10.835  41.988  -8.141  1.00  0.00     0.293 HD
ENDBRANCH  11  25
ENDBRANCH   1   2
BRANCH   1  27
ATOM     27  C   UNL     1     -14.213  35.735  -2.341  1.00  0.00     0.339 C 
ATOM     28  C   UNL     1     -13.309  34.631  -2.917  1.00  0.00     0.214 C 
ATOM     29  O   UNL     1     -14.925  35.308  -1.186  1.00  0.00    -0.332 OA
ATOM     30  C   UNL     1     -12.338  34.129  -1.848  1.00  0.00     0.180 C 
ATOM     31  C   UNL     1     -14.103  34.826  -0.129  1.00  0.00     0.179 C 
ATOM     32  C   UNL     1     -13.105  33.722  -0.576  1.00  0.00     0.177 C 
BRANCH  28  33
ATOM     33  O   UNL     1     -12.578  35.127  -4.010  1.00  0.00    -0.384 OA
ATOM     34  H   UNL     1     -13.151  35.015  -4.813  1.00  0.00     0.211 HD
ENDBRANCH  28  33
BRANCH  30  35
ATOM     35  O   UNL     1     -11.614  33.036  -2.351  1.00  0.00    -0.387 OA
ATOM     36  H   UNL     1     -12.267  32.301  -2.492  1.00  0.00     0.211 HD
ENDBRANCH  30  35
BRANCH  31  37
ATOM     37  C   UNL     1     -13.438  35.967   0.662  1.00  0.00     0.191 C 
BRANCH  37  38
ATOM     38  O   UNL     1     -14.333  37.037   0.799  1.00  0.00    -0.394 OA
ATOM     39  H   UNL     1     -13.984  37.764   0.221  1.00  0.00     0.210 HD
ENDBRANCH  37  38
ENDBRANCH  31  37
BRANCH  32  40
ATOM     40  O   UNL     1     -13.761  32.489  -0.757  1.00  0.00    -0.387 OA
ATOM     41  H   UNL     1     -13.768  32.280  -1.727  1.00  0.00     0.211 HD
ENDBRANCH  32  40
ENDBRANCH   1  27
TORSDOF 12
ENDMDL
MODEL 8
REMARK VINA RESULT:    -5.784      2.428      5.422
REMARK INTER + INTRA:         -10.092
REMARK INTER:                  -9.111
REMARK INTRA:                  -0.982
REMARK UNBOUND:                -1.604
REMARK SMILES O=c1c(O[C@@H]2O[C@H](CO)[C@@H](O)[C@@H](O)[C@@H]2O)c(-c2ccc(O)c(O)c2)oc2cc(O)cc(O)c12
REMARK SMILES IDX 4 1 3 2 16 3 25 4 2 5 26 6 1 7 33 8 27 9 31 10 28 11 30 12
REMARK SMILES IDX 17 13 18 14 19 15 20 16 24 17 22 18 21 19 23 21 32 23 29 25
REMARK SMILES IDX 5 27 14 28 6 29 12 30 7 31 10 32 15 33 13 35 8 37 9 38 11 40
REMARK H PARENT 21 20 23 22 32 24 29 26 15 34 13 36 9 39 11 41
REMARK Flexibility Score: inf
ROOT
ATOM      1  O   UNL     1     -14.262  37.930  -2.119  1.00  0.00    -0.454 OA
ENDROOT
BRANCH   1   2
ATOM      2  C   UNL     1     -13.499  38.814  -2.904  1.00  0.00     0.214 A 
ATOM      3  C   UNL     1     -12.327  38.330  -3.518  1.00  0.00     0.180 A 
ATOM      4  O   UNL     1     -11.613  39.120  -4.312  1.00  0.00    -0.452 OA
ATOM      5  C   UNL     1     -13.863  40.159  -3.121  1.00  0.00     0.239 A 
ATOM      6  C   UNL     1     -11.930  40.385  -4.558  1.00  0.00     0.146 A 
ATOM      7  O   UNL     1     -14.879  40.638  -2.550  1.00  0.00    -0.285 OA
ATOM      8  C   UNL     1     -13.076  40.967  -3.969  1.00  0.00     0.111 A 
ATOM      9  C   UNL     1     -11.115  41.136  -5.410  1.00  0.00     0.094 A 
ATOM     10  C   UNL     1     -13.383  42.320  -4.254  1.00  0.00     0.134 A 
ATOM     11  C   UNL     1     -11.425  42.471  -5.689  1.00  0.00     0.123 A 
ATOM     12  C   UNL     1     -12.553  43.056  -5.111  1.00  0.00     0.093 A 
BRANCH   3  13
ATOM     13  C   UNL     1     -11.882  36.928  -3.349  1.00  0.00     0.025 A 
ATOM     14  C   UNL     1     -12.568  35.901  -4.010  1.00  0.00     0.016 A 
ATOM     15  C   UNL     1     -12.175  34.572  -3.848  1.00  0.00     0.051 A 
ATOM     16  C   UNL     1     -11.083  34.243  -3.035  1.00  0.00     0.157 A 
ATOM     17  C   UNL     1     -10.765  36.607  -2.560  1.00  0.00     0.062 A 
ATOM     18  C   UNL     1     -10.363  35.276  -2.390  1.00  0.00     0.158 A 
BRANCH  16  19
ATOM     19  O   UNL     1     -10.755  32.893  -2.897  1.00  0.00    -0.504 OA
ATOM     20  H   UNL     1      -9.807  32.543  -2.864  1.00  0.00     0.293 HD
ENDBRANCH  16  19
BRANCH  18  21
ATOM     21  O   UNL     1      -9.250  35.029  -1.585  1.00  0.00    -0.504 OA
ATOM     22  H   UNL     1      -9.017  34.124  -1.205  1.00  0.00     0.293 HD
ENDBRANCH  18  21
ENDBRANCH   3  13
BRANCH  10  23
ATOM     23  O   UNL     1     -14.505  42.936  -3.697  1.00  0.00    -0.507 OA
ATOM     24  H   UNL     1     -14.921  43.761  -4.111  1.00  0.00     0.293 HD
ENDBRANCH  10  23
BRANCH  11  25
ATOM     25  O   UNL     1     -10.618  43.224  -6.539  1.00  0.00    -0.508 OA
ATOM     26  H   UNL     1      -9.608  43.217  -6.455  1.00  0.00     0.293 HD
ENDBRANCH  11  25
ENDBRANCH   1   2
BRANCH   1  27
ATOM     27  C   UNL     1     -15.424  38.270  -1.359  1.00  0.00     0.339 C 
ATOM     28  C   UNL     1     -16.688  37.736  -2.057  1.00  0.00     0.214 C 
ATOM     29  O   UNL     1     -15.325  37.836  -0.008  1.00  0.00    -0.332 OA
ATOM     30  C   UNL     1     -16.728  36.208  -1.984  1.00  0.00     0.180 C 
ATOM     31  C   UNL     1     -15.348  36.423   0.162  1.00  0.00     0.179 C 
ATOM     32  C   UNL     1     -16.560  35.738  -0.527  1.00  0.00     0.177 C 
BRANCH  28  33
ATOM     33  O   UNL     1     -16.700  38.135  -3.404  1.00  0.00    -0.384 OA
ATOM     34  H   UNL     1     -17.358  37.555  -3.869  1.00  0.00     0.211 HD
ENDBRANCH  28  33
BRANCH  30  35
ATOM     35  O   UNL     1     -17.946  35.748  -2.507  1.00  0.00    -0.387 OA
ATOM     36  H   UNL     1     -18.662  36.300  -2.095  1.00  0.00     0.211 HD
ENDBRANCH  30  35
BRANCH  31  37
ATOM     37  C   UNL     1     -13.998  35.770  -0.183  1.00  0.00     0.191 C 
BRANCH  37  38
ATOM     38  O   UNL     1     -12.947  36.587   0.254  1.00  0.00    -0.394 OA
ATOM     39  H   UNL     1     -12.563  36.140   1.053  1.00  0.00     0.210 HD
ENDBRANCH  37  38
ENDBRANCH  31  37
BRANCH  32  40
ATOM     40  O   UNL     1     -17.744  35.942   0.208  1.00  0.00    -0.387 OA
ATOM     41  H   UNL     1     -17.687  35.407   1.042  1.00  0.00     0.211 HD
ENDBRANCH  32  40
ENDBRANCH   1  27
TORSDOF 12
ENDMDL
MODEL 9
REMARK VINA RESULT:    -5.765      2.131      3.484
REMARK INTER + INTRA:         -10.066
REMARK INTER:                  -9.270
REMARK INTRA:                  -0.796
REMARK UNBOUND:                -1.604
REMARK SMILES O=c1c(O[C@@H]2O[C@H](CO)[C@@H](O)[C@@H](O)[C@@H]2O)c(-c2ccc(O)c(O)c2)oc2cc(O)cc(O)c12
REMARK SMILES IDX 4 1 3 2 16 3 25 4 2 5 26 6 1 7 33 8 27 9 31 10 28 11 30 12
REMARK SMILES IDX 17 13 18 14 19 15 20 16 24 17 22 18 21 19 23 21 32 23 29 25
REMARK SMILES IDX 5 27 14 28 6 29 12 30 7 31 10 32 15 33 13 35 8 37 9 38 11 40
REMARK H PARENT 21 20 23 22 32 24 29 26 15 34 13 36 9 39 11 41
REMARK Flexibility Score: inf
ROOT
ATOM      1  O   UNL     1     -14.483  37.424  -3.173  1.00  0.00    -0.454 OA
ENDROOT
BRANCH   1   2
ATOM      2  C   UNL     1     -14.182  38.755  -3.516  1.00  0.00     0.214 A 
ATOM      3  C   UNL     1     -14.905  39.792  -2.894  1.00  0.00     0.180 A 
ATOM      4  O   UNL     1     -14.610  41.061  -3.151  1.00  0.00    -0.452 OA
ATOM      5  C   UNL     1     -13.175  39.102  -4.441  1.00  0.00     0.239 A 
ATOM      6  C   UNL     1     -13.659  41.431  -3.999  1.00  0.00     0.146 A 
ATOM      7  O   UNL     1     -12.541  38.200  -5.051  1.00  0.00    -0.285 OA
ATOM      8  C   UNL     1     -12.894  40.462  -4.689  1.00  0.00     0.111 A 
ATOM      9  C   UNL     1     -13.421  42.793  -4.202  1.00  0.00     0.094 A 
ATOM     10  C   UNL     1     -11.887  40.893  -5.588  1.00  0.00     0.134 A 
ATOM     11  C   UNL     1     -12.424  43.212  -5.089  1.00  0.00     0.123 A 
ATOM     12  C   UNL     1     -11.664  42.264  -5.777  1.00  0.00     0.093 A 
BRANCH   3  13
ATOM     13  C   UNL     1     -15.970  39.512  -1.904  1.00  0.00     0.025 A 
ATOM     14  C   UNL     1     -17.314  39.582  -2.297  1.00  0.00     0.016 A 
ATOM     15  C   UNL     1     -18.332  39.339  -1.375  1.00  0.00     0.051 A 
ATOM     16  C   UNL     1     -18.031  39.011  -0.047  1.00  0.00     0.157 A 
ATOM     17  C   UNL     1     -15.663  39.149  -0.583  1.00  0.00     0.062 A 
ATOM     18  C   UNL     1     -16.678  38.905   0.351  1.00  0.00     0.158 A 
BRANCH  16  19
ATOM     19  O   UNL     1     -19.096  38.802   0.832  1.00  0.00    -0.504 OA
ATOM     20  H   UNL     1     -20.063  38.978   0.599  1.00  0.00     0.293 HD
ENDBRANCH  16  19
BRANCH  18  21
ATOM     21  O   UNL     1     -16.298  38.557   1.649  1.00  0.00    -0.504 OA
ATOM     22  H   UNL     1     -16.837  38.779   2.473  1.00  0.00     0.293 HD
ENDBRANCH  18  21
ENDBRANCH   3  13
BRANCH  10  23
ATOM     23  O   UNL     1     -11.106  39.972  -6.288  1.00  0.00    -0.507 OA
ATOM     24  H   UNL     1     -11.484  39.425  -7.052  1.00  0.00     0.293 HD
ENDBRANCH  10  23
BRANCH  11  25
ATOM     25  O   UNL     1     -12.181  44.569  -5.293  1.00  0.00    -0.508 OA
ATOM     26  H   UNL     1     -12.932  45.250  -5.278  1.00  0.00     0.293 HD
ENDBRANCH  11  25
ENDBRANCH   1   2
BRANCH   1  27
ATOM     27  C   UNL     1     -13.535  36.376  -2.958  1.00  0.00     0.339 C 
ATOM     28  C   UNL     1     -12.937  36.483  -1.543  1.00  0.00     0.214 C 
ATOM     29  O   UNL     1     -14.090  35.093  -3.218  1.00  0.00    -0.332 OA
ATOM     30  C   UNL     1     -13.995  36.138  -0.494  1.00  0.00     0.180 C 
ATOM     31  C   UNL     1     -15.092  34.683  -2.293  1.00  0.00     0.179 C 
ATOM     32  C   UNL     1     -14.638  34.775  -0.811  1.00  0.00     0.177 C 
BRANCH  28  33
ATOM     33  O   UNL     1     -12.469  37.788  -1.316  1.00  0.00    -0.384 OA
ATOM     34  H   UNL     1     -11.833  37.997  -2.050  1.00  0.00     0.211 HD
ENDBRANCH  28  33
BRANCH  30  35
ATOM     35  O   UNL     1     -13.401  36.114   0.777  1.00  0.00    -0.387 OA
ATOM     36  H   UNL     1     -12.761  36.874   0.808  1.00  0.00     0.211 HD
ENDBRANCH  30  35
BRANCH  31  37
ATOM     37  C   UNL     1     -16.447  35.362  -2.562  1.00  0.00     0.191 C 
BRANCH  37  38
ATOM     38  O   UNL     1     -17.132  35.553  -1.354  1.00  0.00    -0.394 OA
ATOM     39  H   UNL     1     -16.450  35.835  -0.691  1.00  0.00     0.210 HD
ENDBRANCH  37  38
ENDBRANCH  31  37
BRANCH  32  40
ATOM     40  O   UNL     1     -13.767  33.719  -0.480  1.00  0.00    -0.387 OA
ATOM     41  H   UNL     1     -13.276  33.453  -1.301  1.00  0.00     0.211 HD
ENDBRANCH  32  40
ENDBRANCH   1  27
TORSDOF 12
ENDMDL
