MODEL 1
REMARK VINA RESULT:    -3.871      0.000      0.000
REMARK INTER + INTRA:          -4.411
REMARK INTER:                  -4.550
REMARK INTRA:                   0.139
REMARK UNBOUND:                 0.139
REMARK SMILES O=c1c(O)c(-c2ccc(O)cc2)oc2cc(O)cc(O)c12
REMARK SMILES IDX 5 1 3 2 2 3 1 4 21 5 19 6 18 7 16 8 15 9 14 10 13 11 6 12
REMARK SMILES IDX 7 13 8 14 9 15 12 16 11 17 10 18 4 20 20 22 17 24
REMARK H PARENT 10 19 4 21 20 23 17 25
REMARK Flexibility Score: inf
ROOT
ATOM      1  C   UNL     1       0.771  20.971  19.617  1.00  0.00     0.180 A 
ATOM      2  C   UNL     1       1.403  21.964  18.848  1.00  0.00     0.208 A 
ATOM      3  C   UNL     1       1.599  23.237  19.407  1.00  0.00     0.238 A 
ATOM      4  O   UNL     1       2.115  24.137  18.695  1.00  0.00    -0.285 OA
ATOM      5  C   UNL     1       1.174  23.497  20.732  1.00  0.00     0.111 A 
ATOM      6  C   UNL     1       1.358  24.739  21.412  1.00  0.00     0.134 A 
ATOM      7  C   UNL     1       0.782  24.926  22.675  1.00  0.00     0.093 A 
ATOM      8  C   UNL     1       0.087  23.898  23.309  1.00  0.00     0.123 A 
ATOM      9  C   UNL     1      -0.048  22.660  22.678  1.00  0.00     0.094 A 
ATOM     10  C   UNL     1       0.484  22.454  21.403  1.00  0.00     0.146 A 
ATOM     11  O   UNL     1       0.326  21.266  20.833  1.00  0.00    -0.452 OA
ENDROOT
BRANCH   1  12
ATOM     12  C   UNL     1       0.553  19.599  19.107  1.00  0.00     0.021 A 
ATOM     13  C   UNL     1       0.860  18.499  19.926  1.00  0.00     0.016 A 
ATOM     14  C   UNL     1       0.683  17.195  19.457  1.00  0.00     0.047 A 
ATOM     15  C   UNL     1       0.212  16.973  18.157  1.00  0.00     0.115 A 
ATOM     16  C   UNL     1       0.099  19.368  17.796  1.00  0.00     0.016 A 
ATOM     17  C   UNL     1      -0.076  18.061  17.327  1.00  0.00     0.047 A 
BRANCH  15  18
ATOM     18  O   UNL     1       0.031  15.677  17.678  1.00  0.00    -0.508 OA
ATOM     19  H   UNL     1      -0.893  15.271  17.582  1.00  0.00     0.293 HD
ENDBRANCH  15  18
ENDBRANCH   1  12
BRANCH   2  20
ATOM     20  O   UNL     1       1.794  21.692  17.534  1.00  0.00    -0.502 OA
ATOM     21  H   UNL     1       1.561  20.826  17.066  1.00  0.00     0.293 HD
ENDBRANCH   2  20
BRANCH   6  22
ATOM     22  O   UNL     1       2.114  25.801  20.908  1.00  0.00    -0.507 OA
ATOM     23  H   UNL     1       2.127  26.090  19.942  1.00  0.00     0.293 HD
ENDBRANCH   6  22
BRANCH   8  24
ATOM     24  O   UNL     1      -0.460  24.114  24.572  1.00  0.00    -0.508 OA
ATOM     25  H   UNL     1      -1.407  24.455  24.689  1.00  0.00     0.293 HD
ENDBRANCH   8  24
TORSDOF 5
ENDMDL
MODEL 2
REMARK VINA RESULT:    -3.738      1.504      6.714
REMARK INTER + INTRA:          -4.255
REMARK INTER:                  -4.039
REMARK INTRA:                  -0.216
REMARK UNBOUND:                 0.139
REMARK SMILES O=c1c(O)c(-c2ccc(O)cc2)oc2cc(O)cc(O)c12
REMARK SMILES IDX 5 1 3 2 2 3 1 4 21 5 19 6 18 7 16 8 15 9 14 10 13 11 6 12
REMARK SMILES IDX 7 13 8 14 9 15 12 16 11 17 10 18 4 20 20 22 17 24
REMARK H PARENT 10 19 4 21 20 23 17 25
REMARK Flexibility Score: inf
ROOT
ATOM      1  C   UNL     1       0.714  21.071  20.192  1.00  0.00     0.180 A 
ATOM      2  C   UNL     1       0.167  21.142  18.898  1.00  0.00     0.208 A 
ATOM      3  C   UNL     1       0.011  19.959  18.159  1.00  0.00     0.238 A 
ATOM      4  O   UNL     1      -0.428  20.035  16.982  1.00  0.00    -0.285 OA
ATOM      5  C   UNL     1       0.389  18.718  18.728  1.00  0.00     0.111 A 
ATOM      6  C   UNL     1       0.237  17.453  18.084  1.00  0.00     0.134 A 
ATOM      7  C   UNL     1       0.764  16.304  18.687  1.00  0.00     0.093 A 
ATOM      8  C   UNL     1       1.379  16.365  19.937  1.00  0.00     0.123 A 
ATOM      9  C   UNL     1       1.479  17.588  20.602  1.00  0.00     0.094 A 
ATOM     10  C   UNL     1       0.995  18.757  20.010  1.00  0.00     0.146 A 
ATOM     11  O   UNL     1       1.118  19.901  20.671  1.00  0.00    -0.452 OA
ENDROOT
BRANCH   1  12
ATOM     12  C   UNL     1       0.886  22.272  21.041  1.00  0.00     0.021 A 
ATOM     13  C   UNL     1       1.930  23.171  20.765  1.00  0.00     0.016 A 
ATOM     14  C   UNL     1       2.124  24.299  21.566  1.00  0.00     0.047 A 
ATOM     15  C   UNL     1       1.288  24.534  22.664  1.00  0.00     0.115 A 
ATOM     16  C   UNL     1       0.062  22.505  22.157  1.00  0.00     0.016 A 
ATOM     17  C   UNL     1       0.260  23.634  22.959  1.00  0.00     0.047 A 
BRANCH  15  18
ATOM     18  O   UNL     1       1.471  25.656  23.471  1.00  0.00    -0.508 OA
ATOM     19  H   UNL     1       2.362  25.850  23.913  1.00  0.00     0.293 HD
ENDBRANCH  15  18
ENDBRANCH   1  12
BRANCH   2  20
ATOM     20  O   UNL     1      -0.178  22.380  18.348  1.00  0.00    -0.502 OA
ATOM     21  H   UNL     1       0.269  23.243  18.628  1.00  0.00     0.293 HD
ENDBRANCH   2  20
BRANCH   6  22
ATOM     22  O   UNL     1      -0.442  17.268  16.876  1.00  0.00    -0.507 OA
ATOM     23  H   UNL     1      -1.167  16.584  16.723  1.00  0.00     0.293 HD
ENDBRANCH   6  22
BRANCH   8  24
ATOM     24  O   UNL     1       1.879  15.199  20.514  1.00  0.00    -0.508 OA
ATOM     25  H   UNL     1       2.714  14.749  20.160  1.00  0.00     0.293 HD
ENDBRANCH   8  24
TORSDOF 5
ENDMDL
MODEL 3
REMARK VINA RESULT:    -3.304      1.791      2.257
REMARK INTER + INTRA:          -3.744
REMARK INTER:                  -3.825
REMARK INTRA:                   0.081
REMARK UNBOUND:                 0.139
REMARK SMILES O=c1c(O)c(-c2ccc(O)cc2)oc2cc(O)cc(O)c12
REMARK SMILES IDX 5 1 3 2 2 3 1 4 21 5 19 6 18 7 16 8 15 9 14 10 13 11 6 12
REMARK SMILES IDX 7 13 8 14 9 15 12 16 11 17 10 18 4 20 20 22 17 24
REMARK H PARENT 10 19 4 21 20 23 17 25
REMARK Flexibility Score: inf
ROOT
ATOM      1  C   UNL     1       0.830  20.303  19.095  1.00  0.00     0.180 A 
ATOM      2  C   UNL     1       0.166  20.912  18.016  1.00  0.00     0.208 A 
ATOM      3  C   UNL     1       0.057  22.312  17.985  1.00  0.00     0.238 A 
ATOM      4  O   UNL     1      -0.585  22.847  17.045  1.00  0.00    -0.285 OA
ATOM      5  C   UNL     1       0.626  23.085  19.026  1.00  0.00     0.111 A 
ATOM      6  C   UNL     1       0.610  24.512  19.076  1.00  0.00     0.134 A 
ATOM      7  C   UNL     1       1.088  25.168  20.217  1.00  0.00     0.093 A 
ATOM      8  C   UNL     1       1.640  24.454  21.279  1.00  0.00     0.123 A 
ATOM      9  C   UNL     1       1.716  23.062  21.215  1.00  0.00     0.094 A 
ATOM     10  C   UNL     1       1.214  22.377  20.106  1.00  0.00     0.146 A 
ATOM     11  O   UNL     1       1.295  21.052  20.087  1.00  0.00    -0.452 OA
ENDROOT
BRANCH   1  12
ATOM     12  C   UNL     1       1.007  18.836  19.184  1.00  0.00     0.021 A 
ATOM     13  C   UNL     1       0.824  18.191  20.419  1.00  0.00     0.016 A 
ATOM     14  C   UNL     1       1.008  16.810  20.532  1.00  0.00     0.047 A 
ATOM     15  C   UNL     1       1.392  16.059  19.414  1.00  0.00     0.115 A 
ATOM     16  C   UNL     1       1.412  18.077  18.071  1.00  0.00     0.016 A 
ATOM     17  C   UNL     1       1.597  16.696  18.186  1.00  0.00     0.047 A 
BRANCH  15  18
ATOM     18  O   UNL     1       1.578  14.681  19.513  1.00  0.00    -0.508 OA
ATOM     19  H   UNL     1       2.497  14.280  19.659  1.00  0.00     0.293 HD
ENDBRANCH  15  18
ENDBRANCH   1  12
BRANCH   2  20
ATOM     20  O   UNL     1      -0.407  20.128  17.010  1.00  0.00    -0.502 OA
ATOM     21  H   UNL     1       0.141  19.703  16.273  1.00  0.00     0.293 HD
ENDBRANCH   2  20
BRANCH   6  22
ATOM     22  O   UNL     1       0.165  25.325  18.029  1.00  0.00    -0.507 OA
ATOM     23  H   UNL     1       0.421  26.292  17.903  1.00  0.00     0.293 HD
ENDBRANCH   6  22
BRANCH   8  24
ATOM     24  O   UNL     1       2.121  25.141  22.392  1.00  0.00    -0.508 OA
ATOM     25  H   UNL     1       3.051  24.973  22.757  1.00  0.00     0.293 HD
ENDBRANCH   8  24
TORSDOF 5
ENDMDL
MODEL 4
REMARK VINA RESULT:    -3.155      2.445      7.399
REMARK INTER + INTRA:          -3.569
REMARK INTER:                  -3.322
REMARK INTRA:                  -0.247
REMARK UNBOUND:                 0.139
REMARK SMILES O=c1c(O)c(-c2ccc(O)cc2)oc2cc(O)cc(O)c12
REMARK SMILES IDX 5 1 3 2 2 3 1 4 21 5 19 6 18 7 16 8 15 9 14 10 13 11 6 12
REMARK SMILES IDX 7 13 8 14 9 15 12 16 11 17 10 18 4 20 20 22 17 24
REMARK H PARENT 10 19 4 21 20 23 17 25
REMARK Flexibility Score: inf
ROOT
ATOM      1  C   UNL     1       0.904  25.347  21.938  1.00  0.00     0.180 A 
ATOM      2  C   UNL     1       1.000  26.034  20.715  1.00  0.00     0.208 A 
ATOM      3  C   UNL     1       0.948  25.304  19.518  1.00  0.00     0.238 A 
ATOM      4  O   UNL     1       1.089  25.917  18.428  1.00  0.00    -0.285 OA
ATOM      5  C   UNL     1       0.787  23.897  19.557  1.00  0.00     0.111 A 
ATOM      6  C   UNL     1       0.681  23.061  18.404  1.00  0.00     0.134 A 
ATOM      7  C   UNL     1       0.654  21.670  18.561  1.00  0.00     0.093 A 
ATOM      8  C   UNL     1       0.663  21.088  19.827  1.00  0.00     0.123 A 
ATOM      9  C   UNL     1       0.705  21.898  20.963  1.00  0.00     0.094 A 
ATOM     10  C   UNL     1       0.769  23.288  20.838  1.00  0.00     0.146 A 
ATOM     11  O   UNL     1       0.818  24.023  21.943  1.00  0.00    -0.452 OA
ENDROOT
BRANCH   1  12
ATOM     12  C   UNL     1       0.925  26.051  23.240  1.00  0.00     0.021 A 
ATOM     13  C   UNL     1      -0.285  26.304  23.909  1.00  0.00     0.016 A 
ATOM     14  C   UNL     1      -0.292  26.986  25.129  1.00  0.00     0.047 A 
ATOM     15  C   UNL     1       0.910  27.439  25.688  1.00  0.00     0.115 A 
ATOM     16  C   UNL     1       2.125  26.527  23.799  1.00  0.00     0.016 A 
ATOM     17  C   UNL     1       2.116  27.211  25.019  1.00  0.00     0.047 A 
BRANCH  15  18
ATOM     18  O   UNL     1       0.916  28.120  26.903  1.00  0.00    -0.508 OA
ATOM     19  H   UNL     1       0.208  28.810  27.128  1.00  0.00     0.293 HD
ENDBRANCH  15  18
ENDBRANCH   1  12
BRANCH   2  20
ATOM     20  O   UNL     1       1.181  27.420  20.700  1.00  0.00    -0.502 OA
ATOM     21  H   UNL     1       0.617  28.049  21.257  1.00  0.00     0.293 HD
ENDBRANCH   2  20
BRANCH   6  22
ATOM     22  O   UNL     1       0.573  23.545  17.097  1.00  0.00    -0.507 OA
ATOM     23  H   UNL     1       0.742  24.500  16.821  1.00  0.00     0.293 HD
ENDBRANCH   6  22
BRANCH   8  24
ATOM     24  O   UNL     1       0.620  19.700  19.946  1.00  0.00    -0.508 OA
ATOM     25  H   UNL     1       1.452  19.133  19.836  1.00  0.00     0.293 HD
ENDBRANCH   8  24
TORSDOF 5
ENDMDL
MODEL 5
REMARK VINA RESULT:    -2.777      4.413      8.101
REMARK INTER + INTRA:          -3.125
REMARK INTER:                  -2.917
REMARK INTRA:                  -0.208
REMARK UNBOUND:                 0.139
REMARK SMILES O=c1c(O)c(-c2ccc(O)cc2)oc2cc(O)cc(O)c12
REMARK SMILES IDX 5 1 3 2 2 3 1 4 21 5 19 6 18 7 16 8 15 9 14 10 13 11 6 12
REMARK SMILES IDX 7 13 8 14 9 15 12 16 11 17 10 18 4 20 20 22 17 24
REMARK H PARENT 10 19 4 21 20 23 17 25
REMARK Flexibility Score: inf
ROOT
ATOM      1  C   UNL     1       0.763  26.197  22.493  1.00  0.00     0.180 A 
ATOM      2  C   UNL     1       1.226  24.893  22.241  1.00  0.00     0.208 A 
ATOM      3  C   UNL     1       1.393  24.475  20.911  1.00  0.00     0.238 A 
ATOM      4  O   UNL     1       1.755  23.290  20.692  1.00  0.00    -0.285 OA
ATOM      5  C   UNL     1       1.109  25.369  19.851  1.00  0.00     0.111 A 
ATOM      6  C   UNL     1       1.280  25.064  18.466  1.00  0.00     0.134 A 
ATOM      7  C   UNL     1       0.845  25.978  17.499  1.00  0.00     0.093 A 
ATOM      8  C   UNL     1       0.306  27.211  17.864  1.00  0.00     0.123 A 
ATOM      9  C   UNL     1       0.189  27.544  19.215  1.00  0.00     0.094 A 
ATOM     10  C   UNL     1       0.581  26.638  20.203  1.00  0.00     0.146 A 
ATOM     11  O   UNL     1       0.445  26.989  21.476  1.00  0.00    -0.452 OA
ENDROOT
BRANCH   1  12
ATOM     12  C   UNL     1       0.587  26.718  23.867  1.00  0.00     0.021 A 
ATOM     13  C   UNL     1       1.720  27.016  24.644  1.00  0.00     0.016 A 
ATOM     14  C   UNL     1       1.579  27.488  25.951  1.00  0.00     0.047 A 
ATOM     15  C   UNL     1       0.303  27.654  26.505  1.00  0.00     0.115 A 
ATOM     16  C   UNL     1      -0.690  26.869  24.437  1.00  0.00     0.016 A 
ATOM     17  C   UNL     1      -0.829  27.341  25.747  1.00  0.00     0.047 A 
BRANCH  15  18
ATOM     18  O   UNL     1       0.149  28.125  27.808  1.00  0.00    -0.508 OA
ATOM     19  H   UNL     1       0.782  28.811  28.201  1.00  0.00     0.293 HD
ENDBRANCH  15  18
ENDBRANCH   1  12
BRANCH   2  20
ATOM     20  O   UNL     1       1.479  24.020  23.303  1.00  0.00    -0.502 OA
ATOM     21  H   UNL     1       1.165  24.206  24.246  1.00  0.00     0.293 HD
ENDBRANCH   2  20
BRANCH   6  22
ATOM     22  O   UNL     1       1.893  23.899  17.994  1.00  0.00    -0.507 OA
ATOM     23  H   UNL     1       2.216  23.143  18.576  1.00  0.00     0.293 HD
ENDBRANCH   6  22
BRANCH   8  24
ATOM     24  O   UNL     1      -0.102  28.102  16.875  1.00  0.00    -0.508 OA
ATOM     25  H   UNL     1      -0.881  27.893  16.262  1.00  0.00     0.293 HD
ENDBRANCH   8  24
TORSDOF 5
ENDMDL
MODEL 6
REMARK VINA RESULT:    -2.624      1.647      3.587
REMARK INTER + INTRA:          -2.944
REMARK INTER:                  -3.162
REMARK INTRA:                   0.218
REMARK UNBOUND:                 0.139
REMARK SMILES O=c1c(O)c(-c2ccc(O)cc2)oc2cc(O)cc(O)c12
REMARK SMILES IDX 5 1 3 2 2 3 1 4 21 5 19 6 18 7 16 8 15 9 14 10 13 11 6 12
REMARK SMILES IDX 7 13 8 14 9 15 12 16 11 17 10 18 4 20 20 22 17 24
REMARK H PARENT 10 19 4 21 20 23 17 25
REMARK Flexibility Score: inf
ROOT
ATOM      1  C   UNL     1       0.467  22.368  20.978  1.00  0.00     0.180 A 
ATOM      2  C   UNL     1      -0.074  22.218  22.267  1.00  0.00     0.208 A 
ATOM      3  C   UNL     1      -0.123  23.332  23.119  1.00  0.00     0.238 A 
ATOM      4  O   UNL     1      -0.557  23.178  24.291  1.00  0.00    -0.285 OA
ATOM      5  C   UNL     1       0.354  24.586  22.668  1.00  0.00     0.111 A 
ATOM      6  C   UNL     1       0.316  25.791  23.433  1.00  0.00     0.134 A 
ATOM      7  C   UNL     1       0.935  26.945  22.935  1.00  0.00     0.093 A 
ATOM      8  C   UNL     1       1.532  26.955  21.675  1.00  0.00     0.123 A 
ATOM      9  C   UNL     1       1.522  25.799  20.894  1.00  0.00     0.094 A 
ATOM     10  C   UNL     1       0.945  24.622  21.378  1.00  0.00     0.146 A 
ATOM     11  O   UNL     1       0.965  23.542  20.607  1.00  0.00    -0.452 OA
ENDROOT
BRANCH   1  12
ATOM     12  C   UNL     1       0.528  21.247  20.014  1.00  0.00     0.021 A 
ATOM     13  C   UNL     1       0.236  21.481  18.660  1.00  0.00     0.016 A 
ATOM     14  C   UNL     1       0.267  20.434  17.736  1.00  0.00     0.047 A 
ATOM     15  C   UNL     1       0.574  19.133  18.157  1.00  0.00     0.115 A 
ATOM     16  C   UNL     1       0.817  19.935  20.432  1.00  0.00     0.016 A 
ATOM     17  C   UNL     1       0.845  18.887  19.506  1.00  0.00     0.047 A 
BRANCH  15  18
ATOM     18  O   UNL     1       0.608  18.080  17.245  1.00  0.00    -0.508 OA
ATOM     19  H   UNL     1       0.029  18.080  16.414  1.00  0.00     0.293 HD
ENDBRANCH  15  18
ENDBRANCH   1  12
BRANCH   2  20
ATOM     20  O   UNL     1      -0.519  20.966  22.701  1.00  0.00    -0.502 OA
ATOM     21  H   UNL     1       0.117  20.227  22.973  1.00  0.00     0.293 HD
ENDBRANCH   2  20
BRANCH   6  22
ATOM     22  O   UNL     1      -0.335  25.913  24.664  1.00  0.00    -0.507 OA
ATOM     23  H   UNL     1      -0.337  25.209  25.385  1.00  0.00     0.293 HD
ENDBRANCH   6  22
BRANCH   8  24
ATOM     24  O   UNL     1       2.124  28.125  21.206  1.00  0.00    -0.508 OA
ATOM     25  H   UNL     1       1.624  28.766  20.601  1.00  0.00     0.293 HD
ENDBRANCH   8  24
TORSDOF 5
ENDMDL
