MODEL 1
REMARK VINA RESULT:    21.961      0.000      0.000
REMARK INTER + INTRA:          26.104
REMARK INTER:                  26.454
REMARK INTRA:                  -0.350
REMARK UNBOUND:                -0.350
REMARK SMILES Oc1cc(O)c2cc(O)c(-c3ccc(O)c(O)c3)[o+]c2c1
REMARK SMILES IDX 10 1 19 2 20 3 21 4 2 5 3 6 4 7 6 8 7 9 8 10 11 11 12 12
REMARK SMILES IDX 13 13 14 14 18 15 16 16 15 17 17 19 9 21 1 23 5 25
REMARK H PARENT 15 18 17 20 9 22 1 24 5 26
REMARK Flexibility Score: inf
ROOT
ATOM      1  C   UNL     1      -5.959   4.199  15.297  1.00  0.00     0.402 A 
ATOM      2  O   UNL     1      -5.186   3.669  14.352  1.00  0.00    -0.202 OA
ATOM      3  C   UNL     1      -4.335   2.675  14.579  1.00  0.00     0.368 A 
ATOM      4  C   UNL     1      -3.561   2.188  13.521  1.00  0.00     0.162 A 
ATOM      5  C   UNL     1      -2.658   1.146  13.730  1.00  0.00     0.128 A 
ATOM      6  C   UNL     1      -2.522   0.586  15.006  1.00  0.00     0.093 A 
ATOM      7  C   UNL     1      -3.285   1.056  16.082  1.00  0.00     0.136 A 
ATOM      8  C   UNL     1      -4.208   2.114  15.872  1.00  0.00     0.125 A 
ATOM      9  C   UNL     1      -5.023   2.639  16.888  1.00  0.00     0.078 A 
ATOM     10  C   UNL     1      -5.913   3.680  16.605  1.00  0.00     0.223 A 
ENDROOT
BRANCH   1  11
ATOM     11  C   UNL     1      -6.861   5.312  14.922  1.00  0.00     0.087 A 
ATOM     12  C   UNL     1      -8.087   5.027  14.302  1.00  0.00     0.022 A 
ATOM     13  C   UNL     1      -8.945   6.062  13.921  1.00  0.00     0.051 A 
ATOM     14  C   UNL     1      -8.585   7.396  14.139  1.00  0.00     0.157 A 
ATOM     15  C   UNL     1      -6.491   6.654  15.122  1.00  0.00     0.068 A 
ATOM     16  C   UNL     1      -7.350   7.694  14.739  1.00  0.00     0.158 A 
BRANCH  14  17
ATOM     17  O   UNL     1      -9.463   8.408  13.751  1.00  0.00    -0.504 OA
ATOM     18  H   UNL     1     -10.463   8.335  13.890  1.00  0.00     0.293 HD
ENDBRANCH  14  17
BRANCH  16  19
ATOM     19  O   UNL     1      -6.979   9.022  14.946  1.00  0.00    -0.504 OA
ATOM     20  H   UNL     1      -6.586   9.586  14.201  1.00  0.00     0.293 HD
ENDBRANCH  16  19
ENDBRANCH   1  11
BRANCH  10  21
ATOM     21  O   UNL     1      -6.759   4.169  17.601  1.00  0.00    -0.500 OA
ATOM     22  H   UNL     1      -7.312   5.006  17.466  1.00  0.00     0.294 HD
ENDBRANCH  10  21
BRANCH   5  23
ATOM     23  O   UNL     1      -1.895   0.674  12.663  1.00  0.00    -0.507 OA
ATOM     24  H   UNL     1      -2.328   0.258  11.847  1.00  0.00     0.293 HD
ENDBRANCH   5  23
BRANCH   7  25
ATOM     25  O   UNL     1      -3.090   0.447  17.324  1.00  0.00    -0.507 OA
ATOM     26  H   UNL     1      -2.247  -0.039  17.596  1.00  0.00     0.293 HD
ENDBRANCH   7  25
TORSDOF 6
ENDMDL
MODEL 2
REMARK VINA RESULT:    23.105      1.819      6.854
REMARK INTER + INTRA:          27.482
REMARK INTER:                  27.645
REMARK INTRA:                  -0.163
REMARK UNBOUND:                -0.350
REMARK SMILES Oc1cc(O)c2cc(O)c(-c3ccc(O)c(O)c3)[o+]c2c1
REMARK SMILES IDX 10 1 19 2 20 3 21 4 2 5 3 6 4 7 6 8 7 9 8 10 11 11 12 12
REMARK SMILES IDX 13 13 14 14 18 15 16 16 15 17 17 19 9 21 1 23 5 25
REMARK H PARENT 15 18 17 20 9 22 1 24 5 26
REMARK Flexibility Score: inf
ROOT
ATOM      1  C   UNL     1      -3.792   2.556  14.114  1.00  0.00     0.402 A 
ATOM      2  O   UNL     1      -4.813   3.279  13.661  1.00  0.00    -0.202 OA
ATOM      3  C   UNL     1      -5.827   3.669  14.426  1.00  0.00     0.368 A 
ATOM      4  C   UNL     1      -6.856   4.424  13.857  1.00  0.00     0.162 A 
ATOM      5  C   UNL     1      -7.934   4.846  14.635  1.00  0.00     0.128 A 
ATOM      6  C   UNL     1      -7.988   4.509  15.993  1.00  0.00     0.093 A 
ATOM      7  C   UNL     1      -6.970   3.754  16.587  1.00  0.00     0.136 A 
ATOM      8  C   UNL     1      -5.869   3.326  15.798  1.00  0.00     0.125 A 
ATOM      9  C   UNL     1      -4.798   2.577  16.311  1.00  0.00     0.078 A 
ATOM     10  C   UNL     1      -3.745   2.195  15.474  1.00  0.00     0.223 A 
ENDROOT
BRANCH   1  11
ATOM     11  C   UNL     1      -2.725   2.174  13.161  1.00  0.00     0.087 A 
ATOM     12  C   UNL     1      -2.061   3.173  12.433  1.00  0.00     0.022 A 
ATOM     13  C   UNL     1      -1.065   2.835  11.512  1.00  0.00     0.051 A 
ATOM     14  C   UNL     1      -0.730   1.494  11.294  1.00  0.00     0.157 A 
ATOM     15  C   UNL     1      -2.402   0.826  12.925  1.00  0.00     0.068 A 
ATOM     16  C   UNL     1      -1.404   0.484  12.000  1.00  0.00     0.158 A 
BRANCH  14  17
ATOM     17  O   UNL     1       0.269   1.187  10.371  1.00  0.00    -0.504 OA
ATOM     18  H   UNL     1       1.095   1.762  10.262  1.00  0.00     0.293 HD
ENDBRANCH  14  17
BRANCH  16  19
ATOM     19  O   UNL     1      -1.084  -0.854  11.777  1.00  0.00    -0.504 OA
ATOM     20  H   UNL     1      -1.625  -1.430  11.142  1.00  0.00     0.293 HD
ENDBRANCH  16  19
ENDBRANCH   1  11
BRANCH  10  21
ATOM     21  O   UNL     1      -2.656   1.494  15.994  1.00  0.00    -0.500 OA
ATOM     22  H   UNL     1      -1.905   1.965  16.483  1.00  0.00     0.294 HD
ENDBRANCH  10  21
BRANCH   5  23
ATOM     23  O   UNL     1      -8.951   5.598  14.050  1.00  0.00    -0.507 OA
ATOM     24  H   UNL     1      -9.084   6.576  14.277  1.00  0.00     0.293 HD
ENDBRANCH   5  23
BRANCH   7  25
ATOM     25  O   UNL     1      -7.098   3.456  17.946  1.00  0.00    -0.507 OA
ATOM     26  H   UNL     1      -7.925   3.059  18.369  1.00  0.00     0.293 HD
ENDBRANCH   7  25
TORSDOF 6
ENDMDL
MODEL 3
REMARK VINA RESULT:    23.770      1.368      7.204
REMARK INTER + INTRA:          28.283
REMARK INTER:                  28.611
REMARK INTRA:                  -0.328
REMARK UNBOUND:                -0.350
REMARK SMILES Oc1cc(O)c2cc(O)c(-c3ccc(O)c(O)c3)[o+]c2c1
REMARK SMILES IDX 10 1 19 2 20 3 21 4 2 5 3 6 4 7 6 8 7 9 8 10 11 11 12 12
REMARK SMILES IDX 13 13 14 14 18 15 16 16 15 17 17 19 9 21 1 23 5 25
REMARK H PARENT 15 18 17 20 9 22 1 24 5 26
REMARK Flexibility Score: inf
ROOT
ATOM      1  C   UNL     1      -6.196   4.624  15.098  1.00  0.00     0.402 A 
ATOM      2  O   UNL     1      -5.965   5.783  15.709  1.00  0.00    -0.202 OA
ATOM      3  C   UNL     1      -6.650   6.892  15.452  1.00  0.00     0.368 A 
ATOM      4  C   UNL     1      -6.330   8.064  16.144  1.00  0.00     0.162 A 
ATOM      5  C   UNL     1      -7.031   9.244  15.894  1.00  0.00     0.128 A 
ATOM      6  C   UNL     1      -8.058   9.256  14.943  1.00  0.00     0.093 A 
ATOM      7  C   UNL     1      -8.398   8.096  14.237  1.00  0.00     0.136 A 
ATOM      8  C   UNL     1      -7.690   6.893  14.492  1.00  0.00     0.125 A 
ATOM      9  C   UNL     1      -7.970   5.680  13.841  1.00  0.00     0.078 A 
ATOM     10  C   UNL     1      -7.231   4.533  14.148  1.00  0.00     0.223 A 
ENDROOT
BRANCH   1  11
ATOM     11  C   UNL     1      -5.358   3.459  15.464  1.00  0.00     0.087 A 
ATOM     12  C   UNL     1      -5.580   2.806  16.685  1.00  0.00     0.022 A 
ATOM     13  C   UNL     1      -4.788   1.717  17.061  1.00  0.00     0.051 A 
ATOM     14  C   UNL     1      -3.753   1.276  16.230  1.00  0.00     0.157 A 
ATOM     15  C   UNL     1      -4.303   3.028  14.639  1.00  0.00     0.068 A 
ATOM     16  C   UNL     1      -3.506   1.937  15.015  1.00  0.00     0.158 A 
BRANCH  14  17
ATOM     17  O   UNL     1      -2.981   0.186  16.629  1.00  0.00    -0.504 OA
ATOM     18  H   UNL     1      -3.283  -0.450  17.356  1.00  0.00     0.293 HD
ENDBRANCH  14  17
BRANCH  16  19
ATOM     19  O   UNL     1      -2.468   1.511  14.189  1.00  0.00    -0.504 OA
ATOM     20  H   UNL     1      -1.643   1.056  14.564  1.00  0.00     0.293 HD
ENDBRANCH  16  19
ENDBRANCH   1  11
BRANCH  10  21
ATOM     21  O   UNL     1      -7.542   3.316  13.540  1.00  0.00    -0.500 OA
ATOM     22  H   UNL     1      -8.448   2.879  13.657  1.00  0.00     0.294 HD
ENDBRANCH  10  21
BRANCH   5  23
ATOM     23  O   UNL     1      -6.697  10.402  16.593  1.00  0.00    -0.507 OA
ATOM     24  H   UNL     1      -6.010  10.392  17.338  1.00  0.00     0.293 HD
ENDBRANCH   5  23
BRANCH   7  25
ATOM     25  O   UNL     1      -9.433   8.191  13.303  1.00  0.00    -0.507 OA
ATOM     26  H   UNL     1      -9.577   7.543  12.542  1.00  0.00     0.293 HD
ENDBRANCH   7  25
TORSDOF 6
ENDMDL
