MODEL 1
REMARK VINA RESULT:    -3.327      0.000      0.000
REMARK INTER + INTRA:          -7.472
REMARK INTER:                  -6.244
REMARK INTRA:                  -1.228
REMARK UNBOUND:                -1.228
REMARK SMILES CCCCCCCCC=CCCCCCCCC(=O)[O-]
REMARK SMILES IDX 10 1 9 2 11 3 12 4 13 5 14 6 15 7 16 8 17 9 18 10 19 11
REMARK SMILES IDX 20 12 8 13 7 14 6 15 5 16 4 17 3 18 2 19 1 20
REMARK H PARENT
REMARK Flexibility Score: inf
ROOT
ATOM      1  C   UNL     1      15.392  16.258  27.087  1.00  0.00    -0.031 C 
ATOM      2  C   UNL     1      15.133  15.097  27.708  1.00  0.00    -0.031 C 
ENDROOT
BRANCH   1   3
ATOM      3  C   UNL     1      15.266  16.400  25.595  1.00  0.00     0.027 C 
BRANCH   3   4
ATOM      4  C   UNL     1      14.786  17.808  25.213  1.00  0.00     0.004 C 
BRANCH   4   5
ATOM      5  C   UNL     1      14.480  17.941  23.712  1.00  0.00     0.000 C 
BRANCH   5   6
ATOM      6  C   UNL     1      12.981  18.113  23.428  1.00  0.00     0.000 C 
BRANCH   6   7
ATOM      7  C   UNL     1      12.188  16.888  23.906  1.00  0.00     0.000 C 
BRANCH   7   8
ATOM      8  C   UNL     1      11.030  17.258  24.846  1.00  0.00     0.006 C 
BRANCH   8   9
ATOM      9  C   UNL     1      11.502  17.997  26.105  1.00  0.00     0.053 C 
BRANCH   9  10
ATOM     10  C   UNL     1      12.031  17.027  27.115  1.00  0.00     0.041 C 
ATOM     11  O   UNL     1      12.467  17.440  28.222  1.00  0.00    -0.550 OA
ATOM     12  O   UNL     1      12.004  15.663  26.850  1.00  0.00    -0.550 OA
ENDBRANCH   9  10
ENDBRANCH   8   9
ENDBRANCH   7   8
ENDBRANCH   6   7
ENDBRANCH   5   6
ENDBRANCH   4   5
ENDBRANCH   3   4
ENDBRANCH   1   3
BRANCH   2  13
ATOM     13  C   UNL     1      15.281  14.952  29.197  1.00  0.00     0.027 C 
BRANCH  13  14
ATOM     14  C   UNL     1      13.912  14.844  29.881  1.00  0.00     0.004 C 
BRANCH  14  15
ATOM     15  C   UNL     1      14.018  14.631  31.401  1.00  0.00     0.000 C 
BRANCH  15  16
ATOM     16  C   UNL     1      15.332  13.949  31.838  1.00  0.00     0.000 C 
BRANCH  16  17
ATOM     17  C   UNL     1      15.175  12.425  31.990  1.00  0.00    -0.000 C 
BRANCH  17  18
ATOM     18  C   UNL     1      16.042  11.637  30.997  1.00  0.00    -0.000 C 
BRANCH  18  19
ATOM     19  C   UNL     1      15.206  10.858  29.972  1.00  0.00    -0.003 C 
ATOM     20  C   UNL     1      15.936  10.751  28.635  1.00  0.00     0.004 C 
ENDBRANCH  18  19
ENDBRANCH  17  18
ENDBRANCH  16  17
ENDBRANCH  15  16
ENDBRANCH  14  15
ENDBRANCH  13  14
ENDBRANCH   2  13
TORSDOF 15
ENDMDL
MODEL 2
REMARK VINA RESULT:    -3.020      2.059      2.909
REMARK INTER + INTRA:          -6.897
REMARK INTER:                  -5.783
REMARK INTRA:                  -1.114
REMARK UNBOUND:                -1.228
REMARK SMILES CCCCCCCCC=CCCCCCCCC(=O)[O-]
REMARK SMILES IDX 10 1 9 2 11 3 12 4 13 5 14 6 15 7 16 8 17 9 18 10 19 11
REMARK SMILES IDX 20 12 8 13 7 14 6 15 5 16 4 17 3 18 2 19 1 20
REMARK H PARENT
REMARK Flexibility Score: inf
ROOT
ATOM      1  C   UNL     1      13.497  16.925  28.260  1.00  0.00    -0.031 C 
ATOM      2  C   UNL     1      14.762  16.587  27.968  1.00  0.00    -0.031 C 
ENDROOT
BRANCH   1   3
ATOM      3  C   UNL     1      12.741  17.934  27.440  1.00  0.00     0.027 C 
BRANCH   3   4
ATOM      4  C   UNL     1      11.510  17.297  26.779  1.00  0.00     0.004 C 
BRANCH   4   5
ATOM      5  C   UNL     1      11.761  15.848  26.332  1.00  0.00     0.000 C 
BRANCH   5   6
ATOM      6  C   UNL     1      12.511  15.763  24.995  1.00  0.00     0.000 C 
BRANCH   6   7
ATOM      7  C   UNL     1      11.777  16.555  23.904  1.00  0.00     0.000 C 
BRANCH   7   8
ATOM      8  C   UNL     1      12.443  17.906  23.598  1.00  0.00     0.006 C 
BRANCH   8   9
ATOM      9  C   UNL     1      13.768  18.096  24.348  1.00  0.00     0.053 C 
BRANCH   9  10
ATOM     10  C   UNL     1      14.923  18.034  23.399  1.00  0.00     0.041 C 
ATOM     11  O   UNL     1      16.098  17.931  23.837  1.00  0.00    -0.550 OA
ATOM     12  O   UNL     1      14.697  18.050  22.027  1.00  0.00    -0.550 OA
ENDBRANCH   9  10
ENDBRANCH   8   9
ENDBRANCH   7   8
ENDBRANCH   6   7
ENDBRANCH   5   6
ENDBRANCH   4   5
ENDBRANCH   3   4
ENDBRANCH   1   3
BRANCH   2  13
ATOM     13  C   UNL     1      15.523  15.594  28.802  1.00  0.00     0.027 C 
BRANCH  13  14
ATOM     14  C   UNL     1      14.577  14.571  29.445  1.00  0.00     0.004 C 
BRANCH  14  15
ATOM     15  C   UNL     1      14.534  14.677  30.978  1.00  0.00     0.000 C 
BRANCH  15  16
ATOM     16  C   UNL     1      14.648  13.314  31.694  1.00  0.00     0.000 C 
BRANCH  16  17
ATOM     17  C   UNL     1      16.027  12.662  31.489  1.00  0.00    -0.000 C 
BRANCH  17  18
ATOM     18  C   UNL     1      15.953  11.129  31.404  1.00  0.00    -0.000 C 
BRANCH  18  19
ATOM     19  C   UNL     1      15.162  10.643  30.181  1.00  0.00    -0.003 C 
ATOM     20  C   UNL     1      15.843  11.068  28.882  1.00  0.00     0.004 C 
ENDBRANCH  18  19
ENDBRANCH  17  18
ENDBRANCH  16  17
ENDBRANCH  15  16
ENDBRANCH  14  15
ENDBRANCH  13  14
ENDBRANCH   2  13
TORSDOF 15
ENDMDL
MODEL 3
REMARK VINA RESULT:    -2.873      1.365      2.203
REMARK INTER + INTRA:          -6.620
REMARK INTER:                  -6.511
REMARK INTRA:                  -0.108
REMARK UNBOUND:                -1.228
REMARK SMILES CCCCCCCCC=CCCCCCCCC(=O)[O-]
REMARK SMILES IDX 10 1 9 2 11 3 12 4 13 5 14 6 15 7 16 8 17 9 18 10 19 11
REMARK SMILES IDX 20 12 8 13 7 14 6 15 5 16 4 17 3 18 2 19 1 20
REMARK H PARENT
REMARK Flexibility Score: inf
ROOT
ATOM      1  C   UNL     1      13.729  16.365  28.897  1.00  0.00    -0.031 C 
ATOM      2  C   UNL     1      14.184  15.220  28.366  1.00  0.00    -0.031 C 
ENDROOT
BRANCH   1   3
ATOM      3  C   UNL     1      12.719  17.220  28.181  1.00  0.00     0.027 C 
BRANCH   3   4
ATOM      4  C   UNL     1      13.359  17.953  26.993  1.00  0.00     0.004 C 
BRANCH   4   5
ATOM      5  C   UNL     1      14.655  17.280  26.511  1.00  0.00     0.000 C 
BRANCH   5   6
ATOM      6  C   UNL     1      14.644  16.988  25.004  1.00  0.00     0.000 C 
BRANCH   6   7
ATOM      7  C   UNL     1      13.959  18.124  24.230  1.00  0.00     0.000 C 
BRANCH   7   8
ATOM      8  C   UNL     1      13.305  17.644  22.925  1.00  0.00     0.006 C 
BRANCH   8   9
ATOM      9  C   UNL     1      11.776  17.556  23.027  1.00  0.00     0.053 C 
BRANCH   9  10
ATOM     10  C   UNL     1      11.372  16.891  24.305  1.00  0.00     0.041 C 
ATOM     11  O   UNL     1      10.634  17.494  25.127  1.00  0.00    -0.550 OA
ATOM     12  O   UNL     1      11.779  15.588  24.569  1.00  0.00    -0.550 OA
ENDBRANCH   9  10
ENDBRANCH   8   9
ENDBRANCH   7   8
ENDBRANCH   6   7
ENDBRANCH   5   6
ENDBRANCH   4   5
ENDBRANCH   3   4
ENDBRANCH   1   3
BRANCH   2  13
ATOM     13  C   UNL     1      15.210  14.379  29.074  1.00  0.00     0.027 C 
BRANCH  13  14
ATOM     14  C   UNL     1      15.409  14.851  30.520  1.00  0.00     0.004 C 
BRANCH  14  15
ATOM     15  C   UNL     1      14.267  14.413  31.454  1.00  0.00     0.000 C 
BRANCH  15  16
ATOM     16  C   UNL     1      14.537  13.074  32.173  1.00  0.00     0.000 C 
BRANCH  16  17
ATOM     17  C   UNL     1      15.947  12.529  31.879  1.00  0.00    -0.000 C 
BRANCH  17  18
ATOM     18  C   UNL     1      15.923  11.126  31.253  1.00  0.00    -0.000 C 
BRANCH  18  19
ATOM     19  C   UNL     1      15.131  11.078  29.939  1.00  0.00    -0.003 C 
ATOM     20  C   UNL     1      15.977  10.496  28.809  1.00  0.00     0.004 C 
ENDBRANCH  18  19
ENDBRANCH  17  18
ENDBRANCH  16  17
ENDBRANCH  15  16
ENDBRANCH  14  15
ENDBRANCH  13  14
ENDBRANCH   2  13
TORSDOF 15
ENDMDL
MODEL 4
REMARK VINA RESULT:    -2.792      2.377      7.382
REMARK INTER + INTRA:          -6.469
REMARK INTER:                  -5.360
REMARK INTRA:                  -1.109
REMARK UNBOUND:                -1.228
REMARK SMILES CCCCCCCCC=CCCCCCCCC(=O)[O-]
REMARK SMILES IDX 10 1 9 2 11 3 12 4 13 5 14 6 15 7 16 8 17 9 18 10 19 11
REMARK SMILES IDX 20 12 8 13 7 14 6 15 5 16 4 17 3 18 2 19 1 20
REMARK H PARENT
REMARK Flexibility Score: inf
ROOT
ATOM      1  C   UNL     1      13.276  16.179  28.937  1.00  0.00    -0.031 C 
ATOM      2  C   UNL     1      14.118  17.100  28.443  1.00  0.00    -0.031 C 
ENDROOT
BRANCH   1   3
ATOM      3  C   UNL     1      13.715  15.186  29.977  1.00  0.00     0.027 C 
BRANCH   3   4
ATOM      4  C   UNL     1      15.209  14.862  29.835  1.00  0.00     0.004 C 
BRANCH   4   5
ATOM      5  C   UNL     1      15.836  14.375  31.152  1.00  0.00     0.000 C 
BRANCH   5   6
ATOM      6  C   UNL     1      14.784  13.960  32.190  1.00  0.00     0.000 C 
BRANCH   6   7
ATOM      7  C   UNL     1      14.688  12.431  32.292  1.00  0.00     0.000 C 
BRANCH   7   8
ATOM      8  C   UNL     1      15.725  11.710  31.416  1.00  0.00     0.006 C 
BRANCH   8   9
ATOM      9  C   UNL     1      15.081  10.802  30.361  1.00  0.00     0.053 C 
BRANCH   9  10
ATOM     10  C   UNL     1      15.815  10.905  29.061  1.00  0.00     0.041 C 
ATOM     11  O   UNL     1      15.861  12.001  28.444  1.00  0.00    -0.550 OA
ATOM     12  O   UNL     1      16.483   9.798  28.550  1.00  0.00    -0.550 OA
ENDBRANCH   9  10
ENDBRANCH   8   9
ENDBRANCH   7   8
ENDBRANCH   6   7
ENDBRANCH   5   6
ENDBRANCH   4   5
ENDBRANCH   3   4
ENDBRANCH   1   3
BRANCH   2  13
ATOM     13  C   UNL     1      13.683  18.077  27.387  1.00  0.00     0.027 C 
BRANCH  13  14
ATOM     14  C   UNL     1      14.253  17.698  26.014  1.00  0.00     0.004 C 
BRANCH  14  15
ATOM     15  C   UNL     1      14.910  16.308  26.003  1.00  0.00     0.000 C 
BRANCH  15  16
ATOM     16  C   UNL     1      13.995  15.196  25.445  1.00  0.00     0.000 C 
BRANCH  16  17
ATOM     17  C   UNL     1      12.503  15.558  25.563  1.00  0.00    -0.000 C 
BRANCH  17  18
ATOM     18  C   UNL     1      11.937  16.170  24.271  1.00  0.00    -0.000 C 
BRANCH  18  19
ATOM     19  C   UNL     1      11.091  17.424  24.533  1.00  0.00    -0.003 C 
ATOM     20  C   UNL     1      10.648  17.493  25.993  1.00  0.00     0.004 C 
ENDBRANCH  18  19
ENDBRANCH  17  18
ENDBRANCH  16  17
ENDBRANCH  15  16
ENDBRANCH  14  15
ENDBRANCH  13  14
ENDBRANCH   2  13
TORSDOF 15
ENDMDL
MODEL 5
REMARK VINA RESULT:    -2.646      1.352      2.580
REMARK INTER + INTRA:          -6.194
REMARK INTER:                  -5.435
REMARK INTRA:                  -0.759
REMARK UNBOUND:                -1.228
REMARK SMILES CCCCCCCCC=CCCCCCCCC(=O)[O-]
REMARK SMILES IDX 10 1 9 2 11 3 12 4 13 5 14 6 15 7 16 8 17 9 18 10 19 11
REMARK SMILES IDX 20 12 8 13 7 14 6 15 5 16 4 17 3 18 2 19 1 20
REMARK H PARENT
REMARK Flexibility Score: inf
ROOT
ATOM      1  C   UNL     1      12.163  16.984  27.935  1.00  0.00    -0.031 C 
ATOM      2  C   UNL     1      13.139  17.054  28.853  1.00  0.00    -0.031 C 
ENDROOT
BRANCH   1   3
ATOM      3  C   UNL     1      11.884  18.121  26.991  1.00  0.00     0.027 C 
BRANCH   3   4
ATOM      4  C   UNL     1      10.799  17.740  25.973  1.00  0.00     0.004 C 
BRANCH   4   5
ATOM      5  C   UNL     1      11.378  17.092  24.706  1.00  0.00     0.000 C 
BRANCH   5   6
ATOM      6  C   UNL     1      11.764  18.125  23.638  1.00  0.00     0.000 C 
BRANCH   6   7
ATOM      7  C   UNL     1      13.275  18.093  23.365  1.00  0.00     0.000 C 
BRANCH   7   8
ATOM      8  C   UNL     1      13.970  16.881  24.004  1.00  0.00     0.006 C 
BRANCH   8   9
ATOM      9  C   UNL     1      14.861  17.267  25.192  1.00  0.00     0.053 C 
BRANCH   9  10
ATOM     10  C   UNL     1      15.028  16.106  26.122  1.00  0.00     0.041 C 
ATOM     11  O   UNL     1      15.883  16.153  27.044  1.00  0.00    -0.550 OA
ATOM     12  O   UNL     1      14.210  14.989  25.995  1.00  0.00    -0.550 OA
ENDBRANCH   9  10
ENDBRANCH   8   9
ENDBRANCH   7   8
ENDBRANCH   6   7
ENDBRANCH   5   6
ENDBRANCH   4   5
ENDBRANCH   3   4
ENDBRANCH   1   3
BRANCH   2  13
ATOM     13  C   UNL     1      13.402  15.925  29.810  1.00  0.00     0.027 C 
BRANCH  13  14
ATOM     14  C   UNL     1      14.611  15.092  29.363  1.00  0.00     0.004 C 
BRANCH  14  15
ATOM     15  C   UNL     1      15.474  14.611  30.542  1.00  0.00     0.000 C 
BRANCH  15  16
ATOM     16  C   UNL     1      14.743  13.626  31.480  1.00  0.00     0.000 C 
BRANCH  16  17
ATOM     17  C   UNL     1      15.715  12.655  32.176  1.00  0.00    -0.000 C 
BRANCH  17  18
ATOM     18  C   UNL     1      15.948  11.369  31.369  1.00  0.00    -0.000 C 
BRANCH  18  19
ATOM     19  C   UNL     1      15.077  11.297  30.106  1.00  0.00    -0.003 C 
ATOM     20  C   UNL     1      15.892  10.826  28.904  1.00  0.00     0.004 C 
ENDBRANCH  18  19
ENDBRANCH  17  18
ENDBRANCH  16  17
ENDBRANCH  15  16
ENDBRANCH  14  15
ENDBRANCH  13  14
ENDBRANCH   2  13
TORSDOF 15
ENDMDL
MODEL 6
REMARK VINA RESULT:    -2.533      2.366      7.279
REMARK INTER + INTRA:          -5.982
REMARK INTER:                  -5.313
REMARK INTRA:                  -0.669
REMARK UNBOUND:                -1.228
REMARK SMILES CCCCCCCCC=CCCCCCCCC(=O)[O-]
REMARK SMILES IDX 10 1 9 2 11 3 12 4 13 5 14 6 15 7 16 8 17 9 18 10 19 11
REMARK SMILES IDX 20 12 8 13 7 14 6 15 5 16 4 17 3 18 2 19 1 20
REMARK H PARENT
REMARK Flexibility Score: inf
ROOT
ATOM      1  C   UNL     1      12.008  16.025  27.435  1.00  0.00    -0.031 C 
ATOM      2  C   UNL     1      11.984  17.344  27.189  1.00  0.00    -0.031 C 
ENDROOT
BRANCH   1   3
ATOM      3  C   UNL     1      12.887  15.439  28.505  1.00  0.00     0.027 C 
BRANCH   3   4
ATOM      4  C   UNL     1      14.039  16.390  28.857  1.00  0.00     0.004 C 
BRANCH   4   5
ATOM      5  C   UNL     1      15.275  15.650  29.394  1.00  0.00     0.000 C 
BRANCH   5   6
ATOM      6  C   UNL     1      14.932  14.267  29.966  1.00  0.00     0.000 C 
BRANCH   6   7
ATOM      7  C   UNL     1      14.784  14.326  31.493  1.00  0.00     0.000 C 
BRANCH   7   8
ATOM      8  C   UNL     1      14.944  12.951  32.160  1.00  0.00     0.006 C 
BRANCH   8   9
ATOM      9  C   UNL     1      16.024  12.090  31.491  1.00  0.00     0.053 C 
BRANCH   9  10
ATOM     10  C   UNL     1      15.408  11.140  30.513  1.00  0.00     0.041 C 
ATOM     11  O   UNL     1      15.865  11.049  29.344  1.00  0.00    -0.550 OA
ATOM     12  O   UNL     1      14.353  10.324  30.907  1.00  0.00    -0.550 OA
ENDBRANCH   9  10
ENDBRANCH   8   9
ENDBRANCH   7   8
ENDBRANCH   6   7
ENDBRANCH   5   6
ENDBRANCH   4   5
ENDBRANCH   3   4
ENDBRANCH   1   3
BRANCH   2  13
ATOM     13  C   UNL     1      11.121  17.926  26.104  1.00  0.00     0.027 C 
BRANCH  13  14
ATOM     14  C   UNL     1      10.776  16.869  25.046  1.00  0.00     0.004 C 
BRANCH  14  15
ATOM     15  C   UNL     1      11.834  16.768  23.934  1.00  0.00     0.000 C 
BRANCH  15  16
ATOM     16  C   UNL     1      12.476  18.123  23.569  1.00  0.00     0.000 C 
BRANCH  16  17
ATOM     17  C   UNL     1      14.007  18.104  23.731  1.00  0.00    -0.000 C 
BRANCH  17  18
ATOM     18  C   UNL     1      14.447  17.916  25.191  1.00  0.00    -0.000 C 
BRANCH  18  19
ATOM     19  C   UNL     1      15.243  16.621  25.407  1.00  0.00    -0.003 C 
ATOM     20  C   UNL     1      14.315  15.409  25.459  1.00  0.00     0.004 C 
ENDBRANCH  18  19
ENDBRANCH  17  18
ENDBRANCH  16  17
ENDBRANCH  15  16
ENDBRANCH  14  15
ENDBRANCH  13  14
ENDBRANCH   2  13
TORSDOF 15
ENDMDL
MODEL 7
REMARK VINA RESULT:    -2.529      2.274      7.537
REMARK INTER + INTRA:          -5.974
REMARK INTER:                  -4.635
REMARK INTRA:                  -1.339
REMARK UNBOUND:                -1.228
REMARK SMILES CCCCCCCCC=CCCCCCCCC(=O)[O-]
REMARK SMILES IDX 10 1 9 2 11 3 12 4 13 5 14 6 15 7 16 8 17 9 18 10 19 11
REMARK SMILES IDX 20 12 8 13 7 14 6 15 5 16 4 17 3 18 2 19 1 20
REMARK H PARENT
REMARK Flexibility Score: inf
ROOT
ATOM      1  C   UNL     1      14.728  16.666  28.059  1.00  0.00    -0.031 C 
ATOM      2  C   UNL     1      13.403  16.872  28.084  1.00  0.00    -0.031 C 
ENDROOT
BRANCH   1   3
ATOM      3  C   UNL     1      15.361  15.509  28.781  1.00  0.00     0.027 C 
BRANCH   3   4
ATOM      4  C   UNL     1      14.324  14.749  29.621  1.00  0.00     0.004 C 
BRANCH   4   5
ATOM      5  C   UNL     1      14.660  14.753  31.121  1.00  0.00     0.000 C 
BRANCH   5   6
ATOM      6  C   UNL     1      14.366  13.406  31.796  1.00  0.00     0.000 C 
BRANCH   6   7
ATOM      7  C   UNL     1      15.666  12.725  32.250  1.00  0.00     0.000 C 
BRANCH   7   8
ATOM      8  C   UNL     1      16.201  11.718  31.219  1.00  0.00     0.006 C 
BRANCH   8   9
ATOM      9  C   UNL     1      15.170  11.375  30.136  1.00  0.00     0.053 C 
BRANCH   9  10
ATOM     10  C   UNL     1      15.855  10.963  28.871  1.00  0.00     0.041 C 
ATOM     11  O   UNL     1      16.499   9.883  28.822  1.00  0.00    -0.550 OA
ATOM     12  O   UNL     1      15.748  11.754  27.732  1.00  0.00    -0.550 OA
ENDBRANCH   9  10
ENDBRANCH   8   9
ENDBRANCH   7   8
ENDBRANCH   6   7
ENDBRANCH   5   6
ENDBRANCH   4   5
ENDBRANCH   3   4
ENDBRANCH   1   3
BRANCH   2  13
ATOM     13  C   UNL     1      12.775  18.043  27.380  1.00  0.00     0.027 C 
BRANCH  13  14
ATOM     14  C   UNL     1      11.503  17.622  26.632  1.00  0.00     0.004 C 
BRANCH  14  15
ATOM     15  C   UNL     1      11.555  16.167  26.137  1.00  0.00     0.000 C 
BRANCH  15  16
ATOM     16  C   UNL     1      12.489  15.961  24.925  1.00  0.00     0.000 C 
BRANCH  16  17
ATOM     17  C   UNL     1      12.072  16.819  23.716  1.00  0.00    -0.000 C 
BRANCH  17  18
ATOM     18  C   UNL     1      13.180  17.780  23.260  1.00  0.00    -0.000 C 
BRANCH  18  19
ATOM     19  C   UNL     1      14.167  18.121  24.385  1.00  0.00    -0.003 C 
ATOM     20  C   UNL     1      15.608  17.873  23.946  1.00  0.00     0.004 C 
ENDBRANCH  18  19
ENDBRANCH  17  18
ENDBRANCH  16  17
ENDBRANCH  15  16
ENDBRANCH  14  15
ENDBRANCH  13  14
ENDBRANCH   2  13
TORSDOF 15
ENDMDL
MODEL 8
REMARK VINA RESULT:    -2.517      1.419      2.842
REMARK INTER + INTRA:          -5.953
REMARK INTER:                  -5.224
REMARK INTRA:                  -0.728
REMARK UNBOUND:                -1.228
REMARK SMILES CCCCCCCCC=CCCCCCCCC(=O)[O-]
REMARK SMILES IDX 10 1 9 2 11 3 12 4 13 5 14 6 15 7 16 8 17 9 18 10 19 11
REMARK SMILES IDX 20 12 8 13 7 14 6 15 5 16 4 17 3 18 2 19 1 20
REMARK H PARENT
REMARK Flexibility Score: inf
ROOT
ATOM      1  C   UNL     1      11.797  16.635  26.931  1.00  0.00    -0.031 C 
ATOM      2  C   UNL     1      12.355  17.655  27.601  1.00  0.00    -0.031 C 
ENDROOT
BRANCH   1   3
ATOM      3  C   UNL     1      11.003  16.857  25.674  1.00  0.00     0.027 C 
BRANCH   3   4
ATOM      4  C   UNL     1      11.596  16.065  24.499  1.00  0.00     0.004 C 
BRANCH   4   5
ATOM      5  C   UNL     1      12.004  16.968  23.324  1.00  0.00     0.000 C 
BRANCH   5   6
ATOM      6  C   UNL     1      12.916  18.125  23.757  1.00  0.00     0.000 C 
BRANCH   6   7
ATOM      7  C   UNL     1      14.324  17.964  23.166  1.00  0.00     0.000 C 
BRANCH   7   8
ATOM      8  C   UNL     1      15.402  17.759  24.242  1.00  0.00     0.006 C 
BRANCH   8   9
ATOM      9  C   UNL     1      14.808  17.522  25.637  1.00  0.00     0.053 C 
BRANCH   9  10
ATOM     10  C   UNL     1      15.050  16.113  26.078  1.00  0.00     0.041 C 
ATOM     11  O   UNL     1      15.908  15.866  26.966  1.00  0.00    -0.550 OA
ATOM     12  O   UNL     1      14.298  15.075  25.538  1.00  0.00    -0.550 OA
ENDBRANCH   9  10
ENDBRANCH   8   9
ENDBRANCH   7   8
ENDBRANCH   6   7
ENDBRANCH   5   6
ENDBRANCH   4   5
ENDBRANCH   3   4
ENDBRANCH   1   3
BRANCH   2  13
ATOM     13  C   UNL     1      13.129  17.433  28.870  1.00  0.00     0.027 C 
BRANCH  13  14
ATOM     14  C   UNL     1      13.239  15.938  29.196  1.00  0.00     0.004 C 
BRANCH  14  15
ATOM     15  C   UNL     1      14.464  15.603  30.064  1.00  0.00     0.000 C 
BRANCH  15  16
ATOM     16  C   UNL     1      14.885  14.120  29.992  1.00  0.00     0.000 C 
BRANCH  16  17
ATOM     17  C   UNL     1      14.872  13.443  31.375  1.00  0.00    -0.000 C 
BRANCH  17  18
ATOM     18  C   UNL     1      15.854  12.265  31.469  1.00  0.00    -0.000 C 
BRANCH  18  19
ATOM     19  C   UNL     1      15.308  10.988  30.814  1.00  0.00    -0.003 C 
ATOM     20  C   UNL     1      15.828  10.839  29.386  1.00  0.00     0.004 C 
ENDBRANCH  18  19
ENDBRANCH  17  18
ENDBRANCH  16  17
ENDBRANCH  15  16
ENDBRANCH  14  15
ENDBRANCH  13  14
ENDBRANCH   2  13
TORSDOF 15
ENDMDL
MODEL 9
REMARK VINA RESULT:    -1.654      2.179      7.625
REMARK INTER + INTRA:          -4.333
REMARK INTER:                  -2.621
REMARK INTRA:                  -1.712
REMARK UNBOUND:                -1.228
REMARK SMILES CCCCCCCCC=CCCCCCCCC(=O)[O-]
REMARK SMILES IDX 10 1 9 2 11 3 12 4 13 5 14 6 15 7 16 8 17 9 18 10 19 11
REMARK SMILES IDX 20 12 8 13 7 14 6 15 5 16 4 17 3 18 2 19 1 20
REMARK H PARENT
REMARK Flexibility Score: inf
ROOT
ATOM      1  C   UNL     1      14.145  15.217  27.285  1.00  0.00    -0.031 C 
ATOM      2  C   UNL     1      14.649  16.327  26.725  1.00  0.00    -0.031 C 
ENDROOT
BRANCH   1   3
ATOM      3  C   UNL     1      13.972  15.094  28.774  1.00  0.00     0.027 C 
BRANCH   3   4
ATOM      4  C   UNL     1      15.200  15.635  29.520  1.00  0.00     0.004 C 
BRANCH   4   5
ATOM      5  C   UNL     1      15.625  14.734  30.691  1.00  0.00     0.000 C 
BRANCH   5   6
ATOM      6  C   UNL     1      14.430  14.066  31.386  1.00  0.00     0.000 C 
BRANCH   6   7
ATOM      7  C   UNL     1      14.889  12.872  32.236  1.00  0.00     0.000 C 
BRANCH   7   8
ATOM      8  C   UNL     1      15.851  11.940  31.484  1.00  0.00     0.006 C 
BRANCH   8   9
ATOM      9  C   UNL     1      15.133  11.042  30.468  1.00  0.00     0.053 C 
BRANCH   9  10
ATOM     10  C   UNL     1      15.826  11.088  29.143  1.00  0.00     0.041 C 
ATOM     11  O   UNL     1      16.302  10.036  28.641  1.00  0.00    -0.550 OA
ATOM     12  O   UNL     1      15.912  12.286  28.444  1.00  0.00    -0.550 OA
ENDBRANCH   9  10
ENDBRANCH   8   9
ENDBRANCH   7   8
ENDBRANCH   6   7
ENDBRANCH   5   6
ENDBRANCH   4   5
ENDBRANCH   3   4
ENDBRANCH   1   3
BRANCH   2  13
ATOM     13  C   UNL     1      14.843  16.440  25.238  1.00  0.00     0.027 C 
BRANCH  13  14
ATOM     14  C   UNL     1      14.800  17.905  24.784  1.00  0.00     0.004 C 
BRANCH  14  15
ATOM     15  C   UNL     1      13.934  18.117  23.531  1.00  0.00     0.000 C 
BRANCH  15  16
ATOM     16  C   UNL     1      12.705  17.185  23.464  1.00  0.00     0.000 C 
BRANCH  16  17
ATOM     17  C   UNL     1      11.471  17.800  24.149  1.00  0.00    -0.000 C 
BRANCH  17  18
ATOM     18  C   UNL     1      10.996  16.982  25.360  1.00  0.00    -0.000 C 
BRANCH  18  19
ATOM     19  C   UNL     1      10.754  17.852  26.602  1.00  0.00    -0.003 C 
ATOM     20  C   UNL     1      12.061  18.125  27.343  1.00  0.00     0.004 C 
ENDBRANCH  18  19
ENDBRANCH  17  18
ENDBRANCH  16  17
ENDBRANCH  15  16
ENDBRANCH  14  15
ENDBRANCH  13  14
ENDBRANCH   2  13
TORSDOF 15
ENDMDL
