MODEL 1
REMARK VINA RESULT:    -7.407      0.000      0.000
REMARK INTER + INTRA:          -8.972
REMARK INTER:                  -8.707
REMARK INTRA:                  -0.265
REMARK UNBOUND:                -0.265
REMARK SMILES O=c1cc(-c2ccc(O)c(O)c2)oc2cc(O)cc(O)c12
REMARK SMILES IDX 4 1 3 2 2 3 1 4 21 5 19 6 18 7 16 8 15 9 14 10 13 11 5 12
REMARK SMILES IDX 6 13 7 14 8 15 12 16 10 17 9 18 11 20 20 22 17 24
REMARK H PARENT 9 19 11 21 20 23 17 25
REMARK Flexibility Score: inf
ROOT
ATOM      1  C   UNL     1      23.488  30.216  18.019  1.00  0.00     0.138 A 
ATOM      2  C   UNL     1      22.678  30.722  16.993  1.00  0.00     0.100 A 
ATOM      3  C   UNL     1      21.845  31.812  17.245  1.00  0.00     0.197 A 
ATOM      4  O   UNL     1      21.085  32.204  16.323  1.00  0.00    -0.289 OA
ATOM      5  C   UNL     1      21.845  32.416  18.526  1.00  0.00     0.107 A 
ATOM      6  C   UNL     1      21.066  33.557  18.885  1.00  0.00     0.134 A 
ATOM      7  C   UNL     1      21.060  33.996  20.215  1.00  0.00     0.093 A 
ATOM      8  C   UNL     1      21.849  33.376  21.183  1.00  0.00     0.123 A 
ATOM      9  C   UNL     1      22.656  32.293  20.830  1.00  0.00     0.094 A 
ATOM     10  C   UNL     1      22.658  31.809  19.520  1.00  0.00     0.146 A 
ATOM     11  O   UNL     1      23.429  30.767  19.228  1.00  0.00    -0.456 OA
ENDROOT
BRANCH   1  12
ATOM     12  C   UNL     1      24.394  29.060  17.806  1.00  0.00     0.021 A 
ATOM     13  C   UNL     1      24.173  27.866  18.514  1.00  0.00     0.016 A 
ATOM     14  C   UNL     1      25.016  26.767  18.336  1.00  0.00     0.051 A 
ATOM     15  C   UNL     1      26.101  26.844  17.455  1.00  0.00     0.157 A 
ATOM     16  C   UNL     1      25.495  29.134  16.930  1.00  0.00     0.062 A 
ATOM     17  C   UNL     1      26.344  28.035  16.752  1.00  0.00     0.158 A 
BRANCH  15  18
ATOM     18  O   UNL     1      26.940  25.744  17.278  1.00  0.00    -0.504 OA
ATOM     19  H   UNL     1      27.875  25.845  16.902  1.00  0.00     0.293 HD
ENDBRANCH  15  18
BRANCH  17  20
ATOM     20  O   UNL     1      27.422  28.147  15.875  1.00  0.00    -0.504 OA
ATOM     21  H   UNL     1      28.347  28.414  16.191  1.00  0.00     0.293 HD
ENDBRANCH  17  20
ENDBRANCH   1  12
BRANCH   6  22
ATOM     22  O   UNL     1      20.307  34.302  17.978  1.00  0.00    -0.507 OA
ATOM     23  H   UNL     1      19.827  35.162  18.199  1.00  0.00     0.293 HD
ENDBRANCH   6  22
BRANCH   8  24
ATOM     24  O   UNL     1      21.830  33.849  22.492  1.00  0.00    -0.508 OA
ATOM     25  H   UNL     1      21.254  33.416  23.205  1.00  0.00     0.293 HD
ENDBRANCH   8  24
TORSDOF 5
ENDMDL
MODEL 2
REMARK VINA RESULT:    -7.086      1.585      2.882
REMARK INTER + INTRA:          -8.594
REMARK INTER:                  -8.310
REMARK INTRA:                  -0.284
REMARK UNBOUND:                -0.265
REMARK SMILES O=c1cc(-c2ccc(O)c(O)c2)oc2cc(O)cc(O)c12
REMARK SMILES IDX 4 1 3 2 2 3 1 4 21 5 19 6 18 7 16 8 15 9 14 10 13 11 5 12
REMARK SMILES IDX 6 13 7 14 8 15 12 16 10 17 9 18 11 20 20 22 17 24
REMARK H PARENT 9 19 11 21 20 23 17 25
REMARK Flexibility Score: inf
ROOT
ATOM      1  C   UNL     1      23.622  29.944  18.093  1.00  0.00     0.138 A 
ATOM      2  C   UNL     1      23.339  30.133  19.452  1.00  0.00     0.100 A 
ATOM      3  C   UNL     1      22.673  31.287  19.864  1.00  0.00     0.197 A 
ATOM      4  O   UNL     1      22.488  31.457  21.097  1.00  0.00    -0.289 OA
ATOM      5  C   UNL     1      22.263  32.244  18.905  1.00  0.00     0.107 A 
ATOM      6  C   UNL     1      21.541  33.438  19.205  1.00  0.00     0.134 A 
ATOM      7  C   UNL     1      21.291  34.367  18.188  1.00  0.00     0.093 A 
ATOM      8  C   UNL     1      21.680  34.118  16.873  1.00  0.00     0.123 A 
ATOM      9  C   UNL     1      22.338  32.928  16.557  1.00  0.00     0.094 A 
ATOM     10  C   UNL     1      22.634  31.997  17.556  1.00  0.00     0.146 A 
ATOM     11  O   UNL     1      23.274  30.883  17.218  1.00  0.00    -0.456 OA
ENDROOT
BRANCH   1  12
ATOM     12  C   UNL     1      24.326  28.734  17.598  1.00  0.00     0.021 A 
ATOM     13  C   UNL     1      23.964  28.180  16.358  1.00  0.00     0.016 A 
ATOM     14  C   UNL     1      24.606  27.038  15.875  1.00  0.00     0.051 A 
ATOM     15  C   UNL     1      25.616  26.424  16.625  1.00  0.00     0.157 A 
ATOM     16  C   UNL     1      25.334  28.104  18.354  1.00  0.00     0.062 A 
ATOM     17  C   UNL     1      25.978  26.958  17.872  1.00  0.00     0.158 A 
BRANCH  15  18
ATOM     18  O   UNL     1      26.256  25.285  16.139  1.00  0.00    -0.504 OA
ATOM     19  H   UNL     1      26.412  25.146  15.148  1.00  0.00     0.293 HD
ENDBRANCH  15  18
BRANCH  17  20
ATOM     20  O   UNL     1      26.972  26.363  18.649  1.00  0.00    -0.504 OA
ATOM     21  H   UNL     1      26.856  26.206  19.643  1.00  0.00     0.293 HD
ENDBRANCH  17  20
ENDBRANCH   1  12
BRANCH   6  22
ATOM     22  O   UNL     1      21.033  33.746  20.471  1.00  0.00    -0.507 OA
ATOM     23  H   UNL     1      20.087  33.563  20.772  1.00  0.00     0.293 HD
ENDBRANCH   6  22
BRANCH   8  24
ATOM     24  O   UNL     1      21.401  35.058  15.883  1.00  0.00    -0.508 OA
ATOM     25  H   UNL     1      20.449  35.271  15.607  1.00  0.00     0.293 HD
ENDBRANCH   8  24
TORSDOF 5
ENDMDL
MODEL 3
REMARK VINA RESULT:    -6.826      1.292      1.973
REMARK INTER + INTRA:          -8.289
REMARK INTER:                  -8.009
REMARK INTRA:                  -0.280
REMARK UNBOUND:                -0.265
REMARK SMILES O=c1cc(-c2ccc(O)c(O)c2)oc2cc(O)cc(O)c12
REMARK SMILES IDX 4 1 3 2 2 3 1 4 21 5 19 6 18 7 16 8 15 9 14 10 13 11 5 12
REMARK SMILES IDX 6 13 7 14 8 15 12 16 10 17 9 18 11 20 20 22 17 24
REMARK H PARENT 9 19 11 21 20 23 17 25
REMARK Flexibility Score: inf
ROOT
ATOM      1  C   UNL     1      24.328  29.269  17.567  1.00  0.00     0.138 A 
ATOM      2  C   UNL     1      23.482  29.716  16.544  1.00  0.00     0.100 A 
ATOM      3  C   UNL     1      22.532  30.701  16.815  1.00  0.00     0.197 A 
ATOM      4  O   UNL     1      21.746  31.038  15.892  1.00  0.00    -0.289 OA
ATOM      5  C   UNL     1      22.451  31.262  18.112  1.00  0.00     0.107 A 
ATOM      6  C   UNL     1      21.549  32.300  18.493  1.00  0.00     0.134 A 
ATOM      7  C   UNL     1      21.478  32.694  19.834  1.00  0.00     0.093 A 
ATOM      8  C   UNL     1      22.317  32.133  20.796  1.00  0.00     0.123 A 
ATOM      9  C   UNL     1      23.241  31.155  20.425  1.00  0.00     0.094 A 
ATOM     10  C   UNL     1      23.312  30.715  19.101  1.00  0.00     0.146 A 
ATOM     11  O   UNL     1      24.195  29.773  18.790  1.00  0.00    -0.456 OA
ENDROOT
BRANCH   1  12
ATOM     12  C   UNL     1      25.358  28.225  17.334  1.00  0.00     0.021 A 
ATOM     13  C   UNL     1      26.336  28.425  16.344  1.00  0.00     0.016 A 
ATOM     14  C   UNL     1      27.310  27.454  16.101  1.00  0.00     0.051 A 
ATOM     15  C   UNL     1      27.320  26.263  16.835  1.00  0.00     0.157 A 
ATOM     16  C   UNL     1      25.365  27.018  18.060  1.00  0.00     0.062 A 
ATOM     17  C   UNL     1      26.340  26.042  17.816  1.00  0.00     0.158 A 
BRANCH  15  18
ATOM     18  O   UNL     1      28.295  25.297  16.591  1.00  0.00    -0.504 OA
ATOM     19  H   UNL     1      29.047  25.124  17.246  1.00  0.00     0.293 HD
ENDBRANCH  15  18
BRANCH  17  20
ATOM     20  O   UNL     1      26.315  24.860  18.556  1.00  0.00    -0.504 OA
ATOM     21  H   UNL     1      25.922  24.003  18.188  1.00  0.00     0.293 HD
ENDBRANCH  17  20
ENDBRANCH   1  12
BRANCH   6  22
ATOM     22  O   UNL     1      20.725  32.987  17.597  1.00  0.00    -0.507 OA
ATOM     23  H   UNL     1      20.895  33.072  16.606  1.00  0.00     0.293 HD
ENDBRANCH   6  22
BRANCH   8  24
ATOM     24  O   UNL     1      22.230  32.561  22.119  1.00  0.00    -0.508 OA
ATOM     25  H   UNL     1      21.643  32.084  22.794  1.00  0.00     0.293 HD
ENDBRANCH   8  24
TORSDOF 5
ENDMDL
MODEL 4
REMARK VINA RESULT:    -6.686     10.086     12.487
REMARK INTER + INTRA:          -8.124
REMARK INTER:                  -7.832
REMARK INTRA:                  -0.292
REMARK UNBOUND:                -0.265
REMARK SMILES O=c1cc(-c2ccc(O)c(O)c2)oc2cc(O)cc(O)c12
REMARK SMILES IDX 4 1 3 2 2 3 1 4 21 5 19 6 18 7 16 8 15 9 14 10 13 11 5 12
REMARK SMILES IDX 6 13 7 14 8 15 12 16 10 17 9 18 11 20 20 22 17 24
REMARK H PARENT 9 19 11 21 20 23 17 25
REMARK Flexibility Score: inf
ROOT
ATOM      1  C   UNL     1      18.219  20.809  20.914  1.00  0.00     0.138 A 
ATOM      2  C   UNL     1      18.537  19.612  20.258  1.00  0.00     0.100 A 
ATOM      3  C   UNL     1      18.615  19.588  18.865  1.00  0.00     0.197 A 
ATOM      4  O   UNL     1      18.842  18.486  18.302  1.00  0.00    -0.289 OA
ATOM      5  C   UNL     1      18.403  20.778  18.128  1.00  0.00     0.107 A 
ATOM      6  C   UNL     1      18.498  20.881  16.708  1.00  0.00     0.134 A 
ATOM      7  C   UNL     1      18.153  22.084  16.080  1.00  0.00     0.093 A 
ATOM      8  C   UNL     1      17.776  23.203  16.821  1.00  0.00     0.123 A 
ATOM      9  C   UNL     1      17.733  23.129  18.214  1.00  0.00     0.094 A 
ATOM     10  C   UNL     1      18.038  21.933  18.870  1.00  0.00     0.146 A 
ATOM     11  O   UNL     1      17.971  21.900  20.196  1.00  0.00    -0.456 OA
ENDROOT
BRANCH   1  12
ATOM     12  C   UNL     1      18.124  20.892  22.393  1.00  0.00     0.021 A 
ATOM     13  C   UNL     1      19.122  20.299  23.186  1.00  0.00     0.016 A 
ATOM     14  C   UNL     1      19.051  20.357  24.579  1.00  0.00     0.051 A 
ATOM     15  C   UNL     1      17.977  21.000  25.206  1.00  0.00     0.157 A 
ATOM     16  C   UNL     1      17.039  21.525  23.031  1.00  0.00     0.062 A 
ATOM     17  C   UNL     1      16.965  21.583  24.428  1.00  0.00     0.158 A 
BRANCH  15  18
ATOM     18  O   UNL     1      17.910  21.057  26.598  1.00  0.00    -0.504 OA
ATOM     19  H   UNL     1      17.834  21.939  27.090  1.00  0.00     0.293 HD
ENDBRANCH  15  18
BRANCH  17  20
ATOM     20  O   UNL     1      15.875  22.220  25.022  1.00  0.00    -0.504 OA
ATOM     21  H   UNL     1      14.929  21.874  24.922  1.00  0.00     0.293 HD
ENDBRANCH  17  20
ENDBRANCH   1  12
BRANCH   6  22
ATOM     22  O   UNL     1      18.944  19.849  15.877  1.00  0.00    -0.507 OA
ATOM     23  H   UNL     1      19.821  19.850  15.377  1.00  0.00     0.293 HD
ENDBRANCH   6  22
BRANCH   8  24
ATOM     24  O   UNL     1      17.455  24.388  16.163  1.00  0.00    -0.508 OA
ATOM     25  H   UNL     1      16.498  24.715  16.096  1.00  0.00     0.293 HD
ENDBRANCH   8  24
TORSDOF 5
ENDMDL
MODEL 5
REMARK VINA RESULT:    -6.549      1.616      3.399
REMARK INTER + INTRA:          -7.963
REMARK INTER:                  -7.667
REMARK INTRA:                  -0.296
REMARK UNBOUND:                -0.265
REMARK SMILES O=c1cc(-c2ccc(O)c(O)c2)oc2cc(O)cc(O)c12
REMARK SMILES IDX 4 1 3 2 2 3 1 4 21 5 19 6 18 7 16 8 15 9 14 10 13 11 5 12
REMARK SMILES IDX 6 13 7 14 8 15 12 16 10 17 9 18 11 20 20 22 17 24
REMARK H PARENT 9 19 11 21 20 23 17 25
REMARK Flexibility Score: inf
ROOT
ATOM      1  C   UNL     1      22.604  31.611  18.574  1.00  0.00     0.138 A 
ATOM      2  C   UNL     1      22.649  31.858  19.952  1.00  0.00     0.100 A 
ATOM      3  C   UNL     1      21.922  32.921  20.487  1.00  0.00     0.197 A 
ATOM      4  O   UNL     1      22.031  33.155  21.718  1.00  0.00    -0.289 OA
ATOM      5  C   UNL     1      21.122  33.724  19.638  1.00  0.00     0.107 A 
ATOM      6  C   UNL     1      20.307  34.810  20.078  1.00  0.00     0.134 A 
ATOM      7  C   UNL     1      19.650  35.606  19.132  1.00  0.00     0.093 A 
ATOM      8  C   UNL     1      19.728  35.320  17.770  1.00  0.00     0.123 A 
ATOM      9  C   UNL     1      20.478  34.227  17.332  1.00  0.00     0.094 A 
ATOM     10  C   UNL     1      21.174  33.434  18.248  1.00  0.00     0.146 A 
ATOM     11  O   UNL     1      21.888  32.412  17.791  1.00  0.00    -0.456 OA
ENDROOT
BRANCH   1  12
ATOM     12  C   UNL     1      23.356  30.492  17.952  1.00  0.00     0.021 A 
ATOM     13  C   UNL     1      23.418  30.393  16.551  1.00  0.00     0.016 A 
ATOM     14  C   UNL     1      24.113  29.345  15.942  1.00  0.00     0.051 A 
ATOM     15  C   UNL     1      24.751  28.373  16.722  1.00  0.00     0.157 A 
ATOM     16  C   UNL     1      23.989  29.503  18.730  1.00  0.00     0.062 A 
ATOM     17  C   UNL     1      24.685  28.450  18.122  1.00  0.00     0.158 A 
BRANCH  15  18
ATOM     18  O   UNL     1      25.445  27.330  16.111  1.00  0.00    -0.504 OA
ATOM     19  H   UNL     1      24.984  26.468  15.848  1.00  0.00     0.293 HD
ENDBRANCH  15  18
BRANCH  17  20
ATOM     20  O   UNL     1      25.300  27.491  18.926  1.00  0.00    -0.504 OA
ATOM     21  H   UNL     1      24.860  27.129  19.763  1.00  0.00     0.293 HD
ENDBRANCH  17  20
ENDBRANCH   1  12
BRANCH   6  22
ATOM     22  O   UNL     1      20.092  35.132  21.422  1.00  0.00    -0.507 OA
ATOM     23  H   UNL     1      19.327  35.692  21.765  1.00  0.00     0.293 HD
ENDBRANCH   6  22
BRANCH   8  24
ATOM     24  O   UNL     1      19.048  36.124  16.858  1.00  0.00    -0.508 OA
ATOM     25  H   UNL     1      19.504  36.896  16.387  1.00  0.00     0.293 HD
ENDBRANCH   8  24
TORSDOF 5
ENDMDL
MODEL 6
REMARK VINA RESULT:    -6.530     15.317     18.430
REMARK INTER + INTRA:          -7.940
REMARK INTER:                  -7.640
REMARK INTRA:                  -0.300
REMARK UNBOUND:                -0.265
REMARK SMILES O=c1cc(-c2ccc(O)c(O)c2)oc2cc(O)cc(O)c12
REMARK SMILES IDX 4 1 3 2 2 3 1 4 21 5 19 6 18 7 16 8 15 9 14 10 13 11 5 12
REMARK SMILES IDX 6 13 7 14 8 15 12 16 10 17 9 18 11 20 20 22 17 24
REMARK H PARENT 9 19 11 21 20 23 17 25
REMARK Flexibility Score: inf
ROOT
ATOM      1  C   UNL     1      29.012  16.446  27.344  1.00  0.00     0.138 A 
ATOM      2  C   UNL     1      30.285  16.598  27.910  1.00  0.00     0.100 A 
ATOM      3  C   UNL     1      30.432  16.569  29.297  1.00  0.00     0.197 A 
ATOM      4  O   UNL     1      31.577  16.770  29.778  1.00  0.00    -0.289 OA
ATOM      5  C   UNL     1      29.299  16.358  30.120  1.00  0.00     0.107 A 
ATOM      6  C   UNL     1      29.335  16.269  31.544  1.00  0.00     0.134 A 
ATOM      7  C   UNL     1      28.135  16.174  32.259  1.00  0.00     0.093 A 
ATOM      8  C   UNL     1      26.908  16.103  31.602  1.00  0.00     0.123 A 
ATOM      9  C   UNL     1      26.865  16.134  30.207  1.00  0.00     0.094 A 
ATOM     10  C   UNL     1      28.042  16.263  29.466  1.00  0.00     0.146 A 
ATOM     11  O   UNL     1      27.958  16.303  28.141  1.00  0.00    -0.456 OA
ENDROOT
BRANCH   1  12
ATOM     12  C   UNL     1      28.799  16.467  25.875  1.00  0.00     0.021 A 
ATOM     13  C   UNL     1      29.754  15.876  25.029  1.00  0.00     0.016 A 
ATOM     14  C   UNL     1      29.579  15.889  23.643  1.00  0.00     0.051 A 
ATOM     15  C   UNL     1      28.454  16.500  23.077  1.00  0.00     0.157 A 
ATOM     16  C   UNL     1      27.676  17.091  25.299  1.00  0.00     0.062 A 
ATOM     17  C   UNL     1      27.500  17.107  23.910  1.00  0.00     0.158 A 
BRANCH  15  18
ATOM     18  O   UNL     1      28.282  16.510  21.694  1.00  0.00    -0.504 OA
ATOM     19  H   UNL     1      28.690  17.232  21.114  1.00  0.00     0.293 HD
ENDBRANCH  15  18
BRANCH  17  20
ATOM     20  O   UNL     1      26.374  17.735  23.377  1.00  0.00    -0.504 OA
ATOM     21  H   UNL     1      25.445  17.573  23.744  1.00  0.00     0.293 HD
ENDBRANCH  17  20
ENDBRANCH   1  12
BRANCH   6  22
ATOM     22  O   UNL     1      30.513  16.247  32.297  1.00  0.00    -0.507 OA
ATOM     23  H   UNL     1      31.321  16.825  32.120  1.00  0.00     0.293 HD
ENDBRANCH   6  22
BRANCH   8  24
ATOM     24  O   UNL     1      25.735  15.993  32.345  1.00  0.00    -0.508 OA
ATOM     25  H   UNL     1      25.166  16.803  32.564  1.00  0.00     0.293 HD
ENDBRANCH   8  24
TORSDOF 5
ENDMDL
MODEL 7
REMARK VINA RESULT:    -6.309      9.697     11.696
REMARK INTER + INTRA:          -7.680
REMARK INTER:                  -7.410
REMARK INTRA:                  -0.270
REMARK UNBOUND:                -0.265
REMARK SMILES O=c1cc(-c2ccc(O)c(O)c2)oc2cc(O)cc(O)c12
REMARK SMILES IDX 4 1 3 2 2 3 1 4 21 5 19 6 18 7 16 8 15 9 14 10 13 11 5 12
REMARK SMILES IDX 6 13 7 14 8 15 12 16 10 17 9 18 11 20 20 22 17 24
REMARK H PARENT 9 19 11 21 20 23 17 25
REMARK Flexibility Score: inf
ROOT
ATOM      1  C   UNL     1      31.772  35.106  21.087  1.00  0.00     0.138 A 
ATOM      2  C   UNL     1      30.646  35.180  20.255  1.00  0.00     0.100 A 
ATOM      3  C   UNL     1      30.811  35.196  18.870  1.00  0.00     0.197 A 
ATOM      4  O   UNL     1      29.786  35.324  18.152  1.00  0.00    -0.289 OA
ATOM      5  C   UNL     1      32.111  35.108  18.315  1.00  0.00     0.107 A 
ATOM      6  C   UNL     1      32.397  35.074  16.917  1.00  0.00     0.134 A 
ATOM      7  C   UNL     1      33.728  35.103  16.485  1.00  0.00     0.093 A 
ATOM      8  C   UNL     1      34.782  35.103  17.397  1.00  0.00     0.123 A 
ATOM      9  C   UNL     1      34.515  35.080  18.767  1.00  0.00     0.094 A 
ATOM     10  C   UNL     1      33.197  35.086  19.231  1.00  0.00     0.146 A 
ATOM     11  O   UNL     1      32.984  35.079  20.542  1.00  0.00    -0.456 OA
ENDROOT
BRANCH   1  12
ATOM     12  C   UNL     1      31.654  35.084  22.567  1.00  0.00     0.021 A 
ATOM     13  C   UNL     1      32.321  36.059  23.329  1.00  0.00     0.016 A 
ATOM     14  C   UNL     1      32.231  36.055  24.723  1.00  0.00     0.051 A 
ATOM     15  C   UNL     1      31.482  35.073  25.380  1.00  0.00     0.157 A 
ATOM     16  C   UNL     1      30.913  34.091  23.236  1.00  0.00     0.062 A 
ATOM     17  C   UNL     1      30.824  34.084  24.633  1.00  0.00     0.158 A 
BRANCH  15  18
ATOM     18  O   UNL     1      31.394  35.073  26.772  1.00  0.00    -0.504 OA
ATOM     19  H   UNL     1      31.404  35.934  27.304  1.00  0.00     0.293 HD
ENDBRANCH  15  18
BRANCH  17  20
ATOM     20  O   UNL     1      30.079  33.084  25.259  1.00  0.00    -0.504 OA
ATOM     21  H   UNL     1      29.991  33.030  26.266  1.00  0.00     0.293 HD
ENDBRANCH  17  20
ENDBRANCH   1  12
BRANCH   6  22
ATOM     22  O   UNL     1      31.419  34.989  15.922  1.00  0.00    -0.507 OA
ATOM     23  H   UNL     1      30.519  34.545  16.033  1.00  0.00     0.293 HD
ENDBRANCH   6  22
BRANCH   8  24
ATOM     24  O   UNL     1      36.095  35.116  16.931  1.00  0.00    -0.508 OA
ATOM     25  H   UNL     1      36.777  35.778  17.283  1.00  0.00     0.293 HD
ENDBRANCH   8  24
TORSDOF 5
ENDMDL
MODEL 8
REMARK VINA RESULT:    -5.924     10.674     14.605
REMARK INTER + INTRA:          -7.228
REMARK INTER:                  -6.966
REMARK INTRA:                  -0.263
REMARK UNBOUND:                -0.265
REMARK SMILES O=c1cc(-c2ccc(O)c(O)c2)oc2cc(O)cc(O)c12
REMARK SMILES IDX 4 1 3 2 2 3 1 4 21 5 19 6 18 7 16 8 15 9 14 10 13 11 5 12
REMARK SMILES IDX 6 13 7 14 8 15 12 16 10 17 9 18 11 20 20 22 17 24
REMARK H PARENT 9 19 11 21 20 23 17 25
REMARK Flexibility Score: inf
ROOT
ATOM      1  C   UNL     1      20.666  33.709  31.062  1.00  0.00     0.138 A 
ATOM      2  C   UNL     1      20.133  32.475  31.457  1.00  0.00     0.100 A 
ATOM      3  C   UNL     1      20.342  32.017  32.758  1.00  0.00     0.197 A 
ATOM      4  O   UNL     1      19.904  30.878  33.064  1.00  0.00    -0.289 OA
ATOM      5  C   UNL     1      21.065  32.816  33.677  1.00  0.00     0.107 A 
ATOM      6  C   UNL     1      21.305  32.469  35.041  1.00  0.00     0.134 A 
ATOM      7  C   UNL     1      22.132  33.284  35.823  1.00  0.00     0.093 A 
ATOM      8  C   UNL     1      22.677  34.461  35.313  1.00  0.00     0.123 A 
ATOM      9  C   UNL     1      22.405  34.837  33.996  1.00  0.00     0.094 A 
ATOM     10  C   UNL     1      21.611  34.029  33.179  1.00  0.00     0.146 A 
ATOM     11  O   UNL     1      21.387  34.415  31.928  1.00  0.00    -0.456 OA
ENDROOT
BRANCH   1  12
ATOM     12  C   UNL     1      20.473  34.245  29.691  1.00  0.00     0.021 A 
ATOM     13  C   UNL     1      19.493  35.226  29.462  1.00  0.00     0.016 A 
ATOM     14  C   UNL     1      19.287  35.740  28.180  1.00  0.00     0.051 A 
ATOM     15  C   UNL     1      20.050  35.277  27.102  1.00  0.00     0.157 A 
ATOM     16  C   UNL     1      21.228  33.774  28.599  1.00  0.00     0.062 A 
ATOM     17  C   UNL     1      21.022  34.287  27.312  1.00  0.00     0.158 A 
BRANCH  15  18
ATOM     18  O   UNL     1      19.843  35.794  25.823  1.00  0.00    -0.504 OA
ATOM     19  H   UNL     1      20.336  35.430  25.018  1.00  0.00     0.293 HD
ENDBRANCH  15  18
BRANCH  17  20
ATOM     20  O   UNL     1      21.791  33.796  26.257  1.00  0.00    -0.504 OA
ATOM     21  H   UNL     1      21.473  33.037  25.667  1.00  0.00     0.293 HD
ENDBRANCH  17  20
ENDBRANCH   1  12
BRANCH   6  22
ATOM     22  O   UNL     1      20.741  31.359  35.676  1.00  0.00    -0.507 OA
ATOM     23  H   UNL     1      19.756  31.240  35.863  1.00  0.00     0.293 HD
ENDBRANCH   6  22
BRANCH   8  24
ATOM     24  O   UNL     1      23.483  35.255  36.125  1.00  0.00    -0.508 OA
ATOM     25  H   UNL     1      23.508  35.132  37.131  1.00  0.00     0.293 HD
ENDBRANCH   8  24
TORSDOF 5
ENDMDL
