MODEL 1
REMARK VINA RESULT:    -4.158      0.000      0.000
REMARK INTER + INTRA:         -10.929
REMARK INTER:                  -8.048
REMARK INTRA:                  -2.881
REMARK UNBOUND:                -2.881
REMARK SMILES CCCCCCCCCCCCCCCCCC(=O)[O-]
REMARK SMILES IDX 10 1 11 2 12 3 13 4 14 5 15 6 16 7 17 8 18 9 19 10 20 11
REMARK SMILES IDX 9 12 8 13 7 14 6 15 5 16 4 17 3 18 2 19 1 20
REMARK H PARENT
REMARK Flexibility Score: inf
ROOT
ATOM      1  C   UNL     1      -9.182  -5.506   6.794  1.00  0.00     0.000 C 
ENDROOT
BRANCH   1   2
ATOM      2  C   UNL     1      -9.092  -6.716   5.848  1.00  0.00     0.000 C 
BRANCH   2   3
ATOM      3  C   UNL     1     -10.328  -6.867   4.947  1.00  0.00     0.000 C 
BRANCH   3   4
ATOM      4  C   UNL     1     -11.524  -6.029   5.433  1.00  0.00     0.000 C 
BRANCH   4   5
ATOM      5  C   UNL     1     -12.520  -5.677   4.308  1.00  0.00     0.000 C 
BRANCH   5   6
ATOM      6  C   UNL     1     -13.207  -4.320   4.547  1.00  0.00     0.000 C 
BRANCH   6   7
ATOM      7  C   UNL     1     -12.666  -3.586   5.782  1.00  0.00     0.006 C 
BRANCH   7   8
ATOM      8  C   UNL     1     -12.437  -2.087   5.527  1.00  0.00     0.053 C 
BRANCH   8   9
ATOM      9  C   UNL     1     -13.596  -1.499   4.788  1.00  0.00     0.041 C 
ATOM     10  O   UNL     1     -14.721  -1.400   5.347  1.00  0.00    -0.550 OA
ATOM     11  O   UNL     1     -13.419  -1.000   3.503  1.00  0.00    -0.550 OA
ENDBRANCH   8   9
ENDBRANCH   7   8
ENDBRANCH   6   7
ENDBRANCH   5   6
ENDBRANCH   4   5
ENDBRANCH   3   4
ENDBRANCH   2   3
ENDBRANCH   1   2
BRANCH   1  12
ATOM     12  C   UNL     1      -8.321  -4.294   6.381  1.00  0.00     0.000 C 
BRANCH  12  13
ATOM     13  C   UNL     1      -9.035  -3.245   5.504  1.00  0.00    -0.000 C 
BRANCH  13  14
ATOM     14  C   UNL     1      -8.669  -3.294   4.010  1.00  0.00    -0.000 C 
BRANCH  14  15
ATOM     15  C   UNL     1      -9.904  -3.404   3.097  1.00  0.00    -0.000 C 
BRANCH  15  16
ATOM     16  C   UNL     1     -10.202  -2.094   2.352  1.00  0.00    -0.000 C 
BRANCH  16  17
ATOM     17  C   UNL     1      -8.928  -1.288   2.044  1.00  0.00    -0.000 C 
BRANCH  17  18
ATOM     18  C   UNL     1      -8.956   0.118   2.664  1.00  0.00    -0.000 C 
BRANCH  18  19
ATOM     19  C   UNL     1     -10.383   0.597   2.974  1.00  0.00    -0.003 C 
ATOM     20  C   UNL     1     -10.534   0.951   4.451  1.00  0.00     0.004 C 
ENDBRANCH  18  19
ENDBRANCH  17  18
ENDBRANCH  16  17
ENDBRANCH  15  16
ENDBRANCH  14  15
ENDBRANCH  13  14
ENDBRANCH  12  13
ENDBRANCH   1  12
TORSDOF 16
ENDMDL
MODEL 2
REMARK VINA RESULT:    -4.154      1.161      4.323
REMARK INTER + INTRA:         -10.921
REMARK INTER:                  -8.289
REMARK INTRA:                  -2.632
REMARK UNBOUND:                -2.881
REMARK SMILES CCCCCCCCCCCCCCCCCC(=O)[O-]
REMARK SMILES IDX 10 1 11 2 12 3 13 4 14 5 15 6 16 7 17 8 18 9 19 10 20 11
REMARK SMILES IDX 9 12 8 13 7 14 6 15 5 16 4 17 3 18 2 19 1 20
REMARK H PARENT
REMARK Flexibility Score: inf
ROOT
ATOM      1  C   UNL     1      -8.419  -4.522   6.514  1.00  0.00     0.000 C 
ENDROOT
BRANCH   1   2
ATOM      2  C   UNL     1      -9.093  -3.433   5.662  1.00  0.00     0.000 C 
BRANCH   2   3
ATOM      3  C   UNL     1      -8.610  -3.428   4.202  1.00  0.00     0.000 C 
BRANCH   3   4
ATOM      4  C   UNL     1      -9.772  -3.412   3.193  1.00  0.00     0.000 C 
BRANCH   4   5
ATOM      5  C   UNL     1      -9.837  -2.115   2.359  1.00  0.00     0.000 C 
BRANCH   5   6
ATOM      6  C   UNL     1      -8.637  -1.190   2.631  1.00  0.00     0.000 C 
BRANCH   6   7
ATOM      7  C   UNL     1      -9.025   0.295   2.674  1.00  0.00     0.006 C 
BRANCH   7   8
ATOM      8  C   UNL     1     -10.174   0.578   3.656  1.00  0.00     0.053 C 
BRANCH   8   9
ATOM      9  C   UNL     1     -11.327   1.211   2.943  1.00  0.00     0.041 C 
ATOM     10  O   UNL     1     -11.335   2.452   2.727  1.00  0.00    -0.550 OA
ATOM     11  O   UNL     1     -12.363   0.420   2.460  1.00  0.00    -0.550 OA
ENDBRANCH   8   9
ENDBRANCH   7   8
ENDBRANCH   6   7
ENDBRANCH   5   6
ENDBRANCH   4   5
ENDBRANCH   3   4
ENDBRANCH   2   3
ENDBRANCH   1   2
BRANCH   1  12
ATOM     12  C   UNL     1      -9.287  -5.771   6.776  1.00  0.00     0.000 C 
BRANCH  12  13
ATOM     13  C   UNL     1      -9.383  -6.765   5.600  1.00  0.00    -0.000 C 
BRANCH  13  14
ATOM     14  C   UNL     1     -10.812  -7.034   5.095  1.00  0.00    -0.000 C 
BRANCH  14  15
ATOM     15  C   UNL     1     -11.780  -5.878   5.404  1.00  0.00    -0.000 C 
BRANCH  15  16
ATOM     16  C   UNL     1     -12.599  -5.453   4.176  1.00  0.00    -0.000 C 
BRANCH  16  17
ATOM     17  C   UNL     1     -13.293  -4.094   4.373  1.00  0.00    -0.000 C 
BRANCH  17  18
ATOM     18  C   UNL     1     -12.744  -3.322   5.583  1.00  0.00    -0.000 C 
BRANCH  18  19
ATOM     19  C   UNL     1     -12.364  -1.874   5.236  1.00  0.00    -0.003 C 
ATOM     20  C   UNL     1     -13.158  -0.881   6.080  1.00  0.00     0.004 C 
ENDBRANCH  18  19
ENDBRANCH  17  18
ENDBRANCH  16  17
ENDBRANCH  15  16
ENDBRANCH  14  15
ENDBRANCH  13  14
ENDBRANCH  12  13
ENDBRANCH   1  12
TORSDOF 16
ENDMDL
MODEL 3
REMARK VINA RESULT:    -4.095      1.541      3.208
REMARK INTER + INTRA:         -10.806
REMARK INTER:                  -8.144
REMARK INTRA:                  -2.662
REMARK UNBOUND:                -2.881
REMARK SMILES CCCCCCCCCCCCCCCCCC(=O)[O-]
REMARK SMILES IDX 10 1 11 2 12 3 13 4 14 5 15 6 16 7 17 8 18 9 19 10 20 11
REMARK SMILES IDX 9 12 8 13 7 14 6 15 5 16 4 17 3 18 2 19 1 20
REMARK H PARENT
REMARK Flexibility Score: inf
ROOT
ATOM      1  C   UNL     1      -9.201  -3.477   5.625  1.00  0.00     0.000 C 
ENDROOT
BRANCH   1   2
ATOM      2  C   UNL     1      -8.387  -4.459   6.485  1.00  0.00     0.000 C 
BRANCH   2   3
ATOM      3  C   UNL     1      -9.212  -5.665   6.965  1.00  0.00     0.000 C 
BRANCH   3   4
ATOM      4  C   UNL     1      -9.085  -6.881   6.031  1.00  0.00     0.000 C 
BRANCH   4   5
ATOM      5  C   UNL     1     -10.149  -6.905   4.912  1.00  0.00     0.000 C 
BRANCH   5   6
ATOM      6  C   UNL     1     -11.529  -6.446   5.416  1.00  0.00     0.000 C 
BRANCH   6   7
ATOM      7  C   UNL     1     -12.204  -5.439   4.474  1.00  0.00     0.006 C 
BRANCH   7   8
ATOM      8  C   UNL     1     -13.434  -6.026   3.762  1.00  0.00     0.053 C 
BRANCH   8   9
ATOM      9  C   UNL     1     -14.687  -5.380   4.263  1.00  0.00     0.041 C 
ATOM     10  O   UNL     1     -15.398  -4.688   3.486  1.00  0.00    -0.550 OA
ATOM     11  O   UNL     1     -15.104  -5.594   5.571  1.00  0.00    -0.550 OA
ENDBRANCH   8   9
ENDBRANCH   7   8
ENDBRANCH   6   7
ENDBRANCH   5   6
ENDBRANCH   4   5
ENDBRANCH   3   4
ENDBRANCH   2   3
ENDBRANCH   1   2
BRANCH   1  12
ATOM     12  C   UNL     1      -8.607  -3.191   4.230  1.00  0.00     0.000 C 
BRANCH  12  13
ATOM     13  C   UNL     1      -9.621  -3.207   3.067  1.00  0.00    -0.000 C 
BRANCH  13  14
ATOM     14  C   UNL     1      -9.656  -1.921   2.222  1.00  0.00    -0.000 C 
BRANCH  14  15
ATOM     15  C   UNL     1      -8.847  -0.773   2.851  1.00  0.00    -0.000 C 
BRANCH  15  16
ATOM     16  C   UNL     1      -9.705   0.474   3.117  1.00  0.00    -0.000 C 
BRANCH  16  17
ATOM     17  C   UNL     1     -11.194   0.135   3.306  1.00  0.00    -0.000 C 
BRANCH  17  18
ATOM     18  C   UNL     1     -11.568  -0.074   4.782  1.00  0.00    -0.000 C 
BRANCH  18  19
ATOM     19  C   UNL     1     -12.238  -1.434   5.033  1.00  0.00    -0.003 C 
ATOM     20  C   UNL     1     -13.088  -1.855   3.838  1.00  0.00     0.004 C 
ENDBRANCH  18  19
ENDBRANCH  17  18
ENDBRANCH  16  17
ENDBRANCH  15  16
ENDBRANCH  14  15
ENDBRANCH  13  14
ENDBRANCH  12  13
ENDBRANCH   1  12
TORSDOF 16
ENDMDL
MODEL 4
REMARK VINA RESULT:    -4.082      3.120      6.141
REMARK INTER + INTRA:         -10.780
REMARK INTER:                  -8.671
REMARK INTRA:                  -2.109
REMARK UNBOUND:                -2.881
REMARK SMILES CCCCCCCCCCCCCCCCCC(=O)[O-]
REMARK SMILES IDX 10 1 11 2 12 3 13 4 14 5 15 6 16 7 17 8 18 9 19 10 20 11
REMARK SMILES IDX 9 12 8 13 7 14 6 15 5 16 4 17 3 18 2 19 1 20
REMARK H PARENT
REMARK Flexibility Score: inf
ROOT
ATOM      1  C   UNL     1      -9.710   0.156   3.397  1.00  0.00     0.000 C 
ENDROOT
BRANCH   1   2
ATOM      2  C   UNL     1      -8.657  -0.889   2.989  1.00  0.00     0.000 C 
BRANCH   2   3
ATOM      3  C   UNL     1      -9.139  -2.335   3.188  1.00  0.00     0.000 C 
BRANCH   3   4
ATOM      4  C   UNL     1      -8.335  -3.086   4.264  1.00  0.00     0.000 C 
BRANCH   4   5
ATOM      5  C   UNL     1      -9.184  -3.494   5.486  1.00  0.00     0.000 C 
BRANCH   5   6
ATOM      6  C   UNL     1      -8.421  -4.439   6.432  1.00  0.00     0.000 C 
BRANCH   6   7
ATOM      7  C   UNL     1      -9.210  -5.713   6.767  1.00  0.00     0.006 C 
BRANCH   7   8
ATOM      8  C   UNL     1      -9.700  -6.454   5.512  1.00  0.00     0.053 C 
BRANCH   8   9
ATOM      9  C   UNL     1      -8.978  -7.754   5.356  1.00  0.00     0.041 C 
ATOM     10  O   UNL     1      -9.265  -8.529   4.404  1.00  0.00    -0.550 OA
ATOM     11  O   UNL     1      -7.944  -8.083   6.224  1.00  0.00    -0.550 OA
ENDBRANCH   8   9
ENDBRANCH   7   8
ENDBRANCH   6   7
ENDBRANCH   5   6
ENDBRANCH   4   5
ENDBRANCH   3   4
ENDBRANCH   2   3
ENDBRANCH   1   2
BRANCH   1  12
ATOM     12  C   UNL     1     -11.008   0.129   2.563  1.00  0.00     0.000 C 
BRANCH  12  13
ATOM     13  C   UNL     1     -12.263  -0.364   3.314  1.00  0.00    -0.000 C 
BRANCH  13  14
ATOM     14  C   UNL     1     -12.030  -0.738   4.788  1.00  0.00    -0.000 C 
BRANCH  14  15
ATOM     15  C   UNL     1     -12.481  -2.172   5.118  1.00  0.00    -0.000 C 
BRANCH  15  16
ATOM     16  C   UNL     1     -12.932  -2.947   3.870  1.00  0.00    -0.000 C 
BRANCH  16  17
ATOM     17  C   UNL     1     -12.151  -4.259   3.678  1.00  0.00    -0.000 C 
BRANCH  17  18
ATOM     18  C   UNL     1     -13.042  -5.502   3.821  1.00  0.00    -0.000 C 
BRANCH  18  19
ATOM     19  C   UNL     1     -14.523  -5.202   3.541  1.00  0.00    -0.003 C 
ATOM     20  C   UNL     1     -15.137  -6.265   2.636  1.00  0.00     0.004 C 
ENDBRANCH  18  19
ENDBRANCH  17  18
ENDBRANCH  16  17
ENDBRANCH  15  16
ENDBRANCH  14  15
ENDBRANCH  13  14
ENDBRANCH  12  13
ENDBRANCH   1  12
TORSDOF 16
ENDMDL
MODEL 5
REMARK VINA RESULT:    -4.018      2.272      5.154
REMARK INTER + INTRA:         -10.658
REMARK INTER:                  -8.127
REMARK INTRA:                  -2.531
REMARK UNBOUND:                -2.881
REMARK SMILES CCCCCCCCCCCCCCCCCC(=O)[O-]
REMARK SMILES IDX 10 1 11 2 12 3 13 4 14 5 15 6 16 7 17 8 18 9 19 10 20 11
REMARK SMILES IDX 9 12 8 13 7 14 6 15 5 16 4 17 3 18 2 19 1 20
REMARK H PARENT
REMARK Flexibility Score: inf
ROOT
ATOM      1  C   UNL     1      -8.711  -1.199   2.581  1.00  0.00     0.000 C 
ENDROOT
BRANCH   1   2
ATOM      2  C   UNL     1      -9.789  -2.238   2.228  1.00  0.00     0.000 C 
BRANCH   2   3
ATOM      3  C   UNL     1      -9.797  -3.443   3.184  1.00  0.00     0.000 C 
BRANCH   3   4
ATOM      4  C   UNL     1      -8.631  -3.412   4.188  1.00  0.00     0.000 C 
BRANCH   4   5
ATOM      5  C   UNL     1      -9.094  -3.313   5.657  1.00  0.00     0.000 C 
BRANCH   5   6
ATOM      6  C   UNL     1      -8.315  -4.272   6.575  1.00  0.00     0.000 C 
BRANCH   6   7
ATOM      7  C   UNL     1      -8.993  -5.642   6.720  1.00  0.00     0.006 C 
BRANCH   7   8
ATOM      8  C   UNL     1     -10.496  -5.596   6.400  1.00  0.00     0.053 C 
BRANCH   8   9
ATOM      9  C   UNL     1     -10.803  -6.441   5.204  1.00  0.00     0.041 C 
ATOM     10  O   UNL     1      -9.912  -7.179   4.704  1.00  0.00    -0.550 OA
ATOM     11  O   UNL     1     -12.090  -6.463   4.681  1.00  0.00    -0.550 OA
ENDBRANCH   8   9
ENDBRANCH   7   8
ENDBRANCH   6   7
ENDBRANCH   5   6
ENDBRANCH   4   5
ENDBRANCH   3   4
ENDBRANCH   2   3
ENDBRANCH   1   2
BRANCH   1  12
ATOM     12  C   UNL     1      -9.115   0.268   2.323  1.00  0.00     0.000 C 
BRANCH  12  13
ATOM     13  C   UNL     1     -10.459   0.701   2.945  1.00  0.00    -0.000 C 
BRANCH  13  14
ATOM     14  C   UNL     1     -10.575   0.467   4.462  1.00  0.00    -0.000 C 
BRANCH  14  15
ATOM     15  C   UNL     1     -12.018   0.177   4.911  1.00  0.00    -0.000 C 
BRANCH  15  16
ATOM     16  C   UNL     1     -12.827  -0.575   3.843  1.00  0.00    -0.000 C 
BRANCH  16  17
ATOM     17  C   UNL     1     -13.024  -2.060   4.191  1.00  0.00    -0.000 C 
BRANCH  17  18
ATOM     18  C   UNL     1     -12.478  -2.417   5.583  1.00  0.00    -0.000 C 
BRANCH  18  19
ATOM     19  C   UNL     1     -13.587  -2.837   6.560  1.00  0.00    -0.003 C 
ATOM     20  C   UNL     1     -14.015  -1.666   7.440  1.00  0.00     0.004 C 
ENDBRANCH  18  19
ENDBRANCH  17  18
ENDBRANCH  16  17
ENDBRANCH  15  16
ENDBRANCH  14  15
ENDBRANCH  13  14
ENDBRANCH  12  13
ENDBRANCH   1  12
TORSDOF 16
ENDMDL
MODEL 6
REMARK VINA RESULT:    -3.995      2.108      5.159
REMARK INTER + INTRA:         -10.613
REMARK INTER:                  -8.033
REMARK INTRA:                  -2.580
REMARK UNBOUND:                -2.881
REMARK SMILES CCCCCCCCCCCCCCCCCC(=O)[O-]
REMARK SMILES IDX 10 1 11 2 12 3 13 4 14 5 15 6 16 7 17 8 18 9 19 10 20 11
REMARK SMILES IDX 9 12 8 13 7 14 6 15 5 16 4 17 3 18 2 19 1 20
REMARK H PARENT
REMARK Flexibility Score: inf
ROOT
ATOM      1  C   UNL     1     -10.472   1.115   4.176  1.00  0.00     0.000 C 
ENDROOT
BRANCH   1   2
ATOM      2  C   UNL     1     -11.799   0.539   4.698  1.00  0.00     0.000 C 
BRANCH   2   3
ATOM      3  C   UNL     1     -12.732   0.065   3.571  1.00  0.00     0.000 C 
BRANCH   3   4
ATOM      4  C   UNL     1     -13.184  -1.395   3.749  1.00  0.00     0.000 C 
BRANCH   4   5
ATOM      5  C   UNL     1     -13.011  -1.916   5.192  1.00  0.00     0.000 C 
BRANCH   5   6
ATOM      6  C   UNL     1     -13.303  -3.423   5.302  1.00  0.00     0.000 C 
BRANCH   6   7
ATOM      7  C   UNL     1     -13.871  -4.018   4.005  1.00  0.00     0.006 C 
BRANCH   7   8
ATOM      8  C   UNL     1     -13.135  -5.295   3.568  1.00  0.00     0.053 C 
BRANCH   8   9
ATOM      9  C   UNL     1     -14.108  -6.410   3.348  1.00  0.00     0.041 C 
ATOM     10  O   UNL     1     -14.066  -7.441   4.072  1.00  0.00    -0.550 OA
ATOM     11  O   UNL     1     -15.101  -6.285   2.385  1.00  0.00    -0.550 OA
ENDBRANCH   8   9
ENDBRANCH   7   8
ENDBRANCH   6   7
ENDBRANCH   5   6
ENDBRANCH   4   5
ENDBRANCH   3   4
ENDBRANCH   2   3
ENDBRANCH   1   2
BRANCH   1  12
ATOM     12  C   UNL     1     -10.157   0.787   2.701  1.00  0.00     0.000 C 
BRANCH  12  13
ATOM     13  C   UNL     1      -8.720   0.296   2.426  1.00  0.00    -0.000 C 
BRANCH  13  14
ATOM     14  C   UNL     1      -8.517  -1.223   2.570  1.00  0.00    -0.000 C 
BRANCH  14  15
ATOM     15  C   UNL     1      -9.779  -2.029   2.216  1.00  0.00    -0.000 C 
BRANCH  15  16
ATOM     16  C   UNL     1     -10.047  -3.169   3.210  1.00  0.00    -0.000 C 
BRANCH  16  17
ATOM     17  C   UNL     1      -9.009  -3.218   4.344  1.00  0.00    -0.000 C 
BRANCH  17  18
ATOM     18  C   UNL     1      -9.626  -3.625   5.691  1.00  0.00    -0.000 C 
BRANCH  18  19
ATOM     19  C   UNL     1      -9.140  -5.001   6.171  1.00  0.00    -0.003 C 
ATOM     20  C   UNL     1      -9.586  -6.104   5.217  1.00  0.00     0.004 C 
ENDBRANCH  18  19
ENDBRANCH  17  18
ENDBRANCH  16  17
ENDBRANCH  15  16
ENDBRANCH  14  15
ENDBRANCH  13  14
ENDBRANCH  12  13
ENDBRANCH   1  12
TORSDOF 16
ENDMDL
MODEL 7
REMARK VINA RESULT:    -3.982      1.279      5.135
REMARK INTER + INTRA:         -10.587
REMARK INTER:                  -8.060
REMARK INTRA:                  -2.527
REMARK UNBOUND:                -2.881
REMARK SMILES CCCCCCCCCCCCCCCCCC(=O)[O-]
REMARK SMILES IDX 10 1 11 2 12 3 13 4 14 5 15 6 16 7 17 8 18 9 19 10 20 11
REMARK SMILES IDX 9 12 8 13 7 14 6 15 5 16 4 17 3 18 2 19 1 20
REMARK H PARENT
REMARK Flexibility Score: inf
ROOT
ATOM      1  C   UNL     1      -9.550  -2.548   2.773  1.00  0.00     0.000 C 
ENDROOT
BRANCH   1   2
ATOM      2  C   UNL     1      -8.592  -1.355   2.929  1.00  0.00     0.000 C 
BRANCH   2   3
ATOM      3  C   UNL     1      -9.033  -0.122   2.124  1.00  0.00     0.000 C 
BRANCH   3   4
ATOM      4  C   UNL     1     -10.413   0.406   2.554  1.00  0.00     0.000 C 
BRANCH   4   5
ATOM      5  C   UNL     1     -10.485   0.776   4.051  1.00  0.00     0.000 C 
BRANCH   5   6
ATOM      6  C   UNL     1     -11.501  -0.094   4.813  1.00  0.00     0.000 C 
BRANCH   6   7
ATOM      7  C   UNL     1     -12.452  -0.858   3.881  1.00  0.00     0.006 C 
BRANCH   7   8
ATOM      8  C   UNL     1     -13.932  -0.574   4.182  1.00  0.00     0.053 C 
BRANCH   8   9
ATOM      9  C   UNL     1     -14.238   0.877   3.982  1.00  0.00     0.041 C 
ATOM     10  O   UNL     1     -14.683   1.569   4.936  1.00  0.00    -0.550 OA
ATOM     11  O   UNL     1     -13.971   1.480   2.758  1.00  0.00    -0.550 OA
ENDBRANCH   8   9
ENDBRANCH   7   8
ENDBRANCH   6   7
ENDBRANCH   5   6
ENDBRANCH   4   5
ENDBRANCH   3   4
ENDBRANCH   2   3
ENDBRANCH   1   2
BRANCH   1  12
ATOM     12  C   UNL     1      -9.308  -3.709   3.761  1.00  0.00     0.000 C 
BRANCH  12  13
ATOM     13  C   UNL     1      -9.358  -3.325   5.255  1.00  0.00    -0.000 C 
BRANCH  13  14
ATOM     14  C   UNL     1      -8.486  -4.196   6.177  1.00  0.00    -0.000 C 
BRANCH  14  15
ATOM     15  C   UNL     1      -9.250  -5.402   6.753  1.00  0.00    -0.000 C 
BRANCH  15  16
ATOM     16  C   UNL     1      -8.984  -6.696   5.968  1.00  0.00    -0.000 C 
BRANCH  16  17
ATOM     17  C   UNL     1     -10.175  -7.104   5.084  1.00  0.00    -0.000 C 
BRANCH  17  18
ATOM     18  C   UNL     1     -11.494  -6.460   5.539  1.00  0.00    -0.000 C 
BRANCH  18  19
ATOM     19  C   UNL     1     -12.272  -5.824   4.377  1.00  0.00    -0.003 C 
ATOM     20  C   UNL     1     -12.867  -4.480   4.785  1.00  0.00     0.004 C 
ENDBRANCH  18  19
ENDBRANCH  17  18
ENDBRANCH  16  17
ENDBRANCH  15  16
ENDBRANCH  14  15
ENDBRANCH  13  14
ENDBRANCH  12  13
ENDBRANCH   1  12
TORSDOF 16
ENDMDL
MODEL 8
REMARK VINA RESULT:    -3.962      1.850      3.349
REMARK INTER + INTRA:         -10.549
REMARK INTER:                  -8.045
REMARK INTRA:                  -2.504
REMARK UNBOUND:                -2.881
REMARK SMILES CCCCCCCCCCCCCCCCCC(=O)[O-]
REMARK SMILES IDX 10 1 11 2 12 3 13 4 14 5 15 6 16 7 17 8 18 9 19 10 20 11
REMARK SMILES IDX 9 12 8 13 7 14 6 15 5 16 4 17 3 18 2 19 1 20
REMARK H PARENT
REMARK Flexibility Score: inf
ROOT
ATOM      1  C   UNL     1     -11.792  -6.106   5.574  1.00  0.00     0.000 C 
ENDROOT
BRANCH   1   2
ATOM      2  C   UNL     1     -12.535  -5.761   4.273  1.00  0.00     0.000 C 
BRANCH   2   3
ATOM      3  C   UNL     1     -12.688  -4.247   4.052  1.00  0.00     0.000 C 
BRANCH   3   4
ATOM      4  C   UNL     1     -12.842  -3.467   5.369  1.00  0.00     0.000 C 
BRANCH   4   5
ATOM      5  C   UNL     1     -12.225  -2.053   5.318  1.00  0.00     0.000 C 
BRANCH   5   6
ATOM      6  C   UNL     1     -12.832  -1.197   4.192  1.00  0.00     0.000 C 
BRANCH   6   7
ATOM      7  C   UNL     1     -12.473   0.291   4.313  1.00  0.00     0.006 C 
BRANCH   7   8
ATOM      8  C   UNL     1     -12.789   1.083   3.034  1.00  0.00     0.053 C 
BRANCH   8   9
ATOM      9  C   UNL     1     -12.283   2.486   3.149  1.00  0.00     0.041 C 
ATOM     10  O   UNL     1     -13.085   3.456   3.087  1.00  0.00    -0.550 OA
ATOM     11  O   UNL     1     -10.935   2.721   3.388  1.00  0.00    -0.550 OA
ENDBRANCH   8   9
ENDBRANCH   7   8
ENDBRANCH   6   7
ENDBRANCH   5   6
ENDBRANCH   4   5
ENDBRANCH   3   4
ENDBRANCH   2   3
ENDBRANCH   1   2
BRANCH   1  12
ATOM     12  C   UNL     1     -10.259  -6.220   5.435  1.00  0.00     0.000 C 
BRANCH  12  13
ATOM     13  C   UNL     1      -9.442  -5.366   6.427  1.00  0.00    -0.000 C 
BRANCH  13  14
ATOM     14  C   UNL     1      -8.874  -4.061   5.842  1.00  0.00    -0.000 C 
BRANCH  14  15
ATOM     15  C   UNL     1      -8.986  -3.998   4.308  1.00  0.00    -0.000 C 
BRANCH  15  16
ATOM     16  C   UNL     1      -8.898  -2.561   3.770  1.00  0.00    -0.000 C 
BRANCH  16  17
ATOM     17  C   UNL     1      -9.737  -2.357   2.496  1.00  0.00    -0.000 C 
BRANCH  17  18
ATOM     18  C   UNL     1      -9.810  -0.882   2.069  1.00  0.00    -0.000 C 
BRANCH  18  19
ATOM     19  C   UNL     1      -8.698  -0.030   2.701  1.00  0.00    -0.003 C 
ATOM     20  C   UNL     1      -7.416  -0.101   1.876  1.00  0.00     0.004 C 
ENDBRANCH  18  19
ENDBRANCH  17  18
ENDBRANCH  16  17
ENDBRANCH  15  16
ENDBRANCH  14  15
ENDBRANCH  13  14
ENDBRANCH  12  13
ENDBRANCH   1  12
TORSDOF 16
ENDMDL
MODEL 9
REMARK VINA RESULT:    -3.881      1.104      4.744
REMARK INTER + INTRA:         -10.393
REMARK INTER:                  -7.738
REMARK INTRA:                  -2.655
REMARK UNBOUND:                -2.881
REMARK SMILES CCCCCCCCCCCCCCCCCC(=O)[O-]
REMARK SMILES IDX 10 1 11 2 12 3 13 4 14 5 15 6 16 7 17 8 18 9 19 10 20 11
REMARK SMILES IDX 9 12 8 13 7 14 6 15 5 16 4 17 3 18 2 19 1 20
REMARK H PARENT
REMARK Flexibility Score: inf
ROOT
ATOM      1  C   UNL     1      -9.003  -3.795   3.759  1.00  0.00     0.000 C 
ENDROOT
BRANCH   1   2
ATOM      2  C   UNL     1     -10.158  -3.461   2.800  1.00  0.00     0.000 C 
BRANCH   2   3
ATOM      3  C   UNL     1     -10.358  -1.949   2.605  1.00  0.00     0.000 C 
BRANCH   3   4
ATOM      4  C   UNL     1      -9.102  -1.249   2.056  1.00  0.00     0.000 C 
BRANCH   4   5
ATOM      5  C   UNL     1      -8.888   0.164   2.637  1.00  0.00     0.000 C 
BRANCH   5   6
ATOM      6  C   UNL     1     -10.198   0.971   2.694  1.00  0.00     0.000 C 
BRANCH   6   7
ATOM      7  C   UNL     1     -10.536   1.462   4.109  1.00  0.00     0.006 C 
BRANCH   7   8
ATOM      8  C   UNL     1     -11.712   0.697   4.737  1.00  0.00     0.053 C 
BRANCH   8   9
ATOM      9  C   UNL     1     -12.903   0.734   3.832  1.00  0.00     0.041 C 
ATOM     10  O   UNL     1     -13.421  -0.338   3.421  1.00  0.00    -0.550 OA
ATOM     11  O   UNL     1     -13.480   1.953   3.495  1.00  0.00    -0.550 OA
ENDBRANCH   8   9
ENDBRANCH   7   8
ENDBRANCH   6   7
ENDBRANCH   5   6
ENDBRANCH   4   5
ENDBRANCH   3   4
ENDBRANCH   2   3
ENDBRANCH   1   2
BRANCH   1  12
ATOM     12  C   UNL     1      -9.103  -3.133   5.150  1.00  0.00     0.000 C 
BRANCH  12  13
ATOM     13  C   UNL     1      -8.614  -4.001   6.329  1.00  0.00    -0.000 C 
BRANCH  13  14
ATOM     14  C   UNL     1      -8.824  -5.515   6.149  1.00  0.00    -0.000 C 
BRANCH  14  15
ATOM     15  C   UNL     1     -10.237  -5.972   6.553  1.00  0.00    -0.000 C 
BRANCH  15  16
ATOM     16  C   UNL     1     -11.036  -6.532   5.366  1.00  0.00    -0.000 C 
BRANCH  16  17
ATOM     17  C   UNL     1     -12.174  -5.593   4.928  1.00  0.00    -0.000 C 
BRANCH  17  18
ATOM     18  C   UNL     1     -12.537  -4.563   6.009  1.00  0.00    -0.000 C 
BRANCH  18  19
ATOM     19  C   UNL     1     -12.704  -3.146   5.440  1.00  0.00    -0.003 C 
ATOM     20  C   UNL     1     -13.322  -2.209   6.473  1.00  0.00     0.004 C 
ENDBRANCH  18  19
ENDBRANCH  17  18
ENDBRANCH  16  17
ENDBRANCH  15  16
ENDBRANCH  14  15
ENDBRANCH  13  14
ENDBRANCH  12  13
ENDBRANCH   1  12
TORSDOF 16
ENDMDL
