MODEL 1
REMARK VINA RESULT:    -6.226      0.000      0.000
REMARK INTER + INTRA:          -7.742
REMARK INTER:                  -7.500
REMARK INTRA:                  -0.242
REMARK UNBOUND:                -0.242
REMARK SMILES O=c1c(O)c(-c2ccc(O)cc2O)oc2cc(O)cc(O)c12
REMARK SMILES IDX 5 1 3 2 2 3 1 4 22 5 20 6 19 7 17 8 16 9 15 10 14 11 6 12
REMARK SMILES IDX 8 13 7 14 9 15 11 16 12 17 10 18 13 20 4 22 21 24 18 26
REMARK H PARENT 10 19 13 21 4 23 21 25 18 27
REMARK Flexibility Score: inf
ROOT
ATOM      1  C   UNL     1      61.946  45.880  17.960  1.00  0.00     0.184 A 
ATOM      2  C   UNL     1      63.006  46.569  17.343  1.00  0.00     0.208 A 
ATOM      3  C   UNL     1      63.342  46.250  16.019  1.00  0.00     0.238 A 
ATOM      4  O   UNL     1      64.297  46.854  15.458  1.00  0.00    -0.285 OA
ATOM      5  C   UNL     1      62.603  45.266  15.331  1.00  0.00     0.111 A 
ATOM      6  C   UNL     1      62.874  44.888  13.993  1.00  0.00     0.134 A 
ATOM      7  C   UNL     1      62.087  43.905  13.375  1.00  0.00     0.093 A 
ATOM      8  C   UNL     1      61.034  43.294  14.067  1.00  0.00     0.123 A 
ATOM      9  C   UNL     1      60.764  43.664  15.385  1.00  0.00     0.094 A 
ATOM     10  C   UNL     1      61.537  44.640  16.020  1.00  0.00     0.146 A 
ATOM     11  O   UNL     1      61.260  44.967  17.277  1.00  0.00    -0.451 OA
ENDROOT
BRANCH   1  12
ATOM     12  C   UNL     1      61.548  46.158  19.355  1.00  0.00     0.063 A 
ATOM     13  C   UNL     1      60.856  47.776  21.033  1.00  0.00     0.047 A 
ATOM     14  C   UNL     1      61.241  47.478  19.724  1.00  0.00     0.020 A 
ATOM     15  C   UNL     1      60.758  46.758  21.986  1.00  0.00     0.119 A 
ATOM     16  C   UNL     1      61.039  45.435  21.623  1.00  0.00     0.093 A 
ATOM     17  C   UNL     1      61.421  45.127  20.308  1.00  0.00     0.130 A 
BRANCH  15  18
ATOM     18  O   UNL     1      60.376  47.071  23.289  1.00  0.00    -0.508 OA
ATOM     19  H   UNL     1      60.897  47.739  23.847  1.00  0.00     0.293 HD
ENDBRANCH  15  18
BRANCH  17  20
ATOM     20  O   UNL     1      61.651  43.799  19.946  1.00  0.00    -0.507 OA
ATOM     21  H   UNL     1      61.383  43.441  19.037  1.00  0.00     0.293 HD
ENDBRANCH  17  20
ENDBRANCH   1  12
BRANCH   2  22
ATOM     22  O   UNL     1      63.688  47.571  18.036  1.00  0.00    -0.502 OA
ATOM     23  H   UNL     1      63.639  47.664  19.044  1.00  0.00     0.293 HD
ENDBRANCH   2  22
BRANCH   6  24
ATOM     24  O   UNL     1      63.916  45.479  13.277  1.00  0.00    -0.507 OA
ATOM     25  H   UNL     1      64.556  46.134  13.711  1.00  0.00     0.293 HD
ENDBRANCH   6  24
BRANCH   8  26
ATOM     26  O   UNL     1      60.253  42.320  13.452  1.00  0.00    -0.508 OA
ATOM     27  H   UNL     1      59.708  42.522  12.623  1.00  0.00     0.293 HD
ENDBRANCH   8  26
TORSDOF 6
ENDMDL
MODEL 2
REMARK VINA RESULT:    -6.225      1.565      3.300
REMARK INTER + INTRA:          -7.741
REMARK INTER:                  -7.759
REMARK INTRA:                   0.019
REMARK UNBOUND:                -0.242
REMARK SMILES O=c1c(O)c(-c2ccc(O)cc2O)oc2cc(O)cc(O)c12
REMARK SMILES IDX 5 1 3 2 2 3 1 4 22 5 20 6 19 7 17 8 16 9 15 10 14 11 6 12
REMARK SMILES IDX 8 13 7 14 9 15 11 16 12 17 10 18 13 20 4 22 21 24 18 26
REMARK H PARENT 10 19 13 21 4 23 21 25 18 27
REMARK Flexibility Score: inf
ROOT
ATOM      1  C   UNL     1      61.994  44.590  17.485  1.00  0.00     0.184 A 
ATOM      2  C   UNL     1      61.586  43.282  17.166  1.00  0.00     0.208 A 
ATOM      3  C   UNL     1      61.918  42.758  15.907  1.00  0.00     0.238 A 
ATOM      4  O   UNL     1      61.550  41.590  15.605  1.00  0.00    -0.285 OA
ATOM      5  C   UNL     1      62.665  43.540  15.002  1.00  0.00     0.111 A 
ATOM      6  C   UNL     1      63.043  43.085  13.715  1.00  0.00     0.134 A 
ATOM      7  C   UNL     1      63.793  43.921  12.875  1.00  0.00     0.093 A 
ATOM      8  C   UNL     1      64.174  45.200  13.296  1.00  0.00     0.123 A 
ATOM      9  C   UNL     1      63.802  45.652  14.563  1.00  0.00     0.094 A 
ATOM     10  C   UNL     1      63.053  44.836  15.415  1.00  0.00     0.146 A 
ATOM     11  O   UNL     1      62.709  45.295  16.613  1.00  0.00    -0.451 OA
ENDROOT
BRANCH   1  12
ATOM     12  C   UNL     1      61.668  45.207  18.787  1.00  0.00     0.063 A 
ATOM     13  C   UNL     1      61.428  44.970  21.195  1.00  0.00     0.047 A 
ATOM     14  C   UNL     1      61.725  44.418  19.947  1.00  0.00     0.020 A 
ATOM     15  C   UNL     1      61.086  46.321  21.303  1.00  0.00     0.119 A 
ATOM     16  C   UNL     1      61.049  47.123  20.155  1.00  0.00     0.093 A 
ATOM     17  C   UNL     1      61.351  46.577  18.899  1.00  0.00     0.130 A 
BRANCH  15  18
ATOM     18  O   UNL     1      60.789  46.856  22.554  1.00  0.00    -0.508 OA
ATOM     19  H   UNL     1      61.436  46.776  23.331  1.00  0.00     0.293 HD
ENDBRANCH  15  18
BRANCH  17  20
ATOM     20  O   UNL     1      61.359  47.397  17.770  1.00  0.00    -0.507 OA
ATOM     21  H   UNL     1      60.548  47.482  17.168  1.00  0.00     0.293 HD
ENDBRANCH  17  20
ENDBRANCH   1  12
BRANCH   2  22
ATOM     22  O   UNL     1      60.888  42.517  18.102  1.00  0.00    -0.502 OA
ATOM     23  H   UNL     1      60.472  42.922  18.932  1.00  0.00     0.293 HD
ENDBRANCH   2  22
BRANCH   6  24
ATOM     24  O   UNL     1      62.680  41.814  13.267  1.00  0.00    -0.507 OA
ATOM     25  H   UNL     1      62.581  41.033  13.905  1.00  0.00     0.293 HD
ENDBRANCH   6  24
BRANCH   8  26
ATOM     26  O   UNL     1      64.920  46.029  12.462  1.00  0.00    -0.508 OA
ATOM     27  H   UNL     1      64.914  47.035  12.571  1.00  0.00     0.293 HD
ENDBRANCH   8  26
TORSDOF 6
ENDMDL
MODEL 3
REMARK VINA RESULT:    -6.177      1.745      3.067
REMARK INTER + INTRA:          -7.683
REMARK INTER:                  -7.545
REMARK INTRA:                  -0.138
REMARK UNBOUND:                -0.242
REMARK SMILES O=c1c(O)c(-c2ccc(O)cc2O)oc2cc(O)cc(O)c12
REMARK SMILES IDX 5 1 3 2 2 3 1 4 22 5 20 6 19 7 17 8 16 9 15 10 14 11 6 12
REMARK SMILES IDX 8 13 7 14 9 15 11 16 12 17 10 18 13 20 4 22 21 24 18 26
REMARK H PARENT 10 19 13 21 4 23 21 25 18 27
REMARK Flexibility Score: inf
ROOT
ATOM      1  C   UNL     1      61.729  45.078  17.260  1.00  0.00     0.184 A 
ATOM      2  C   UNL     1      61.387  43.724  17.429  1.00  0.00     0.208 A 
ATOM      3  C   UNL     1      61.693  42.816  16.404  1.00  0.00     0.238 A 
ATOM      4  O   UNL     1      61.383  41.601  16.538  1.00  0.00    -0.285 OA
ATOM      5  C   UNL     1      62.351  43.272  15.242  1.00  0.00     0.111 A 
ATOM      6  C   UNL     1      62.698  42.421  14.165  1.00  0.00     0.134 A 
ATOM      7  C   UNL     1      63.359  42.950  13.046  1.00  0.00     0.093 A 
ATOM      8  C   UNL     1      63.681  44.311  12.986  1.00  0.00     0.123 A 
ATOM      9  C   UNL     1      63.339  45.153  14.045  1.00  0.00     0.094 A 
ATOM     10  C   UNL     1      62.679  44.646  15.168  1.00  0.00     0.146 A 
ATOM     11  O   UNL     1      62.362  45.471  16.159  1.00  0.00    -0.451 OA
ENDROOT
BRANCH   1  12
ATOM     12  C   UNL     1      61.425  46.088  18.294  1.00  0.00     0.063 A 
ATOM     13  C   UNL     1      60.255  48.123  18.929  1.00  0.00     0.047 A 
ATOM     14  C   UNL     1      60.568  47.153  17.974  1.00  0.00     0.020 A 
ATOM     15  C   UNL     1      60.781  48.033  20.220  1.00  0.00     0.119 A 
ATOM     16  C   UNL     1      61.619  46.963  20.557  1.00  0.00     0.093 A 
ATOM     17  C   UNL     1      61.933  45.981  19.605  1.00  0.00     0.130 A 
BRANCH  15  18
ATOM     18  O   UNL     1      60.463  49.010  21.161  1.00  0.00    -0.508 OA
ATOM     19  H   UNL     1      60.928  49.050  22.061  1.00  0.00     0.293 HD
ENDBRANCH  15  18
BRANCH  17  20
ATOM     20  O   UNL     1      62.729  44.894  19.967  1.00  0.00    -0.507 OA
ATOM     21  H   UNL     1      63.197  44.852  20.865  1.00  0.00     0.293 HD
ENDBRANCH  17  20
ENDBRANCH   1  12
BRANCH   2  22
ATOM     22  O   UNL     1      60.778  43.296  18.610  1.00  0.00    -0.502 OA
ATOM     23  H   UNL     1      61.298  43.151  19.467  1.00  0.00     0.293 HD
ENDBRANCH   2  22
BRANCH   6  24
ATOM     24  O   UNL     1      62.392  41.060  14.197  1.00  0.00    -0.507 OA
ATOM     25  H   UNL     1      61.826  40.624  13.478  1.00  0.00     0.293 HD
ENDBRANCH   6  24
BRANCH   8  26
ATOM     26  O   UNL     1      64.339  44.835  11.876  1.00  0.00    -0.508 OA
ATOM     27  H   UNL     1      64.123  45.758  11.517  1.00  0.00     0.293 HD
ENDBRANCH   8  26
TORSDOF 6
ENDMDL
MODEL 4
REMARK VINA RESULT:    -6.014      2.378      6.527
REMARK INTER + INTRA:          -7.486
REMARK INTER:                  -7.438
REMARK INTRA:                  -0.048
REMARK UNBOUND:                -0.242
REMARK SMILES O=c1c(O)c(-c2ccc(O)cc2O)oc2cc(O)cc(O)c12
REMARK SMILES IDX 5 1 3 2 2 3 1 4 22 5 20 6 19 7 17 8 16 9 15 10 14 11 6 12
REMARK SMILES IDX 8 13 7 14 9 15 11 16 12 17 10 18 13 20 4 22 21 24 18 26
REMARK H PARENT 10 19 13 21 4 23 21 25 18 27
REMARK Flexibility Score: inf
ROOT
ATOM      1  C   UNL     1      61.066  45.308  16.152  1.00  0.00     0.184 A 
ATOM      2  C   UNL     1      60.146  46.184  15.547  1.00  0.00     0.208 A 
ATOM      3  C   UNL     1      59.708  47.307  16.265  1.00  0.00     0.238 A 
ATOM      4  O   UNL     1      58.875  48.094  15.739  1.00  0.00    -0.285 OA
ATOM      5  C   UNL     1      60.211  47.545  17.561  1.00  0.00     0.111 A 
ATOM      6  C   UNL     1      59.824  48.655  18.350  1.00  0.00     0.134 A 
ATOM      7  C   UNL     1      60.377  48.827  19.628  1.00  0.00     0.093 A 
ATOM      8  C   UNL     1      61.309  47.911  20.131  1.00  0.00     0.123 A 
ATOM      9  C   UNL     1      61.692  46.815  19.356  1.00  0.00     0.094 A 
ATOM     10  C   UNL     1      61.153  46.625  18.081  1.00  0.00     0.146 A 
ATOM     11  O   UNL     1      61.532  45.570  17.369  1.00  0.00    -0.451 OA
ENDROOT
BRANCH   1  12
ATOM     12  C   UNL     1      61.559  44.101  15.456  1.00  0.00     0.063 A 
ATOM     13  C   UNL     1      62.380  43.073  13.411  1.00  0.00     0.047 A 
ATOM     14  C   UNL     1      61.905  44.193  14.099  1.00  0.00     0.020 A 
ATOM     15  C   UNL     1      62.529  41.852  14.075  1.00  0.00     0.119 A 
ATOM     16  C   UNL     1      62.209  41.756  15.435  1.00  0.00     0.093 A 
ATOM     17  C   UNL     1      61.737  42.878  16.134  1.00  0.00     0.130 A 
BRANCH  15  18
ATOM     18  O   UNL     1      63.000  40.743  13.376  1.00  0.00    -0.508 OA
ATOM     19  H   UNL     1      63.743  40.161  13.745  1.00  0.00     0.293 HD
ENDBRANCH  15  18
BRANCH  17  20
ATOM     20  O   UNL     1      61.468  42.782  17.499  1.00  0.00    -0.507 OA
ATOM     21  H   UNL     1      60.734  42.181  17.856  1.00  0.00     0.293 HD
ENDBRANCH  17  20
ENDBRANCH   1  12
BRANCH   2  22
ATOM     22  O   UNL     1      59.702  45.945  14.245  1.00  0.00    -0.502 OA
ATOM     23  H   UNL     1      60.338  45.859  13.462  1.00  0.00     0.293 HD
ENDBRANCH   2  22
BRANCH   6  24
ATOM     24  O   UNL     1      58.898  49.585  17.876  1.00  0.00    -0.507 OA
ATOM     25  H   UNL     1      57.942  49.605  18.213  1.00  0.00     0.293 HD
ENDBRANCH   6  24
BRANCH   8  26
ATOM     26  O   UNL     1      61.859  48.083  21.399  1.00  0.00    -0.508 OA
ATOM     27  H   UNL     1      62.853  48.220  21.533  1.00  0.00     0.293 HD
ENDBRANCH   8  26
TORSDOF 6
ENDMDL
MODEL 5
REMARK VINA RESULT:    -5.924      2.700      5.928
REMARK INTER + INTRA:          -7.379
REMARK INTER:                  -6.969
REMARK INTRA:                  -0.409
REMARK UNBOUND:                -0.242
REMARK SMILES O=c1c(O)c(-c2ccc(O)cc2O)oc2cc(O)cc(O)c12
REMARK SMILES IDX 5 1 3 2 2 3 1 4 22 5 20 6 19 7 17 8 16 9 15 10 14 11 6 12
REMARK SMILES IDX 8 13 7 14 9 15 11 16 12 17 10 18 13 20 4 22 21 24 18 26
REMARK H PARENT 10 19 13 21 4 23 21 25 18 27
REMARK Flexibility Score: inf
ROOT
ATOM      1  C   UNL     1      63.864  45.974  15.249  1.00  0.00     0.184 A 
ATOM      2  C   UNL     1      62.992  45.951  14.146  1.00  0.00     0.208 A 
ATOM      3  C   UNL     1      61.724  45.370  14.296  1.00  0.00     0.238 A 
ATOM      4  O   UNL     1      60.937  45.333  13.312  1.00  0.00    -0.285 OA
ATOM      5  C   UNL     1      61.344  44.842  15.548  1.00  0.00     0.111 A 
ATOM      6  C   UNL     1      60.083  44.243  15.785  1.00  0.00     0.134 A 
ATOM      7  C   UNL     1      59.777  43.749  17.062  1.00  0.00     0.093 A 
ATOM      8  C   UNL     1      60.706  43.844  18.105  1.00  0.00     0.123 A 
ATOM      9  C   UNL     1      61.950  44.433  17.875  1.00  0.00     0.094 A 
ATOM     10  C   UNL     1      62.275  44.930  16.610  1.00  0.00     0.146 A 
ATOM     11  O   UNL     1      63.468  45.481  16.419  1.00  0.00    -0.451 OA
ENDROOT
BRANCH   1  12
ATOM     12  C   UNL     1      65.217  46.559  15.156  1.00  0.00     0.063 A 
ATOM     13  C   UNL     1      66.654  48.511  15.357  1.00  0.00     0.047 A 
ATOM     14  C   UNL     1      65.387  47.926  15.431  1.00  0.00     0.020 A 
ATOM     15  C   UNL     1      67.768  47.736  15.023  1.00  0.00     0.119 A 
ATOM     16  C   UNL     1      67.613  46.368  14.769  1.00  0.00     0.093 A 
ATOM     17  C   UNL     1      66.345  45.771  14.847  1.00  0.00     0.130 A 
BRANCH  15  18
ATOM     18  O   UNL     1      69.024  48.335  14.949  1.00  0.00    -0.508 OA
ATOM     19  H   UNL     1      69.261  48.977  14.202  1.00  0.00     0.293 HD
ENDBRANCH  15  18
BRANCH  17  20
ATOM     20  O   UNL     1      66.211  44.398  14.640  1.00  0.00    -0.507 OA
ATOM     21  H   UNL     1      65.390  44.004  14.196  1.00  0.00     0.293 HD
ENDBRANCH  17  20
ENDBRANCH   1  12
BRANCH   2  22
ATOM     22  O   UNL     1      63.381  46.522  12.932  1.00  0.00    -0.502 OA
ATOM     23  H   UNL     1      63.113  47.461  12.664  1.00  0.00     0.293 HD
ENDBRANCH   2  22
BRANCH   6  24
ATOM     24  O   UNL     1      59.136  44.135  14.766  1.00  0.00    -0.507 OA
ATOM     25  H   UNL     1      58.141  44.154  14.958  1.00  0.00     0.293 HD
ENDBRANCH   6  24
BRANCH   8  26
ATOM     26  O   UNL     1      60.400  43.355  19.373  1.00  0.00    -0.508 OA
ATOM     27  H   UNL     1      59.637  42.706  19.522  1.00  0.00     0.293 HD
ENDBRANCH   8  26
TORSDOF 6
ENDMDL
MODEL 6
REMARK VINA RESULT:    -5.797      3.411      5.967
REMARK INTER + INTRA:          -7.226
REMARK INTER:                  -7.073
REMARK INTRA:                  -0.153
REMARK UNBOUND:                -0.242
REMARK SMILES O=c1c(O)c(-c2ccc(O)cc2O)oc2cc(O)cc(O)c12
REMARK SMILES IDX 5 1 3 2 2 3 1 4 22 5 20 6 19 7 17 8 16 9 15 10 14 11 6 12
REMARK SMILES IDX 8 13 7 14 9 15 11 16 12 17 10 18 13 20 4 22 21 24 18 26
REMARK H PARENT 10 19 13 21 4 23 21 25 18 27
REMARK Flexibility Score: inf
ROOT
ATOM      1  C   UNL     1      64.235  45.551  14.441  1.00  0.00     0.184 A 
ATOM      2  C   UNL     1      64.153  44.650  13.364  1.00  0.00     0.208 A 
ATOM      3  C   UNL     1      62.993  43.874  13.216  1.00  0.00     0.238 A 
ATOM      4  O   UNL     1      62.912  43.055  12.261  1.00  0.00    -0.285 OA
ATOM      5  C   UNL     1      61.932  44.026  14.133  1.00  0.00     0.111 A 
ATOM      6  C   UNL     1      60.728  43.285  14.053  1.00  0.00     0.134 A 
ATOM      7  C   UNL     1      59.715  43.501  14.999  1.00  0.00     0.093 A 
ATOM      8  C   UNL     1      59.882  44.443  16.022  1.00  0.00     0.123 A 
ATOM      9  C   UNL     1      61.068  45.174  16.104  1.00  0.00     0.094 A 
ATOM     10  C   UNL     1      62.090  44.974  15.172  1.00  0.00     0.146 A 
ATOM     11  O   UNL     1      63.210  45.680  15.279  1.00  0.00    -0.451 OA
ENDROOT
BRANCH   1  12
ATOM     12  C   UNL     1      65.431  46.389  14.662  1.00  0.00     0.063 A 
ATOM     13  C   UNL     1      66.389  48.604  14.955  1.00  0.00     0.047 A 
ATOM     14  C   UNL     1      65.280  47.782  14.742  1.00  0.00     0.020 A 
ATOM     15  C   UNL     1      67.661  48.044  15.106  1.00  0.00     0.119 A 
ATOM     16  C   UNL     1      67.819  46.654  15.051  1.00  0.00     0.093 A 
ATOM     17  C   UNL     1      66.709  45.821  14.843  1.00  0.00     0.130 A 
BRANCH  15  18
ATOM     18  O   UNL     1      68.758  48.877  15.314  1.00  0.00    -0.508 OA
ATOM     19  H   UNL     1      68.992  49.617  14.661  1.00  0.00     0.293 HD
ENDBRANCH  15  18
BRANCH  17  20
ATOM     20  O   UNL     1      66.873  44.435  14.839  1.00  0.00    -0.507 OA
ATOM     21  H   UNL     1      66.400  43.845  14.165  1.00  0.00     0.293 HD
ENDBRANCH  17  20
ENDBRANCH   1  12
BRANCH   2  22
ATOM     22  O   UNL     1      65.202  44.556  12.447  1.00  0.00    -0.502 OA
ATOM     23  H   UNL     1      65.752  45.359  12.168  1.00  0.00     0.293 HD
ENDBRANCH   2  22
BRANCH   6  24
ATOM     24  O   UNL     1      60.532  42.341  13.045  1.00  0.00    -0.507 OA
ATOM     25  H   UNL     1      59.608  41.992  12.814  1.00  0.00     0.293 HD
ENDBRANCH   6  24
BRANCH   8  26
ATOM     26  O   UNL     1      58.876  44.657  16.960  1.00  0.00    -0.508 OA
ATOM     27  H   UNL     1      58.171  43.955  17.152  1.00  0.00     0.293 HD
ENDBRANCH   8  26
TORSDOF 6
ENDMDL
MODEL 7
REMARK VINA RESULT:    -5.681      1.514      1.806
REMARK INTER + INTRA:          -7.085
REMARK INTER:                  -6.680
REMARK INTRA:                  -0.405
REMARK UNBOUND:                -0.242
REMARK SMILES O=c1c(O)c(-c2ccc(O)cc2O)oc2cc(O)cc(O)c12
REMARK SMILES IDX 5 1 3 2 2 3 1 4 22 5 20 6 19 7 17 8 16 9 15 10 14 11 6 12
REMARK SMILES IDX 8 13 7 14 9 15 11 16 12 17 10 18 13 20 4 22 21 24 18 26
REMARK H PARENT 10 19 13 21 4 23 21 25 18 27
REMARK Flexibility Score: inf
ROOT
ATOM      1  C   UNL     1      62.106  46.484  16.807  1.00  0.00     0.184 A 
ATOM      2  C   UNL     1      63.401  46.709  16.307  1.00  0.00     0.208 A 
ATOM      3  C   UNL     1      63.877  45.892  15.270  1.00  0.00     0.238 A 
ATOM      4  O   UNL     1      65.040  46.076  14.819  1.00  0.00    -0.285 OA
ATOM      5  C   UNL     1      63.046  44.882  14.741  1.00  0.00     0.111 A 
ATOM      6  C   UNL     1      63.448  44.019  13.693  1.00  0.00     0.134 A 
ATOM      7  C   UNL     1      62.559  43.044  13.216  1.00  0.00     0.093 A 
ATOM      8  C   UNL     1      61.277  42.917  13.764  1.00  0.00     0.123 A 
ATOM      9  C   UNL     1      60.878  43.766  14.797  1.00  0.00     0.094 A 
ATOM     10  C   UNL     1      61.748  44.743  15.289  1.00  0.00     0.146 A 
ATOM     11  O   UNL     1      61.343  45.533  16.276  1.00  0.00    -0.451 OA
ENDROOT
BRANCH   1  12
ATOM     12  C   UNL     1      61.547  47.300  17.906  1.00  0.00     0.063 A 
ATOM     13  C   UNL     1      60.140  49.155  18.606  1.00  0.00     0.047 A 
ATOM     14  C   UNL     1      60.690  48.367  17.592  1.00  0.00     0.020 A 
ATOM     15  C   UNL     1      60.427  48.878  19.945  1.00  0.00     0.119 A 
ATOM     16  C   UNL     1      61.262  47.802  20.270  1.00  0.00     0.093 A 
ATOM     17  C   UNL     1      61.814  47.002  19.258  1.00  0.00     0.130 A 
BRANCH  15  18
ATOM     18  O   UNL     1      59.874  49.675  20.945  1.00  0.00    -0.508 OA
ATOM     19  H   UNL     1      60.269  50.580  21.180  1.00  0.00     0.293 HD
ENDBRANCH  15  18
BRANCH  17  20
ATOM     20  O   UNL     1      62.604  45.903  19.596  1.00  0.00    -0.507 OA
ATOM     21  H   UNL     1      62.204  45.058  19.986  1.00  0.00     0.293 HD
ENDBRANCH  17  20
ENDBRANCH   1  12
BRANCH   2  22
ATOM     22  O   UNL     1      64.182  47.746  16.820  1.00  0.00    -0.502 OA
ATOM     23  H   UNL     1      64.150  48.017  17.796  1.00  0.00     0.293 HD
ENDBRANCH   2  22
BRANCH   6  24
ATOM     24  O   UNL     1      64.719  44.121  13.126  1.00  0.00    -0.507 OA
ATOM     25  H   UNL     1      65.316  43.311  13.007  1.00  0.00     0.293 HD
ENDBRANCH   6  24
BRANCH   8  26
ATOM     26  O   UNL     1      60.395  41.950  13.289  1.00  0.00    -0.508 OA
ATOM     27  H   UNL     1      60.561  40.962  13.436  1.00  0.00     0.293 HD
ENDBRANCH   8  26
TORSDOF 6
ENDMDL
MODEL 8
REMARK VINA RESULT:    -5.599      2.237      3.843
REMARK INTER + INTRA:          -6.987
REMARK INTER:                  -6.684
REMARK INTRA:                  -0.303
REMARK UNBOUND:                -0.242
REMARK SMILES O=c1c(O)c(-c2ccc(O)cc2O)oc2cc(O)cc(O)c12
REMARK SMILES IDX 5 1 3 2 2 3 1 4 22 5 20 6 19 7 17 8 16 9 15 10 14 11 6 12
REMARK SMILES IDX 8 13 7 14 9 15 11 16 12 17 10 18 13 20 4 22 21 24 18 26
REMARK H PARENT 10 19 13 21 4 23 21 25 18 27
REMARK Flexibility Score: inf
ROOT
ATOM      1  C   UNL     1      61.171  46.253  16.448  1.00  0.00     0.184 A 
ATOM      2  C   UNL     1      60.236  45.439  15.784  1.00  0.00     0.208 A 
ATOM      3  C   UNL     1      60.701  44.496  14.854  1.00  0.00     0.238 A 
ATOM      4  O   UNL     1      59.872  43.766  14.243  1.00  0.00    -0.285 OA
ATOM      5  C   UNL     1      62.086  44.372  14.620  1.00  0.00     0.111 A 
ATOM      6  C   UNL     1      62.636  43.444  13.702  1.00  0.00     0.134 A 
ATOM      7  C   UNL     1      64.027  43.376  13.533  1.00  0.00     0.093 A 
ATOM      8  C   UNL     1      64.877  44.215  14.264  1.00  0.00     0.123 A 
ATOM      9  C   UNL     1      64.338  45.130  15.169  1.00  0.00     0.094 A 
ATOM     10  C   UNL     1      62.956  45.215  15.351  1.00  0.00     0.146 A 
ATOM     11  O   UNL     1      62.471  46.100  16.215  1.00  0.00    -0.451 OA
ENDROOT
BRANCH   1  12
ATOM     12  C   UNL     1      60.749  47.273  17.430  1.00  0.00     0.063 A 
ATOM     13  C   UNL     1      60.744  48.066  19.729  1.00  0.00     0.047 A 
ATOM     14  C   UNL     1      61.121  47.117  18.775  1.00  0.00     0.020 A 
ATOM     15  C   UNL     1      60.004  49.189  19.350  1.00  0.00     0.119 A 
ATOM     16  C   UNL     1      59.648  49.366  18.007  1.00  0.00     0.093 A 
ATOM     17  C   UNL     1      60.028  48.421  17.042  1.00  0.00     0.130 A 
BRANCH  15  18
ATOM     18  O   UNL     1      59.632  50.124  20.313  1.00  0.00    -0.508 OA
ATOM     19  H   UNL     1      59.071  50.934  20.075  1.00  0.00     0.293 HD
ENDBRANCH  15  18
BRANCH  17  20
ATOM     20  O   UNL     1      59.709  48.634  15.700  1.00  0.00    -0.507 OA
ATOM     21  H   UNL     1      58.997  48.089  15.229  1.00  0.00     0.293 HD
ENDBRANCH  17  20
ENDBRANCH   1  12
BRANCH   2  22
ATOM     22  O   UNL     1      58.875  45.554  16.070  1.00  0.00    -0.502 OA
ATOM     23  H   UNL     1      58.389  44.898  16.670  1.00  0.00     0.293 HD
ENDBRANCH   2  22
BRANCH   6  24
ATOM     24  O   UNL     1      61.815  42.595  12.960  1.00  0.00    -0.507 OA
ATOM     25  H   UNL     1      62.193  41.822  12.424  1.00  0.00     0.293 HD
ENDBRANCH   6  24
BRANCH   8  26
ATOM     26  O   UNL     1      66.258  44.145  14.096  1.00  0.00    -0.508 OA
ATOM     27  H   UNL     1      66.894  44.614  14.728  1.00  0.00     0.293 HD
ENDBRANCH   8  26
TORSDOF 6
ENDMDL
MODEL 9
REMARK VINA RESULT:    -4.394      1.605      6.492
REMARK INTER + INTRA:          -5.535
REMARK INTER:                  -5.133
REMARK INTRA:                  -0.402
REMARK UNBOUND:                -0.242
REMARK SMILES O=c1c(O)c(-c2ccc(O)cc2O)oc2cc(O)cc(O)c12
REMARK SMILES IDX 5 1 3 2 2 3 1 4 22 5 20 6 19 7 17 8 16 9 15 10 14 11 6 12
REMARK SMILES IDX 8 13 7 14 9 15 11 16 12 17 10 18 13 20 4 22 21 24 18 26
REMARK H PARENT 10 19 13 21 4 23 21 25 18 27
REMARK Flexibility Score: inf
ROOT
ATOM      1  C   UNL     1      62.010  45.371  16.750  1.00  0.00     0.184 A 
ATOM      2  C   UNL     1      62.069  46.774  16.832  1.00  0.00     0.208 A 
ATOM      3  C   UNL     1      61.823  47.391  18.068  1.00  0.00     0.238 A 
ATOM      4  O   UNL     1      61.862  48.648  18.152  1.00  0.00    -0.285 OA
ATOM      5  C   UNL     1      61.545  46.596  19.200  1.00  0.00     0.111 A 
ATOM      6  C   UNL     1      61.290  47.139  20.483  1.00  0.00     0.134 A 
ATOM      7  C   UNL     1      61.029  46.280  21.561  1.00  0.00     0.093 A 
ATOM      8  C   UNL     1      61.020  44.892  21.382  1.00  0.00     0.123 A 
ATOM      9  C   UNL     1      61.270  44.354  20.119  1.00  0.00     0.094 A 
ATOM     10  C   UNL     1      61.531  45.191  19.031  1.00  0.00     0.146 A 
ATOM     11  O   UNL     1      61.760  44.651  17.840  1.00  0.00    -0.451 OA
ENDROOT
BRANCH   1  12
ATOM     12  C   UNL     1      62.247  44.658  15.477  1.00  0.00     0.063 A 
ATOM     13  C   UNL     1      63.802  43.978  13.736  1.00  0.00     0.047 A 
ATOM     14  C   UNL     1      63.542  44.647  14.935  1.00  0.00     0.020 A 
ATOM     15  C   UNL     1      62.776  43.301  13.072  1.00  0.00     0.119 A 
ATOM     16  C   UNL     1      61.486  43.287  13.616  1.00  0.00     0.093 A 
ATOM     17  C   UNL     1      61.218  43.951  14.823  1.00  0.00     0.130 A 
BRANCH  15  18
ATOM     18  O   UNL     1      63.050  42.643  11.875  1.00  0.00    -0.508 OA
ATOM     19  H   UNL     1      62.308  42.369  11.240  1.00  0.00     0.293 HD
ENDBRANCH  15  18
BRANCH  17  20
ATOM     20  O   UNL     1      59.940  43.888  15.380  1.00  0.00    -0.507 OA
ATOM     21  H   UNL     1      59.190  43.370  14.937  1.00  0.00     0.293 HD
ENDBRANCH  17  20
ENDBRANCH   1  12
BRANCH   2  22
ATOM     22  O   UNL     1      62.392  47.530  15.703  1.00  0.00    -0.502 OA
ATOM     23  H   UNL     1      63.149  48.203  15.699  1.00  0.00     0.293 HD
ENDBRANCH   2  22
BRANCH   6  24
ATOM     24  O   UNL     1      61.293  48.518  20.693  1.00  0.00    -0.507 OA
ATOM     25  H   UNL     1      61.341  49.174  19.922  1.00  0.00     0.293 HD
ENDBRANCH   6  24
BRANCH   8  26
ATOM     26  O   UNL     1      60.763  44.040  22.454  1.00  0.00    -0.508 OA
ATOM     27  H   UNL     1      59.866  43.583  22.564  1.00  0.00     0.293 HD
ENDBRANCH   8  26
TORSDOF 6
ENDMDL
