MODEL 1
REMARK VINA RESULT:    -3.262      0.000      0.000
REMARK INTER + INTRA:          -8.245
REMARK INTER:                  -5.932
REMARK INTRA:                  -2.313
REMARK UNBOUND:                -2.313
REMARK SMILES CCCCCCCCCCCCCCCC(=O)[O-]
REMARK SMILES IDX 9 1 10 2 11 3 12 4 13 5 14 6 15 7 16 8 17 9 18 10 8 11 7 12
REMARK SMILES IDX 6 13 5 14 4 15 3 16 2 17 1 18
REMARK H PARENT
REMARK Flexibility Score: inf
ROOT
ATOM      1  C   UNL     1      10.647  50.018   8.127  1.00  0.00     0.000 C 
ENDROOT
BRANCH   1   2
ATOM      2  C   UNL     1      10.858  50.080   6.605  1.00  0.00     0.000 C 
BRANCH   2   3
ATOM      3  C   UNL     1      10.060  49.001   5.855  1.00  0.00     0.000 C 
BRANCH   3   4
ATOM      4  C   UNL     1       8.968  49.594   4.947  1.00  0.00     0.000 C 
BRANCH   4   5
ATOM      5  C   UNL     1       9.508  50.685   4.010  1.00  0.00     0.000 C 
BRANCH   5   6
ATOM      6  C   UNL     1       8.439  51.731   3.644  1.00  0.00     0.006 C 
BRANCH   6   7
ATOM      7  C   UNL     1       8.028  51.647   2.169  1.00  0.00     0.053 C 
BRANCH   7   8
ATOM      8  C   UNL     1       6.687  50.999   2.002  1.00  0.00     0.041 C 
ATOM      9  O   UNL     1       5.754  51.613   1.422  1.00  0.00    -0.550 OA
ATOM     10  O   UNL     1       6.458  49.731   2.522  1.00  0.00    -0.550 OA
ENDBRANCH   7   8
ENDBRANCH   6   7
ENDBRANCH   5   6
ENDBRANCH   4   5
ENDBRANCH   3   4
ENDBRANCH   2   3
ENDBRANCH   1   2
BRANCH   1  11
ATOM     11  C   UNL     1       9.298  49.388   8.511  1.00  0.00     0.000 C 
BRANCH  11  12
ATOM     12  C   UNL     1       8.656  50.060   9.734  1.00  0.00    -0.000 C 
BRANCH  12  13
ATOM     13  C   UNL     1       7.237  50.546   9.410  1.00  0.00    -0.000 C 
BRANCH  13  14
ATOM     14  C   UNL     1       7.133  51.006   7.950  1.00  0.00    -0.000 C 
BRANCH  14  15
ATOM     15  C   UNL     1       7.357  52.521   7.834  1.00  0.00    -0.000 C 
BRANCH  15  16
ATOM     16  C   UNL     1       8.557  52.875   6.942  1.00  0.00    -0.000 C 
BRANCH  16  17
ATOM     17  C   UNL     1       9.644  53.655   7.695  1.00  0.00    -0.003 C 
ATOM     18  C   UNL     1       9.362  53.682   9.195  1.00  0.00     0.004 C 
ENDBRANCH  16  17
ENDBRANCH  15  16
ENDBRANCH  14  15
ENDBRANCH  13  14
ENDBRANCH  12  13
ENDBRANCH  11  12
ENDBRANCH   1  11
TORSDOF 14
ENDMDL
MODEL 2
REMARK VINA RESULT:    -3.234     11.951     14.085
REMARK INTER + INTRA:          -8.195
REMARK INTER:                  -6.138
REMARK INTRA:                  -2.057
REMARK UNBOUND:                -2.313
REMARK SMILES CCCCCCCCCCCCCCCC(=O)[O-]
REMARK SMILES IDX 9 1 10 2 11 3 12 4 13 5 14 6 15 7 16 8 17 9 18 10 8 11 7 12
REMARK SMILES IDX 6 13 5 14 4 15 3 16 2 17 1 18
REMARK H PARENT
REMARK Flexibility Score: inf
ROOT
ATOM      1  C   UNL     1       5.525  65.707   1.177  1.00  0.00     0.000 C 
ENDROOT
BRANCH   1   2
ATOM      2  C   UNL     1       4.340  66.457   0.547  1.00  0.00     0.000 C 
BRANCH   2   3
ATOM      3  C   UNL     1       3.958  65.902  -0.835  1.00  0.00     0.000 C 
BRANCH   3   4
ATOM      4  C   UNL     1       3.094  64.632  -0.748  1.00  0.00     0.000 C 
BRANCH   4   5
ATOM      5  C   UNL     1       3.774  63.411  -1.384  1.00  0.00     0.000 C 
BRANCH   5   6
ATOM      6  C   UNL     1       3.601  62.133  -0.542  1.00  0.00     0.006 C 
BRANCH   6   7
ATOM      7  C   UNL     1       2.583  62.319   0.590  1.00  0.00     0.053 C 
BRANCH   7   8
ATOM      8  C   UNL     1       1.514  61.269   0.553  1.00  0.00     0.041 C 
ATOM      9  O   UNL     1       0.862  60.991   1.594  1.00  0.00    -0.550 OA
ATOM     10  O   UNL     1       1.264  60.572  -0.622  1.00  0.00    -0.550 OA
ENDBRANCH   7   8
ENDBRANCH   6   7
ENDBRANCH   5   6
ENDBRANCH   4   5
ENDBRANCH   3   4
ENDBRANCH   2   3
ENDBRANCH   1   2
BRANCH   1  11
ATOM     11  C   UNL     1       5.090  64.760   2.308  1.00  0.00     0.000 C 
BRANCH  11  12
ATOM     12  C   UNL     1       5.735  63.370   2.199  1.00  0.00    -0.000 C 
BRANCH  12  13
ATOM     13  C   UNL     1       6.783  63.339   1.079  1.00  0.00    -0.000 C 
BRANCH  13  14
ATOM     14  C   UNL     1       7.069  61.899   0.632  1.00  0.00    -0.000 C 
BRANCH  14  15
ATOM     15  C   UNL     1       8.500  61.483   1.005  1.00  0.00    -0.000 C 
BRANCH  15  16
ATOM     16  C   UNL     1       8.848  61.804   2.467  1.00  0.00    -0.000 C 
BRANCH  16  17
ATOM     17  C   UNL     1       8.267  60.779   3.452  1.00  0.00    -0.003 C 
ATOM     18  C   UNL     1       7.750  61.463   4.714  1.00  0.00     0.004 C 
ENDBRANCH  16  17
ENDBRANCH  15  16
ENDBRANCH  14  15
ENDBRANCH  13  14
ENDBRANCH  12  13
ENDBRANCH  11  12
ENDBRANCH   1  11
TORSDOF 14
ENDMDL
MODEL 3
REMARK VINA RESULT:    -3.184     12.419     14.854
REMARK INTER + INTRA:          -8.102
REMARK INTER:                  -6.144
REMARK INTRA:                  -1.958
REMARK UNBOUND:                -2.313
REMARK SMILES CCCCCCCCCCCCCCCC(=O)[O-]
REMARK SMILES IDX 9 1 10 2 11 3 12 4 13 5 14 6 15 7 16 8 17 9 18 10 8 11 7 12
REMARK SMILES IDX 6 13 5 14 4 15 3 16 2 17 1 18
REMARK H PARENT
REMARK Flexibility Score: inf
ROOT
ATOM      1  C   UNL     1       4.886  65.471  -0.486  1.00  0.00     0.000 C 
ENDROOT
BRANCH   1   2
ATOM      2  C   UNL     1       5.920  65.337   0.644  1.00  0.00     0.000 C 
BRANCH   2   3
ATOM      3  C   UNL     1       5.273  64.992   1.996  1.00  0.00     0.000 C 
BRANCH   3   4
ATOM      4  C   UNL     1       5.468  63.517   2.390  1.00  0.00     0.000 C 
BRANCH   4   5
ATOM      5  C   UNL     1       6.461  62.789   1.471  1.00  0.00     0.000 C 
BRANCH   5   6
ATOM      6  C   UNL     1       7.564  62.055   2.257  1.00  0.00     0.006 C 
BRANCH   6   7
ATOM      7  C   UNL     1       7.275  62.019   3.762  1.00  0.00     0.053 C 
BRANCH   7   8
ATOM      8  C   UNL     1       8.501  61.682   4.555  1.00  0.00     0.041 C 
ATOM      9  O   UNL     1       9.575  61.388   3.967  1.00  0.00    -0.550 OA
ATOM     10  O   UNL     1       8.447  61.659   5.943  1.00  0.00    -0.550 OA
ENDBRANCH   7   8
ENDBRANCH   6   7
ENDBRANCH   5   6
ENDBRANCH   4   5
ENDBRANCH   3   4
ENDBRANCH   2   3
ENDBRANCH   1   2
BRANCH   1  11
ATOM     11  C   UNL     1       3.469  65.754   0.039  1.00  0.00     0.000 C 
BRANCH  11  12
ATOM     12  C   UNL     1       2.469  64.646  -0.323  1.00  0.00    -0.000 C 
BRANCH  12  13
ATOM     13  C   UNL     1       3.174  63.479  -1.025  1.00  0.00    -0.000 C 
BRANCH  13  14
ATOM     14  C   UNL     1       3.094  62.200  -0.183  1.00  0.00    -0.000 C 
BRANCH  14  15
ATOM     15  C   UNL     1       2.321  62.448   1.121  1.00  0.00    -0.000 C 
BRANCH  15  16
ATOM     16  C   UNL     1       1.063  61.573   1.239  1.00  0.00    -0.000 C 
BRANCH  16  17
ATOM     17  C   UNL     1      -0.234  62.376   1.071  1.00  0.00    -0.003 C 
ATOM     18  C   UNL     1      -0.685  62.392  -0.387  1.00  0.00     0.004 C 
ENDBRANCH  16  17
ENDBRANCH  15  16
ENDBRANCH  14  15
ENDBRANCH  13  14
ENDBRANCH  12  13
ENDBRANCH  11  12
ENDBRANCH   1  11
TORSDOF 14
ENDMDL
MODEL 4
REMARK VINA RESULT:    -3.164     11.499     13.590
REMARK INTER + INTRA:          -8.068
REMARK INTER:                  -6.421
REMARK INTRA:                  -1.646
REMARK UNBOUND:                -2.313
REMARK SMILES CCCCCCCCCCCCCCCC(=O)[O-]
REMARK SMILES IDX 9 1 10 2 11 3 12 4 13 5 14 6 15 7 16 8 17 9 18 10 8 11 7 12
REMARK SMILES IDX 6 13 5 14 4 15 3 16 2 17 1 18
REMARK H PARENT
REMARK Flexibility Score: inf
ROOT
ATOM      1  C   UNL     1       5.204  63.817   2.244  1.00  0.00     0.000 C 
ENDROOT
BRANCH   1   2
ATOM      2  C   UNL     1       5.040  65.332   2.039  1.00  0.00     0.000 C 
BRANCH   2   3
ATOM      3  C   UNL     1       4.820  65.706   0.564  1.00  0.00     0.000 C 
BRANCH   3   4
ATOM      4  C   UNL     1       3.411  65.345   0.063  1.00  0.00     0.000 C 
BRANCH   4   5
ATOM      5  C   UNL     1       3.434  64.299  -1.062  1.00  0.00     0.000 C 
BRANCH   5   6
ATOM      6  C   UNL     1       3.110  62.882  -0.556  1.00  0.00     0.006 C 
BRANCH   6   7
ATOM      7  C   UNL     1       1.972  62.880   0.472  1.00  0.00     0.053 C 
BRANCH   7   8
ATOM      8  C   UNL     1       1.424  61.502   0.692  1.00  0.00     0.041 C 
ATOM      9  O   UNL     1       0.957  61.178   1.816  1.00  0.00    -0.550 OA
ATOM     10  O   UNL     1       1.464  60.566  -0.333  1.00  0.00    -0.550 OA
ENDBRANCH   7   8
ENDBRANCH   6   7
ENDBRANCH   5   6
ENDBRANCH   4   5
ENDBRANCH   3   4
ENDBRANCH   2   3
ENDBRANCH   1   2
BRANCH   1  11
ATOM     11  C   UNL     1       6.597  63.312   1.835  1.00  0.00     0.000 C 
BRANCH  11  12
ATOM     12  C   UNL     1       6.544  62.282   0.695  1.00  0.00    -0.000 C 
BRANCH  12  13
ATOM     13  C   UNL     1       7.787  61.384   0.712  1.00  0.00    -0.000 C 
BRANCH  13  14
ATOM     14  C   UNL     1       8.840  61.917   1.691  1.00  0.00    -0.000 C 
BRANCH  14  15
ATOM     15  C   UNL     1       9.343  60.800   2.618  1.00  0.00    -0.000 C 
BRANCH  15  16
ATOM     16  C   UNL     1       8.278  60.341   3.625  1.00  0.00    -0.000 C 
BRANCH  16  17
ATOM     17  C   UNL     1       7.776  61.485   4.518  1.00  0.00    -0.003 C 
ATOM     18  C   UNL     1       8.779  61.800   5.624  1.00  0.00     0.004 C 
ENDBRANCH  16  17
ENDBRANCH  15  16
ENDBRANCH  14  15
ENDBRANCH  13  14
ENDBRANCH  12  13
ENDBRANCH  11  12
ENDBRANCH   1  11
TORSDOF 14
ENDMDL
MODEL 5
REMARK VINA RESULT:    -3.145     12.743     14.822
REMARK INTER + INTRA:          -8.032
REMARK INTER:                  -6.055
REMARK INTRA:                  -1.977
REMARK UNBOUND:                -2.313
REMARK SMILES CCCCCCCCCCCCCCCC(=O)[O-]
REMARK SMILES IDX 9 1 10 2 11 3 12 4 13 5 14 6 15 7 16 8 17 9 18 10 8 11 7 12
REMARK SMILES IDX 6 13 5 14 4 15 3 16 2 17 1 18
REMARK H PARENT
REMARK Flexibility Score: inf
ROOT
ATOM      1  C   UNL     1       3.938  66.111   0.114  1.00  0.00     0.000 C 
ENDROOT
BRANCH   1   2
ATOM      2  C   UNL     1       4.517  65.787  -1.273  1.00  0.00     0.000 C 
BRANCH   2   3
ATOM      3  C   UNL     1       4.912  64.308  -1.415  1.00  0.00     0.000 C 
BRANCH   3   4
ATOM      4  C   UNL     1       3.693  63.373  -1.504  1.00  0.00     0.000 C 
BRANCH   4   5
ATOM      5  C   UNL     1       3.737  62.246  -0.461  1.00  0.00     0.000 C 
BRANCH   5   6
ATOM      6  C   UNL     1       2.835  62.531   0.754  1.00  0.00     0.006 C 
BRANCH   6   7
ATOM      7  C   UNL     1       1.572  63.310   0.368  1.00  0.00     0.053 C 
BRANCH   7   8
ATOM      8  C   UNL     1       0.360  62.428   0.350  1.00  0.00     0.041 C 
ATOM      9  O   UNL     1       0.187  61.606  -0.588  1.00  0.00    -0.550 OA
ATOM     10  O   UNL     1      -0.597  62.541   1.351  1.00  0.00    -0.550 OA
ENDBRANCH   7   8
ENDBRANCH   6   7
ENDBRANCH   5   6
ENDBRANCH   4   5
ENDBRANCH   3   4
ENDBRANCH   2   3
ENDBRANCH   1   2
BRANCH   1  11
ATOM     11  C   UNL     1       4.878  66.990   0.956  1.00  0.00     0.000 C 
BRANCH  11  12
ATOM     12  C   UNL     1       5.197  66.374   2.327  1.00  0.00    -0.000 C 
BRANCH  12  13
ATOM     13  C   UNL     1       5.162  64.842   2.261  1.00  0.00    -0.000 C 
BRANCH  13  14
ATOM     14  C   UNL     1       6.539  64.274   1.897  1.00  0.00    -0.000 C 
BRANCH  14  15
ATOM     15  C   UNL     1       6.515  62.738   1.886  1.00  0.00    -0.000 C 
BRANCH  15  16
ATOM     16  C   UNL     1       7.891  62.123   2.183  1.00  0.00    -0.000 C 
BRANCH  16  17
ATOM     17  C   UNL     1       8.289  62.248   3.661  1.00  0.00    -0.003 C 
ATOM     18  C   UNL     1       7.480  61.289   4.530  1.00  0.00     0.004 C 
ENDBRANCH  16  17
ENDBRANCH  15  16
ENDBRANCH  14  15
ENDBRANCH  13  14
ENDBRANCH  12  13
ENDBRANCH  11  12
ENDBRANCH   1  11
TORSDOF 14
ENDMDL
MODEL 6
REMARK VINA RESULT:    -3.113     12.856     15.132
REMARK INTER + INTRA:          -7.973
REMARK INTER:                  -5.510
REMARK INTRA:                  -2.464
REMARK UNBOUND:                -2.313
REMARK SMILES CCCCCCCCCCCCCCCC(=O)[O-]
REMARK SMILES IDX 9 1 10 2 11 3 12 4 13 5 14 6 15 7 16 8 17 9 18 10 8 11 7 12
REMARK SMILES IDX 6 13 5 14 4 15 3 16 2 17 1 18
REMARK H PARENT
REMARK Flexibility Score: inf
ROOT
ATOM      1  C   UNL     1       5.613  65.872   0.958  1.00  0.00     0.000 C 
ENDROOT
BRANCH   1   2
ATOM      2  C   UNL     1       4.419  66.632   0.356  1.00  0.00     0.000 C 
BRANCH   2   3
ATOM      3  C   UNL     1       3.947  66.027  -0.976  1.00  0.00     0.000 C 
BRANCH   3   4
ATOM      4  C   UNL     1       2.468  65.603  -0.946  1.00  0.00     0.000 C 
BRANCH   4   5
ATOM      5  C   UNL     1       2.292  64.093  -0.726  1.00  0.00     0.000 C 
BRANCH   5   6
ATOM      6  C   UNL     1       2.113  63.729   0.759  1.00  0.00     0.006 C 
BRANCH   6   7
ATOM      7  C   UNL     1       2.210  62.217   1.000  1.00  0.00     0.053 C 
BRANCH   7   8
ATOM      8  C   UNL     1       1.109  61.472   0.307  1.00  0.00     0.041 C 
ATOM      9  O   UNL     1       1.377  60.487  -0.431  1.00  0.00    -0.550 OA
ATOM     10  O   UNL     1      -0.208  61.890   0.447  1.00  0.00    -0.550 OA
ENDBRANCH   7   8
ENDBRANCH   6   7
ENDBRANCH   5   6
ENDBRANCH   4   5
ENDBRANCH   3   4
ENDBRANCH   2   3
ENDBRANCH   1   2
BRANCH   1  11
ATOM     11  C   UNL     1       5.273  65.206   2.301  1.00  0.00     0.000 C 
BRANCH  11  12
ATOM     12  C   UNL     1       5.402  63.676   2.254  1.00  0.00    -0.000 C 
BRANCH  12  13
ATOM     13  C   UNL     1       6.852  63.256   1.986  1.00  0.00    -0.000 C 
BRANCH  13  14
ATOM     14  C   UNL     1       6.932  62.261   0.822  1.00  0.00    -0.000 C 
BRANCH  14  15
ATOM     15  C   UNL     1       5.643  62.285  -0.012  1.00  0.00    -0.000 C 
BRANCH  15  16
ATOM     16  C   UNL     1       5.843  62.930  -1.392  1.00  0.00    -0.000 C 
BRANCH  16  17
ATOM     17  C   UNL     1       5.528  61.967  -2.546  1.00  0.00    -0.003 C 
ATOM     18  C   UNL     1       4.190  61.267  -2.328  1.00  0.00     0.004 C 
ENDBRANCH  16  17
ENDBRANCH  15  16
ENDBRANCH  14  15
ENDBRANCH  13  14
ENDBRANCH  12  13
ENDBRANCH  11  12
ENDBRANCH   1  11
TORSDOF 14
ENDMDL
MODEL 7
REMARK VINA RESULT:    -3.110     11.304     13.338
REMARK INTER + INTRA:          -7.968
REMARK INTER:                  -6.706
REMARK INTRA:                  -1.263
REMARK UNBOUND:                -2.313
REMARK SMILES CCCCCCCCCCCCCCCC(=O)[O-]
REMARK SMILES IDX 9 1 10 2 11 3 12 4 13 5 14 6 15 7 16 8 17 9 18 10 8 11 7 12
REMARK SMILES IDX 6 13 5 14 4 15 3 16 2 17 1 18
REMARK H PARENT
REMARK Flexibility Score: inf
ROOT
ATOM      1  C   UNL     1       5.246  63.759   2.273  1.00  0.00     0.000 C 
ENDROOT
BRANCH   1   2
ATOM      2  C   UNL     1       5.314  65.259   1.942  1.00  0.00     0.000 C 
BRANCH   2   3
ATOM      3  C   UNL     1       4.652  65.597   0.596  1.00  0.00     0.000 C 
BRANCH   3   4
ATOM      4  C   UNL     1       3.351  64.809   0.359  1.00  0.00     0.000 C 
BRANCH   4   5
ATOM      5  C   UNL     1       3.372  64.020  -0.959  1.00  0.00     0.000 C 
BRANCH   5   6
ATOM      6  C   UNL     1       3.159  62.510  -0.747  1.00  0.00     0.006 C 
BRANCH   6   7
ATOM      7  C   UNL     1       2.563  62.198   0.632  1.00  0.00     0.053 C 
BRANCH   7   8
ATOM      8  C   UNL     1       1.483  61.162   0.548  1.00  0.00     0.041 C 
ATOM      9  O   UNL     1       0.591  61.104   1.434  1.00  0.00    -0.550 OA
ATOM     10  O   UNL     1       1.485  60.237  -0.489  1.00  0.00    -0.550 OA
ENDBRANCH   7   8
ENDBRANCH   6   7
ENDBRANCH   5   6
ENDBRANCH   4   5
ENDBRANCH   3   4
ENDBRANCH   2   3
ENDBRANCH   1   2
BRANCH   1  11
ATOM     11  C   UNL     1       6.471  62.985   1.760  1.00  0.00     0.000 C 
BRANCH  11  12
ATOM     12  C   UNL     1       7.800  63.618   2.202  1.00  0.00    -0.000 C 
BRANCH  12  13
ATOM     13  C   UNL     1       8.750  62.557   2.771  1.00  0.00    -0.000 C 
BRANCH  13  14
ATOM     14  C   UNL     1       7.970  61.349   3.304  1.00  0.00    -0.000 C 
BRANCH  14  15
ATOM     15  C   UNL     1       7.823  61.420   4.831  1.00  0.00    -0.000 C 
BRANCH  15  16
ATOM     16  C   UNL     1       9.053  62.035   5.517  1.00  0.00    -0.000 C 
BRANCH  16  17
ATOM     17  C   UNL     1       9.344  61.404   6.886  1.00  0.00    -0.003 C 
ATOM     18  C   UNL     1       8.761  62.248   8.015  1.00  0.00     0.004 C 
ENDBRANCH  16  17
ENDBRANCH  15  16
ENDBRANCH  14  15
ENDBRANCH  13  14
ENDBRANCH  12  13
ENDBRANCH  11  12
ENDBRANCH   1  11
TORSDOF 14
ENDMDL
MODEL 8
REMARK VINA RESULT:    -3.095      2.651      5.461
REMARK INTER + INTRA:          -7.941
REMARK INTER:                  -5.935
REMARK INTRA:                  -2.007
REMARK UNBOUND:                -2.313
REMARK SMILES CCCCCCCCCCCCCCCC(=O)[O-]
REMARK SMILES IDX 9 1 10 2 11 3 12 4 13 5 14 6 15 7 16 8 17 9 18 10 8 11 7 12
REMARK SMILES IDX 6 13 5 14 4 15 3 16 2 17 1 18
REMARK H PARENT
REMARK Flexibility Score: inf
ROOT
ATOM      1  C   UNL     1       9.185  47.930   2.849  1.00  0.00     0.000 C 
ENDROOT
BRANCH   1   2
ATOM      2  C   UNL     1      10.151  47.242   3.828  1.00  0.00     0.000 C 
BRANCH   2   3
ATOM      3  C   UNL     1      10.805  48.233   4.805  1.00  0.00     0.000 C 
BRANCH   3   4
ATOM      4  C   UNL     1       9.776  48.977   5.675  1.00  0.00     0.000 C 
BRANCH   4   5
ATOM      5  C   UNL     1      10.122  48.925   7.170  1.00  0.00     0.000 C 
BRANCH   5   6
ATOM      6  C   UNL     1       9.227  49.850   8.016  1.00  0.00     0.006 C 
BRANCH   6   7
ATOM      7  C   UNL     1       8.447  50.849   7.151  1.00  0.00     0.053 C 
BRANCH   7   8
ATOM      8  C   UNL     1       7.300  51.455   7.901  1.00  0.00     0.041 C 
ATOM      9  O   UNL     1       6.911  52.621   7.631  1.00  0.00    -0.550 OA
ATOM     10  O   UNL     1       6.685  50.744   8.925  1.00  0.00    -0.550 OA
ENDBRANCH   7   8
ENDBRANCH   6   7
ENDBRANCH   5   6
ENDBRANCH   4   5
ENDBRANCH   3   4
ENDBRANCH   2   3
ENDBRANCH   1   2
BRANCH   1  11
ATOM     11  C   UNL     1       7.802  47.259   2.816  1.00  0.00     0.000 C 
BRANCH  11  12
ATOM     12  C   UNL     1       6.719  48.161   2.203  1.00  0.00    -0.000 C 
BRANCH  12  13
ATOM     13  C   UNL     1       6.717  49.543   2.867  1.00  0.00    -0.000 C 
BRANCH  13  14
ATOM     14  C   UNL     1       6.744  50.659   1.816  1.00  0.00    -0.000 C 
BRANCH  14  15
ATOM     15  C   UNL     1       7.945  51.591   2.033  1.00  0.00    -0.000 C 
BRANCH  15  16
ATOM     16  C   UNL     1       8.372  51.673   3.508  1.00  0.00    -0.000 C 
BRANCH  16  17
ATOM     17  C   UNL     1       9.846  52.067   3.675  1.00  0.00    -0.003 C 
ATOM     18  C   UNL     1      10.738  51.277   2.722  1.00  0.00     0.004 C 
ENDBRANCH  16  17
ENDBRANCH  15  16
ENDBRANCH  14  15
ENDBRANCH  13  14
ENDBRANCH  12  13
ENDBRANCH  11  12
ENDBRANCH   1  11
TORSDOF 14
ENDMDL
MODEL 9
REMARK VINA RESULT:    -3.048      1.764      3.260
REMARK INTER + INTRA:          -7.856
REMARK INTER:                  -6.039
REMARK INTRA:                  -1.817
REMARK UNBOUND:                -2.313
REMARK SMILES CCCCCCCCCCCCCCCC(=O)[O-]
REMARK SMILES IDX 9 1 10 2 11 3 12 4 13 5 14 6 15 7 16 8 17 9 18 10 8 11 7 12
REMARK SMILES IDX 6 13 5 14 4 15 3 16 2 17 1 18
REMARK H PARENT
REMARK Flexibility Score: inf
ROOT
ATOM      1  C   UNL     1       9.902  49.039   4.328  1.00  0.00     0.000 C 
ENDROOT
BRANCH   1   2
ATOM      2  C   UNL     1       9.713  47.528   4.111  1.00  0.00     0.000 C 
BRANCH   2   3
ATOM      3  C   UNL     1       9.044  47.206   2.765  1.00  0.00     0.000 C 
BRANCH   3   4
ATOM      4  C   UNL     1       7.510  47.130   2.867  1.00  0.00     0.000 C 
BRANCH   4   5
ATOM      5  C   UNL     1       6.806  48.087   1.893  1.00  0.00     0.000 C 
BRANCH   5   6
ATOM      6  C   UNL     1       6.622  49.498   2.482  1.00  0.00     0.006 C 
BRANCH   6   7
ATOM      7  C   UNL     1       7.524  50.533   1.798  1.00  0.00     0.053 C 
BRANCH   7   8
ATOM      8  C   UNL     1       6.747  51.426   0.879  1.00  0.00     0.041 C 
ATOM      9  O   UNL     1       7.257  51.822  -0.202  1.00  0.00    -0.550 OA
ATOM     10  O   UNL     1       5.473  51.851   1.236  1.00  0.00    -0.550 OA
ENDBRANCH   7   8
ENDBRANCH   6   7
ENDBRANCH   5   6
ENDBRANCH   4   5
ENDBRANCH   3   4
ENDBRANCH   2   3
ENDBRANCH   1   2
BRANCH   1  11
ATOM     11  C   UNL     1       9.328  49.518   5.671  1.00  0.00     0.000 C 
BRANCH  11  12
ATOM     12  C   UNL     1       8.206  50.554   5.502  1.00  0.00    -0.000 C 
BRANCH  12  13
ATOM     13  C   UNL     1       8.781  51.972   5.393  1.00  0.00    -0.000 C 
BRANCH  13  14
ATOM     14  C   UNL     1       8.729  52.693   6.746  1.00  0.00    -0.000 C 
BRANCH  14  15
ATOM     15  C   UNL     1       7.355  52.518   7.409  1.00  0.00    -0.000 C 
BRANCH  15  16
ATOM     16  C   UNL     1       7.457  52.092   8.882  1.00  0.00    -0.000 C 
BRANCH  16  17
ATOM     17  C   UNL     1       7.262  50.581   9.074  1.00  0.00    -0.003 C 
ATOM     18  C   UNL     1       8.599  49.878   9.292  1.00  0.00     0.004 C 
ENDBRANCH  16  17
ENDBRANCH  15  16
ENDBRANCH  14  15
ENDBRANCH  13  14
ENDBRANCH  12  13
ENDBRANCH  11  12
ENDBRANCH   1  11
TORSDOF 14
ENDMDL
