MODEL 1
REMARK VINA RESULT:    -5.965      0.000      0.000
REMARK INTER + INTRA:          -7.271
REMARK INTER:                  -7.185
REMARK INTRA:                  -0.086
REMARK UNBOUND:                -0.086
REMARK SMILES O=c1c(O)c(-c2ccc(O)c(O)c2)oc2cc(O)cc(O)c12
REMARK SMILES IDX 5 1 3 2 2 3 1 4 22 5 20 6 19 7 17 8 16 9 15 10 14 11 6 12
REMARK SMILES IDX 7 13 8 14 9 15 13 16 11 17 10 18 12 20 4 22 21 24 18 26
REMARK H PARENT 10 19 12 21 4 23 21 25 18 27
REMARK Flexibility Score: inf
ROOT
ATOM      1  C   UNL     1     -21.826 -15.610 -13.946  1.00  0.00     0.180 A 
ATOM      2  C   UNL     1     -22.365 -14.889 -15.029  1.00  0.00     0.208 A 
ATOM      3  C   UNL     1     -23.667 -15.186 -15.461  1.00  0.00     0.238 A 
ATOM      4  O   UNL     1     -24.155 -14.556 -16.438  1.00  0.00    -0.285 OA
ATOM      5  C   UNL     1     -24.413 -16.180 -14.795  1.00  0.00     0.111 A 
ATOM      6  C   UNL     1     -25.732 -16.537 -15.165  1.00  0.00     0.134 A 
ATOM      7  C   UNL     1     -26.411 -17.531 -14.445  1.00  0.00     0.093 A 
ATOM      8  C   UNL     1     -25.801 -18.171 -13.364  1.00  0.00     0.123 A 
ATOM      9  C   UNL     1     -24.498 -17.823 -12.994  1.00  0.00     0.094 A 
ATOM     10  C   UNL     1     -23.802 -16.837 -13.701  1.00  0.00     0.146 A 
ATOM     11  O   UNL     1     -22.565 -16.530 -13.332  1.00  0.00    -0.452 OA
ENDROOT
BRANCH   1  12
ATOM     12  C   UNL     1     -20.455 -15.367 -13.444  1.00  0.00     0.025 A 
ATOM     13  C   UNL     1     -20.050 -14.095 -13.004  1.00  0.00     0.016 A 
ATOM     14  C   UNL     1     -18.743 -13.884 -12.557  1.00  0.00     0.051 A 
ATOM     15  C   UNL     1     -17.819 -14.936 -12.556  1.00  0.00     0.157 A 
ATOM     16  C   UNL     1     -19.517 -16.414 -13.460  1.00  0.00     0.062 A 
ATOM     17  C   UNL     1     -18.206 -16.203 -13.011  1.00  0.00     0.158 A 
BRANCH  15  18
ATOM     18  O   UNL     1     -16.514 -14.731 -12.109  1.00  0.00    -0.504 OA
ATOM     19  H   UNL     1     -15.956 -13.956 -12.447  1.00  0.00     0.293 HD
ENDBRANCH  15  18
BRANCH  17  20
ATOM     20  O   UNL     1     -17.282 -17.247 -13.016  1.00  0.00    -0.504 OA
ATOM     21  H   UNL     1     -16.302 -17.088 -12.813  1.00  0.00     0.293 HD
ENDBRANCH  17  20
ENDBRANCH   1  12
BRANCH   2  22
ATOM     22  O   UNL     1     -21.624 -13.875 -15.641  1.00  0.00    -0.502 OA
ATOM     23  H   UNL     1     -21.986 -12.937 -15.764  1.00  0.00     0.293 HD
ENDBRANCH   2  22
BRANCH   6  24
ATOM     24  O   UNL     1     -26.370 -15.914 -16.239  1.00  0.00    -0.507 OA
ATOM     25  H   UNL     1     -26.359 -16.315 -17.170  1.00  0.00     0.293 HD
ENDBRANCH   6  24
BRANCH   8  26
ATOM     26  O   UNL     1     -26.499 -19.154 -12.665  1.00  0.00    -0.508 OA
ATOM     27  H   UNL     1     -26.079 -20.052 -12.453  1.00  0.00     0.293 HD
ENDBRANCH   8  26
TORSDOF 6
ENDMDL
MODEL 2
REMARK VINA RESULT:    -4.430      1.652      1.781
REMARK INTER + INTRA:          -5.422
REMARK INTER:                  -5.822
REMARK INTRA:                   0.400
REMARK UNBOUND:                -0.086
REMARK SMILES O=c1c(O)c(-c2ccc(O)c(O)c2)oc2cc(O)cc(O)c12
REMARK SMILES IDX 5 1 3 2 2 3 1 4 22 5 20 6 19 7 17 8 16 9 15 10 14 11 6 12
REMARK SMILES IDX 7 13 8 14 9 15 13 16 11 17 10 18 12 20 4 22 21 24 18 26
REMARK H PARENT 10 19 12 21 4 23 21 25 18 27
REMARK Flexibility Score: inf
ROOT
ATOM      1  C   UNL     1     -21.506 -16.107 -13.341  1.00  0.00     0.180 A 
ATOM      2  C   UNL     1     -22.626 -15.255 -13.396  1.00  0.00     0.208 A 
ATOM      3  C   UNL     1     -23.880 -15.802 -13.708  1.00  0.00     0.238 A 
ATOM      4  O   UNL     1     -24.888 -15.047 -13.771  1.00  0.00    -0.285 OA
ATOM      5  C   UNL     1     -23.998 -17.188 -13.940  1.00  0.00     0.111 A 
ATOM      6  C   UNL     1     -25.225 -17.819 -14.256  1.00  0.00     0.134 A 
ATOM      7  C   UNL     1     -25.260 -19.206 -14.464  1.00  0.00     0.093 A 
ATOM      8  C   UNL     1     -24.098 -19.973 -14.360  1.00  0.00     0.123 A 
ATOM      9  C   UNL     1     -22.882 -19.354 -14.049  1.00  0.00     0.094 A 
ATOM     10  C   UNL     1     -22.825 -17.973 -13.840  1.00  0.00     0.146 A 
ATOM     11  O   UNL     1     -21.658 -17.411 -13.551  1.00  0.00    -0.452 OA
ENDROOT
BRANCH   1  12
ATOM     12  C   UNL     1     -20.148 -15.602 -13.036  1.00  0.00     0.025 A 
ATOM     13  C   UNL     1     -19.951 -14.343 -12.442  1.00  0.00     0.016 A 
ATOM     14  C   UNL     1     -18.658 -13.877 -12.186  1.00  0.00     0.051 A 
ATOM     15  C   UNL     1     -17.546 -14.655 -12.532  1.00  0.00     0.157 A 
ATOM     16  C   UNL     1     -19.028 -16.368 -13.400  1.00  0.00     0.062 A 
ATOM     17  C   UNL     1     -17.731 -15.902 -13.142  1.00  0.00     0.158 A 
BRANCH  15  18
ATOM     18  O   UNL     1     -16.255 -14.195 -12.276  1.00  0.00    -0.504 OA
ATOM     19  H   UNL     1     -15.527 -14.246 -12.979  1.00  0.00     0.293 HD
ENDBRANCH  15  18
BRANCH  17  20
ATOM     20  O   UNL     1     -16.622 -16.670 -13.492  1.00  0.00    -0.504 OA
ATOM     21  H   UNL     1     -16.174 -16.574 -14.395  1.00  0.00     0.293 HD
ENDBRANCH  17  20
ENDBRANCH   1  12
BRANCH   2  22
ATOM     22  O   UNL     1     -22.492 -13.893 -13.113  1.00  0.00    -0.502 OA
ATOM     23  H   UNL     1     -21.674 -13.513 -12.652  1.00  0.00     0.293 HD
ENDBRANCH   2  22
BRANCH   6  24
ATOM     24  O   UNL     1     -26.404 -17.081 -14.366  1.00  0.00    -0.507 OA
ATOM     25  H   UNL     1     -27.095 -17.282 -15.081  1.00  0.00     0.293 HD
ENDBRANCH   6  24
BRANCH   8  26
ATOM     26  O   UNL     1     -24.161 -21.348 -14.571  1.00  0.00    -0.508 OA
ATOM     27  H   UNL     1     -23.830 -22.006 -13.875  1.00  0.00     0.293 HD
ENDBRANCH   8  26
TORSDOF 6
ENDMDL
MODEL 3
REMARK VINA RESULT:    -3.612      1.387      2.707
REMARK INTER + INTRA:          -4.436
REMARK INTER:                  -4.713
REMARK INTRA:                   0.276
REMARK UNBOUND:                -0.086
REMARK SMILES O=c1c(O)c(-c2ccc(O)c(O)c2)oc2cc(O)cc(O)c12
REMARK SMILES IDX 5 1 3 2 2 3 1 4 22 5 20 6 19 7 17 8 16 9 15 10 14 11 6 12
REMARK SMILES IDX 7 13 8 14 9 15 13 16 11 17 10 18 12 20 4 22 21 24 18 26
REMARK H PARENT 10 19 12 21 4 23 21 25 18 27
REMARK Flexibility Score: inf
ROOT
ATOM      1  C   UNL     1     -21.388 -16.112 -13.497  1.00  0.00     0.180 A 
ATOM      2  C   UNL     1     -21.718 -17.480 -13.436  1.00  0.00     0.208 A 
ATOM      3  C   UNL     1     -23.023 -17.878 -13.764  1.00  0.00     0.238 A 
ATOM      4  O   UNL     1     -23.333 -19.099 -13.701  1.00  0.00    -0.285 OA
ATOM      5  C   UNL     1     -23.968 -16.911 -14.165  1.00  0.00     0.111 A 
ATOM      6  C   UNL     1     -25.301 -17.230 -14.516  1.00  0.00     0.134 A 
ATOM      7  C   UNL     1     -26.178 -16.210 -14.914  1.00  0.00     0.093 A 
ATOM      8  C   UNL     1     -25.749 -14.883 -14.971  1.00  0.00     0.123 A 
ATOM      9  C   UNL     1     -24.433 -14.561 -14.625  1.00  0.00     0.094 A 
ATOM     10  C   UNL     1     -23.544 -15.563 -14.223  1.00  0.00     0.146 A 
ATOM     11  O   UNL     1     -22.301 -15.230 -13.895  1.00  0.00    -0.452 OA
ENDROOT
BRANCH   1  12
ATOM     12  C   UNL     1     -20.039 -15.611 -13.149  1.00  0.00     0.025 A 
ATOM     13  C   UNL     1     -19.854 -14.337 -12.586  1.00  0.00     0.016 A 
ATOM     14  C   UNL     1     -18.569 -13.876 -12.288  1.00  0.00     0.051 A 
ATOM     15  C   UNL     1     -17.451 -14.675 -12.561  1.00  0.00     0.157 A 
ATOM     16  C   UNL     1     -18.913 -16.399 -13.440  1.00  0.00     0.062 A 
ATOM     17  C   UNL     1     -17.624 -15.938 -13.141  1.00  0.00     0.158 A 
BRANCH  15  18
ATOM     18  O   UNL     1     -16.168 -14.219 -12.263  1.00  0.00    -0.504 OA
ATOM     19  H   UNL     1     -15.439 -14.854 -11.958  1.00  0.00     0.293 HD
ENDBRANCH  15  18
BRANCH  17  20
ATOM     20  O   UNL     1     -16.509 -16.728 -13.418  1.00  0.00    -0.504 OA
ATOM     21  H   UNL     1     -15.598 -16.513 -13.031  1.00  0.00     0.293 HD
ENDBRANCH  17  20
ENDBRANCH   1  12
BRANCH   2  22
ATOM     22  O   UNL     1     -20.751 -18.424 -13.083  1.00  0.00    -0.502 OA
ATOM     23  H   UNL     1     -19.780 -18.176 -12.935  1.00  0.00     0.293 HD
ENDBRANCH   2  22
BRANCH   6  24
ATOM     24  O   UNL     1     -25.760 -18.547 -14.471  1.00  0.00    -0.507 OA
ATOM     25  H   UNL     1     -25.397 -19.216 -13.801  1.00  0.00     0.293 HD
ENDBRANCH   6  24
BRANCH   8  26
ATOM     26  O   UNL     1     -26.640 -13.889 -15.371  1.00  0.00    -0.508 OA
ATOM     27  H   UNL     1     -26.837 -13.716 -16.350  1.00  0.00     0.293 HD
ENDBRANCH   8  26
TORSDOF 6
ENDMDL
MODEL 4
REMARK VINA RESULT:    -3.345      1.532      3.117
REMARK INTER + INTRA:          -4.115
REMARK INTER:                  -4.215
REMARK INTRA:                   0.100
REMARK UNBOUND:                -0.086
REMARK SMILES O=c1c(O)c(-c2ccc(O)c(O)c2)oc2cc(O)cc(O)c12
REMARK SMILES IDX 5 1 3 2 2 3 1 4 22 5 20 6 19 7 17 8 16 9 15 10 14 11 6 12
REMARK SMILES IDX 7 13 8 14 9 15 13 16 11 17 10 18 12 20 4 22 21 24 18 26
REMARK H PARENT 10 19 12 21 4 23 21 25 18 27
REMARK Flexibility Score: inf
ROOT
ATOM      1  C   UNL     1     -21.549 -16.732 -13.630  1.00  0.00     0.180 A 
ATOM      2  C   UNL     1     -22.052 -18.045 -13.558  1.00  0.00     0.208 A 
ATOM      3  C   UNL     1     -23.395 -18.277 -13.892  1.00  0.00     0.238 A 
ATOM      4  O   UNL     1     -23.859 -19.447 -13.820  1.00  0.00    -0.285 OA
ATOM      5  C   UNL     1     -24.205 -17.201 -14.312  1.00  0.00     0.111 A 
ATOM      6  C   UNL     1     -25.566 -17.351 -14.670  1.00  0.00     0.134 A 
ATOM      7  C   UNL     1     -26.302 -16.231 -15.086  1.00  0.00     0.093 A 
ATOM      8  C   UNL     1     -25.706 -14.970 -15.152  1.00  0.00     0.123 A 
ATOM      9  C   UNL     1     -24.361 -14.816 -14.798  1.00  0.00     0.094 A 
ATOM     10  C   UNL     1     -23.611 -15.919 -14.379  1.00  0.00     0.146 A 
ATOM     11  O   UNL     1     -22.338 -15.745 -14.044  1.00  0.00    -0.452 OA
ENDROOT
BRANCH   1  12
ATOM     12  C   UNL     1     -20.150 -16.405 -13.276  1.00  0.00     0.025 A 
ATOM     13  C   UNL     1     -19.079 -17.212 -13.700  1.00  0.00     0.016 A 
ATOM     14  C   UNL     1     -17.768 -16.896 -13.332  1.00  0.00     0.051 A 
ATOM     15  C   UNL     1     -17.510 -15.781 -12.526  1.00  0.00     0.157 A 
ATOM     16  C   UNL     1     -19.886 -15.299 -12.450  1.00  0.00     0.062 A 
ATOM     17  C   UNL     1     -18.571 -14.982 -12.082  1.00  0.00     0.158 A 
BRANCH  15  18
ATOM     18  O   UNL     1     -16.203 -15.462 -12.160  1.00  0.00    -0.504 OA
ATOM     19  H   UNL     1     -15.962 -14.542 -11.807  1.00  0.00     0.293 HD
ENDBRANCH  15  18
BRANCH  17  20
ATOM     20  O   UNL     1     -18.311 -13.876 -11.274  1.00  0.00    -0.504 OA
ATOM     21  H   UNL     1     -18.864 -13.030 -11.340  1.00  0.00     0.293 HD
ENDBRANCH  17  20
ENDBRANCH   1  12
BRANCH   2  22
ATOM     22  O   UNL     1     -21.216 -19.102 -13.187  1.00  0.00    -0.502 OA
ATOM     23  H   UNL     1     -21.240 -20.001 -13.653  1.00  0.00     0.293 HD
ENDBRANCH   2  22
BRANCH   6  24
ATOM     24  O   UNL     1     -26.191 -18.597 -14.616  1.00  0.00    -0.507 OA
ATOM     25  H   UNL     1     -26.367 -19.142 -15.454  1.00  0.00     0.293 HD
ENDBRANCH   6  24
BRANCH   8  26
ATOM     26  O   UNL     1     -26.460 -13.875 -15.569  1.00  0.00    -0.508 OA
ATOM     27  H   UNL     1     -26.034 -12.970 -15.733  1.00  0.00     0.293 HD
ENDBRANCH   8  26
TORSDOF 6
ENDMDL
