MODEL 1
REMARK VINA RESULT:    -4.620      0.000      0.000
REMARK INTER + INTRA:         -10.919
REMARK INTER:                  -8.402
REMARK INTRA:                  -2.518
REMARK UNBOUND:                -2.518
REMARK SMILES CCCCCCCCCCCCCCCC(=O)[O-]
REMARK SMILES IDX 9 1 10 2 11 3 12 4 13 5 14 6 15 7 16 8 17 9 18 10 8 11 7 12
REMARK SMILES IDX 6 13 5 14 4 15 3 16 2 17 1 18
REMARK H PARENT
REMARK Flexibility Score: inf
ROOT
ATOM      1  C   UNL     1      17.249  -4.384  19.096  1.00  0.00     0.000 C 
ENDROOT
BRANCH   1   2
ATOM      2  C   UNL     1      18.619  -4.775  19.668  1.00  0.00     0.000 C 
BRANCH   2   3
ATOM      3  C   UNL     1      18.782  -4.260  21.106  1.00  0.00     0.000 C 
BRANCH   3   4
ATOM      4  C   UNL     1      20.058  -3.424  21.292  1.00  0.00     0.000 C 
BRANCH   4   5
ATOM      5  C   UNL     1      20.616  -3.510  22.724  1.00  0.00     0.000 C 
BRANCH   5   6
ATOM      6  C   UNL     1      20.930  -2.126  23.323  1.00  0.00     0.006 C 
BRANCH   6   7
ATOM      7  C   UNL     1      21.532  -1.128  22.320  1.00  0.00     0.053 C 
BRANCH   7   8
ATOM      8  C   UNL     1      20.712   0.120  22.212  1.00  0.00     0.041 C 
ATOM      9  O   UNL     1      19.770   0.333  23.020  1.00  0.00    -0.550 OA
ATOM     10  O   UNL     1      20.968   1.034  21.196  1.00  0.00    -0.550 OA
ENDBRANCH   7   8
ENDBRANCH   6   7
ENDBRANCH   5   6
ENDBRANCH   4   5
ENDBRANCH   3   4
ENDBRANCH   2   3
ENDBRANCH   1   2
BRANCH   1  11
ATOM     11  C   UNL     1      17.351  -3.594  17.779  1.00  0.00     0.000 C 
BRANCH  11  12
ATOM     12  C   UNL     1      18.704  -2.900  17.538  1.00  0.00    -0.000 C 
BRANCH  12  13
ATOM     13  C   UNL     1      18.609  -1.367  17.583  1.00  0.00    -0.000 C 
BRANCH  13  14
ATOM     14  C   UNL     1      19.016  -0.834  18.964  1.00  0.00    -0.000 C 
BRANCH  14  15
ATOM     15  C   UNL     1      17.859  -0.135  19.694  1.00  0.00    -0.000 C 
BRANCH  15  16
ATOM     16  C   UNL     1      17.284  -0.985  20.841  1.00  0.00    -0.000 C 
BRANCH  16  17
ATOM     17  C   UNL     1      15.751  -1.079  20.793  1.00  0.00    -0.003 C 
ATOM     18  C   UNL     1      15.205  -1.085  19.366  1.00  0.00     0.004 C 
ENDBRANCH  16  17
ENDBRANCH  15  16
ENDBRANCH  14  15
ENDBRANCH  13  14
ENDBRANCH  12  13
ENDBRANCH  11  12
ENDBRANCH   1  11
TORSDOF 14
ENDMDL
MODEL 2
REMARK VINA RESULT:    -4.613      1.801      3.997
REMARK INTER + INTRA:         -10.907
REMARK INTER:                  -8.205
REMARK INTRA:                  -2.702
REMARK UNBOUND:                -2.518
REMARK SMILES CCCCCCCCCCCCCCCC(=O)[O-]
REMARK SMILES IDX 9 1 10 2 11 3 12 4 13 5 14 6 15 7 16 8 17 9 18 10 8 11 7 12
REMARK SMILES IDX 6 13 5 14 4 15 3 16 2 17 1 18
REMARK H PARENT
REMARK Flexibility Score: inf
ROOT
ATOM      1  C   UNL     1      16.413  -0.412  18.130  1.00  0.00     0.000 C 
ENDROOT
BRANCH   1   2
ATOM      2  C   UNL     1      17.882  -0.774  17.867  1.00  0.00     0.000 C 
BRANCH   2   3
ATOM      3  C   UNL     1      18.731  -0.575  19.131  1.00  0.00     0.000 C 
BRANCH   3   4
ATOM      4  C   UNL     1      18.065   0.367  20.147  1.00  0.00     0.000 C 
BRANCH   4   5
ATOM      5  C   UNL     1      18.709   0.280  21.543  1.00  0.00     0.000 C 
BRANCH   5   6
ATOM      6  C   UNL     1      19.981  -0.588  21.557  1.00  0.00     0.006 C 
BRANCH   6   7
ATOM      7  C   UNL     1      20.175  -1.398  22.850  1.00  0.00     0.053 C 
BRANCH   7   8
ATOM      8  C   UNL     1      21.165  -2.507  22.673  1.00  0.00     0.041 C 
ATOM      9  O   UNL     1      22.259  -2.294  22.087  1.00  0.00    -0.550 OA
ATOM     10  O   UNL     1      20.865  -3.786  23.126  1.00  0.00    -0.550 OA
ENDBRANCH   7   8
ENDBRANCH   6   7
ENDBRANCH   5   6
ENDBRANCH   4   5
ENDBRANCH   3   4
ENDBRANCH   2   3
ENDBRANCH   1   2
BRANCH   1  11
ATOM     11  C   UNL     1      15.549  -1.634  18.493  1.00  0.00     0.000 C 
BRANCH  11  12
ATOM     12  C   UNL     1      16.058  -2.979  17.942  1.00  0.00    -0.000 C 
BRANCH  12  13
ATOM     13  C   UNL     1      16.311  -4.021  19.042  1.00  0.00    -0.000 C 
BRANCH  13  14
ATOM     14  C   UNL     1      16.637  -3.339  20.379  1.00  0.00    -0.000 C 
BRANCH  14  15
ATOM     15  C   UNL     1      18.028  -3.717  20.912  1.00  0.00    -0.000 C 
BRANCH  15  16
ATOM     16  C   UNL     1      18.784  -4.669  19.969  1.00  0.00    -0.000 C 
BRANCH  16  17
ATOM     17  C   UNL     1      20.084  -4.053  19.429  1.00  0.00    -0.003 C 
ATOM     18  C   UNL     1      20.060  -3.861  17.913  1.00  0.00     0.004 C 
ENDBRANCH  16  17
ENDBRANCH  15  16
ENDBRANCH  14  15
ENDBRANCH  13  14
ENDBRANCH  12  13
ENDBRANCH  11  12
ENDBRANCH   1  11
TORSDOF 14
ENDMDL
MODEL 3
REMARK VINA RESULT:    -4.592      1.686      3.379
REMARK INTER + INTRA:         -10.869
REMARK INTER:                  -8.185
REMARK INTRA:                  -2.683
REMARK UNBOUND:                -2.518
REMARK SMILES CCCCCCCCCCCCCCCC(=O)[O-]
REMARK SMILES IDX 9 1 10 2 11 3 12 4 13 5 14 6 15 7 16 8 17 9 18 10 8 11 7 12
REMARK SMILES IDX 6 13 5 14 4 15 3 16 2 17 1 18
REMARK H PARENT
REMARK Flexibility Score: inf
ROOT
ATOM      1  C   UNL     1      17.624  -0.699  17.986  1.00  0.00     0.000 C 
ENDROOT
BRANCH   1   2
ATOM      2  C   UNL     1      18.136  -0.130  19.318  1.00  0.00     0.000 C 
BRANCH   2   3
ATOM      3  C   UNL     1      17.369  -0.733  20.504  1.00  0.00     0.000 C 
BRANCH   3   4
ATOM      4  C   UNL     1      18.213  -0.784  21.788  1.00  0.00     0.000 C 
BRANCH   4   5
ATOM      5  C   UNL     1      19.564  -0.062  21.636  1.00  0.00     0.000 C 
BRANCH   5   6
ATOM      6  C   UNL     1      20.448  -0.185  22.891  1.00  0.00     0.006 C 
BRANCH   6   7
ATOM      7  C   UNL     1      20.358  -1.551  23.592  1.00  0.00     0.053 C 
BRANCH   7   8
ATOM      8  C   UNL     1      21.370  -2.520  23.063  1.00  0.00     0.041 C 
ATOM      9  O   UNL     1      21.291  -3.742  23.356  1.00  0.00    -0.550 OA
ATOM     10  O   UNL     1      22.420  -2.067  22.274  1.00  0.00    -0.550 OA
ENDBRANCH   7   8
ENDBRANCH   6   7
ENDBRANCH   5   6
ENDBRANCH   4   5
ENDBRANCH   3   4
ENDBRANCH   2   3
ENDBRANCH   1   2
BRANCH   1  11
ATOM     11  C   UNL     1      18.663  -1.582  17.272  1.00  0.00     0.000 C 
BRANCH  11  12
ATOM     12  C   UNL     1      19.899  -1.947  18.115  1.00  0.00    -0.000 C 
BRANCH  12  13
ATOM     13  C   UNL     1      19.958  -3.437  18.480  1.00  0.00    -0.000 C 
BRANCH  13  14
ATOM     14  C   UNL     1      19.808  -3.637  19.995  1.00  0.00    -0.000 C 
BRANCH  14  15
ATOM     15  C   UNL     1      18.464  -4.277  20.377  1.00  0.00    -0.000 C 
BRANCH  15  16
ATOM     16  C   UNL     1      17.621  -4.660  19.148  1.00  0.00    -0.000 C 
BRANCH  16  17
ATOM     17  C   UNL     1      16.243  -3.979  19.144  1.00  0.00    -0.003 C 
ATOM     18  C   UNL     1      15.644  -3.870  17.743  1.00  0.00     0.004 C 
ENDBRANCH  16  17
ENDBRANCH  15  16
ENDBRANCH  14  15
ENDBRANCH  13  14
ENDBRANCH  12  13
ENDBRANCH  11  12
ENDBRANCH   1  11
TORSDOF 14
ENDMDL
MODEL 4
REMARK VINA RESULT:    -4.587      3.038      5.094
REMARK INTER + INTRA:         -10.859
REMARK INTER:                  -8.302
REMARK INTRA:                  -2.556
REMARK UNBOUND:                -2.518
REMARK SMILES CCCCCCCCCCCCCCCC(=O)[O-]
REMARK SMILES IDX 9 1 10 2 11 3 12 4 13 5 14 6 15 7 16 8 17 9 18 10 8 11 7 12
REMARK SMILES IDX 6 13 5 14 4 15 3 16 2 17 1 18
REMARK H PARENT
REMARK Flexibility Score: inf
ROOT
ATOM      1  C   UNL     1      19.120  -0.965  17.756  1.00  0.00     0.000 C 
ENDROOT
BRANCH   1   2
ATOM      2  C   UNL     1      19.811  -2.299  18.076  1.00  0.00     0.000 C 
BRANCH   2   3
ATOM      3  C   UNL     1      19.979  -2.482  19.591  1.00  0.00     0.000 C 
BRANCH   3   4
ATOM      4  C   UNL     1      19.474  -3.849  20.081  1.00  0.00     0.000 C 
BRANCH   4   5
ATOM      5  C   UNL     1      18.243  -3.730  20.996  1.00  0.00     0.000 C 
BRANCH   5   6
ATOM      6  C   UNL     1      16.919  -3.698  20.210  1.00  0.00     0.006 C 
BRANCH   6   7
ATOM      7  C   UNL     1      16.937  -4.525  18.914  1.00  0.00     0.053 C 
BRANCH   7   8
ATOM      8  C   UNL     1      15.678  -4.351  18.120  1.00  0.00     0.041 C 
ATOM      9  O   UNL     1      14.774  -5.226  18.166  1.00  0.00    -0.550 OA
ATOM     10  O   UNL     1      15.519  -3.238  17.304  1.00  0.00    -0.550 OA
ENDBRANCH   7   8
ENDBRANCH   6   7
ENDBRANCH   5   6
ENDBRANCH   4   5
ENDBRANCH   3   4
ENDBRANCH   2   3
ENDBRANCH   1   2
BRANCH   1  11
ATOM     11  C   UNL     1      17.743  -0.826  18.429  1.00  0.00     0.000 C 
BRANCH  11  12
ATOM     12  C   UNL     1      17.622   0.335  19.434  1.00  0.00    -0.000 C 
BRANCH  12  13
ATOM     13  C   UNL     1      16.961  -0.082  20.756  1.00  0.00    -0.000 C 
BRANCH  13  14
ATOM     14  C   UNL     1      17.997  -0.154  21.888  1.00  0.00    -0.000 C 
BRANCH  14  15
ATOM     15  C   UNL     1      19.329   0.514  21.514  1.00  0.00    -0.000 C 
BRANCH  15  16
ATOM     16  C   UNL     1      20.480   0.103  22.449  1.00  0.00    -0.000 C 
BRANCH  16  17
ATOM     17  C   UNL     1      20.103  -1.073  23.364  1.00  0.00    -0.003 C 
ATOM     18  C   UNL     1      21.130  -2.204  23.323  1.00  0.00     0.004 C 
ENDBRANCH  16  17
ENDBRANCH  15  16
ENDBRANCH  14  15
ENDBRANCH  13  14
ENDBRANCH  12  13
ENDBRANCH  11  12
ENDBRANCH   1  11
TORSDOF 14
ENDMDL
MODEL 5
REMARK VINA RESULT:    -4.581      2.787      5.116
REMARK INTER + INTRA:         -10.849
REMARK INTER:                  -8.614
REMARK INTRA:                  -2.234
REMARK UNBOUND:                -2.518
REMARK SMILES CCCCCCCCCCCCCCCC(=O)[O-]
REMARK SMILES IDX 9 1 10 2 11 3 12 4 13 5 14 6 15 7 16 8 17 9 18 10 8 11 7 12
REMARK SMILES IDX 6 13 5 14 4 15 3 16 2 17 1 18
REMARK H PARENT
REMARK Flexibility Score: inf
ROOT
ATOM      1  C   UNL     1      17.244  -4.170  19.626  1.00  0.00     0.000 C 
ENDROOT
BRANCH   1   2
ATOM      2  C   UNL     1      16.975  -3.119  20.714  1.00  0.00     0.000 C 
BRANCH   2   3
ATOM      3  C   UNL     1      18.245  -2.316  21.028  1.00  0.00     0.000 C 
BRANCH   3   4
ATOM      4  C   UNL     1      18.254  -0.936  20.351  1.00  0.00     0.000 C 
BRANCH   4   5
ATOM      5  C   UNL     1      18.769  -0.993  18.902  1.00  0.00     0.000 C 
BRANCH   5   6
ATOM      6  C   UNL     1      17.668  -0.694  17.868  1.00  0.00     0.006 C 
BRANCH   6   7
ATOM      7  C   UNL     1      16.433   0.012  18.451  1.00  0.00     0.053 C 
BRANCH   7   8
ATOM      8  C   UNL     1      15.209  -0.848  18.376  1.00  0.00     0.041 C 
ATOM      9  O   UNL     1      15.260  -1.978  17.823  1.00  0.00    -0.550 OA
ATOM     10  O   UNL     1      14.002  -0.387  18.888  1.00  0.00    -0.550 OA
ENDBRANCH   7   8
ENDBRANCH   6   7
ENDBRANCH   5   6
ENDBRANCH   4   5
ENDBRANCH   3   4
ENDBRANCH   2   3
ENDBRANCH   1   2
BRANCH   1  11
ATOM     11  C   UNL     1      18.608  -4.865  19.787  1.00  0.00     0.000 C 
BRANCH  11  12
ATOM     12  C   UNL     1      19.494  -4.864  18.528  1.00  0.00    -0.000 C 
BRANCH  12  13
ATOM     13  C   UNL     1      20.994  -4.812  18.850  1.00  0.00    -0.000 C 
BRANCH  13  14
ATOM     14  C   UNL     1      21.428  -3.385  19.214  1.00  0.00    -0.000 C 
BRANCH  14  15
ATOM     15  C   UNL     1      21.789  -3.236  20.701  1.00  0.00    -0.000 C 
BRANCH  15  16
ATOM     16  C   UNL     1      21.917  -1.766  21.134  1.00  0.00    -0.000 C 
BRANCH  16  17
ATOM     17  C   UNL     1      22.169  -1.616  22.642  1.00  0.00    -0.003 C 
ATOM     18  C   UNL     1      20.884  -1.373  23.433  1.00  0.00     0.004 C 
ENDBRANCH  16  17
ENDBRANCH  15  16
ENDBRANCH  14  15
ENDBRANCH  13  14
ENDBRANCH  12  13
ENDBRANCH  11  12
ENDBRANCH   1  11
TORSDOF 14
ENDMDL
MODEL 6
REMARK VINA RESULT:    -4.580      2.678      5.900
REMARK INTER + INTRA:         -10.846
REMARK INTER:                  -8.432
REMARK INTRA:                  -2.414
REMARK UNBOUND:                -2.518
REMARK SMILES CCCCCCCCCCCCCCCC(=O)[O-]
REMARK SMILES IDX 9 1 10 2 11 3 12 4 13 5 14 6 15 7 16 8 17 9 18 10 8 11 7 12
REMARK SMILES IDX 6 13 5 14 4 15 3 16 2 17 1 18
REMARK H PARENT
REMARK Flexibility Score: inf
ROOT
ATOM      1  C   UNL     1      21.344  -2.984  22.721  1.00  0.00     0.000 C 
ENDROOT
BRANCH   1   2
ATOM      2  C   UNL     1      20.437  -3.013  21.482  1.00  0.00     0.000 C 
BRANCH   2   3
ATOM      3  C   UNL     1      21.270  -3.060  20.193  1.00  0.00     0.000 C 
BRANCH   3   4
ATOM      4  C   UNL     1      20.566  -2.378  19.009  1.00  0.00     0.000 C 
BRANCH   4   5
ATOM      5  C   UNL     1      19.080  -2.094  19.290  1.00  0.00     0.000 C 
BRANCH   5   6
ATOM      6  C   UNL     1      18.634  -0.708  18.787  1.00  0.00     0.006 C 
BRANCH   6   7
ATOM      7  C   UNL     1      17.342  -0.188  19.438  1.00  0.00     0.053 C 
BRANCH   7   8
ATOM      8  C   UNL     1      16.202  -0.148  18.467  1.00  0.00     0.041 C 
ATOM      9  O   UNL     1      16.175   0.722  17.557  1.00  0.00    -0.550 OA
ATOM     10  O   UNL     1      15.152  -1.049  18.589  1.00  0.00    -0.550 OA
ENDBRANCH   7   8
ENDBRANCH   6   7
ENDBRANCH   5   6
ENDBRANCH   4   5
ENDBRANCH   3   4
ENDBRANCH   2   3
ENDBRANCH   1   2
BRANCH   1  11
ATOM     11  C   UNL     1      21.017  -1.823  23.678  1.00  0.00     0.000 C 
BRANCH  11  12
ATOM     12  C   UNL     1      19.966  -0.825  23.157  1.00  0.00    -0.000 C 
BRANCH  12  13
ATOM     13  C   UNL     1      20.565   0.543  22.796  1.00  0.00    -0.000 C 
BRANCH  13  14
ATOM     14  C   UNL     1      20.683   0.705  21.273  1.00  0.00    -0.000 C 
BRANCH  14  15
ATOM     15  C   UNL     1      22.120   0.505  20.767  1.00  0.00    -0.000 C 
BRANCH  15  16
ATOM     16  C   UNL     1      23.174   0.812  21.844  1.00  0.00    -0.000 C 
BRANCH  16  17
ATOM     17  C   UNL     1      24.107  -0.380  22.112  1.00  0.00    -0.003 C 
ATOM     18  C   UNL     1      24.977  -0.181  23.352  1.00  0.00     0.004 C 
ENDBRANCH  16  17
ENDBRANCH  15  16
ENDBRANCH  14  15
ENDBRANCH  13  14
ENDBRANCH  12  13
ENDBRANCH  11  12
ENDBRANCH   1  11
TORSDOF 14
ENDMDL
MODEL 7
REMARK VINA RESULT:    -4.577      1.760      3.881
REMARK INTER + INTRA:         -10.841
REMARK INTER:                  -8.509
REMARK INTRA:                  -2.333
REMARK UNBOUND:                -2.518
REMARK SMILES CCCCCCCCCCCCCCCC(=O)[O-]
REMARK SMILES IDX 9 1 10 2 11 3 12 4 13 5 14 6 15 7 16 8 17 9 18 10 8 11 7 12
REMARK SMILES IDX 6 13 5 14 4 15 3 16 2 17 1 18
REMARK H PARENT
REMARK Flexibility Score: inf
ROOT
ATOM      1  C   UNL     1      19.262  -1.253  18.109  1.00  0.00     0.000 C 
ENDROOT
BRANCH   1   2
ATOM      2  C   UNL     1      20.042  -1.051  19.417  1.00  0.00     0.000 C 
BRANCH   2   3
ATOM      3  C   UNL     1      19.107  -0.603  20.550  1.00  0.00     0.000 C 
BRANCH   3   4
ATOM      4  C   UNL     1      19.072  -1.603  21.716  1.00  0.00     0.000 C 
BRANCH   4   5
ATOM      5  C   UNL     1      20.173  -2.674  21.610  1.00  0.00     0.000 C 
BRANCH   5   6
ATOM      6  C   UNL     1      20.921  -2.890  22.939  1.00  0.00     0.006 C 
BRANCH   6   7
ATOM      7  C   UNL     1      21.219  -1.595  23.711  1.00  0.00     0.053 C 
BRANCH   7   8
ATOM      8  C   UNL     1      22.175  -0.709  22.973  1.00  0.00     0.041 C 
ATOM      9  O   UNL     1      23.289  -1.157  22.592  1.00  0.00    -0.550 OA
ATOM     10  O   UNL     1      21.851   0.621  22.736  1.00  0.00    -0.550 OA
ENDBRANCH   7   8
ENDBRANCH   6   7
ENDBRANCH   5   6
ENDBRANCH   4   5
ENDBRANCH   3   4
ENDBRANCH   2   3
ENDBRANCH   1   2
BRANCH   1  11
ATOM     11  C   UNL     1      17.753  -0.988  18.263  1.00  0.00     0.000 C 
BRANCH  11  12
ATOM     12  C   UNL     1      16.849  -2.214  18.033  1.00  0.00    -0.000 C 
BRANCH  12  13
ATOM     13  C   UNL     1      16.706  -3.096  19.282  1.00  0.00    -0.000 C 
BRANCH  13  14
ATOM     14  C   UNL     1      17.098  -4.548  18.976  1.00  0.00    -0.000 C 
BRANCH  14  15
ATOM     15  C   UNL     1      18.544  -4.869  19.384  1.00  0.00    -0.000 C 
BRANCH  15  16
ATOM     16  C   UNL     1      19.504  -4.902  18.181  1.00  0.00    -0.000 C 
BRANCH  16  17
ATOM     17  C   UNL     1      20.973  -4.719  18.595  1.00  0.00    -0.003 C 
ATOM     18  C   UNL     1      21.915  -4.620  17.396  1.00  0.00     0.004 C 
ENDBRANCH  16  17
ENDBRANCH  15  16
ENDBRANCH  14  15
ENDBRANCH  13  14
ENDBRANCH  12  13
ENDBRANCH  11  12
ENDBRANCH   1  11
TORSDOF 14
ENDMDL
MODEL 8
REMARK VINA RESULT:    -4.572      2.707      5.932
REMARK INTER + INTRA:         -10.832
REMARK INTER:                  -8.406
REMARK INTRA:                  -2.426
REMARK UNBOUND:                -2.518
REMARK SMILES CCCCCCCCCCCCCCCC(=O)[O-]
REMARK SMILES IDX 9 1 10 2 11 3 12 4 13 5 14 6 15 7 16 8 17 9 18 10 8 11 7 12
REMARK SMILES IDX 6 13 5 14 4 15 3 16 2 17 1 18
REMARK H PARENT
REMARK Flexibility Score: inf
ROOT
ATOM      1  C   UNL     1      22.190  -0.471  21.636  1.00  0.00     0.000 C 
ENDROOT
BRANCH   1   2
ATOM      2  C   UNL     1      21.401  -0.088  20.375  1.00  0.00     0.000 C 
BRANCH   2   3
ATOM      3  C   UNL     1      19.971   0.342  20.730  1.00  0.00     0.000 C 
BRANCH   3   4
ATOM      4  C   UNL     1      18.907  -0.430  19.934  1.00  0.00     0.000 C 
BRANCH   4   5
ATOM      5  C   UNL     1      19.438  -0.947  18.585  1.00  0.00     0.000 C 
BRANCH   5   6
ATOM      6  C   UNL     1      18.316  -1.177  17.555  1.00  0.00     0.006 C 
BRANCH   6   7
ATOM      7  C   UNL     1      16.916  -1.323  18.172  1.00  0.00     0.053 C 
BRANCH   7   8
ATOM      8  C   UNL     1      16.517  -2.759  18.325  1.00  0.00     0.041 C 
ATOM      9  O   UNL     1      16.636  -3.335  19.439  1.00  0.00    -0.550 OA
ATOM     10  O   UNL     1      16.046  -3.470  17.229  1.00  0.00    -0.550 OA
ENDBRANCH   7   8
ENDBRANCH   6   7
ENDBRANCH   5   6
ENDBRANCH   4   5
ENDBRANCH   3   4
ENDBRANCH   2   3
ENDBRANCH   1   2
BRANCH   1  11
ATOM     11  C   UNL     1      21.308  -0.542  22.896  1.00  0.00     0.000 C 
BRANCH  11  12
ATOM     12  C   UNL     1      21.249  -1.924  23.573  1.00  0.00    -0.000 C 
BRANCH  12  13
ATOM     13  C   UNL     1      21.338  -3.086  22.573  1.00  0.00    -0.000 C 
BRANCH  13  14
ATOM     14  C   UNL     1      19.948  -3.455  22.035  1.00  0.00    -0.000 C 
BRANCH  14  15
ATOM     15  C   UNL     1      19.968  -3.816  20.541  1.00  0.00    -0.000 C 
BRANCH  15  16
ATOM     16  C   UNL     1      21.386  -3.787  19.945  1.00  0.00    -0.000 C 
BRANCH  16  17
ATOM     17  C   UNL     1      21.469  -4.502  18.588  1.00  0.00    -0.003 C 
ATOM     18  C   UNL     1      20.095  -4.747  17.966  1.00  0.00     0.004 C 
ENDBRANCH  16  17
ENDBRANCH  15  16
ENDBRANCH  14  15
ENDBRANCH  13  14
ENDBRANCH  12  13
ENDBRANCH  11  12
ENDBRANCH   1  11
TORSDOF 14
ENDMDL
MODEL 9
REMARK VINA RESULT:    -4.560      3.314      5.518
REMARK INTER + INTRA:         -10.809
REMARK INTER:                  -8.416
REMARK INTRA:                  -2.393
REMARK UNBOUND:                -2.518
REMARK SMILES CCCCCCCCCCCCCCCC(=O)[O-]
REMARK SMILES IDX 9 1 10 2 11 3 12 4 13 5 14 6 15 7 16 8 17 9 18 10 8 11 7 12
REMARK SMILES IDX 6 13 5 14 4 15 3 16 2 17 1 18
REMARK H PARENT
REMARK Flexibility Score: inf
ROOT
ATOM      1  C   UNL     1      21.226  -2.225  22.393  1.00  0.00     0.000 C 
ENDROOT
BRANCH   1   2
ATOM      2  C   UNL     1      20.450  -3.541  22.246  1.00  0.00     0.000 C 
BRANCH   2   3
ATOM      3  C   UNL     1      19.827  -3.658  20.847  1.00  0.00     0.000 C 
BRANCH   3   4
ATOM      4  C   UNL     1      18.534  -4.489  20.844  1.00  0.00     0.000 C 
BRANCH   4   5
ATOM      5  C   UNL     1      17.814  -4.456  19.484  1.00  0.00     0.000 C 
BRANCH   5   6
ATOM      6  C   UNL     1      16.446  -3.753  19.553  1.00  0.00     0.006 C 
BRANCH   6   7
ATOM      7  C   UNL     1      15.766  -3.563  18.187  1.00  0.00     0.053 C 
BRANCH   7   8
ATOM      8  C   UNL     1      15.349  -4.868  17.583  1.00  0.00     0.041 C 
ATOM      9  O   UNL     1      15.932  -5.307  16.557  1.00  0.00    -0.550 OA
ATOM     10  O   UNL     1      14.292  -5.583  18.133  1.00  0.00    -0.550 OA
ENDBRANCH   7   8
ENDBRANCH   6   7
ENDBRANCH   5   6
ENDBRANCH   4   5
ENDBRANCH   3   4
ENDBRANCH   2   3
ENDBRANCH   1   2
BRANCH   1  11
ATOM     11  C   UNL     1      20.998  -1.257  21.218  1.00  0.00     0.000 C 
BRANCH  11  12
ATOM     12  C   UNL     1      20.200   0.013  21.564  1.00  0.00    -0.000 C 
BRANCH  12  13
ATOM     13  C   UNL     1      18.839  -0.290  22.208  1.00  0.00    -0.000 C 
BRANCH  13  14
ATOM     14  C   UNL     1      17.814  -0.718  21.147  1.00  0.00    -0.000 C 
BRANCH  14  15
ATOM     15  C   UNL     1      17.634   0.334  20.041  1.00  0.00    -0.000 C 
BRANCH  15  16
ATOM     16  C   UNL     1      17.579  -0.290  18.635  1.00  0.00    -0.000 C 
BRANCH  16  17
ATOM     17  C   UNL     1      18.847  -1.089  18.296  1.00  0.00    -0.003 C 
ATOM     18  C   UNL     1      18.706  -1.900  17.009  1.00  0.00     0.004 C 
ENDBRANCH  16  17
ENDBRANCH  15  16
ENDBRANCH  14  15
ENDBRANCH  13  14
ENDBRANCH  12  13
ENDBRANCH  11  12
ENDBRANCH   1  11
TORSDOF 14
ENDMDL
