MODEL 1
REMARK VINA RESULT:    -4.240      0.000      0.000
REMARK INTER + INTRA:         -15.062
REMARK INTER:                 -10.684
REMARK INTRA:                  -4.378
REMARK UNBOUND:                -4.378
REMARK SMILES CCCCCCCCCCCCCCCCCCCCCCCCCCCC(=O)[O-]
REMARK SMILES IDX 15 1 16 2 17 3 18 4 19 5 20 6 21 7 22 8 23 9 24 10 25 11
REMARK SMILES IDX 26 12 27 13 28 14 29 15 30 16 14 17 13 18 12 19 11 20 10 21
REMARK SMILES IDX 9 22 8 23 7 24 6 25 5 26 4 27 3 28 2 29 1 30
REMARK H PARENT
REMARK Flexibility Score: inf
ROOT
ATOM      1  C   UNL     1      44.607  27.654  16.675  1.00  0.00     0.000 C 
ENDROOT
BRANCH   1   2
ATOM      2  C   UNL     1      43.480  27.312  17.667  1.00  0.00     0.000 C 
BRANCH   2   3
ATOM      3  C   UNL     1      43.467  25.852  18.163  1.00  0.00     0.000 C 
BRANCH   3   4
ATOM      4  C   UNL     1      43.031  24.810  17.112  1.00  0.00     0.000 C 
BRANCH   4   5
ATOM      5  C   UNL     1      43.666  23.413  17.273  1.00  0.00     0.000 C 
BRANCH   5   6
ATOM      6  C   UNL     1      44.323  23.158  18.642  1.00  0.00     0.000 C 
BRANCH   6   7
ATOM      7  C   UNL     1      45.810  22.782  18.526  1.00  0.00     0.000 C 
BRANCH   7   8
ATOM      8  C   UNL     1      46.356  22.953  17.098  1.00  0.00     0.000 C 
BRANCH   8   9
ATOM      9  C   UNL     1      47.649  23.786  16.989  1.00  0.00     0.000 C 
BRANCH   9  10
ATOM     10  C   UNL     1      47.438  25.293  16.751  1.00  0.00     0.000 C 
BRANCH  10  11
ATOM     11  C   UNL     1      47.139  26.066  18.044  1.00  0.00     0.000 C 
BRANCH  11  12
ATOM     12  C   UNL     1      48.288  25.918  19.049  1.00  0.00     0.006 C 
BRANCH  12  13
ATOM     13  C   UNL     1      49.289  27.071  18.916  1.00  0.00     0.053 C 
BRANCH  13  14
ATOM     14  C   UNL     1      49.714  27.565  20.262  1.00  0.00     0.041 C 
ATOM     15  O   UNL     1      50.023  28.774  20.428  1.00  0.00    -0.550 OA
ATOM     16  O   UNL     1      49.768  26.688  21.339  1.00  0.00    -0.550 OA
ENDBRANCH  13  14
ENDBRANCH  12  13
ENDBRANCH  11  12
ENDBRANCH  10  11
ENDBRANCH   9  10
ENDBRANCH   8   9
ENDBRANCH   7   8
ENDBRANCH   6   7
ENDBRANCH   5   6
ENDBRANCH   4   5
ENDBRANCH   3   4
ENDBRANCH   2   3
ENDBRANCH   1   2
BRANCH   1  17
ATOM     17  C   UNL     1      44.212  28.632  15.553  1.00  0.00     0.000 C 
BRANCH  17  18
ATOM     18  C   UNL     1      45.410  29.379  14.925  1.00  0.00     0.000 C 
BRANCH  18  19
ATOM     19  C   UNL     1      46.738  28.624  15.109  1.00  0.00     0.000 C 
BRANCH  19  20
ATOM     20  C   UNL     1      47.351  28.177  13.763  1.00  0.00     0.000 C 
BRANCH  20  21
ATOM     21  C   UNL     1      48.718  27.481  13.908  1.00  0.00     0.000 C 
BRANCH  21  22
ATOM     22  C   UNL     1      49.513  27.865  15.170  1.00  0.00    -0.000 C 
BRANCH  22  23
ATOM     23  C   UNL     1      50.933  28.400  14.909  1.00  0.00    -0.000 C 
BRANCH  23  24
ATOM     24  C   UNL     1      51.287  28.453  13.416  1.00  0.00    -0.000 C 
BRANCH  24  25
ATOM     25  C   UNL     1      51.533  29.898  12.958  1.00  0.00    -0.000 C 
BRANCH  25  26
ATOM     26  C   UNL     1      50.228  30.694  12.776  1.00  0.00    -0.000 C 
BRANCH  26  27
ATOM     27  C   UNL     1      50.277  32.153  13.275  1.00  0.00    -0.000 C 
BRANCH  27  28
ATOM     28  C   UNL     1      50.271  32.321  14.805  1.00  0.00    -0.000 C 
BRANCH  28  29
ATOM     29  C   UNL     1      49.112  31.574  15.485  1.00  0.00    -0.003 C 
ATOM     30  C   UNL     1      47.768  32.194  15.118  1.00  0.00     0.004 C 
ENDBRANCH  28  29
ENDBRANCH  27  28
ENDBRANCH  26  27
ENDBRANCH  25  26
ENDBRANCH  24  25
ENDBRANCH  23  24
ENDBRANCH  22  23
ENDBRANCH  21  22
ENDBRANCH  20  21
ENDBRANCH  19  20
ENDBRANCH  18  19
ENDBRANCH  17  18
ENDBRANCH   1  17
TORSDOF 26
ENDMDL
MODEL 2
REMARK VINA RESULT:    -4.191      1.425      2.430
REMARK INTER + INTRA:         -14.938
REMARK INTER:                 -10.060
REMARK INTRA:                  -4.878
REMARK UNBOUND:                -4.378
REMARK SMILES CCCCCCCCCCCCCCCCCCCCCCCCCCCC(=O)[O-]
REMARK SMILES IDX 15 1 16 2 17 3 18 4 19 5 20 6 21 7 22 8 23 9 24 10 25 11
REMARK SMILES IDX 26 12 27 13 28 14 29 15 30 16 14 17 13 18 12 19 11 20 10 21
REMARK SMILES IDX 9 22 8 23 7 24 6 25 5 26 4 27 3 28 2 29 1 30
REMARK H PARENT
REMARK Flexibility Score: inf
ROOT
ATOM      1  C   UNL     1      45.007  29.144  14.960  1.00  0.00     0.000 C 
ENDROOT
BRANCH   1   2
ATOM      2  C   UNL     1      44.835  28.380  16.285  1.00  0.00     0.000 C 
BRANCH   2   3
ATOM      3  C   UNL     1      43.482  27.657  16.452  1.00  0.00     0.000 C 
BRANCH   3   4
ATOM      4  C   UNL     1      43.550  26.309  17.198  1.00  0.00     0.000 C 
BRANCH   4   5
ATOM      5  C   UNL     1      44.212  26.363  18.590  1.00  0.00     0.000 C 
BRANCH   5   6
ATOM      6  C   UNL     1      45.683  25.908  18.622  1.00  0.00     0.000 C 
BRANCH   6   7
ATOM      7  C   UNL     1      45.849  24.415  18.294  1.00  0.00     0.000 C 
BRANCH   7   8
ATOM      8  C   UNL     1      46.776  24.171  17.091  1.00  0.00     0.000 C 
BRANCH   8   9
ATOM      9  C   UNL     1      47.202  25.441  16.326  1.00  0.00     0.000 C 
BRANCH   9  10
ATOM     10  C   UNL     1      48.705  25.768  16.387  1.00  0.00     0.000 C 
BRANCH  10  11
ATOM     11  C   UNL     1      48.994  27.136  17.023  1.00  0.00     0.000 C 
BRANCH  11  12
ATOM     12  C   UNL     1      50.049  27.015  18.130  1.00  0.00     0.006 C 
BRANCH  12  13
ATOM     13  C   UNL     1      49.455  27.365  19.498  1.00  0.00     0.053 C 
BRANCH  13  14
ATOM     14  C   UNL     1      49.479  26.178  20.407  1.00  0.00     0.041 C 
ATOM     15  O   UNL     1      50.567  25.604  20.677  1.00  0.00    -0.550 OA
ATOM     16  O   UNL     1      48.296  25.703  20.962  1.00  0.00    -0.550 OA
ENDBRANCH  13  14
ENDBRANCH  12  13
ENDBRANCH  11  12
ENDBRANCH  10  11
ENDBRANCH   9  10
ENDBRANCH   8   9
ENDBRANCH   7   8
ENDBRANCH   6   7
ENDBRANCH   5   6
ENDBRANCH   4   5
ENDBRANCH   3   4
ENDBRANCH   2   3
ENDBRANCH   1   2
BRANCH   1  17
ATOM     17  C   UNL     1      46.219  30.092  14.907  1.00  0.00     0.000 C 
BRANCH  17  18
ATOM     18  C   UNL     1      47.550  29.386  14.564  1.00  0.00     0.000 C 
BRANCH  18  19
ATOM     19  C   UNL     1      47.343  28.103  13.739  1.00  0.00     0.000 C 
BRANCH  19  20
ATOM     20  C   UNL     1      48.633  27.653  13.020  1.00  0.00     0.000 C 
BRANCH  20  21
ATOM     21  C   UNL     1      49.882  28.456  13.432  1.00  0.00     0.000 C 
BRANCH  21  22
ATOM     22  C   UNL     1      50.779  28.908  12.265  1.00  0.00    -0.000 C 
BRANCH  22  23
ATOM     23  C   UNL     1      51.652  30.143  12.554  1.00  0.00    -0.000 C 
BRANCH  23  24
ATOM     24  C   UNL     1      51.041  31.447  12.020  1.00  0.00    -0.000 C 
BRANCH  24  25
ATOM     25  C   UNL     1      50.881  32.481  13.142  1.00  0.00    -0.000 C 
BRANCH  25  26
ATOM     26  C   UNL     1      49.508  32.398  13.835  1.00  0.00    -0.000 C 
BRANCH  26  27
ATOM     27  C   UNL     1      49.558  32.244  15.370  1.00  0.00    -0.000 C 
BRANCH  27  28
ATOM     28  C   UNL     1      50.894  31.725  15.931  1.00  0.00    -0.000 C 
BRANCH  28  29
ATOM     29  C   UNL     1      50.808  30.278  16.441  1.00  0.00    -0.003 C 
ATOM     30  C   UNL     1      52.131  29.544  16.240  1.00  0.00     0.004 C 
ENDBRANCH  28  29
ENDBRANCH  27  28
ENDBRANCH  26  27
ENDBRANCH  25  26
ENDBRANCH  24  25
ENDBRANCH  23  24
ENDBRANCH  22  23
ENDBRANCH  21  22
ENDBRANCH  20  21
ENDBRANCH  19  20
ENDBRANCH  18  19
ENDBRANCH  17  18
ENDBRANCH   1  17
TORSDOF 26
ENDMDL
MODEL 3
REMARK VINA RESULT:    -4.164      1.667      6.828
REMARK INTER + INTRA:         -14.872
REMARK INTER:                 -10.270
REMARK INTRA:                  -4.602
REMARK UNBOUND:                -4.378
REMARK SMILES CCCCCCCCCCCCCCCCCCCCCCCCCCCC(=O)[O-]
REMARK SMILES IDX 15 1 16 2 17 3 18 4 19 5 20 6 21 7 22 8 23 9 24 10 25 11
REMARK SMILES IDX 26 12 27 13 28 14 29 15 30 16 14 17 13 18 12 19 11 20 10 21
REMARK SMILES IDX 9 22 8 23 7 24 6 25 5 26 4 27 3 28 2 29 1 30
REMARK H PARENT
REMARK Flexibility Score: inf
ROOT
ATOM      1  C   UNL     1      45.958  29.742  14.945  1.00  0.00     0.000 C 
ENDROOT
BRANCH   1   2
ATOM      2  C   UNL     1      46.890  28.957  14.003  1.00  0.00     0.000 C 
BRANCH   2   3
ATOM      3  C   UNL     1      48.115  28.312  14.684  1.00  0.00     0.000 C 
BRANCH   3   4
ATOM      4  C   UNL     1      49.104  27.617  13.726  1.00  0.00     0.000 C 
BRANCH   4   5
ATOM      5  C   UNL     1      50.558  28.125  13.805  1.00  0.00     0.000 C 
BRANCH   5   6
ATOM      6  C   UNL     1      51.027  28.926  12.577  1.00  0.00     0.000 C 
BRANCH   6   7
ATOM      7  C   UNL     1      50.114  30.124  12.265  1.00  0.00     0.000 C 
BRANCH   7   8
ATOM      8  C   UNL     1      50.455  31.366  13.108  1.00  0.00     0.000 C 
BRANCH   8   9
ATOM      9  C   UNL     1      49.277  31.950  13.914  1.00  0.00     0.000 C 
BRANCH   9  10
ATOM     10  C   UNL     1      49.324  31.679  15.429  1.00  0.00     0.000 C 
BRANCH  10  11
ATOM     11  C   UNL     1      50.756  31.586  15.976  1.00  0.00     0.000 C 
BRANCH  11  12
ATOM     12  C   UNL     1      51.002  30.228  16.646  1.00  0.00     0.006 C 
BRANCH  12  13
ATOM     13  C   UNL     1      52.451  29.772  16.451  1.00  0.00     0.053 C 
BRANCH  13  14
ATOM     14  C   UNL     1      52.857  28.815  17.527  1.00  0.00     0.041 C 
ATOM     15  O   UNL     1      52.475  27.616  17.491  1.00  0.00    -0.550 OA
ATOM     16  O   UNL     1      53.662  29.249  18.575  1.00  0.00    -0.550 OA
ENDBRANCH  13  14
ENDBRANCH  12  13
ENDBRANCH  11  12
ENDBRANCH  10  11
ENDBRANCH   9  10
ENDBRANCH   8   9
ENDBRANCH   7   8
ENDBRANCH   6   7
ENDBRANCH   5   6
ENDBRANCH   4   5
ENDBRANCH   3   4
ENDBRANCH   2   3
ENDBRANCH   1   2
BRANCH   1  17
ATOM     17  C   UNL     1      44.666  29.006  15.345  1.00  0.00     0.000 C 
BRANCH  17  18
ATOM     18  C   UNL     1      44.879  27.895  16.396  1.00  0.00     0.000 C 
BRANCH  18  19
ATOM     19  C   UNL     1      43.623  27.641  17.249  1.00  0.00     0.000 C 
BRANCH  19  20
ATOM     20  C   UNL     1      42.869  26.363  16.818  1.00  0.00     0.000 C 
BRANCH  20  21
ATOM     21  C   UNL     1      43.322  25.096  17.569  1.00  0.00     0.000 C 
BRANCH  21  22
ATOM     22  C   UNL     1      44.142  25.355  18.847  1.00  0.00    -0.000 C 
BRANCH  22  23
ATOM     23  C   UNL     1      45.592  24.839  18.806  1.00  0.00    -0.000 C 
BRANCH  23  24
ATOM     24  C   UNL     1      46.059  24.477  17.388  1.00  0.00    -0.000 C 
BRANCH  24  25
ATOM     25  C   UNL     1      47.379  25.182  17.046  1.00  0.00    -0.000 C 
BRANCH  25  26
ATOM     26  C   UNL     1      47.599  26.464  17.868  1.00  0.00    -0.000 C 
BRANCH  26  27
ATOM     27  C   UNL     1      49.074  26.888  18.037  1.00  0.00    -0.000 C 
BRANCH  27  28
ATOM     28  C   UNL     1      49.549  27.033  19.494  1.00  0.00    -0.000 C 
BRANCH  28  29
ATOM     29  C   UNL     1      49.960  28.472  19.849  1.00  0.00    -0.003 C 
ATOM     30  C   UNL     1      51.078  28.484  20.886  1.00  0.00     0.004 C 
ENDBRANCH  28  29
ENDBRANCH  27  28
ENDBRANCH  26  27
ENDBRANCH  25  26
ENDBRANCH  24  25
ENDBRANCH  23  24
ENDBRANCH  22  23
ENDBRANCH  21  22
ENDBRANCH  20  21
ENDBRANCH  19  20
ENDBRANCH  18  19
ENDBRANCH  17  18
ENDBRANCH   1  17
TORSDOF 26
ENDMDL
MODEL 4
REMARK VINA RESULT:    -4.143      2.526      7.533
REMARK INTER + INTRA:         -14.819
REMARK INTER:                 -10.511
REMARK INTRA:                  -4.308
REMARK UNBOUND:                -4.378
REMARK SMILES CCCCCCCCCCCCCCCCCCCCCCCCCCCC(=O)[O-]
REMARK SMILES IDX 15 1 16 2 17 3 18 4 19 5 20 6 21 7 22 8 23 9 24 10 25 11
REMARK SMILES IDX 26 12 27 13 28 14 29 15 30 16 14 17 13 18 12 19 11 20 10 21
REMARK SMILES IDX 9 22 8 23 7 24 6 25 5 26 4 27 3 28 2 29 1 30
REMARK H PARENT
REMARK Flexibility Score: inf
ROOT
ATOM      1  C   UNL     1      46.747  29.293  14.373  1.00  0.00     0.000 C 
ENDROOT
BRANCH   1   2
ATOM      2  C   UNL     1      48.024  30.142  14.520  1.00  0.00     0.000 C 
BRANCH   2   3
ATOM      3  C   UNL     1      47.809  31.548  15.117  1.00  0.00     0.000 C 
BRANCH   3   4
ATOM      4  C   UNL     1      48.961  32.544  14.871  1.00  0.00     0.000 C 
BRANCH   4   5
ATOM      5  C   UNL     1      50.352  31.904  14.690  1.00  0.00     0.000 C 
BRANCH   5   6
ATOM      6  C   UNL     1      51.110  31.626  16.001  1.00  0.00     0.000 C 
BRANCH   6   7
ATOM      7  C   UNL     1      52.100  30.456  15.878  1.00  0.00     0.000 C 
BRANCH   7   8
ATOM      8  C   UNL     1      51.398  29.100  15.692  1.00  0.00     0.000 C 
BRANCH   8   9
ATOM      9  C   UNL     1      50.662  28.569  16.940  1.00  0.00     0.000 C 
BRANCH   9  10
ATOM     10  C   UNL     1      50.096  27.143  16.809  1.00  0.00     0.000 C 
BRANCH  10  11
ATOM     11  C   UNL     1      48.566  27.118  16.678  1.00  0.00     0.000 C 
BRANCH  11  12
ATOM     12  C   UNL     1      48.125  26.144  15.578  1.00  0.00     0.006 C 
BRANCH  12  13
ATOM     13  C   UNL     1      49.254  25.905  14.569  1.00  0.00     0.053 C 
BRANCH  13  14
ATOM     14  C   UNL     1      48.964  26.594  13.274  1.00  0.00     0.041 C 
ATOM     15  O   UNL     1      49.813  27.371  12.763  1.00  0.00    -0.550 OA
ATOM     16  O   UNL     1      47.754  26.376  12.626  1.00  0.00    -0.550 OA
ENDBRANCH  13  14
ENDBRANCH  12  13
ENDBRANCH  11  12
ENDBRANCH  10  11
ENDBRANCH   9  10
ENDBRANCH   8   9
ENDBRANCH   7   8
ENDBRANCH   6   7
ENDBRANCH   5   6
ENDBRANCH   4   5
ENDBRANCH   3   4
ENDBRANCH   2   3
ENDBRANCH   1   2
BRANCH   1  17
ATOM     17  C   UNL     1      45.558  29.750  15.239  1.00  0.00     0.000 C 
BRANCH  17  18
ATOM     18  C   UNL     1      44.549  28.625  15.559  1.00  0.00     0.000 C 
BRANCH  18  19
ATOM     19  C   UNL     1      44.968  27.785  16.778  1.00  0.00     0.000 C 
BRANCH  19  20
ATOM     20  C   UNL     1      43.754  27.281  17.589  1.00  0.00     0.000 C 
BRANCH  20  21
ATOM     21  C   UNL     1      42.810  26.368  16.783  1.00  0.00     0.000 C 
BRANCH  21  22
ATOM     22  C   UNL     1      42.905  24.869  17.126  1.00  0.00    -0.000 C 
BRANCH  22  23
ATOM     23  C   UNL     1      43.588  24.549  18.468  1.00  0.00    -0.000 C 
BRANCH  23  24
ATOM     24  C   UNL     1      44.787  23.601  18.318  1.00  0.00    -0.000 C 
BRANCH  24  25
ATOM     25  C   UNL     1      46.094  24.388  18.148  1.00  0.00    -0.000 C 
BRANCH  25  26
ATOM     26  C   UNL     1      46.363  25.354  19.316  1.00  0.00    -0.000 C 
BRANCH  26  27
ATOM     27  C   UNL     1      47.839  25.457  19.753  1.00  0.00    -0.000 C 
BRANCH  27  28
ATOM     28  C   UNL     1      48.085  25.307  21.265  1.00  0.00    -0.000 C 
BRANCH  28  29
ATOM     29  C   UNL     1      48.884  26.478  21.861  1.00  0.00    -0.003 C 
ATOM     30  C   UNL     1      49.676  27.208  20.781  1.00  0.00     0.004 C 
ENDBRANCH  28  29
ENDBRANCH  27  28
ENDBRANCH  26  27
ENDBRANCH  25  26
ENDBRANCH  24  25
ENDBRANCH  23  24
ENDBRANCH  22  23
ENDBRANCH  21  22
ENDBRANCH  20  21
ENDBRANCH  19  20
ENDBRANCH  18  19
ENDBRANCH  17  18
ENDBRANCH   1  17
TORSDOF 26
ENDMDL
MODEL 5
REMARK VINA RESULT:    -4.124      1.287      2.074
REMARK INTER + INTRA:         -14.770
REMARK INTER:                 -10.152
REMARK INTRA:                  -4.619
REMARK UNBOUND:                -4.378
REMARK SMILES CCCCCCCCCCCCCCCCCCCCCCCCCCCC(=O)[O-]
REMARK SMILES IDX 15 1 16 2 17 3 18 4 19 5 20 6 21 7 22 8 23 9 24 10 25 11
REMARK SMILES IDX 26 12 27 13 28 14 29 15 30 16 14 17 13 18 12 19 11 20 10 21
REMARK SMILES IDX 9 22 8 23 7 24 6 25 5 26 4 27 3 28 2 29 1 30
REMARK H PARENT
REMARK Flexibility Score: inf
ROOT
ATOM      1  C   UNL     1      45.056  27.502  17.005  1.00  0.00     0.000 C 
ENDROOT
BRANCH   1   2
ATOM      2  C   UNL     1      44.205  26.674  17.986  1.00  0.00     0.000 C 
BRANCH   2   3
ATOM      3  C   UNL     1      43.119  25.797  17.329  1.00  0.00     0.000 C 
BRANCH   3   4
ATOM      4  C   UNL     1      43.443  24.290  17.274  1.00  0.00     0.000 C 
BRANCH   4   5
ATOM      5  C   UNL     1      44.665  23.852  18.108  1.00  0.00     0.000 C 
BRANCH   5   6
ATOM      6  C   UNL     1      45.909  23.481  17.282  1.00  0.00     0.000 C 
BRANCH   6   7
ATOM      7  C   UNL     1      47.114  24.388  17.583  1.00  0.00     0.000 C 
BRANCH   7   8
ATOM      8  C   UNL     1      47.781  24.932  16.308  1.00  0.00     0.000 C 
BRANCH   8   9
ATOM      9  C   UNL     1      48.549  26.258  16.488  1.00  0.00     0.000 C 
BRANCH   9  10
ATOM     10  C   UNL     1      48.533  26.833  17.916  1.00  0.00     0.000 C 
BRANCH  10  11
ATOM     11  C   UNL     1      49.927  26.873  18.559  1.00  0.00     0.000 C 
BRANCH  11  12
ATOM     12  C   UNL     1      49.830  26.768  20.087  1.00  0.00     0.006 C 
BRANCH  12  13
ATOM     13  C   UNL     1      49.214  25.429  20.508  1.00  0.00     0.053 C 
BRANCH  13  14
ATOM     14  C   UNL     1      48.064  25.643  21.442  1.00  0.00     0.041 C 
ATOM     15  O   UNL     1      48.124  26.533  22.331  1.00  0.00    -0.550 OA
ATOM     16  O   UNL     1      46.922  24.859  21.329  1.00  0.00    -0.550 OA
ENDBRANCH  13  14
ENDBRANCH  12  13
ENDBRANCH  11  12
ENDBRANCH  10  11
ENDBRANCH   9  10
ENDBRANCH   8   9
ENDBRANCH   7   8
ENDBRANCH   6   7
ENDBRANCH   5   6
ENDBRANCH   4   5
ENDBRANCH   3   4
ENDBRANCH   2   3
ENDBRANCH   1   2
BRANCH   1  17
ATOM     17  C   UNL     1      44.255  28.310  15.968  1.00  0.00     0.000 C 
BRANCH  17  18
ATOM     18  C   UNL     1      45.124  29.240  15.093  1.00  0.00     0.000 C 
BRANCH  18  19
ATOM     19  C   UNL     1      46.616  28.868  15.137  1.00  0.00     0.000 C 
BRANCH  19  20
ATOM     20  C   UNL     1      47.138  28.369  13.772  1.00  0.00     0.000 C 
BRANCH  20  21
ATOM     21  C   UNL     1      48.485  28.992  13.361  1.00  0.00     0.000 C 
BRANCH  21  22
ATOM     22  C   UNL     1      49.697  28.046  13.457  1.00  0.00    -0.000 C 
BRANCH  22  23
ATOM     23  C   UNL     1      51.051  28.680  13.089  1.00  0.00    -0.000 C 
BRANCH  23  24
ATOM     24  C   UNL     1      52.064  28.640  14.243  1.00  0.00    -0.000 C 
BRANCH  24  25
ATOM     25  C   UNL     1      51.350  28.601  15.602  1.00  0.00    -0.000 C 
BRANCH  25  26
ATOM     26  C   UNL     1      51.440  29.938  16.359  1.00  0.00    -0.000 C 
BRANCH  26  27
ATOM     27  C   UNL     1      50.305  30.939  16.057  1.00  0.00    -0.000 C 
BRANCH  27  28
ATOM     28  C   UNL     1      50.612  31.960  14.947  1.00  0.00    -0.000 C 
BRANCH  28  29
ATOM     29  C   UNL     1      49.349  32.458  14.225  1.00  0.00    -0.003 C 
ATOM     30  C   UNL     1      48.106  32.243  15.082  1.00  0.00     0.004 C 
ENDBRANCH  28  29
ENDBRANCH  27  28
ENDBRANCH  26  27
ENDBRANCH  25  26
ENDBRANCH  24  25
ENDBRANCH  23  24
ENDBRANCH  22  23
ENDBRANCH  21  22
ENDBRANCH  20  21
ENDBRANCH  19  20
ENDBRANCH  18  19
ENDBRANCH  17  18
ENDBRANCH   1  17
TORSDOF 26
ENDMDL
MODEL 6
REMARK VINA RESULT:    -4.116      1.374      7.375
REMARK INTER + INTRA:         -14.749
REMARK INTER:                 -10.515
REMARK INTRA:                  -4.235
REMARK UNBOUND:                -4.378
REMARK SMILES CCCCCCCCCCCCCCCCCCCCCCCCCCCC(=O)[O-]
REMARK SMILES IDX 15 1 16 2 17 3 18 4 19 5 20 6 21 7 22 8 23 9 24 10 25 11
REMARK SMILES IDX 26 12 27 13 28 14 29 15 30 16 14 17 13 18 12 19 11 20 10 21
REMARK SMILES IDX 9 22 8 23 7 24 6 25 5 26 4 27 3 28 2 29 1 30
REMARK H PARENT
REMARK Flexibility Score: inf
ROOT
ATOM      1  C   UNL     1      47.386  30.552  14.744  1.00  0.00     0.000 C 
ENDROOT
BRANCH   1   2
ATOM      2  C   UNL     1      47.751  31.973  15.210  1.00  0.00     0.000 C 
BRANCH   2   3
ATOM      3  C   UNL     1      49.239  32.349  15.058  1.00  0.00     0.000 C 
BRANCH   3   4
ATOM      4  C   UNL     1      49.762  32.370  13.608  1.00  0.00     0.000 C 
BRANCH   4   5
ATOM      5  C   UNL     1      50.800  31.279  13.271  1.00  0.00     0.000 C 
BRANCH   5   6
ATOM      6  C   UNL     1      50.355  30.277  12.191  1.00  0.00     0.000 C 
BRANCH   6   7
ATOM      7  C   UNL     1      49.793  28.974  12.784  1.00  0.00     0.000 C 
BRANCH   7   8
ATOM      8  C   UNL     1      50.669  28.412  13.917  1.00  0.00     0.000 C 
BRANCH   8   9
ATOM      9  C   UNL     1      49.950  28.232  15.270  1.00  0.00     0.000 C 
BRANCH   9  10
ATOM     10  C   UNL     1      49.266  26.867  15.469  1.00  0.00     0.000 C 
BRANCH  10  11
ATOM     11  C   UNL     1      48.531  26.757  16.814  1.00  0.00     0.000 C 
BRANCH  11  12
ATOM     12  C   UNL     1      49.510  26.434  17.950  1.00  0.00     0.006 C 
BRANCH  12  13
ATOM     13  C   UNL     1      49.166  27.226  19.215  1.00  0.00     0.053 C 
BRANCH  13  14
ATOM     14  C   UNL     1      50.267  28.179  19.562  1.00  0.00     0.041 C 
ATOM     15  O   UNL     1      51.023  28.631  18.663  1.00  0.00    -0.550 OA
ATOM     16  O   UNL     1      50.457  28.570  20.882  1.00  0.00    -0.550 OA
ENDBRANCH  13  14
ENDBRANCH  12  13
ENDBRANCH  11  12
ENDBRANCH  10  11
ENDBRANCH   9  10
ENDBRANCH   8   9
ENDBRANCH   7   8
ENDBRANCH   6   7
ENDBRANCH   5   6
ENDBRANCH   4   5
ENDBRANCH   3   4
ENDBRANCH   2   3
ENDBRANCH   1   2
BRANCH   1  17
ATOM     17  C   UNL     1      45.904  30.169  14.915  1.00  0.00     0.000 C 
BRANCH  17  18
ATOM     18  C   UNL     1      45.663  28.650  15.056  1.00  0.00     0.000 C 
BRANCH  18  19
ATOM     19  C   UNL     1      44.527  28.321  16.040  1.00  0.00     0.000 C 
BRANCH  19  20
ATOM     20  C   UNL     1      44.917  27.209  17.037  1.00  0.00     0.000 C 
BRANCH  20  21
ATOM     21  C   UNL     1      43.951  27.084  18.231  1.00  0.00     0.000 C 
BRANCH  21  22
ATOM     22  C   UNL     1      43.122  25.787  18.265  1.00  0.00    -0.000 C 
BRANCH  22  23
ATOM     23  C   UNL     1      43.395  24.807  17.110  1.00  0.00    -0.000 C 
BRANCH  23  24
ATOM     24  C   UNL     1      43.707  23.383  17.594  1.00  0.00    -0.000 C 
BRANCH  24  25
ATOM     25  C   UNL     1      45.039  22.883  17.015  1.00  0.00    -0.000 C 
BRANCH  25  26
ATOM     26  C   UNL     1      46.208  23.843  17.300  1.00  0.00    -0.000 C 
BRANCH  26  27
ATOM     27  C   UNL     1      46.822  23.724  18.711  1.00  0.00    -0.000 C 
BRANCH  27  28
ATOM     28  C   UNL     1      46.401  24.824  19.701  1.00  0.00    -0.000 C 
BRANCH  28  29
ATOM     29  C   UNL     1      45.487  24.303  20.822  1.00  0.00    -0.003 C 
ATOM     30  C   UNL     1      46.247  24.183  22.140  1.00  0.00     0.004 C 
ENDBRANCH  28  29
ENDBRANCH  27  28
ENDBRANCH  26  27
ENDBRANCH  25  26
ENDBRANCH  24  25
ENDBRANCH  23  24
ENDBRANCH  22  23
ENDBRANCH  21  22
ENDBRANCH  20  21
ENDBRANCH  19  20
ENDBRANCH  18  19
ENDBRANCH  17  18
ENDBRANCH   1  17
TORSDOF 26
ENDMDL
MODEL 7
REMARK VINA RESULT:    -4.099      1.415      3.669
REMARK INTER + INTRA:         -14.706
REMARK INTER:                 -10.436
REMARK INTRA:                  -4.270
REMARK UNBOUND:                -4.378
REMARK SMILES CCCCCCCCCCCCCCCCCCCCCCCCCCCC(=O)[O-]
REMARK SMILES IDX 15 1 16 2 17 3 18 4 19 5 20 6 21 7 22 8 23 9 24 10 25 11
REMARK SMILES IDX 26 12 27 13 28 14 29 15 30 16 14 17 13 18 12 19 11 20 10 21
REMARK SMILES IDX 9 22 8 23 7 24 6 25 5 26 4 27 3 28 2 29 1 30
REMARK H PARENT
REMARK Flexibility Score: inf
ROOT
ATOM      1  C   UNL     1      46.613  29.000  14.503  1.00  0.00     0.000 C 
ENDROOT
BRANCH   1   2
ATOM      2  C   UNL     1      45.246  29.567  14.930  1.00  0.00     0.000 C 
BRANCH   2   3
ATOM      3  C   UNL     1      44.311  28.561  15.631  1.00  0.00     0.000 C 
BRANCH   3   4
ATOM      4  C   UNL     1      44.983  27.686  16.708  1.00  0.00     0.000 C 
BRANCH   4   5
ATOM      5  C   UNL     1      44.029  27.116  17.777  1.00  0.00     0.000 C 
BRANCH   5   6
ATOM      6  C   UNL     1      43.203  25.899  17.321  1.00  0.00     0.000 C 
BRANCH   6   7
ATOM      7  C   UNL     1      43.450  24.654  18.189  1.00  0.00     0.000 C 
BRANCH   7   8
ATOM      8  C   UNL     1      44.295  23.588  17.472  1.00  0.00     0.000 C 
BRANCH   8   9
ATOM      9  C   UNL     1      45.778  23.959  17.267  1.00  0.00     0.000 C 
BRANCH   9  10
ATOM     10  C   UNL     1      46.660  23.846  18.524  1.00  0.00     0.000 C 
BRANCH  10  11
ATOM     11  C   UNL     1      47.017  25.213  19.128  1.00  0.00     0.000 C 
BRANCH  11  12
ATOM     12  C   UNL     1      48.346  25.145  19.891  1.00  0.00     0.006 C 
BRANCH  12  13
ATOM     13  C   UNL     1      48.546  26.392  20.760  1.00  0.00     0.053 C 
BRANCH  13  14
ATOM     14  C   UNL     1      48.701  26.017  22.200  1.00  0.00     0.041 C 
ATOM     15  O   UNL     1      49.644  25.266  22.564  1.00  0.00    -0.550 OA
ATOM     16  O   UNL     1      47.802  26.499  23.144  1.00  0.00    -0.550 OA
ENDBRANCH  13  14
ENDBRANCH  12  13
ENDBRANCH  11  12
ENDBRANCH  10  11
ENDBRANCH   9  10
ENDBRANCH   8   9
ENDBRANCH   7   8
ENDBRANCH   6   7
ENDBRANCH   5   6
ENDBRANCH   4   5
ENDBRANCH   3   4
ENDBRANCH   2   3
ENDBRANCH   1   2
BRANCH   1  17
ATOM     17  C   UNL     1      47.779  30.004  14.550  1.00  0.00     0.000 C 
BRANCH  17  18
ATOM     18  C   UNL     1      47.385  31.394  15.099  1.00  0.00     0.000 C 
BRANCH  18  19
ATOM     19  C   UNL     1      48.465  32.459  14.838  1.00  0.00     0.000 C 
BRANCH  19  20
ATOM     20  C   UNL     1      49.853  32.029  15.363  1.00  0.00     0.000 C 
BRANCH  20  21
ATOM     21  C   UNL     1      50.979  32.173  14.321  1.00  0.00     0.000 C 
BRANCH  21  22
ATOM     22  C   UNL     1      50.550  31.931  12.862  1.00  0.00    -0.000 C 
BRANCH  22  23
ATOM     23  C   UNL     1      50.560  30.458  12.414  1.00  0.00    -0.000 C 
BRANCH  23  24
ATOM     24  C   UNL     1      51.644  29.627  13.117  1.00  0.00    -0.000 C 
BRANCH  24  25
ATOM     25  C   UNL     1      51.052  28.345  13.721  1.00  0.00    -0.000 C 
BRANCH  25  26
ATOM     26  C   UNL     1      51.547  28.081  15.154  1.00  0.00    -0.000 C 
BRANCH  26  27
ATOM     27  C   UNL     1      50.623  28.608  16.273  1.00  0.00    -0.000 C 
BRANCH  27  28
ATOM     28  C   UNL     1      49.934  27.523  17.118  1.00  0.00    -0.000 C 
BRANCH  28  29
ATOM     29  C   UNL     1      48.697  26.924  16.429  1.00  0.00    -0.003 C 
ATOM     30  C   UNL     1      49.004  25.548  15.845  1.00  0.00     0.004 C 
ENDBRANCH  28  29
ENDBRANCH  27  28
ENDBRANCH  26  27
ENDBRANCH  25  26
ENDBRANCH  24  25
ENDBRANCH  23  24
ENDBRANCH  22  23
ENDBRANCH  21  22
ENDBRANCH  20  21
ENDBRANCH  19  20
ENDBRANCH  18  19
ENDBRANCH  17  18
ENDBRANCH   1  17
TORSDOF 26
ENDMDL
MODEL 8
REMARK VINA RESULT:    -4.091      1.303      2.011
REMARK INTER + INTRA:         -14.687
REMARK INTER:                  -9.810
REMARK INTRA:                  -4.877
REMARK UNBOUND:                -4.378
REMARK SMILES CCCCCCCCCCCCCCCCCCCCCCCCCCCC(=O)[O-]
REMARK SMILES IDX 15 1 16 2 17 3 18 4 19 5 20 6 21 7 22 8 23 9 24 10 25 11
REMARK SMILES IDX 26 12 27 13 28 14 29 15 30 16 14 17 13 18 12 19 11 20 10 21
REMARK SMILES IDX 9 22 8 23 7 24 6 25 5 26 4 27 3 28 2 29 1 30
REMARK H PARENT
REMARK Flexibility Score: inf
ROOT
ATOM      1  C   UNL     1      44.715  28.614  15.620  1.00  0.00     0.000 C 
ENDROOT
BRANCH   1   2
ATOM      2  C   UNL     1      45.317  27.691  16.695  1.00  0.00     0.000 C 
BRANCH   2   3
ATOM      3  C   UNL     1      44.299  27.095  17.689  1.00  0.00     0.000 C 
BRANCH   3   4
ATOM      4  C   UNL     1      42.966  26.638  17.063  1.00  0.00     0.000 C 
BRANCH   4   5
ATOM      5  C   UNL     1      42.796  25.111  16.929  1.00  0.00     0.000 C 
BRANCH   5   6
ATOM      6  C   UNL     1      43.585  24.281  17.958  1.00  0.00     0.000 C 
BRANCH   6   7
ATOM      7  C   UNL     1      44.388  23.140  17.311  1.00  0.00     0.000 C 
BRANCH   7   8
ATOM      8  C   UNL     1      45.857  23.114  17.767  1.00  0.00     0.000 C 
BRANCH   8   9
ATOM      9  C   UNL     1      46.719  24.288  17.259  1.00  0.00     0.000 C 
BRANCH   9  10
ATOM     10  C   UNL     1      47.829  24.748  18.221  1.00  0.00     0.000 C 
BRANCH  10  11
ATOM     11  C   UNL     1      47.338  25.776  19.252  1.00  0.00     0.000 C 
BRANCH  11  12
ATOM     12  C   UNL     1      48.208  25.745  20.515  1.00  0.00     0.006 C 
BRANCH  12  13
ATOM     13  C   UNL     1      49.356  26.756  20.418  1.00  0.00     0.053 C 
BRANCH  13  14
ATOM     14  C   UNL     1      50.670  26.055  20.281  1.00  0.00     0.041 C 
ATOM     15  O   UNL     1      51.535  26.479  19.470  1.00  0.00    -0.550 OA
ATOM     16  O   UNL     1      50.943  24.931  21.051  1.00  0.00    -0.550 OA
ENDBRANCH  13  14
ENDBRANCH  12  13
ENDBRANCH  11  12
ENDBRANCH  10  11
ENDBRANCH   9  10
ENDBRANCH   8   9
ENDBRANCH   7   8
ENDBRANCH   6   7
ENDBRANCH   5   6
ENDBRANCH   4   5
ENDBRANCH   3   4
ENDBRANCH   2   3
ENDBRANCH   1   2
BRANCH   1  17
ATOM     17  C   UNL     1      45.694  29.639  15.018  1.00  0.00     0.000 C 
BRANCH  17  18
ATOM     18  C   UNL     1      47.138  29.111  14.869  1.00  0.00     0.000 C 
BRANCH  18  19
ATOM     19  C   UNL     1      47.437  28.605  13.447  1.00  0.00     0.000 C 
BRANCH  19  20
ATOM     20  C   UNL     1      48.383  27.384  13.444  1.00  0.00     0.000 C 
BRANCH  20  21
ATOM     21  C   UNL     1      48.172  26.438  14.642  1.00  0.00     0.000 C 
BRANCH  21  22
ATOM     22  C   UNL     1      49.419  25.641  15.069  1.00  0.00    -0.000 C 
BRANCH  22  23
ATOM     23  C   UNL     1      50.400  26.402  15.979  1.00  0.00    -0.000 C 
BRANCH  23  24
ATOM     24  C   UNL     1      49.747  27.593  16.698  1.00  0.00    -0.000 C 
BRANCH  24  25
ATOM     25  C   UNL     1      50.620  28.851  16.585  1.00  0.00    -0.000 C 
BRANCH  25  26
ATOM     26  C   UNL     1      51.302  28.980  15.211  1.00  0.00    -0.000 C 
BRANCH  26  27
ATOM     27  C   UNL     1      51.510  30.428  14.717  1.00  0.00    -0.000 C 
BRANCH  27  28
ATOM     28  C   UNL     1      50.242  31.129  14.198  1.00  0.00    -0.000 C 
BRANCH  28  29
ATOM     29  C   UNL     1      49.707  32.194  15.170  1.00  0.00    -0.003 C 
ATOM     30  C   UNL     1      48.241  32.507  14.888  1.00  0.00     0.004 C 
ENDBRANCH  28  29
ENDBRANCH  27  28
ENDBRANCH  26  27
ENDBRANCH  25  26
ENDBRANCH  24  25
ENDBRANCH  23  24
ENDBRANCH  22  23
ENDBRANCH  21  22
ENDBRANCH  20  21
ENDBRANCH  19  20
ENDBRANCH  18  19
ENDBRANCH  17  18
ENDBRANCH   1  17
TORSDOF 26
ENDMDL
MODEL 9
REMARK VINA RESULT:    -4.070      1.556      7.168
REMARK INTER + INTRA:         -14.633
REMARK INTER:                  -9.593
REMARK INTRA:                  -5.040
REMARK UNBOUND:                -4.378
REMARK SMILES CCCCCCCCCCCCCCCCCCCCCCCCCCCC(=O)[O-]
REMARK SMILES IDX 15 1 16 2 17 3 18 4 19 5 20 6 21 7 22 8 23 9 24 10 25 11
REMARK SMILES IDX 26 12 27 13 28 14 29 15 30 16 14 17 13 18 12 19 11 20 10 21
REMARK SMILES IDX 9 22 8 23 7 24 6 25 5 26 4 27 3 28 2 29 1 30
REMARK H PARENT
REMARK Flexibility Score: inf
ROOT
ATOM      1  C   UNL     1      46.716  28.774  14.169  1.00  0.00     0.000 C 
ENDROOT
BRANCH   1   2
ATOM      2  C   UNL     1      47.911  29.745  14.149  1.00  0.00     0.000 C 
BRANCH   2   3
ATOM      3  C   UNL     1      47.699  31.059  14.928  1.00  0.00     0.000 C 
BRANCH   3   4
ATOM      4  C   UNL     1      48.962  31.926  15.103  1.00  0.00     0.000 C 
BRANCH   4   5
ATOM      5  C   UNL     1      49.626  32.388  13.790  1.00  0.00     0.000 C 
BRANCH   5   6
ATOM      6  C   UNL     1      51.164  32.307  13.782  1.00  0.00     0.000 C 
BRANCH   6   7
ATOM      7  C   UNL     1      51.711  31.537  12.568  1.00  0.00     0.000 C 
BRANCH   7   8
ATOM      8  C   UNL     1      50.679  30.569  11.964  1.00  0.00     0.000 C 
BRANCH   8   9
ATOM      9  C   UNL     1      51.119  29.091  11.918  1.00  0.00     0.000 C 
BRANCH   9  10
ATOM     10  C   UNL     1      51.919  28.609  13.141  1.00  0.00     0.000 C 
BRANCH  10  11
ATOM     11  C   UNL     1      51.031  28.315  14.359  1.00  0.00     0.000 C 
BRANCH  11  12
ATOM     12  C   UNL     1      51.513  29.090  15.592  1.00  0.00     0.006 C 
BRANCH  12  13
ATOM     13  C   UNL     1      50.495  29.000  16.733  1.00  0.00     0.053 C 
BRANCH  13  14
ATOM     14  C   UNL     1      51.158  28.583  18.007  1.00  0.00     0.041 C 
ATOM     15  O   UNL     1      50.505  28.547  19.082  1.00  0.00    -0.550 OA
ATOM     16  O   UNL     1      52.503  28.230  18.006  1.00  0.00    -0.550 OA
ENDBRANCH  13  14
ENDBRANCH  12  13
ENDBRANCH  11  12
ENDBRANCH  10  11
ENDBRANCH   9  10
ENDBRANCH   8   9
ENDBRANCH   7   8
ENDBRANCH   6   7
ENDBRANCH   5   6
ENDBRANCH   4   5
ENDBRANCH   3   4
ENDBRANCH   2   3
ENDBRANCH   1   2
BRANCH   1  17
ATOM     17  C   UNL     1      45.459  29.302  14.884  1.00  0.00     0.000 C 
BRANCH  17  18
ATOM     18  C   UNL     1      45.176  28.617  16.239  1.00  0.00     0.000 C 
BRANCH  18  19
ATOM     19  C   UNL     1      43.790  27.949  16.285  1.00  0.00     0.000 C 
BRANCH  19  20
ATOM     20  C   UNL     1      43.599  27.077  17.545  1.00  0.00     0.000 C 
BRANCH  20  21
ATOM     21  C   UNL     1      43.181  25.627  17.234  1.00  0.00     0.000 C 
BRANCH  21  22
ATOM     22  C   UNL     1      44.115  24.544  17.806  1.00  0.00    -0.000 C 
BRANCH  22  23
ATOM     23  C   UNL     1      45.037  25.012  18.946  1.00  0.00    -0.000 C 
BRANCH  23  24
ATOM     24  C   UNL     1      46.519  24.708  18.679  1.00  0.00    -0.000 C 
BRANCH  24  25
ATOM     25  C   UNL     1      47.390  25.948  18.926  1.00  0.00    -0.000 C 
BRANCH  25  26
ATOM     26  C   UNL     1      47.805  26.652  17.622  1.00  0.00    -0.000 C 
BRANCH  26  27
ATOM     27  C   UNL     1      47.482  25.875  16.328  1.00  0.00    -0.000 C 
BRANCH  27  28
ATOM     28  C   UNL     1      48.707  25.391  15.533  1.00  0.00    -0.000 C 
BRANCH  28  29
ATOM     29  C   UNL     1      49.719  24.625  16.400  1.00  0.00    -0.003 C 
ATOM     30  C   UNL     1      51.112  25.236  16.290  1.00  0.00     0.004 C 
ENDBRANCH  28  29
ENDBRANCH  27  28
ENDBRANCH  26  27
ENDBRANCH  25  26
ENDBRANCH  24  25
ENDBRANCH  23  24
ENDBRANCH  22  23
ENDBRANCH  21  22
ENDBRANCH  20  21
ENDBRANCH  19  20
ENDBRANCH  18  19
ENDBRANCH  17  18
ENDBRANCH   1  17
TORSDOF 26
ENDMDL
