MODEL 1
REMARK VINA RESULT:    -5.157      0.000      0.000
REMARK INTER + INTRA:          -6.363
REMARK INTER:                  -6.061
REMARK INTRA:                  -0.302
REMARK UNBOUND:                -0.302
REMARK SMILES O=c1cc(-c2ccc(O)c(O)c2)oc2cc(O)cc(O)c12
REMARK SMILES IDX 4 1 3 2 2 3 1 4 21 5 19 6 18 7 16 8 15 9 14 10 13 11 5 12
REMARK SMILES IDX 6 13 7 14 8 15 12 16 10 17 9 18 11 20 20 22 17 24
REMARK H PARENT 9 19 11 21 20 23 17 25
REMARK Flexibility Score: inf
ROOT
ATOM      1  C   UNL     1     173.019 170.790 149.138  1.00  0.00     0.138 A 
ATOM      2  C   UNL     1     172.118 171.832 148.880  1.00  0.00     0.100 A 
ATOM      3  C   UNL     1     172.598 173.125 148.669  1.00  0.00     0.197 A 
ATOM      4  O   UNL     1     171.769 174.027 148.385  1.00  0.00    -0.289 OA
ATOM      5  C   UNL     1     173.987 173.381 148.754  1.00  0.00     0.107 A 
ATOM      6  C   UNL     1     174.590 174.666 148.592  1.00  0.00     0.134 A 
ATOM      7  C   UNL     1     175.986 174.779 148.600  1.00  0.00     0.093 A 
ATOM      8  C   UNL     1     176.798 173.669 148.821  1.00  0.00     0.123 A 
ATOM      9  C   UNL     1     176.219 172.416 149.030  1.00  0.00     0.094 A 
ATOM     10  C   UNL     1     174.832 172.264 148.994  1.00  0.00     0.146 A 
ATOM     11  O   UNL     1     174.320 171.051 149.181  1.00  0.00    -0.456 OA
ENDROOT
BRANCH   1  12
ATOM     12  C   UNL     1     172.562 169.396 149.372  1.00  0.00     0.021 A 
ATOM     13  C   UNL     1     171.345 169.115 150.024  1.00  0.00     0.016 A 
ATOM     14  C   UNL     1     170.936 167.793 150.220  1.00  0.00     0.051 A 
ATOM     15  C   UNL     1     171.729 166.733 149.765  1.00  0.00     0.157 A 
ATOM     16  C   UNL     1     173.345 168.325 148.907  1.00  0.00     0.062 A 
ATOM     17  C   UNL     1     172.935 166.998 149.106  1.00  0.00     0.158 A 
BRANCH  15  18
ATOM     18  O   UNL     1     171.324 165.414 149.962  1.00  0.00    -0.504 OA
ATOM     19  H   UNL     1     171.992 164.654 150.000  1.00  0.00     0.293 HD
ENDBRANCH  15  18
BRANCH  17  20
ATOM     20  O   UNL     1     173.720 165.941 148.651  1.00  0.00    -0.504 OA
ATOM     21  H   UNL     1     173.309 165.057 148.375  1.00  0.00     0.293 HD
ENDBRANCH  17  20
ENDBRANCH   1  12
BRANCH   6  22
ATOM     22  O   UNL     1     173.870 175.856 148.444  1.00  0.00    -0.507 OA
ATOM     23  H   UNL     1     173.951 176.488 147.663  1.00  0.00     0.293 HD
ENDBRANCH   6  22
BRANCH   8  24
ATOM     24  O   UNL     1     178.183 173.822 148.838  1.00  0.00    -0.508 OA
ATOM     25  H   UNL     1     178.725 173.657 149.678  1.00  0.00     0.293 HD
ENDBRANCH   8  24
TORSDOF 5
ENDMDL
MODEL 2
REMARK VINA RESULT:    -5.152      3.839      6.793
REMARK INTER + INTRA:          -6.358
REMARK INTER:                  -6.055
REMARK INTRA:                  -0.303
REMARK UNBOUND:                -0.302
REMARK SMILES O=c1cc(-c2ccc(O)c(O)c2)oc2cc(O)cc(O)c12
REMARK SMILES IDX 4 1 3 2 2 3 1 4 21 5 19 6 18 7 16 8 15 9 14 10 13 11 5 12
REMARK SMILES IDX 6 13 7 14 8 15 12 16 10 17 9 18 11 20 20 22 17 24
REMARK H PARENT 9 19 11 21 20 23 17 25
REMARK Flexibility Score: inf
ROOT
ATOM      1  C   UNL     1     170.765 175.144 149.146  1.00  0.00     0.138 A 
ATOM      2  C   UNL     1     171.812 176.043 148.902  1.00  0.00     0.100 A 
ATOM      3  C   UNL     1     173.104 175.559 148.693  1.00  0.00     0.197 A 
ATOM      4  O   UNL     1     174.011 176.387 148.420  1.00  0.00    -0.289 OA
ATOM      5  C   UNL     1     173.354 174.168 148.765  1.00  0.00     0.107 A 
ATOM      6  C   UNL     1     174.637 173.561 148.603  1.00  0.00     0.134 A 
ATOM      7  C   UNL     1     174.744 172.165 148.598  1.00  0.00     0.093 A 
ATOM      8  C   UNL     1     173.629 171.355 148.807  1.00  0.00     0.123 A 
ATOM      9  C   UNL     1     172.378 171.938 149.016  1.00  0.00     0.094 A 
ATOM     10  C   UNL     1     172.232 173.326 148.992  1.00  0.00     0.146 A 
ATOM     11  O   UNL     1     171.021 173.841 149.178  1.00  0.00    -0.456 OA
ENDROOT
BRANCH   1  12
ATOM     12  C   UNL     1     169.372 175.605 149.378  1.00  0.00     0.021 A 
ATOM     13  C   UNL     1     169.094 176.828 150.017  1.00  0.00     0.016 A 
ATOM     14  C   UNL     1     167.773 177.241 150.212  1.00  0.00     0.051 A 
ATOM     15  C   UNL     1     166.711 176.444 149.767  1.00  0.00     0.157 A 
ATOM     16  C   UNL     1     168.299 174.818 148.924  1.00  0.00     0.062 A 
ATOM     17  C   UNL     1     166.974 175.231 149.120  1.00  0.00     0.158 A 
BRANCH  15  18
ATOM     18  O   UNL     1     165.392 176.853 149.963  1.00  0.00    -0.504 OA
ATOM     19  H   UNL     1     165.155 177.580 150.626  1.00  0.00     0.293 HD
ENDBRANCH  15  18
BRANCH  17  20
ATOM     20  O   UNL     1     165.915 174.443 148.676  1.00  0.00    -0.504 OA
ATOM     21  H   UNL     1     165.857 173.457 148.901  1.00  0.00     0.293 HD
ENDBRANCH  17  20
ENDBRANCH   1  12
BRANCH   6  22
ATOM     22  O   UNL     1     175.831 174.277 148.468  1.00  0.00    -0.507 OA
ATOM     23  H   UNL     1     176.751 173.908 148.649  1.00  0.00     0.293 HD
ENDBRANCH   6  22
BRANCH   8  24
ATOM     24  O   UNL     1     173.776 169.970 148.811  1.00  0.00    -0.508 OA
ATOM     25  H   UNL     1     174.539 169.519 149.302  1.00  0.00     0.293 HD
ENDBRANCH   8  24
TORSDOF 5
ENDMDL
MODEL 3
REMARK VINA RESULT:    -5.148      3.948      9.595
REMARK INTER + INTRA:          -6.353
REMARK INTER:                  -6.050
REMARK INTRA:                  -0.303
REMARK UNBOUND:                -0.302
REMARK SMILES O=c1cc(-c2ccc(O)c(O)c2)oc2cc(O)cc(O)c12
REMARK SMILES IDX 4 1 3 2 2 3 1 4 21 5 19 6 18 7 16 8 15 9 14 10 13 11 5 12
REMARK SMILES IDX 6 13 7 14 8 15 12 16 10 17 9 18 11 20 20 22 17 24
REMARK H PARENT 9 19 11 21 20 23 17 25
REMARK Flexibility Score: inf
ROOT
ATOM      1  C   UNL     1     175.091 177.389 149.156  1.00  0.00     0.138 A 
ATOM      2  C   UNL     1     175.983 176.336 148.908  1.00  0.00     0.100 A 
ATOM      3  C   UNL     1     175.490 175.047 148.702  1.00  0.00     0.197 A 
ATOM      4  O   UNL     1     176.312 174.135 148.426  1.00  0.00    -0.289 OA
ATOM      5  C   UNL     1     174.098 174.805 148.782  1.00  0.00     0.107 A 
ATOM      6  C   UNL     1     173.483 173.527 148.624  1.00  0.00     0.134 A 
ATOM      7  C   UNL     1     172.086 173.428 148.626  1.00  0.00     0.093 A 
ATOM      8  C   UNL     1     171.284 174.548 148.838  1.00  0.00     0.123 A 
ATOM      9  C   UNL     1     171.875 175.796 149.043  1.00  0.00     0.094 A 
ATOM     10  C   UNL     1     173.264 175.933 149.012  1.00  0.00     0.146 A 
ATOM     11  O   UNL     1     173.787 177.141 149.194  1.00  0.00    -0.456 OA
ENDROOT
BRANCH   1  12
ATOM     12  C   UNL     1     175.562 178.779 149.385  1.00  0.00     0.021 A 
ATOM     13  C   UNL     1     176.789 179.051 150.020  1.00  0.00     0.016 A 
ATOM     14  C   UNL     1     177.211 180.369 150.212  1.00  0.00     0.051 A 
ATOM     15  C   UNL     1     176.420 181.435 149.768  1.00  0.00     0.157 A 
ATOM     16  C   UNL     1     174.781 179.857 148.931  1.00  0.00     0.062 A 
ATOM     17  C   UNL     1     175.203 181.180 149.125  1.00  0.00     0.158 A 
BRANCH  15  18
ATOM     18  O   UNL     1     176.837 182.752 149.960  1.00  0.00    -0.504 OA
ATOM     19  H   UNL     1     176.569 183.279 150.782  1.00  0.00     0.293 HD
ENDBRANCH  15  18
BRANCH  17  20
ATOM     20  O   UNL     1     174.420 182.243 148.681  1.00  0.00    -0.504 OA
ATOM     21  H   UNL     1     174.086 182.293 147.726  1.00  0.00     0.293 HD
ENDBRANCH  17  20
ENDBRANCH   1  12
BRANCH   6  22
ATOM     22  O   UNL     1     174.190 172.328 148.486  1.00  0.00    -0.507 OA
ATOM     23  H   UNL     1     174.601 171.993 147.628  1.00  0.00     0.293 HD
ENDBRANCH   6  22
BRANCH   8  24
ATOM     24  O   UNL     1     169.898 174.409 148.849  1.00  0.00    -0.508 OA
ATOM     25  H   UNL     1     169.418 173.937 149.606  1.00  0.00     0.293 HD
ENDBRANCH   8  24
TORSDOF 5
ENDMDL
MODEL 4
REMARK VINA RESULT:    -5.136      3.859      6.749
REMARK INTER + INTRA:          -6.339
REMARK INTER:                  -6.036
REMARK INTRA:                  -0.304
REMARK UNBOUND:                -0.302
REMARK SMILES O=c1cc(-c2ccc(O)c(O)c2)oc2cc(O)cc(O)c12
REMARK SMILES IDX 4 1 3 2 2 3 1 4 21 5 19 6 18 7 16 8 15 9 14 10 13 11 5 12
REMARK SMILES IDX 6 13 7 14 8 15 12 16 10 17 9 18 11 20 20 22 17 24
REMARK H PARENT 9 19 11 21 20 23 17 25
REMARK Flexibility Score: inf
ROOT
ATOM      1  C   UNL     1     177.282 173.113 149.123  1.00  0.00     0.138 A 
ATOM      2  C   UNL     1     176.222 172.226 148.892  1.00  0.00     0.100 A 
ATOM      3  C   UNL     1     174.934 172.724 148.695  1.00  0.00     0.197 A 
ATOM      4  O   UNL     1     174.015 171.906 148.434  1.00  0.00    -0.289 OA
ATOM      5  C   UNL     1     174.701 174.118 148.766  1.00  0.00     0.107 A 
ATOM      6  C   UNL     1     173.424 174.739 148.615  1.00  0.00     0.134 A 
ATOM      7  C   UNL     1     173.333 176.137 148.608  1.00  0.00     0.093 A 
ATOM      8  C   UNL     1     174.459 176.934 148.803  1.00  0.00     0.123 A 
ATOM      9  C   UNL     1     175.706 176.337 149.001  1.00  0.00     0.094 A 
ATOM     10  C   UNL     1     175.835 174.947 148.979  1.00  0.00     0.146 A 
ATOM     11  O   UNL     1     177.042 174.419 149.154  1.00  0.00    -0.456 OA
ENDROOT
BRANCH   1  12
ATOM     12  C   UNL     1     178.672 172.637 149.342  1.00  0.00     0.021 A 
ATOM     13  C   UNL     1     178.943 171.408 149.975  1.00  0.00     0.016 A 
ATOM     14  C   UNL     1     180.261 170.981 150.157  1.00  0.00     0.051 A 
ATOM     15  C   UNL     1     181.327 171.767 149.707  1.00  0.00     0.157 A 
ATOM     16  C   UNL     1     179.750 173.414 148.881  1.00  0.00     0.062 A 
ATOM     17  C   UNL     1     181.072 172.985 149.066  1.00  0.00     0.158 A 
BRANCH  15  18
ATOM     18  O   UNL     1     182.643 171.344 149.890  1.00  0.00    -0.504 OA
ATOM     19  H   UNL     1     182.910 170.770 150.680  1.00  0.00     0.293 HD
ENDBRANCH  15  18
BRANCH  17  20
ATOM     20  O   UNL     1     182.136 173.764 148.615  1.00  0.00    -0.504 OA
ATOM     21  H   UNL     1     182.888 173.367 148.065  1.00  0.00     0.293 HD
ENDBRANCH  17  20
ENDBRANCH   1  12
BRANCH   6  22
ATOM     22  O   UNL     1     172.220 174.037 148.494  1.00  0.00    -0.507 OA
ATOM     23  H   UNL     1     171.773 173.521 149.236  1.00  0.00     0.293 HD
ENDBRANCH   6  22
BRANCH   8  24
ATOM     24  O   UNL     1     174.329 178.321 148.805  1.00  0.00    -0.508 OA
ATOM     25  H   UNL     1     175.050 178.922 149.187  1.00  0.00     0.293 HD
ENDBRANCH   8  24
TORSDOF 5
ENDMDL
MODEL 5
REMARK VINA RESULT:    -5.065      3.950      9.157
REMARK INTER + INTRA:          -6.255
REMARK INTER:                  -5.967
REMARK INTRA:                  -0.288
REMARK UNBOUND:                -0.302
REMARK SMILES O=c1cc(-c2ccc(O)c(O)c2)oc2cc(O)cc(O)c12
REMARK SMILES IDX 4 1 3 2 2 3 1 4 21 5 19 6 18 7 16 8 15 9 14 10 13 11 5 12
REMARK SMILES IDX 6 13 7 14 8 15 12 16 10 17 9 18 11 20 20 22 17 24
REMARK H PARENT 9 19 11 21 20 23 17 25
REMARK Flexibility Score: inf
ROOT
ATOM      1  C   UNL     1     175.100 177.396 149.227  1.00  0.00     0.138 A 
ATOM      2  C   UNL     1     173.745 177.058 149.098  1.00  0.00     0.100 A 
ATOM      3  C   UNL     1     173.380 175.722 148.923  1.00  0.00     0.197 A 
ATOM      4  O   UNL     1     172.155 175.445 148.867  1.00  0.00    -0.289 OA
ATOM      5  C   UNL     1     174.381 174.725 148.842  1.00  0.00     0.107 A 
ATOM      6  C   UNL     1     174.130 173.335 148.631  1.00  0.00     0.134 A 
ATOM      7  C   UNL     1     175.197 172.428 148.667  1.00  0.00     0.093 A 
ATOM      8  C   UNL     1     176.508 172.864 148.848  1.00  0.00     0.123 A 
ATOM      9  C   UNL     1     176.771 174.226 149.005  1.00  0.00     0.094 A 
ATOM     10  C   UNL     1     175.726 175.151 149.008  1.00  0.00     0.146 A 
ATOM     11  O   UNL     1     176.017 176.437 149.179  1.00  0.00    -0.456 OA
ENDROOT
BRANCH   1  12
ATOM     12  C   UNL     1     175.543 178.801 149.411  1.00  0.00     0.021 A 
ATOM     13  C   UNL     1     176.773 179.116 150.022  1.00  0.00     0.016 A 
ATOM     14  C   UNL     1     177.169 180.448 150.171  1.00  0.00     0.051 A 
ATOM     15  C   UNL     1     176.349 181.485 149.709  1.00  0.00     0.157 A 
ATOM     16  C   UNL     1     174.733 179.849 148.939  1.00  0.00     0.062 A 
ATOM     17  C   UNL     1     175.130 181.186 149.090  1.00  0.00     0.158 A 
BRANCH  15  18
ATOM     18  O   UNL     1     176.741 182.815 149.859  1.00  0.00    -0.504 OA
ATOM     19  H   UNL     1     177.484 183.215 149.299  1.00  0.00     0.293 HD
ENDBRANCH  15  18
BRANCH  17  20
ATOM     20  O   UNL     1     174.319 182.220 148.628  1.00  0.00    -0.504 OA
ATOM     21  H   UNL     1     173.310 182.133 148.608  1.00  0.00     0.293 HD
ENDBRANCH  17  20
ENDBRANCH   1  12
BRANCH   6  22
ATOM     22  O   UNL     1     172.867 172.798 148.362  1.00  0.00    -0.507 OA
ATOM     23  H   UNL     1     172.685 172.034 147.730  1.00  0.00     0.293 HD
ENDBRANCH   6  22
BRANCH   8  24
ATOM     24  O   UNL     1     177.546 171.934 148.862  1.00  0.00    -0.508 OA
ATOM     25  H   UNL     1     178.241 171.904 148.125  1.00  0.00     0.293 HD
ENDBRANCH   8  24
TORSDOF 5
ENDMDL
MODEL 6
REMARK VINA RESULT:    -5.062      3.914      6.674
REMARK INTER + INTRA:          -6.252
REMARK INTER:                  -5.964
REMARK INTRA:                  -0.288
REMARK UNBOUND:                -0.302
REMARK SMILES O=c1cc(-c2ccc(O)c(O)c2)oc2cc(O)cc(O)c12
REMARK SMILES IDX 4 1 3 2 2 3 1 4 21 5 19 6 18 7 16 8 15 9 14 10 13 11 5 12
REMARK SMILES IDX 6 13 7 14 8 15 12 16 10 17 9 18 11 20 20 22 17 24
REMARK H PARENT 9 19 11 21 20 23 17 25
REMARK Flexibility Score: inf
ROOT
ATOM      1  C   UNL     1     170.777 175.105 149.217  1.00  0.00     0.138 A 
ATOM      2  C   UNL     1     171.114 173.753 149.064  1.00  0.00     0.100 A 
ATOM      3  C   UNL     1     172.450 173.390 148.887  1.00  0.00     0.197 A 
ATOM      4  O   UNL     1     172.726 172.165 148.809  1.00  0.00    -0.289 OA
ATOM      5  C   UNL     1     173.449 174.391 148.826  1.00  0.00     0.107 A 
ATOM      6  C   UNL     1     174.839 174.142 148.615  1.00  0.00     0.134 A 
ATOM      7  C   UNL     1     175.746 175.208 148.673  1.00  0.00     0.093 A 
ATOM      8  C   UNL     1     175.311 176.516 148.876  1.00  0.00     0.123 A 
ATOM      9  C   UNL     1     173.949 176.777 149.034  1.00  0.00     0.094 A 
ATOM     10  C   UNL     1     173.023 175.733 149.016  1.00  0.00     0.146 A 
ATOM     11  O   UNL     1     171.737 176.022 149.188  1.00  0.00    -0.456 OA
ENDROOT
BRANCH   1  12
ATOM     12  C   UNL     1     169.371 175.547 149.405  1.00  0.00     0.021 A 
ATOM     13  C   UNL     1     169.056 176.768 150.030  1.00  0.00     0.016 A 
ATOM     14  C   UNL     1     167.724 177.162 150.183  1.00  0.00     0.051 A 
ATOM     15  C   UNL     1     166.687 176.349 149.709  1.00  0.00     0.157 A 
ATOM     16  C   UNL     1     168.324 174.743 148.920  1.00  0.00     0.062 A 
ATOM     17  C   UNL     1     166.987 175.138 149.075  1.00  0.00     0.158 A 
BRANCH  15  18
ATOM     18  O   UNL     1     165.357 176.740 149.862  1.00  0.00    -0.504 OA
ATOM     19  H   UNL     1     164.899 176.717 150.765  1.00  0.00     0.293 HD
ENDBRANCH  15  18
BRANCH  17  20
ATOM     20  O   UNL     1     165.953 174.333 148.601  1.00  0.00    -0.504 OA
ATOM     21  H   UNL     1     165.609 174.417 147.652  1.00  0.00     0.293 HD
ENDBRANCH  17  20
ENDBRANCH   1  12
BRANCH   6  22
ATOM     22  O   UNL     1     175.375 172.884 148.324  1.00  0.00    -0.507 OA
ATOM     23  H   UNL     1     176.351 172.641 148.388  1.00  0.00     0.293 HD
ENDBRANCH   6  22
BRANCH   8  24
ATOM     24  O   UNL     1     176.241 177.552 148.913  1.00  0.00    -0.508 OA
ATOM     25  H   UNL     1     177.166 177.451 148.509  1.00  0.00     0.293 HD
ENDBRANCH   8  24
TORSDOF 5
ENDMDL
MODEL 7
REMARK VINA RESULT:    -5.059      2.728      6.864
REMARK INTER + INTRA:          -6.248
REMARK INTER:                  -5.960
REMARK INTRA:                  -0.289
REMARK UNBOUND:                -0.302
REMARK SMILES O=c1cc(-c2ccc(O)c(O)c2)oc2cc(O)cc(O)c12
REMARK SMILES IDX 4 1 3 2 2 3 1 4 21 5 19 6 18 7 16 8 15 9 14 10 13 11 5 12
REMARK SMILES IDX 6 13 7 14 8 15 12 16 10 17 9 18 11 20 20 22 17 24
REMARK H PARENT 9 19 11 21 20 23 17 25
REMARK Flexibility Score: inf
ROOT
ATOM      1  C   UNL     1     177.326 172.977 149.243  1.00  0.00     0.138 A 
ATOM      2  C   UNL     1     176.965 174.318 149.050  1.00  0.00     0.100 A 
ATOM      3  C   UNL     1     175.622 174.654 148.877  1.00  0.00     0.197 A 
ATOM      4  O   UNL     1     175.326 175.871 148.762  1.00  0.00    -0.289 OA
ATOM      5  C   UNL     1     174.639 173.637 148.860  1.00  0.00     0.107 A 
ATOM      6  C   UNL     1     173.243 173.857 148.657  1.00  0.00     0.134 A 
ATOM      7  C   UNL     1     172.352 172.780 148.760  1.00  0.00     0.093 A 
ATOM      8  C   UNL     1     172.810 171.486 149.000  1.00  0.00     0.123 A 
ATOM      9  C   UNL     1     174.178 171.251 149.151  1.00  0.00     0.094 A 
ATOM     10  C   UNL     1     175.088 172.308 149.088  1.00  0.00     0.146 A 
ATOM     11  O   UNL     1     176.380 172.045 149.255  1.00  0.00    -0.456 OA
ENDROOT
BRANCH   1  12
ATOM     12  C   UNL     1     178.740 172.563 149.429  1.00  0.00     0.021 A 
ATOM     13  C   UNL     1     179.081 171.355 150.069  1.00  0.00     0.016 A 
ATOM     14  C   UNL     1     180.420 170.988 150.220  1.00  0.00     0.051 A 
ATOM     15  C   UNL     1     181.439 171.813 149.730  1.00  0.00     0.157 A 
ATOM     16  C   UNL     1     179.770 173.379 148.929  1.00  0.00     0.062 A 
ATOM     17  C   UNL     1     181.114 173.010 149.082  1.00  0.00     0.158 A 
BRANCH  15  18
ATOM     18  O   UNL     1     182.777 171.449 149.881  1.00  0.00    -0.504 OA
ATOM     19  H   UNL     1     183.526 172.012 149.498  1.00  0.00     0.293 HD
ENDBRANCH  15  18
BRANCH  17  20
ATOM     20  O   UNL     1     182.131 173.828 148.592  1.00  0.00    -0.504 OA
ATOM     21  H   UNL     1     182.171 174.097 147.616  1.00  0.00     0.293 HD
ENDBRANCH  17  20
ENDBRANCH   1  12
BRANCH   6  22
ATOM     22  O   UNL     1     172.684 175.097 148.332  1.00  0.00    -0.507 OA
ATOM     23  H   UNL     1     171.928 175.541 148.831  1.00  0.00     0.293 HD
ENDBRANCH   6  22
BRANCH   8  24
ATOM     24  O   UNL     1     171.897 170.437 149.081  1.00  0.00    -0.508 OA
ATOM     25  H   UNL     1     172.114 169.581 149.579  1.00  0.00     0.293 HD
ENDBRANCH   8  24
TORSDOF 5
ENDMDL
MODEL 8
REMARK VINA RESULT:    -5.039      1.282      2.896
REMARK INTER + INTRA:          -6.225
REMARK INTER:                  -5.937
REMARK INTRA:                  -0.288
REMARK UNBOUND:                -0.302
REMARK SMILES O=c1cc(-c2ccc(O)c(O)c2)oc2cc(O)cc(O)c12
REMARK SMILES IDX 4 1 3 2 2 3 1 4 21 5 19 6 18 7 16 8 15 9 14 10 13 11 5 12
REMARK SMILES IDX 6 13 7 14 8 15 12 16 10 17 9 18 11 20 20 22 17 24
REMARK H PARENT 9 19 11 21 20 23 17 25
REMARK Flexibility Score: inf
ROOT
ATOM      1  C   UNL     1     173.003 170.772 149.259  1.00  0.00     0.138 A 
ATOM      2  C   UNL     1     174.355 171.120 149.126  1.00  0.00     0.100 A 
ATOM      3  C   UNL     1     174.711 172.458 148.952  1.00  0.00     0.197 A 
ATOM      4  O   UNL     1     175.935 172.743 148.893  1.00  0.00    -0.289 OA
ATOM      5  C   UNL     1     173.704 173.449 148.875  1.00  0.00     0.107 A 
ATOM      6  C   UNL     1     173.945 174.840 148.665  1.00  0.00     0.134 A 
ATOM      7  C   UNL     1     172.872 175.741 148.705  1.00  0.00     0.093 A 
ATOM      8  C   UNL     1     171.564 175.296 148.889  1.00  0.00     0.123 A 
ATOM      9  C   UNL     1     171.311 173.932 149.046  1.00  0.00     0.094 A 
ATOM     10  C   UNL     1     172.362 173.013 149.044  1.00  0.00     0.146 A 
ATOM     11  O   UNL     1     172.080 171.725 149.215  1.00  0.00    -0.456 OA
ENDROOT
BRANCH   1  12
ATOM     12  C   UNL     1     172.569 169.364 149.443  1.00  0.00     0.021 A 
ATOM     13  C   UNL     1     171.344 169.040 150.058  1.00  0.00     0.016 A 
ATOM     14  C   UNL     1     170.958 167.706 150.207  1.00  0.00     0.051 A 
ATOM     15  C   UNL     1     171.781 166.675 149.739  1.00  0.00     0.157 A 
ATOM     16  C   UNL     1     173.384 168.322 148.965  1.00  0.00     0.062 A 
ATOM     17  C   UNL     1     172.996 166.983 149.116  1.00  0.00     0.158 A 
BRANCH  15  18
ATOM     18  O   UNL     1     171.398 165.342 149.889  1.00  0.00    -0.504 OA
ATOM     19  H   UNL     1     170.849 165.035 150.682  1.00  0.00     0.293 HD
ENDBRANCH  15  18
BRANCH  17  20
ATOM     20  O   UNL     1     173.812 165.955 148.648  1.00  0.00    -0.504 OA
ATOM     21  H   UNL     1     174.820 165.998 148.734  1.00  0.00     0.293 HD
ENDBRANCH  17  20
ENDBRANCH   1  12
BRANCH   6  22
ATOM     22  O   UNL     1     175.204 175.385 148.393  1.00  0.00    -0.507 OA
ATOM     23  H   UNL     1     176.056 175.145 148.875  1.00  0.00     0.293 HD
ENDBRANCH   6  22
BRANCH   8  24
ATOM     24  O   UNL     1     170.521 176.218 148.908  1.00  0.00    -0.508 OA
ATOM     25  H   UNL     1     169.780 176.197 148.215  1.00  0.00     0.293 HD
ENDBRANCH   8  24
TORSDOF 5
ENDMDL
MODEL 9
REMARK VINA RESULT:    -4.734      4.466      7.408
REMARK INTER + INTRA:          -5.866
REMARK INTER:                  -5.573
REMARK INTRA:                  -0.293
REMARK UNBOUND:                -0.302
REMARK SMILES O=c1cc(-c2ccc(O)c(O)c2)oc2cc(O)cc(O)c12
REMARK SMILES IDX 4 1 3 2 2 3 1 4 21 5 19 6 18 7 16 8 15 9 14 10 13 11 5 12
REMARK SMILES IDX 6 13 7 14 8 15 12 16 10 17 9 18 11 20 20 22 17 24
REMARK H PARENT 9 19 11 21 20 23 17 25
REMARK Flexibility Score: inf
ROOT
ATOM      1  C   UNL     1     175.846 176.955 149.763  1.00  0.00     0.138 A 
ATOM      2  C   UNL     1     176.804 177.179 150.762  1.00  0.00     0.100 A 
ATOM      3  C   UNL     1     177.119 178.486 151.136  1.00  0.00     0.197 A 
ATOM      4  O   UNL     1     177.940 178.653 152.074  1.00  0.00    -0.289 OA
ATOM      5  C   UNL     1     176.497 179.575 150.480  1.00  0.00     0.107 A 
ATOM      6  C   UNL     1     176.764 180.951 150.753  1.00  0.00     0.134 A 
ATOM      7  C   UNL     1     176.013 181.941 150.106  1.00  0.00     0.093 A 
ATOM      8  C   UNL     1     175.048 181.610 149.157  1.00  0.00     0.123 A 
ATOM      9  C   UNL     1     174.813 180.270 148.845  1.00  0.00     0.094 A 
ATOM     10  C   UNL     1     175.521 179.258 149.497  1.00  0.00     0.146 A 
ATOM     11  O   UNL     1     175.254 177.994 149.185  1.00  0.00    -0.456 OA
ENDROOT
BRANCH   1  12
ATOM     12  C   UNL     1     175.476 175.586 149.324  1.00  0.00     0.021 A 
ATOM     13  C   UNL     1     174.362 175.349 148.495  1.00  0.00     0.016 A 
ATOM     14  C   UNL     1     174.045 174.050 148.090  1.00  0.00     0.051 A 
ATOM     15  C   UNL     1     174.836 172.969 148.497  1.00  0.00     0.157 A 
ATOM     16  C   UNL     1     176.272 174.495 149.717  1.00  0.00     0.062 A 
ATOM     17  C   UNL     1     175.953 173.191 149.311  1.00  0.00     0.158 A 
BRANCH  15  18
ATOM     18  O   UNL     1     174.520 171.671 148.095  1.00  0.00    -0.504 OA
ATOM     19  H   UNL     1     174.334 171.448 147.125  1.00  0.00     0.293 HD
ENDBRANCH  15  18
BRANCH  17  20
ATOM     20  O   UNL     1     176.740 172.114 149.712  1.00  0.00    -0.504 OA
ATOM     21  H   UNL     1     177.407 172.198 150.470  1.00  0.00     0.293 HD
ENDBRANCH  17  20
ENDBRANCH   1  12
BRANCH   6  22
ATOM     22  O   UNL     1     177.762 181.397 151.625  1.00  0.00    -0.507 OA
ATOM     23  H   UNL     1     178.659 181.761 151.342  1.00  0.00     0.293 HD
ENDBRANCH   6  22
BRANCH   8  24
ATOM     24  O   UNL     1     174.332 182.622 148.523  1.00  0.00    -0.508 OA
ATOM     25  H   UNL     1     174.661 183.047 147.663  1.00  0.00     0.293 HD
ENDBRANCH   8  24
TORSDOF 5
ENDMDL
