MODEL 1
REMARK VINA RESULT:    17.776      0.000      0.000
REMARK INTER + INTRA:          21.286
REMARK INTER:                  21.413
REMARK INTRA:                  -0.126
REMARK UNBOUND:                -0.126
REMARK SMILES O=c1c(O)c(-c2ccc(O)c(O)c2)oc2cc(O)cc(O)c12
REMARK SMILES IDX 5 1 3 2 2 3 1 4 22 5 20 6 19 7 17 8 16 9 15 10 14 11 6 12
REMARK SMILES IDX 7 13 8 14 9 15 13 16 11 17 10 18 12 20 4 22 21 24 18 26
REMARK H PARENT 10 19 12 21 4 23 21 25 18 27
REMARK Flexibility Score: inf
ROOT
ATOM      1  C   UNL     1      42.553  -4.058  23.483  1.00  0.00     0.180 A 
ATOM      2  C   UNL     1      42.815  -2.728  23.100  1.00  0.00     0.208 A 
ATOM      3  C   UNL     1      41.734  -1.886  22.794  1.00  0.00     0.238 A 
ATOM      4  O   UNL     1      41.957  -0.689  22.460  1.00  0.00    -0.285 OA
ATOM      5  C   UNL     1      40.419  -2.388  22.854  1.00  0.00     0.111 A 
ATOM      6  C   UNL     1      39.277  -1.607  22.556  1.00  0.00     0.134 A 
ATOM      7  C   UNL     1      38.000  -2.184  22.632  1.00  0.00     0.093 A 
ATOM      8  C   UNL     1      37.845  -3.526  22.997  1.00  0.00     0.123 A 
ATOM      9  C   UNL     1      38.969  -4.300  23.291  1.00  0.00     0.094 A 
ATOM     10  C   UNL     1      40.249  -3.743  23.225  1.00  0.00     0.146 A 
ATOM     11  O   UNL     1      41.300  -4.501  23.515  1.00  0.00    -0.452 OA
ENDROOT
BRANCH   1  12
ATOM     12  C   UNL     1      43.636  -5.001  23.840  1.00  0.00     0.025 A 
ATOM     13  C   UNL     1      43.884  -6.156  23.077  1.00  0.00     0.016 A 
ATOM     14  C   UNL     1      44.928  -7.018  23.419  1.00  0.00     0.051 A 
ATOM     15  C   UNL     1      45.749  -6.734  24.519  1.00  0.00     0.157 A 
ATOM     16  C   UNL     1      44.475  -4.709  24.928  1.00  0.00     0.062 A 
ATOM     17  C   UNL     1      45.522  -5.572  25.275  1.00  0.00     0.158 A 
BRANCH  15  18
ATOM     18  O   UNL     1      46.789  -7.598  24.860  1.00  0.00    -0.504 OA
ATOM     19  H   UNL     1      47.110  -8.318  24.223  1.00  0.00     0.293 HD
ENDBRANCH  15  18
BRANCH  17  20
ATOM     20  O   UNL     1      46.324  -5.257  26.371  1.00  0.00    -0.504 OA
ATOM     21  H   UNL     1      47.080  -5.859  26.675  1.00  0.00     0.293 HD
ENDBRANCH  17  20
ENDBRANCH   1  12
BRANCH   2  22
ATOM     22  O   UNL     1      44.130  -2.268  23.000  1.00  0.00    -0.502 OA
ATOM     23  H   UNL     1      44.686  -2.032  23.813  1.00  0.00     0.293 HD
ENDBRANCH   2  22
BRANCH   6  24
ATOM     24  O   UNL     1      39.399  -0.266  22.189  1.00  0.00    -0.507 OA
ATOM     25  H   UNL     1      39.768   0.430  22.825  1.00  0.00     0.293 HD
ENDBRANCH   6  24
BRANCH   8  26
ATOM     26  O   UNL     1      36.577  -4.099  23.071  1.00  0.00    -0.508 OA
ATOM     27  H   UNL     1      35.741  -3.530  23.126  1.00  0.00     0.293 HD
ENDBRANCH   8  26
TORSDOF 6
ENDMDL
MODEL 2
REMARK VINA RESULT:    18.821      1.462      6.837
REMARK INTER + INTRA:          22.546
REMARK INTER:                  22.672
REMARK INTRA:                  -0.126
REMARK UNBOUND:                -0.126
REMARK SMILES O=c1c(O)c(-c2ccc(O)c(O)c2)oc2cc(O)cc(O)c12
REMARK SMILES IDX 5 1 3 2 2 3 1 4 22 5 20 6 19 7 17 8 16 9 15 10 14 11 6 12
REMARK SMILES IDX 7 13 8 14 9 15 13 16 11 17 10 18 12 20 4 22 21 24 18 26
REMARK H PARENT 10 19 12 21 4 23 21 25 18 27
REMARK Flexibility Score: inf
ROOT
ATOM      1  C   UNL     1      39.889  -3.457  22.972  1.00  0.00     0.180 A 
ATOM      2  C   UNL     1      40.343  -2.124  22.938  1.00  0.00     0.208 A 
ATOM      3  C   UNL     1      41.718  -1.873  23.075  1.00  0.00     0.238 A 
ATOM      4  O   UNL     1      42.137  -0.683  23.034  1.00  0.00    -0.285 OA
ATOM      5  C   UNL     1      42.608  -2.948  23.264  1.00  0.00     0.111 A 
ATOM      6  C   UNL     1      44.005  -2.780  23.414  1.00  0.00     0.134 A 
ATOM      7  C   UNL     1      44.825  -3.903  23.607  1.00  0.00     0.093 A 
ATOM      8  C   UNL     1      44.273  -5.188  23.654  1.00  0.00     0.123 A 
ATOM      9  C   UNL     1      42.896  -5.359  23.506  1.00  0.00     0.094 A 
ATOM     10  C   UNL     1      42.063  -4.254  23.310  1.00  0.00     0.146 A 
ATOM     11  O   UNL     1      40.757  -4.446  23.166  1.00  0.00    -0.452 OA
ENDROOT
BRANCH   1  12
ATOM     12  C   UNL     1      38.459  -3.804  22.816  1.00  0.00     0.025 A 
ATOM     13  C   UNL     1      37.735  -4.417  23.855  1.00  0.00     0.016 A 
ATOM     14  C   UNL     1      36.380  -4.713  23.691  1.00  0.00     0.051 A 
ATOM     15  C   UNL     1      35.723  -4.390  22.496  1.00  0.00     0.157 A 
ATOM     16  C   UNL     1      37.791  -3.463  21.628  1.00  0.00     0.062 A 
ATOM     17  C   UNL     1      36.433  -3.759  21.461  1.00  0.00     0.158 A 
BRANCH  15  18
ATOM     18  O   UNL     1      34.370  -4.689  22.336  1.00  0.00    -0.504 OA
ATOM     19  H   UNL     1      33.654  -3.980  22.448  1.00  0.00     0.293 HD
ENDBRANCH  15  18
BRANCH  17  20
ATOM     20  O   UNL     1      35.808  -3.419  20.262  1.00  0.00    -0.504 OA
ATOM     21  H   UNL     1      35.991  -2.540  19.790  1.00  0.00     0.293 HD
ENDBRANCH  17  20
ENDBRANCH   1  12
BRANCH   2  22
ATOM     22  O   UNL     1      39.435  -1.072  22.799  1.00  0.00    -0.502 OA
ATOM     23  H   UNL     1      39.595  -0.159  23.208  1.00  0.00     0.293 HD
ENDBRANCH   2  22
BRANCH   6  24
ATOM     24  O   UNL     1      44.585  -1.511  23.373  1.00  0.00    -0.507 OA
ATOM     25  H   UNL     1      45.372  -1.265  23.960  1.00  0.00     0.293 HD
ENDBRANCH   6  24
BRANCH   8  26
ATOM     26  O   UNL     1      45.087  -6.303  23.846  1.00  0.00    -0.508 OA
ATOM     27  H   UNL     1      45.120  -6.786  24.735  1.00  0.00     0.293 HD
ENDBRANCH   8  26
TORSDOF 6
ENDMDL
MODEL 3
REMARK VINA RESULT:    19.508      2.969      7.977
REMARK INTER + INTRA:          23.373
REMARK INTER:                  23.688
REMARK INTRA:                  -0.315
REMARK UNBOUND:                -0.126
REMARK SMILES O=c1c(O)c(-c2ccc(O)c(O)c2)oc2cc(O)cc(O)c12
REMARK SMILES IDX 5 1 3 2 2 3 1 4 22 5 20 6 19 7 17 8 16 9 15 10 14 11 6 12
REMARK SMILES IDX 7 13 8 14 9 15 13 16 11 17 10 18 12 20 4 22 21 24 18 26
REMARK H PARENT 10 19 12 21 4 23 21 25 18 27
REMARK Flexibility Score: inf
ROOT
ATOM      1  C   UNL     1      39.771  -0.446  23.461  1.00  0.00     0.180 A 
ATOM      2  C   UNL     1      39.321  -1.780  23.390  1.00  0.00     0.208 A 
ATOM      3  C   UNL     1      40.263  -2.802  23.191  1.00  0.00     0.238 A 
ATOM      4  O   UNL     1      39.872  -4.001  23.137  1.00  0.00    -0.285 OA
ATOM      5  C   UNL     1      41.626  -2.477  23.046  1.00  0.00     0.111 A 
ATOM      6  C   UNL     1      42.636  -3.447  22.837  1.00  0.00     0.134 A 
ATOM      7  C   UNL     1      43.971  -3.041  22.694  1.00  0.00     0.093 A 
ATOM      8  C   UNL     1      44.314  -1.685  22.753  1.00  0.00     0.123 A 
ATOM      9  C   UNL     1      43.322  -0.726  22.958  1.00  0.00     0.094 A 
ATOM     10  C   UNL     1      41.986  -1.110  23.106  1.00  0.00     0.146 A 
ATOM     11  O   UNL     1      41.063  -0.176  23.305  1.00  0.00    -0.452 OA
ENDROOT
BRANCH   1  12
ATOM     12  C   UNL     1      38.843   0.685  23.688  1.00  0.00     0.025 A 
ATOM     13  C   UNL     1      38.136   1.277  22.627  1.00  0.00     0.016 A 
ATOM     14  C   UNL     1      37.248   2.328  22.870  1.00  0.00     0.051 A 
ATOM     15  C   UNL     1      37.041   2.793  24.175  1.00  0.00     0.157 A 
ATOM     16  C   UNL     1      38.617   1.140  24.998  1.00  0.00     0.062 A 
ATOM     17  C   UNL     1      37.728   2.193  25.244  1.00  0.00     0.158 A 
BRANCH  15  18
ATOM     18  O   UNL     1      36.156   3.843  24.414  1.00  0.00    -0.504 OA
ATOM     19  H   UNL     1      35.544   3.847  25.222  1.00  0.00     0.293 HD
ENDBRANCH  15  18
BRANCH  17  20
ATOM     20  O   UNL     1      37.540   2.627  26.556  1.00  0.00    -0.504 OA
ATOM     21  H   UNL     1      37.124   2.034  27.265  1.00  0.00     0.293 HD
ENDBRANCH  17  20
ENDBRANCH   1  12
BRANCH   2  22
ATOM     22  O   UNL     1      37.959  -2.072  23.488  1.00  0.00    -0.502 OA
ATOM     23  H   UNL     1      37.251  -1.526  23.010  1.00  0.00     0.293 HD
ENDBRANCH   2  22
BRANCH   6  24
ATOM     24  O   UNL     1      42.324  -4.806  22.774  1.00  0.00    -0.507 OA
ATOM     25  H   UNL     1      43.005  -5.520  23.005  1.00  0.00     0.293 HD
ENDBRANCH   6  24
BRANCH   8  26
ATOM     26  O   UNL     1      45.641  -1.283  22.609  1.00  0.00    -0.508 OA
ATOM     27  H   UNL     1      46.189  -1.546  21.800  1.00  0.00     0.293 HD
ENDBRANCH   8  26
TORSDOF 6
ENDMDL
MODEL 4
REMARK VINA RESULT:    20.300      3.220      4.970
REMARK INTER + INTRA:          24.327
REMARK INTER:                  24.639
REMARK INTRA:                  -0.313
REMARK UNBOUND:                -0.126
REMARK SMILES O=c1c(O)c(-c2ccc(O)c(O)c2)oc2cc(O)cc(O)c12
REMARK SMILES IDX 5 1 3 2 2 3 1 4 22 5 20 6 19 7 17 8 16 9 15 10 14 11 6 12
REMARK SMILES IDX 7 13 8 14 9 15 13 16 11 17 10 18 12 20 4 22 21 24 18 26
REMARK H PARENT 10 19 12 21 4 23 21 25 18 27
REMARK Flexibility Score: inf
ROOT
ATOM      1  C   UNL     1      44.035  -1.800  22.196  1.00  0.00     0.180 A 
ATOM      2  C   UNL     1      43.779  -3.097  22.682  1.00  0.00     0.208 A 
ATOM      3  C   UNL     1      42.474  -3.426  23.080  1.00  0.00     0.238 A 
ATOM      4  O   UNL     1      42.231  -4.589  23.506  1.00  0.00    -0.285 OA
ATOM      5  C   UNL     1      41.457  -2.454  23.006  1.00  0.00     0.111 A 
ATOM      6  C   UNL     1      40.117  -2.703  23.391  1.00  0.00     0.134 A 
ATOM      7  C   UNL     1      39.163  -1.679  23.295  1.00  0.00     0.093 A 
ATOM      8  C   UNL     1      39.523  -0.411  22.824  1.00  0.00     0.123 A 
ATOM      9  C   UNL     1      40.843  -0.161  22.443  1.00  0.00     0.094 A 
ATOM     10  C   UNL     1      41.807  -1.169  22.528  1.00  0.00     0.146 A 
ATOM     11  O   UNL     1      43.053  -0.905  22.154  1.00  0.00    -0.452 OA
ENDROOT
BRANCH   1  12
ATOM     12  C   UNL     1      45.381  -1.383  21.740  1.00  0.00     0.025 A 
ATOM     13  C   UNL     1      46.359  -0.943  22.649  1.00  0.00     0.016 A 
ATOM     14  C   UNL     1      47.630  -0.578  22.196  1.00  0.00     0.051 A 
ATOM     15  C   UNL     1      47.947  -0.659  20.833  1.00  0.00     0.157 A 
ATOM     16  C   UNL     1      45.710  -1.484  20.378  1.00  0.00     0.062 A 
ATOM     17  C   UNL     1      46.981  -1.117  19.921  1.00  0.00     0.158 A 
BRANCH  15  18
ATOM     18  O   UNL     1      49.215  -0.292  20.385  1.00  0.00    -0.504 OA
ATOM     19  H   UNL     1      49.848  -0.969  19.975  1.00  0.00     0.293 HD
ENDBRANCH  15  18
BRANCH  17  20
ATOM     20  O   UNL     1      47.266  -1.217  18.560  1.00  0.00    -0.504 OA
ATOM     21  H   UNL     1      47.678  -2.050  18.156  1.00  0.00     0.293 HD
ENDBRANCH  17  20
ENDBRANCH   1  12
BRANCH   2  22
ATOM     22  O   UNL     1      44.816  -4.027  22.792  1.00  0.00    -0.502 OA
ATOM     23  H   UNL     1      45.344  -4.349  21.989  1.00  0.00     0.293 HD
ENDBRANCH   2  22
BRANCH   6  24
ATOM     24  O   UNL     1      39.727  -3.957  23.866  1.00  0.00    -0.507 OA
ATOM     25  H   UNL     1      39.402  -4.686  23.242  1.00  0.00     0.293 HD
ENDBRANCH   6  24
BRANCH   8  26
ATOM     26  O   UNL     1      38.576   0.606  22.730  1.00  0.00    -0.508 OA
ATOM     27  H   UNL     1      38.548   1.367  23.397  1.00  0.00     0.293 HD
ENDBRANCH   8  26
TORSDOF 6
ENDMDL
MODEL 5
REMARK VINA RESULT:    20.499      4.600      8.207
REMARK INTER + INTRA:          24.566
REMARK INTER:                  24.062
REMARK INTRA:                   0.505
REMARK UNBOUND:                -0.126
REMARK SMILES O=c1c(O)c(-c2ccc(O)c(O)c2)oc2cc(O)cc(O)c12
REMARK SMILES IDX 5 1 3 2 2 3 1 4 22 5 20 6 19 7 17 8 16 9 15 10 14 11 6 12
REMARK SMILES IDX 7 13 8 14 9 15 13 16 11 17 10 18 12 20 4 22 21 24 18 26
REMARK H PARENT 10 19 12 21 4 23 21 25 18 27
REMARK Flexibility Score: inf
ROOT
ATOM      1  C   UNL     1      38.591  -2.937  19.179  1.00  0.00     0.180 A 
ATOM      2  C   UNL     1      37.657  -3.365  20.143  1.00  0.00     0.208 A 
ATOM      3  C   UNL     1      37.948  -3.167  21.502  1.00  0.00     0.238 A 
ATOM      4  O   UNL     1      37.113  -3.536  22.374  1.00  0.00    -0.285 OA
ATOM      5  C   UNL     1      39.168  -2.568  21.874  1.00  0.00     0.111 A 
ATOM      6  C   UNL     1      39.538  -2.337  23.221  1.00  0.00     0.134 A 
ATOM      7  C   UNL     1      40.776  -1.742  23.510  1.00  0.00     0.093 A 
ATOM      8  C   UNL     1      41.649  -1.377  22.479  1.00  0.00     0.123 A 
ATOM      9  C   UNL     1      41.287  -1.602  21.150  1.00  0.00     0.094 A 
ATOM     10  C   UNL     1      40.058  -2.191  20.841  1.00  0.00     0.146 A 
ATOM     11  O   UNL     1      39.737  -2.389  19.568  1.00  0.00    -0.452 OA
ENDROOT
BRANCH   1  12
ATOM     12  C   UNL     1      38.348  -3.093  17.727  1.00  0.00     0.025 A 
ATOM     13  C   UNL     1      39.172  -2.467  16.775  1.00  0.00     0.016 A 
ATOM     14  C   UNL     1      38.938  -2.650  15.410  1.00  0.00     0.051 A 
ATOM     15  C   UNL     1      37.887  -3.469  14.974  1.00  0.00     0.157 A 
ATOM     16  C   UNL     1      37.310  -3.931  17.286  1.00  0.00     0.062 A 
ATOM     17  C   UNL     1      37.072  -4.114  15.919  1.00  0.00     0.158 A 
BRANCH  15  18
ATOM     18  O   UNL     1      37.655  -3.646  13.611  1.00  0.00    -0.504 OA
ATOM     19  H   UNL     1      36.716  -3.648  13.229  1.00  0.00     0.293 HD
ENDBRANCH  15  18
BRANCH  17  20
ATOM     20  O   UNL     1      36.023  -4.941  15.519  1.00  0.00    -0.504 OA
ATOM     21  H   UNL     1      35.196  -4.578  15.060  1.00  0.00     0.293 HD
ENDBRANCH  17  20
ENDBRANCH   1  12
BRANCH   2  22
ATOM     22  O   UNL     1      36.476  -4.001  19.750  1.00  0.00    -0.502 OA
ATOM     23  H   UNL     1      36.427  -4.999  19.585  1.00  0.00     0.293 HD
ENDBRANCH   2  22
BRANCH   6  24
ATOM     24  O   UNL     1      38.689  -2.691  24.271  1.00  0.00    -0.507 OA
ATOM     25  H   UNL     1      38.793  -3.567  24.768  1.00  0.00     0.293 HD
ENDBRANCH   6  24
BRANCH   8  26
ATOM     26  O   UNL     1      42.878  -0.787  22.766  1.00  0.00    -0.508 OA
ATOM     27  H   UNL     1      43.151   0.097  22.355  1.00  0.00     0.293 HD
ENDBRANCH   8  26
TORSDOF 6
ENDMDL
