MODEL 1
REMARK VINA RESULT:     7.718      0.000      0.000
REMARK INTER + INTRA:          13.606
REMARK INTER:                  14.035
REMARK INTRA:                  -0.429
REMARK UNBOUND:                -0.429
REMARK SMILES CCCCCCCCCCCCCCCC(=O)[O-]
REMARK SMILES IDX 9 1 10 2 11 3 12 4 13 5 14 6 15 7 16 8 17 9 18 10 8 11 7 12
REMARK SMILES IDX 6 13 5 14 4 15 3 16 2 17 1 18
REMARK H PARENT
REMARK Flexibility Score: inf
ROOT
ATOM      1  C   UNL     1      27.923  45.467   4.115  1.00  0.00     0.000 C 
ENDROOT
BRANCH   1   2
ATOM      2  C   UNL     1      28.857  44.386   3.543  1.00  0.00     0.000 C 
BRANCH   2   3
ATOM      3  C   UNL     1      29.397  44.752   2.150  1.00  0.00     0.000 C 
BRANCH   3   4
ATOM      4  C   UNL     1      29.365  43.562   1.177  1.00  0.00     0.000 C 
BRANCH   4   5
ATOM      5  C   UNL     1      30.471  43.632   0.108  1.00  0.00     0.000 C 
BRANCH   5   6
ATOM      6  C   UNL     1      30.432  42.512  -0.950  1.00  0.00     0.006 C 
BRANCH   6   7
ATOM      7  C   UNL     1      30.017  42.975  -2.355  1.00  0.00     0.053 C 
BRANCH   7   8
ATOM      8  C   UNL     1      28.907  42.139  -2.915  1.00  0.00     0.041 C 
ATOM      9  O   UNL     1      28.013  41.682  -2.156  1.00  0.00    -0.550 OA
ATOM     10  O   UNL     1      28.880  41.836  -4.271  1.00  0.00    -0.550 OA
ENDBRANCH   7   8
ENDBRANCH   6   7
ENDBRANCH   5   6
ENDBRANCH   4   5
ENDBRANCH   3   4
ENDBRANCH   2   3
ENDBRANCH   1   2
BRANCH   1  11
ATOM     11  C   UNL     1      26.818  44.887   5.017  1.00  0.00     0.000 C 
BRANCH  11  12
ATOM     12  C   UNL     1      26.518  43.392   4.802  1.00  0.00    -0.000 C 
BRANCH  12  13
ATOM     13  C   UNL     1      25.345  43.148   3.841  1.00  0.00    -0.000 C 
BRANCH  13  14
ATOM     14  C   UNL     1      24.454  42.003   4.338  1.00  0.00    -0.000 C 
BRANCH  14  15
ATOM     15  C   UNL     1      23.001  42.469   4.503  1.00  0.00    -0.000 C 
BRANCH  15  16
ATOM     16  C   UNL     1      22.317  42.764   3.158  1.00  0.00    -0.000 C 
BRANCH  16  17
ATOM     17  C   UNL     1      23.055  42.134   1.969  1.00  0.00    -0.003 C 
ATOM     18  C   UNL     1      22.331  40.886   1.471  1.00  0.00     0.004 C 
ENDBRANCH  16  17
ENDBRANCH  15  16
ENDBRANCH  14  15
ENDBRANCH  13  14
ENDBRANCH  12  13
ENDBRANCH  11  12
ENDBRANCH   1  11
TORSDOF 14
ENDMDL
MODEL 2
REMARK VINA RESULT:     8.621      4.521      7.688
REMARK INTER + INTRA:          15.247
REMARK INTER:                  16.221
REMARK INTRA:                  -0.974
REMARK UNBOUND:                -0.429
REMARK SMILES CCCCCCCCCCCCCCCC(=O)[O-]
REMARK SMILES IDX 9 1 10 2 11 3 12 4 13 5 14 6 15 7 16 8 17 9 18 10 8 11 7 12
REMARK SMILES IDX 6 13 5 14 4 15 3 16 2 17 1 18
REMARK H PARENT
REMARK Flexibility Score: inf
ROOT
ATOM      1  C   UNL     1      25.205  43.739   2.943  1.00  0.00     0.000 C 
ENDROOT
BRANCH   1   2
ATOM      2  C   UNL     1      24.599  42.440   2.385  1.00  0.00     0.000 C 
BRANCH   2   3
ATOM      3  C   UNL     1      23.177  42.181   2.912  1.00  0.00     0.000 C 
BRANCH   3   4
ATOM      4  C   UNL     1      23.036  42.510   4.408  1.00  0.00     0.000 C 
BRANCH   4   5
ATOM      5  C   UNL     1      23.015  41.254   5.298  1.00  0.00     0.000 C 
BRANCH   5   6
ATOM      6  C   UNL     1      24.388  40.589   5.524  1.00  0.00     0.006 C 
BRANCH   6   7
ATOM      7  C   UNL     1      24.454  39.662   6.748  1.00  0.00     0.053 C 
BRANCH   7   8
ATOM      8  C   UNL     1      25.629  38.734   6.685  1.00  0.00     0.041 C 
ATOM      9  O   UNL     1      25.748  37.927   5.725  1.00  0.00    -0.550 OA
ATOM     10  O   UNL     1      26.573  38.737   7.704  1.00  0.00    -0.550 OA
ENDBRANCH   7   8
ENDBRANCH   6   7
ENDBRANCH   5   6
ENDBRANCH   4   5
ENDBRANCH   3   4
ENDBRANCH   2   3
ENDBRANCH   1   2
BRANCH   1  11
ATOM     11  C   UNL     1      26.356  43.484   3.933  1.00  0.00     0.000 C 
BRANCH  11  12
ATOM     12  C   UNL     1      27.728  44.029   3.494  1.00  0.00    -0.000 C 
BRANCH  12  13
ATOM     13  C   UNL     1      28.019  45.434   4.041  1.00  0.00    -0.000 C 
BRANCH  13  14
ATOM     14  C   UNL     1      27.220  45.702   5.323  1.00  0.00    -0.000 C 
BRANCH  14  15
ATOM     15  C   UNL     1      27.511  47.108   5.867  1.00  0.00    -0.000 C 
BRANCH  15  16
ATOM     16  C   UNL     1      26.790  47.390   7.195  1.00  0.00    -0.000 C 
BRANCH  16  17
ATOM     17  C   UNL     1      25.861  46.244   7.619  1.00  0.00    -0.003 C 
ATOM     18  C   UNL     1      24.488  46.771   8.026  1.00  0.00     0.004 C 
ENDBRANCH  16  17
ENDBRANCH  15  16
ENDBRANCH  14  15
ENDBRANCH  13  14
ENDBRANCH  12  13
ENDBRANCH  11  12
ENDBRANCH   1  11
TORSDOF 14
ENDMDL
MODEL 3
REMARK VINA RESULT:     8.879      2.386      6.947
REMARK INTER + INTRA:          15.718
REMARK INTER:                  15.959
REMARK INTRA:                  -0.241
REMARK UNBOUND:                -0.429
REMARK SMILES CCCCCCCCCCCCCCCC(=O)[O-]
REMARK SMILES IDX 9 1 10 2 11 3 12 4 13 5 14 6 15 7 16 8 17 9 18 10 8 11 7 12
REMARK SMILES IDX 6 13 5 14 4 15 3 16 2 17 1 18
REMARK H PARENT
REMARK Flexibility Score: inf
ROOT
ATOM      1  C   UNL     1      29.016  44.494   3.348  1.00  0.00     0.000 C 
ENDROOT
BRANCH   1   2
ATOM      2  C   UNL     1      27.957  45.479   3.875  1.00  0.00     0.000 C 
BRANCH   2   3
ATOM      3  C   UNL     1      27.188  44.924   5.086  1.00  0.00     0.000 C 
BRANCH   3   4
ATOM      4  C   UNL     1      26.687  43.488   4.855  1.00  0.00     0.000 C 
BRANCH   4   5
ATOM      5  C   UNL     1      25.281  43.438   4.232  1.00  0.00     0.000 C 
BRANCH   5   6
ATOM      6  C   UNL     1      24.502  42.130   4.477  1.00  0.00     0.006 C 
BRANCH   6   7
ATOM      7  C   UNL     1      23.057  42.139   3.954  1.00  0.00     0.053 C 
BRANCH   7   8
ATOM      8  C   UNL     1      23.003  42.104   2.458  1.00  0.00     0.041 C 
ATOM      9  O   UNL     1      23.926  42.625   1.778  1.00  0.00    -0.550 OA
ATOM     10  O   UNL     1      21.916  41.525   1.815  1.00  0.00    -0.550 OA
ENDBRANCH   7   8
ENDBRANCH   6   7
ENDBRANCH   5   6
ENDBRANCH   4   5
ENDBRANCH   3   4
ENDBRANCH   2   3
ENDBRANCH   1   2
BRANCH   1  11
ATOM     11  C   UNL     1      29.463  44.809   1.909  1.00  0.00     0.000 C 
BRANCH  11  12
ATOM     12  C   UNL     1      29.385  43.627   0.927  1.00  0.00    -0.000 C 
BRANCH  12  13
ATOM     13  C   UNL     1      30.749  43.253   0.328  1.00  0.00    -0.000 C 
BRANCH  13  14
ATOM     14  C   UNL     1      30.580  42.430  -0.956  1.00  0.00    -0.000 C 
BRANCH  14  15
ATOM     15  C   UNL     1      29.558  43.084  -1.897  1.00  0.00    -0.000 C 
BRANCH  15  16
ATOM     16  C   UNL     1      29.830  42.771  -3.377  1.00  0.00    -0.000 C 
BRANCH  16  17
ATOM     17  C   UNL     1      28.779  41.831  -3.986  1.00  0.00    -0.003 C 
ATOM     18  C   UNL     1      27.929  41.181  -2.899  1.00  0.00     0.004 C 
ENDBRANCH  16  17
ENDBRANCH  15  16
ENDBRANCH  14  15
ENDBRANCH  13  14
ENDBRANCH  12  13
ENDBRANCH  11  12
ENDBRANCH   1  11
TORSDOF 14
ENDMDL
MODEL 4
REMARK VINA RESULT:     9.700     12.719     13.969
REMARK INTER + INTRA:          17.210
REMARK INTER:                  17.799
REMARK INTRA:                  -0.589
REMARK UNBOUND:                -0.429
REMARK SMILES CCCCCCCCCCCCCCCC(=O)[O-]
REMARK SMILES IDX 9 1 10 2 11 3 12 4 13 5 14 6 15 7 16 8 17 9 18 10 8 11 7 12
REMARK SMILES IDX 6 13 5 14 4 15 3 16 2 17 1 18
REMARK H PARENT
REMARK Flexibility Score: inf
ROOT
ATOM      1  C   UNL     1      27.223  30.842  -3.369  1.00  0.00     0.000 C 
ENDROOT
BRANCH   1   2
ATOM      2  C   UNL     1      26.432  30.116  -4.472  1.00  0.00     0.000 C 
BRANCH   2   3
ATOM      3  C   UNL     1      26.472  30.866  -5.814  1.00  0.00     0.000 C 
BRANCH   3   4
ATOM      4  C   UNL     1      25.133  30.793  -6.567  1.00  0.00     0.000 C 
BRANCH   4   5
ATOM      5  C   UNL     1      24.433  32.160  -6.679  1.00  0.00     0.000 C 
BRANCH   5   6
ATOM      6  C   UNL     1      24.612  32.879  -8.032  1.00  0.00     0.006 C 
BRANCH   6   7
ATOM      7  C   UNL     1      25.850  33.786  -8.113  1.00  0.00     0.053 C 
BRANCH   7   8
ATOM      8  C   UNL     1      25.481  35.237  -8.124  1.00  0.00     0.041 C 
ATOM      9  O   UNL     1      26.379  36.120  -8.102  1.00  0.00    -0.550 OA
ATOM     10  O   UNL     1      24.144  35.615  -8.124  1.00  0.00    -0.550 OA
ENDBRANCH   7   8
ENDBRANCH   6   7
ENDBRANCH   5   6
ENDBRANCH   4   5
ENDBRANCH   3   4
ENDBRANCH   2   3
ENDBRANCH   1   2
BRANCH   1  11
ATOM     11  C   UNL     1      26.524  30.791  -1.999  1.00  0.00     0.000 C 
BRANCH  11  12
ATOM     12  C   UNL     1      27.454  30.534  -0.799  1.00  0.00    -0.000 C 
BRANCH  12  13
ATOM     13  C   UNL     1      26.752  29.815   0.362  1.00  0.00    -0.000 C 
BRANCH  13  14
ATOM     14  C   UNL     1      27.130  28.329   0.397  1.00  0.00    -0.000 C 
BRANCH  14  15
ATOM     15  C   UNL     1      28.134  28.043   1.524  1.00  0.00    -0.000 C 
BRANCH  15  16
ATOM     16  C   UNL     1      28.058  29.075   2.661  1.00  0.00    -0.000 C 
BRANCH  16  17
ATOM     17  C   UNL     1      28.223  28.440   4.048  1.00  0.00    -0.003 C 
ATOM     18  C   UNL     1      27.488  29.248   5.114  1.00  0.00     0.004 C 
ENDBRANCH  16  17
ENDBRANCH  15  16
ENDBRANCH  14  15
ENDBRANCH  13  14
ENDBRANCH  12  13
ENDBRANCH  11  12
ENDBRANCH   1  11
TORSDOF 14
ENDMDL
MODEL 5
REMARK VINA RESULT:     9.805      3.600      7.644
REMARK INTER + INTRA:          17.402
REMARK INTER:                  17.975
REMARK INTRA:                  -0.573
REMARK UNBOUND:                -0.429
REMARK SMILES CCCCCCCCCCCCCCCC(=O)[O-]
REMARK SMILES IDX 9 1 10 2 11 3 12 4 13 5 14 6 15 7 16 8 17 9 18 10 8 11 7 12
REMARK SMILES IDX 6 13 5 14 4 15 3 16 2 17 1 18
REMARK H PARENT
REMARK Flexibility Score: inf
ROOT
ATOM      1  C   UNL     1      27.135  44.095   4.676  1.00  0.00     0.000 C 
ENDROOT
BRANCH   1   2
ATOM      2  C   UNL     1      25.692  43.560   4.652  1.00  0.00     0.000 C 
BRANCH   2   3
ATOM      3  C   UNL     1      25.250  43.124   3.245  1.00  0.00     0.000 C 
BRANCH   3   4
ATOM      4  C   UNL     1      24.029  42.189   3.277  1.00  0.00     0.000 C 
BRANCH   4   5
ATOM      5  C   UNL     1      23.827  41.515   4.646  1.00  0.00     0.000 C 
BRANCH   5   6
ATOM      6  C   UNL     1      24.764  40.325   4.934  1.00  0.00     0.006 C 
BRANCH   6   7
ATOM      7  C   UNL     1      24.705  39.801   6.378  1.00  0.00     0.053 C 
BRANCH   7   8
ATOM      8  C   UNL     1      25.661  38.669   6.603  1.00  0.00     0.041 C 
ATOM      9  O   UNL     1      25.715  37.713   5.784  1.00  0.00    -0.550 OA
ATOM     10  O   UNL     1      26.466  38.654   7.734  1.00  0.00    -0.550 OA
ENDBRANCH   7   8
ENDBRANCH   6   7
ENDBRANCH   5   6
ENDBRANCH   4   5
ENDBRANCH   3   4
ENDBRANCH   2   3
ENDBRANCH   1   2
BRANCH   1  11
ATOM     11  C   UNL     1      27.580  44.674   3.320  1.00  0.00     0.000 C 
BRANCH  11  12
ATOM     12  C   UNL     1      29.103  44.797   3.132  1.00  0.00    -0.000 C 
BRANCH  12  13
ATOM     13  C   UNL     1      29.529  44.773   1.656  1.00  0.00    -0.000 C 
BRANCH  13  14
ATOM     14  C   UNL     1      29.756  43.336   1.172  1.00  0.00    -0.000 C 
BRANCH  14  15
ATOM     15  C   UNL     1      30.556  43.317  -0.139  1.00  0.00    -0.000 C 
BRANCH  15  16
ATOM     16  C   UNL     1      30.011  42.297  -1.151  1.00  0.00    -0.000 C 
BRANCH  16  17
ATOM     17  C   UNL     1      29.713  42.923  -2.521  1.00  0.00    -0.003 C 
ATOM     18  C   UNL     1      28.795  42.027  -3.347  1.00  0.00     0.004 C 
ENDBRANCH  16  17
ENDBRANCH  15  16
ENDBRANCH  14  15
ENDBRANCH  13  14
ENDBRANCH  12  13
ENDBRANCH  11  12
ENDBRANCH   1  11
TORSDOF 14
ENDMDL
MODEL 6
REMARK VINA RESULT:    10.006      5.038      6.993
REMARK INTER + INTRA:          17.767
REMARK INTER:                  17.761
REMARK INTRA:                   0.006
REMARK UNBOUND:                -0.429
REMARK SMILES CCCCCCCCCCCCCCCC(=O)[O-]
REMARK SMILES IDX 9 1 10 2 11 3 12 4 13 5 14 6 15 7 16 8 17 9 18 10 8 11 7 12
REMARK SMILES IDX 6 13 5 14 4 15 3 16 2 17 1 18
REMARK H PARENT
REMARK Flexibility Score: inf
ROOT
ATOM      1  C   UNL     1      25.265  43.823   2.840  1.00  0.00     0.000 C 
ENDROOT
BRANCH   1   2
ATOM      2  C   UNL     1      26.329  43.692   3.944  1.00  0.00     0.000 C 
BRANCH   2   3
ATOM      3  C   UNL     1      27.729  44.109   3.462  1.00  0.00     0.000 C 
BRANCH   3   4
ATOM      4  C   UNL     1      28.213  45.411   4.123  1.00  0.00     0.000 C 
BRANCH   4   5
ATOM      5  C   UNL     1      27.277  45.898   5.244  1.00  0.00     0.000 C 
BRANCH   5   6
ATOM      6  C   UNL     1      27.556  47.325   5.758  1.00  0.00     0.006 C 
BRANCH   6   7
ATOM      7  C   UNL     1      27.183  47.558   7.230  1.00  0.00     0.053 C 
BRANCH   7   8
ATOM      8  C   UNL     1      26.135  46.597   7.701  1.00  0.00     0.041 C 
ATOM      9  O   UNL     1      24.917  46.917   7.660  1.00  0.00    -0.550 OA
ATOM     10  O   UNL     1      26.505  45.361   8.216  1.00  0.00    -0.550 OA
ENDBRANCH   7   8
ENDBRANCH   6   7
ENDBRANCH   5   6
ENDBRANCH   4   5
ENDBRANCH   3   4
ENDBRANCH   2   3
ENDBRANCH   1   2
BRANCH   1  11
ATOM     11  C   UNL     1      24.642  42.472   2.446  1.00  0.00     0.000 C 
BRANCH  11  12
ATOM     12  C   UNL     1      23.139  42.331   2.751  1.00  0.00    -0.000 C 
BRANCH  12  13
ATOM     13  C   UNL     1      22.847  42.121   4.244  1.00  0.00    -0.000 C 
BRANCH  13  14
ATOM     14  C   UNL     1      24.143  41.891   5.031  1.00  0.00    -0.000 C 
BRANCH  14  15
ATOM     15  C   UNL     1      24.266  40.425   5.472  1.00  0.00    -0.000 C 
BRANCH  15  16
ATOM     16  C   UNL     1      25.635  40.106   6.094  1.00  0.00    -0.000 C 
BRANCH  16  17
ATOM     17  C   UNL     1      25.659  38.746   6.806  1.00  0.00    -0.003 C 
ATOM     18  C   UNL     1      25.531  37.600   5.806  1.00  0.00     0.004 C 
ENDBRANCH  16  17
ENDBRANCH  15  16
ENDBRANCH  14  15
ENDBRANCH  13  14
ENDBRANCH  12  13
ENDBRANCH  11  12
ENDBRANCH   1  11
TORSDOF 14
ENDMDL
MODEL 7
REMARK VINA RESULT:    10.123      1.812      2.911
REMARK INTER + INTRA:          17.979
REMARK INTER:                  18.463
REMARK INTRA:                  -0.484
REMARK UNBOUND:                -0.429
REMARK SMILES CCCCCCCCCCCCCCCC(=O)[O-]
REMARK SMILES IDX 9 1 10 2 11 3 12 4 13 5 14 6 15 7 16 8 17 9 18 10 8 11 7 12
REMARK SMILES IDX 6 13 5 14 4 15 3 16 2 17 1 18
REMARK H PARENT
REMARK Flexibility Score: inf
ROOT
ATOM      1  C   UNL     1      26.836  43.772   4.752  1.00  0.00     0.000 C 
ENDROOT
BRANCH   1   2
ATOM      2  C   UNL     1      27.630  44.838   3.978  1.00  0.00     0.000 C 
BRANCH   2   3
ATOM      3  C   UNL     1      29.015  44.334   3.535  1.00  0.00     0.000 C 
BRANCH   3   4
ATOM      4  C   UNL     1      29.304  44.637   2.055  1.00  0.00     0.000 C 
BRANCH   4   5
ATOM      5  C   UNL     1      29.967  43.456   1.322  1.00  0.00     0.000 C 
BRANCH   5   6
ATOM      6  C   UNL     1      30.095  43.623  -0.206  1.00  0.00     0.006 C 
BRANCH   6   7
ATOM      7  C   UNL     1      30.124  42.303  -0.992  1.00  0.00     0.053 C 
BRANCH   7   8
ATOM      8  C   UNL     1      29.448  42.428  -2.323  1.00  0.00     0.041 C 
ATOM      9  O   UNL     1      29.951  43.150  -3.224  1.00  0.00    -0.550 OA
ATOM     10  O   UNL     1      28.245  41.775  -2.556  1.00  0.00    -0.550 OA
ENDBRANCH   7   8
ENDBRANCH   6   7
ENDBRANCH   5   6
ENDBRANCH   4   5
ENDBRANCH   3   4
ENDBRANCH   2   3
ENDBRANCH   1   2
BRANCH   1  11
ATOM     11  C   UNL     1      25.351  43.720   4.347  1.00  0.00     0.000 C 
BRANCH  11  12
ATOM     12  C   UNL     1      25.048  42.907   3.076  1.00  0.00    -0.000 C 
BRANCH  12  13
ATOM     13  C   UNL     1      23.769  42.066   3.193  1.00  0.00    -0.000 C 
BRANCH  13  14
ATOM     14  C   UNL     1      23.558  41.580   4.632  1.00  0.00    -0.000 C 
BRANCH  14  15
ATOM     15  C   UNL     1      24.670  40.607   5.053  1.00  0.00    -0.000 C 
BRANCH  15  16
ATOM     16  C   UNL     1      24.369  39.905   6.386  1.00  0.00    -0.000 C 
BRANCH  16  17
ATOM     17  C   UNL     1      25.552  39.069   6.894  1.00  0.00    -0.003 C 
ATOM     18  C   UNL     1      25.887  37.943   5.921  1.00  0.00     0.004 C 
ENDBRANCH  16  17
ENDBRANCH  15  16
ENDBRANCH  14  15
ENDBRANCH  13  14
ENDBRANCH  12  13
ENDBRANCH  11  12
ENDBRANCH   1  11
TORSDOF 14
ENDMDL
MODEL 8
REMARK VINA RESULT:    10.208     12.972     15.010
REMARK INTER + INTRA:          18.135
REMARK INTER:                  18.555
REMARK INTRA:                  -0.421
REMARK UNBOUND:                -0.429
REMARK SMILES CCCCCCCCCCCCCCCC(=O)[O-]
REMARK SMILES IDX 9 1 10 2 11 3 12 4 13 5 14 6 15 7 16 8 17 9 18 10 8 11 7 12
REMARK SMILES IDX 6 13 5 14 4 15 3 16 2 17 1 18
REMARK H PARENT
REMARK Flexibility Score: inf
ROOT
ATOM      1  C   UNL     1      25.400  30.955  -5.238  1.00  0.00     0.000 C 
ENDROOT
BRANCH   1   2
ATOM      2  C   UNL     1      26.679  30.885  -4.385  1.00  0.00     0.000 C 
BRANCH   2   3
ATOM      3  C   UNL     1      26.471  31.444  -2.967  1.00  0.00     0.000 C 
BRANCH   3   4
ATOM      4  C   UNL     1      27.048  30.520  -1.881  1.00  0.00     0.000 C 
BRANCH   4   5
ATOM      5  C   UNL     1      25.958  29.821  -1.048  1.00  0.00     0.000 C 
BRANCH   5   6
ATOM      6  C   UNL     1      26.480  28.937   0.103  1.00  0.00     0.006 C 
BRANCH   6   7
ATOM      7  C   UNL     1      27.078  29.716   1.285  1.00  0.00     0.053 C 
BRANCH   7   8
ATOM      8  C   UNL     1      27.753  28.809   2.268  1.00  0.00     0.041 C 
ATOM      9  O   UNL     1      28.495  27.876   1.864  1.00  0.00    -0.550 OA
ATOM     10  O   UNL     1      27.533  28.974   3.630  1.00  0.00    -0.550 OA
ENDBRANCH   7   8
ENDBRANCH   6   7
ENDBRANCH   5   6
ENDBRANCH   4   5
ENDBRANCH   3   4
ENDBRANCH   2   3
ENDBRANCH   1   2
BRANCH   1  11
ATOM     11  C   UNL     1      25.443  30.016  -6.458  1.00  0.00     0.000 C 
BRANCH  11  12
ATOM     12  C   UNL     1      24.465  30.374  -7.592  1.00  0.00    -0.000 C 
BRANCH  12  13
ATOM     13  C   UNL     1      24.187  31.881  -7.691  1.00  0.00    -0.000 C 
BRANCH  13  14
ATOM     14  C   UNL     1      25.487  32.670  -7.887  1.00  0.00    -0.000 C 
BRANCH  14  15
ATOM     15  C   UNL     1      25.238  34.180  -7.765  1.00  0.00    -0.000 C 
BRANCH  15  16
ATOM     16  C   UNL     1      23.754  34.550  -7.917  1.00  0.00    -0.000 C 
BRANCH  16  17
ATOM     17  C   UNL     1      23.538  36.056  -8.124  1.00  0.00    -0.003 C 
ATOM     18  C   UNL     1      24.863  36.812  -8.082  1.00  0.00     0.004 C 
ENDBRANCH  16  17
ENDBRANCH  15  16
ENDBRANCH  14  15
ENDBRANCH  13  14
ENDBRANCH  12  13
ENDBRANCH  11  12
ENDBRANCH   1  11
TORSDOF 14
ENDMDL
