MODEL 1
REMARK VINA RESULT:    -5.819      0.000      0.000
REMARK INTER + INTRA:         -16.173
REMARK INTER:                 -13.302
REMARK INTRA:                  -2.871
REMARK UNBOUND:                -2.871
REMARK SMILES CCCCCCCCCCCCCCCCCCCCCCCC(=O)[O-]
REMARK SMILES IDX 13 1 14 2 15 3 16 4 17 5 18 6 19 7 20 8 21 9 22 10 23 11
REMARK SMILES IDX 24 12 25 13 26 14 12 15 11 16 10 17 9 18 8 19 7 20 6 21 5 22
REMARK SMILES IDX 4 23 3 24 2 25 1 26
REMARK H PARENT
REMARK Flexibility Score: inf
ROOT
ATOM      1  C   UNL     1      12.801  17.600  35.983  1.00  0.00     0.000 C 
ENDROOT
BRANCH   1   2
ATOM      2  C   UNL     1      13.477  16.314  35.468  1.00  0.00     0.000 C 
BRANCH   2   3
ATOM      3  C   UNL     1      13.901  15.364  36.597  1.00  0.00     0.000 C 
BRANCH   3   4
ATOM      4  C   UNL     1      13.981  16.101  37.939  1.00  0.00     0.000 C 
BRANCH   4   5
ATOM      5  C   UNL     1      15.441  16.299  38.372  1.00  0.00     0.000 C 
BRANCH   5   6
ATOM      6  C   UNL     1      15.817  17.781  38.556  1.00  0.00     0.000 C 
BRANCH   6   7
ATOM      7  C   UNL     1      16.251  18.509  37.270  1.00  0.00     0.000 C 
BRANCH   7   8
ATOM      8  C   UNL     1      17.248  17.691  36.432  1.00  0.00     0.000 C 
BRANCH   8   9
ATOM      9  C   UNL     1      16.864  17.618  34.942  1.00  0.00     0.000 C 
BRANCH   9  10
ATOM     10  C   UNL     1      17.973  17.116  34.000  1.00  0.00     0.006 C 
BRANCH  10  11
ATOM     11  C   UNL     1      19.075  16.337  34.729  1.00  0.00     0.053 C 
BRANCH  11  12
ATOM     12  C   UNL     1      20.390  17.036  34.588  1.00  0.00     0.041 C 
ATOM     13  O   UNL     1      21.445  16.372  34.411  1.00  0.00    -0.550 OA
ATOM     14  O   UNL     1      20.445  18.425  34.604  1.00  0.00    -0.550 OA
ENDBRANCH  11  12
ENDBRANCH  10  11
ENDBRANCH   9  10
ENDBRANCH   8   9
ENDBRANCH   7   8
ENDBRANCH   6   7
ENDBRANCH   5   6
ENDBRANCH   4   5
ENDBRANCH   3   4
ENDBRANCH   2   3
ENDBRANCH   1   2
BRANCH   1  15
ATOM     15  C   UNL     1      11.341  17.800  35.537  1.00  0.00     0.000 C 
BRANCH  15  16
ATOM     16  C   UNL     1      10.345  16.942  36.334  1.00  0.00     0.000 C 
BRANCH  16  17
ATOM     17  C   UNL     1       8.999  17.653  36.567  1.00  0.00     0.000 C 
BRANCH  17  18
ATOM     18  C   UNL     1       8.988  18.676  37.720  1.00  0.00    -0.000 C 
BRANCH  18  19
ATOM     19  C   UNL     1       8.690  20.130  37.303  1.00  0.00    -0.000 C 
BRANCH  19  20
ATOM     20  C   UNL     1       9.838  20.841  36.562  1.00  0.00    -0.000 C 
BRANCH  20  21
ATOM     21  C   UNL     1       9.424  21.562  35.262  1.00  0.00    -0.000 C 
BRANCH  21  22
ATOM     22  C   UNL     1       9.683  20.770  33.966  1.00  0.00    -0.000 C 
BRANCH  22  23
ATOM     23  C   UNL     1       8.607  19.727  33.613  1.00  0.00    -0.000 C 
BRANCH  23  24
ATOM     24  C   UNL     1       8.624  19.331  32.130  1.00  0.00    -0.000 C 
BRANCH  24  25
ATOM     25  C   UNL     1       9.321  17.980  31.931  1.00  0.00    -0.003 C 
ATOM     26  C   UNL     1       9.898  17.861  30.523  1.00  0.00     0.004 C 
ENDBRANCH  24  25
ENDBRANCH  23  24
ENDBRANCH  22  23
ENDBRANCH  21  22
ENDBRANCH  20  21
ENDBRANCH  19  20
ENDBRANCH  18  19
ENDBRANCH  17  18
ENDBRANCH  16  17
ENDBRANCH  15  16
ENDBRANCH   1  15
TORSDOF 22
ENDMDL
MODEL 2
REMARK VINA RESULT:    -5.798      3.886      8.416
REMARK INTER + INTRA:         -16.127
REMARK INTER:                 -12.724
REMARK INTRA:                  -3.402
REMARK UNBOUND:                -2.871
REMARK SMILES CCCCCCCCCCCCCCCCCCCCCCCC(=O)[O-]
REMARK SMILES IDX 13 1 14 2 15 3 16 4 17 5 18 6 19 7 20 8 21 9 22 10 23 11
REMARK SMILES IDX 24 12 25 13 26 14 12 15 11 16 10 17 9 18 8 19 7 20 6 21 5 22
REMARK SMILES IDX 4 23 3 24 2 25 1 26
REMARK H PARENT
REMARK Flexibility Score: inf
ROOT
ATOM      1  C   UNL     1      10.193  17.009  36.390  1.00  0.00     0.000 C 
ENDROOT
BRANCH   1   2
ATOM      2  C   UNL     1       8.944  16.635  35.570  1.00  0.00     0.000 C 
BRANCH   2   3
ATOM      3  C   UNL     1       8.088  17.852  35.188  1.00  0.00     0.000 C 
BRANCH   3   4
ATOM      4  C   UNL     1       8.242  18.190  33.701  1.00  0.00     0.000 C 
BRANCH   4   5
ATOM      5  C   UNL     1       8.744  19.629  33.514  1.00  0.00     0.000 C 
BRANCH   5   6
ATOM      6  C   UNL     1      10.278  19.721  33.411  1.00  0.00     0.000 C 
BRANCH   6   7
ATOM      7  C   UNL     1      10.947  20.643  34.448  1.00  0.00     0.000 C 
BRANCH   7   8
ATOM      8  C   UNL     1       9.951  21.201  35.478  1.00  0.00     0.000 C 
BRANCH   8   9
ATOM      9  C   UNL     1      10.072  20.529  36.859  1.00  0.00     0.000 C 
BRANCH   9  10
ATOM     10  C   UNL     1       8.829  20.644  37.759  1.00  0.00     0.006 C 
BRANCH  10  11
ATOM     11  C   UNL     1       8.581  19.390  38.606  1.00  0.00     0.053 C 
BRANCH  11  12
ATOM     12  C   UNL     1       9.245  19.521  39.940  1.00  0.00     0.041 C 
ATOM     13  O   UNL     1       9.435  18.503  40.657  1.00  0.00    -0.550 OA
ATOM     14  O   UNL     1       9.700  20.761  40.372  1.00  0.00    -0.550 OA
ENDBRANCH  11  12
ENDBRANCH  10  11
ENDBRANCH   9  10
ENDBRANCH   8   9
ENDBRANCH   7   8
ENDBRANCH   6   7
ENDBRANCH   5   6
ENDBRANCH   4   5
ENDBRANCH   3   4
ENDBRANCH   2   3
ENDBRANCH   1   2
BRANCH   1  15
ATOM     15  C   UNL     1      11.502  17.114  35.585  1.00  0.00     0.000 C 
BRANCH  15  16
ATOM     16  C   UNL     1      12.639  17.789  36.371  1.00  0.00     0.000 C 
BRANCH  16  17
ATOM     17  C   UNL     1      12.463  17.668  37.896  1.00  0.00     0.000 C 
BRANCH  17  18
ATOM     18  C   UNL     1      13.774  17.597  38.704  1.00  0.00    -0.000 C 
BRANCH  18  19
ATOM     19  C   UNL     1      14.657  16.368  38.414  1.00  0.00    -0.000 C 
BRANCH  19  20
ATOM     20  C   UNL     1      15.995  16.679  37.714  1.00  0.00    -0.000 C 
BRANCH  20  21
ATOM     21  C   UNL     1      16.048  16.304  36.219  1.00  0.00    -0.000 C 
BRANCH  21  22
ATOM     22  C   UNL     1      16.111  17.500  35.248  1.00  0.00    -0.000 C 
BRANCH  22  23
ATOM     23  C   UNL     1      17.348  18.402  35.406  1.00  0.00    -0.000 C 
BRANCH  23  24
ATOM     24  C   UNL     1      18.621  17.778  34.815  1.00  0.00    -0.000 C 
BRANCH  24  25
ATOM     25  C   UNL     1      18.600  17.838  33.283  1.00  0.00    -0.003 C 
ATOM     26  C   UNL     1      20.011  17.729  32.710  1.00  0.00     0.004 C 
ENDBRANCH  24  25
ENDBRANCH  23  24
ENDBRANCH  22  23
ENDBRANCH  21  22
ENDBRANCH  20  21
ENDBRANCH  19  20
ENDBRANCH  18  19
ENDBRANCH  17  18
ENDBRANCH  16  17
ENDBRANCH  15  16
ENDBRANCH   1  15
TORSDOF 22
ENDMDL
MODEL 3
REMARK VINA RESULT:    -5.792      2.700      5.816
REMARK INTER + INTRA:         -16.112
REMARK INTER:                 -12.660
REMARK INTRA:                  -3.453
REMARK UNBOUND:                -2.871
REMARK SMILES CCCCCCCCCCCCCCCCCCCCCCCC(=O)[O-]
REMARK SMILES IDX 13 1 14 2 15 3 16 4 17 5 18 6 19 7 20 8 21 9 22 10 23 11
REMARK SMILES IDX 24 12 25 13 26 14 12 15 11 16 10 17 9 18 8 19 7 20 6 21 5 22
REMARK SMILES IDX 4 23 3 24 2 25 1 26
REMARK H PARENT
REMARK Flexibility Score: inf
ROOT
ATOM      1  C   UNL     1      10.482  18.862  33.972  1.00  0.00     0.000 C 
ENDROOT
BRANCH   1   2
ATOM      2  C   UNL     1       9.679  17.550  34.051  1.00  0.00     0.000 C 
BRANCH   2   3
ATOM      3  C   UNL     1       8.507  17.619  35.041  1.00  0.00     0.000 C 
BRANCH   3   4
ATOM      4  C   UNL     1       8.439  18.992  35.720  1.00  0.00     0.000 C 
BRANCH   4   5
ATOM      5  C   UNL     1       7.875  18.873  37.144  1.00  0.00     0.000 C 
BRANCH   5   6
ATOM      6  C   UNL     1       8.933  19.134  38.232  1.00  0.00     0.000 C 
BRANCH   6   7
ATOM      7  C   UNL     1      10.372  19.314  37.713  1.00  0.00     0.000 C 
BRANCH   7   8
ATOM      8  C   UNL     1      11.328  18.223  38.223  1.00  0.00     0.000 C 
BRANCH   8   9
ATOM      9  C   UNL     1      11.605  17.128  37.175  1.00  0.00     0.000 C 
BRANCH   9  10
ATOM     10  C   UNL     1      12.800  17.397  36.241  1.00  0.00     0.006 C 
BRANCH  10  11
ATOM     11  C   UNL     1      13.576  16.126  35.877  1.00  0.00     0.053 C 
BRANCH  11  12
ATOM     12  C   UNL     1      15.023  16.280  36.222  1.00  0.00     0.041 C 
ATOM     13  O   UNL     1      15.834  16.733  35.372  1.00  0.00    -0.550 OA
ATOM     14  O   UNL     1      15.470  15.968  37.501  1.00  0.00    -0.550 OA
ENDBRANCH  11  12
ENDBRANCH  10  11
ENDBRANCH   9  10
ENDBRANCH   8   9
ENDBRANCH   7   8
ENDBRANCH   6   7
ENDBRANCH   5   6
ENDBRANCH   4   5
ENDBRANCH   3   4
ENDBRANCH   2   3
ENDBRANCH   1   2
BRANCH   1  15
ATOM     15  C   UNL     1      10.602  19.478  32.565  1.00  0.00     0.000 C 
BRANCH  15  16
ATOM     16  C   UNL     1       9.865  18.664  31.488  1.00  0.00     0.000 C 
BRANCH  16  17
ATOM     17  C   UNL     1       8.704  19.443  30.843  1.00  0.00     0.000 C 
BRANCH  17  18
ATOM     18  C   UNL     1       8.219  20.673  31.637  1.00  0.00    -0.000 C 
BRANCH  18  19
ATOM     19  C   UNL     1       8.418  22.028  30.930  1.00  0.00    -0.000 C 
BRANCH  19  20
ATOM     20  C   UNL     1       8.803  23.195  31.860  1.00  0.00    -0.000 C 
BRANCH  20  21
ATOM     21  C   UNL     1      10.285  23.618  31.792  1.00  0.00    -0.000 C 
BRANCH  21  22
ATOM     22  C   UNL     1      10.667  24.804  32.699  1.00  0.00    -0.000 C 
BRANCH  22  23
ATOM     23  C   UNL     1       9.588  25.223  33.713  1.00  0.00    -0.000 C 
BRANCH  23  24
ATOM     24  C   UNL     1       9.882  24.728  35.136  1.00  0.00    -0.000 C 
BRANCH  24  25
ATOM     25  C   UNL     1       9.145  23.415  35.423  1.00  0.00    -0.003 C 
ATOM     26  C   UNL     1      10.109  22.231  35.423  1.00  0.00     0.004 C 
ENDBRANCH  24  25
ENDBRANCH  23  24
ENDBRANCH  22  23
ENDBRANCH  21  22
ENDBRANCH  20  21
ENDBRANCH  19  20
ENDBRANCH  18  19
ENDBRANCH  17  18
ENDBRANCH  16  17
ENDBRANCH  15  16
ENDBRANCH   1  15
TORSDOF 22
ENDMDL
MODEL 4
REMARK VINA RESULT:    -5.727      3.388      5.838
REMARK INTER + INTRA:         -15.964
REMARK INTER:                 -11.887
REMARK INTRA:                  -4.077
REMARK UNBOUND:                -2.871
REMARK SMILES CCCCCCCCCCCCCCCCCCCCCCCC(=O)[O-]
REMARK SMILES IDX 13 1 14 2 15 3 16 4 17 5 18 6 19 7 20 8 21 9 22 10 23 11
REMARK SMILES IDX 24 12 25 13 26 14 12 15 11 16 10 17 9 18 8 19 7 20 6 21 5 22
REMARK SMILES IDX 4 23 3 24 2 25 1 26
REMARK H PARENT
REMARK Flexibility Score: inf
ROOT
ATOM      1  C   UNL     1      10.135  18.891  32.322  1.00  0.00     0.000 C 
ENDROOT
BRANCH   1   2
ATOM      2  C   UNL     1       9.451  17.854  33.232  1.00  0.00     0.000 C 
BRANCH   2   3
ATOM      3  C   UNL     1       8.140  18.363  33.847  1.00  0.00     0.000 C 
BRANCH   3   4
ATOM      4  C   UNL     1       8.149  18.211  35.373  1.00  0.00     0.000 C 
BRANCH   4   5
ATOM      5  C   UNL     1       8.484  16.767  35.778  1.00  0.00     0.000 C 
BRANCH   5   6
ATOM      6  C   UNL     1       9.753  16.667  36.644  1.00  0.00     0.000 C 
BRANCH   6   7
ATOM      7  C   UNL     1      10.194  17.983  37.311  1.00  0.00     0.000 C 
BRANCH   7   8
ATOM      8  C   UNL     1      11.716  18.200  37.251  1.00  0.00     0.000 C 
BRANCH   8   9
ATOM      9  C   UNL     1      12.378  17.491  36.054  1.00  0.00     0.000 C 
BRANCH   9  10
ATOM     10  C   UNL     1      13.825  17.021  36.284  1.00  0.00     0.006 C 
BRANCH  10  11
ATOM     11  C   UNL     1      13.947  15.500  36.435  1.00  0.00     0.053 C 
BRANCH  11  12
ATOM     12  C   UNL     1      14.371  15.144  37.824  1.00  0.00     0.041 C 
ATOM     13  O   UNL     1      14.280  15.991  38.752  1.00  0.00    -0.550 OA
ATOM     14  O   UNL     1      14.822  13.860  38.107  1.00  0.00    -0.550 OA
ENDBRANCH  11  12
ENDBRANCH  10  11
ENDBRANCH   9  10
ENDBRANCH   8   9
ENDBRANCH   7   8
ENDBRANCH   6   7
ENDBRANCH   5   6
ENDBRANCH   4   5
ENDBRANCH   3   4
ENDBRANCH   2   3
ENDBRANCH   1   2
BRANCH   1  15
ATOM     15  C   UNL     1      10.318  20.290  32.939  1.00  0.00     0.000 C 
BRANCH  15  16
ATOM     16  C   UNL     1      11.221  20.285  34.183  1.00  0.00     0.000 C 
BRANCH  16  17
ATOM     17  C   UNL     1      10.737  21.257  35.275  1.00  0.00     0.000 C 
BRANCH  17  18
ATOM     18  C   UNL     1       9.351  21.886  35.025  1.00  0.00    -0.000 C 
BRANCH  18  19
ATOM     19  C   UNL     1       9.251  23.394  35.331  1.00  0.00    -0.000 C 
BRANCH  19  20
ATOM     20  C   UNL     1       9.254  24.309  34.091  1.00  0.00    -0.000 C 
BRANCH  20  21
ATOM     21  C   UNL     1       9.029  23.584  32.748  1.00  0.00    -0.000 C 
BRANCH  21  22
ATOM     22  C   UNL     1      10.191  23.700  31.742  1.00  0.00    -0.000 C 
BRANCH  22  23
ATOM     23  C   UNL     1      11.458  24.383  32.285  1.00  0.00    -0.000 C 
BRANCH  23  24
ATOM     24  C   UNL     1      12.532  23.380  32.730  1.00  0.00    -0.000 C 
BRANCH  24  25
ATOM     25  C   UNL     1      13.185  23.823  34.045  1.00  0.00    -0.003 C 
ATOM     26  C   UNL     1      13.253  25.345  34.140  1.00  0.00     0.004 C 
ENDBRANCH  24  25
ENDBRANCH  23  24
ENDBRANCH  22  23
ENDBRANCH  21  22
ENDBRANCH  20  21
ENDBRANCH  19  20
ENDBRANCH  18  19
ENDBRANCH  17  18
ENDBRANCH  16  17
ENDBRANCH  15  16
ENDBRANCH   1  15
TORSDOF 22
ENDMDL
MODEL 5
REMARK VINA RESULT:    -5.698      1.535      3.074
REMARK INTER + INTRA:         -15.897
REMARK INTER:                 -12.757
REMARK INTRA:                  -3.139
REMARK UNBOUND:                -2.871
REMARK SMILES CCCCCCCCCCCCCCCCCCCCCCCC(=O)[O-]
REMARK SMILES IDX 13 1 14 2 15 3 16 4 17 5 18 6 19 7 20 8 21 9 22 10 23 11
REMARK SMILES IDX 24 12 25 13 26 14 12 15 11 16 10 17 9 18 8 19 7 20 6 21 5 22
REMARK SMILES IDX 4 23 3 24 2 25 1 26
REMARK H PARENT
REMARK Flexibility Score: inf
ROOT
ATOM      1  C   UNL     1      12.085  18.197  36.602  1.00  0.00     0.000 C 
ENDROOT
BRANCH   1   2
ATOM      2  C   UNL     1      12.510  17.563  35.264  1.00  0.00     0.000 C 
BRANCH   2   3
ATOM      3  C   UNL     1      13.373  16.305  35.440  1.00  0.00     0.000 C 
BRANCH   3   4
ATOM      4  C   UNL     1      13.386  15.845  36.903  1.00  0.00     0.000 C 
BRANCH   4   5
ATOM      5  C   UNL     1      14.739  15.216  37.269  1.00  0.00     0.000 C 
BRANCH   5   6
ATOM      6  C   UNL     1      15.489  15.999  38.361  1.00  0.00     0.000 C 
BRANCH   6   7
ATOM      7  C   UNL     1      15.382  17.532  38.256  1.00  0.00     0.000 C 
BRANCH   7   8
ATOM      8  C   UNL     1      16.531  18.153  37.443  1.00  0.00     0.000 C 
BRANCH   8   9
ATOM      9  C   UNL     1      16.154  18.418  35.973  1.00  0.00     0.000 C 
BRANCH   9  10
ATOM     10  C   UNL     1      16.950  17.607  34.934  1.00  0.00     0.006 C 
BRANCH  10  11
ATOM     11  C   UNL     1      18.444  17.508  35.264  1.00  0.00     0.053 C 
BRANCH  11  12
ATOM     12  C   UNL     1      19.090  16.435  34.446  1.00  0.00     0.041 C 
ATOM     13  O   UNL     1      18.813  15.224  34.654  1.00  0.00    -0.550 OA
ATOM     14  O   UNL     1      19.962  16.774  33.418  1.00  0.00    -0.550 OA
ENDBRANCH  11  12
ENDBRANCH  10  11
ENDBRANCH   9  10
ENDBRANCH   8   9
ENDBRANCH   7   8
ENDBRANCH   6   7
ENDBRANCH   5   6
ENDBRANCH   4   5
ENDBRANCH   3   4
ENDBRANCH   2   3
ENDBRANCH   1   2
BRANCH   1  15
ATOM     15  C   UNL     1      10.573  18.435  36.768  1.00  0.00     0.000 C 
BRANCH  15  16
ATOM     16  C   UNL     1       9.752  17.135  36.736  1.00  0.00     0.000 C 
BRANCH  16  17
ATOM     17  C   UNL     1       8.886  17.008  35.469  1.00  0.00     0.000 C 
BRANCH  17  18
ATOM     18  C   UNL     1       8.903  18.237  34.538  1.00  0.00    -0.000 C 
BRANCH  18  19
ATOM     19  C   UNL     1       9.404  17.967  33.105  1.00  0.00    -0.000 C 
BRANCH  19  20
ATOM     20  C   UNL     1      10.146  19.145  32.444  1.00  0.00    -0.000 C 
BRANCH  20  21
ATOM     21  C   UNL     1      10.765  20.157  33.429  1.00  0.00    -0.000 C 
BRANCH  21  22
ATOM     22  C   UNL     1      10.335  21.622  33.216  1.00  0.00    -0.000 C 
BRANCH  22  23
ATOM     23  C   UNL     1       8.996  22.008  33.869  1.00  0.00    -0.000 C 
BRANCH  23  24
ATOM     24  C   UNL     1       9.165  22.980  35.046  1.00  0.00    -0.000 C 
BRANCH  24  25
ATOM     25  C   UNL     1      10.192  24.069  34.714  1.00  0.00    -0.003 C 
ATOM     26  C   UNL     1       9.541  25.232  33.970  1.00  0.00     0.004 C 
ENDBRANCH  24  25
ENDBRANCH  23  24
ENDBRANCH  22  23
ENDBRANCH  21  22
ENDBRANCH  20  21
ENDBRANCH  19  20
ENDBRANCH  18  19
ENDBRANCH  17  18
ENDBRANCH  16  17
ENDBRANCH  15  16
ENDBRANCH   1  15
TORSDOF 22
ENDMDL
MODEL 6
REMARK VINA RESULT:    -5.678      2.845      5.972
REMARK INTER + INTRA:         -15.852
REMARK INTER:                 -12.491
REMARK INTRA:                  -3.361
REMARK UNBOUND:                -2.871
REMARK SMILES CCCCCCCCCCCCCCCCCCCCCCCC(=O)[O-]
REMARK SMILES IDX 13 1 14 2 15 3 16 4 17 5 18 6 19 7 20 8 21 9 22 10 23 11
REMARK SMILES IDX 24 12 25 13 26 14 12 15 11 16 10 17 9 18 8 19 7 20 6 21 5 22
REMARK SMILES IDX 4 23 3 24 2 25 1 26
REMARK H PARENT
REMARK Flexibility Score: inf
ROOT
ATOM      1  C   UNL     1      10.127  19.031  32.182  1.00  0.00     0.000 C 
ENDROOT
BRANCH   1   2
ATOM      2  C   UNL     1       9.708  18.860  33.655  1.00  0.00     0.000 C 
BRANCH   2   3
ATOM      3  C   UNL     1       8.225  18.496  33.820  1.00  0.00     0.000 C 
BRANCH   3   4
ATOM      4  C   UNL     1       7.950  17.918  35.213  1.00  0.00     0.000 C 
BRANCH   4   5
ATOM      5  C   UNL     1       8.756  16.630  35.442  1.00  0.00     0.000 C 
BRANCH   5   6
ATOM      6  C   UNL     1       9.603  16.673  36.726  1.00  0.00     0.000 C 
BRANCH   6   7
ATOM      7  C   UNL     1      11.127  16.638  36.505  1.00  0.00     0.000 C 
BRANCH   7   8
ATOM      8  C   UNL     1      11.791  18.008  36.729  1.00  0.00     0.000 C 
BRANCH   8   9
ATOM      9  C   UNL     1      12.938  18.289  35.740  1.00  0.00     0.000 C 
BRANCH   9  10
ATOM     10  C   UNL     1      14.086  17.263  35.754  1.00  0.00     0.006 C 
BRANCH  10  11
ATOM     11  C   UNL     1      14.987  17.385  36.989  1.00  0.00     0.053 C 
BRANCH  11  12
ATOM     12  C   UNL     1      14.797  16.207  37.892  1.00  0.00     0.041 C 
ATOM     13  O   UNL     1      13.871  16.205  38.745  1.00  0.00    -0.550 OA
ATOM     14  O   UNL     1      15.612  15.090  37.759  1.00  0.00    -0.550 OA
ENDBRANCH  11  12
ENDBRANCH  10  11
ENDBRANCH   9  10
ENDBRANCH   8   9
ENDBRANCH   7   8
ENDBRANCH   6   7
ENDBRANCH   5   6
ENDBRANCH   4   5
ENDBRANCH   3   4
ENDBRANCH   2   3
ENDBRANCH   1   2
BRANCH   1  15
ATOM     15  C   UNL     1       9.041  18.694  31.144  1.00  0.00     0.000 C 
BRANCH  15  16
ATOM     16  C   UNL     1       8.602  19.912  30.315  1.00  0.00     0.000 C 
BRANCH  16  17
ATOM     17  C   UNL     1       8.007  21.038  31.179  1.00  0.00     0.000 C 
BRANCH  17  18
ATOM     18  C   UNL     1       8.637  22.430  30.968  1.00  0.00    -0.000 C 
BRANCH  18  19
ATOM     19  C   UNL     1       9.485  22.951  32.145  1.00  0.00    -0.000 C 
BRANCH  19  20
ATOM     20  C   UNL     1       8.702  23.202  33.449  1.00  0.00    -0.000 C 
BRANCH  20  21
ATOM     21  C   UNL     1       9.019  22.221  34.596  1.00  0.00    -0.000 C 
BRANCH  21  22
ATOM     22  C   UNL     1       9.363  22.884  35.945  1.00  0.00    -0.000 C 
BRANCH  22  23
ATOM     23  C   UNL     1       8.848  22.137  37.188  1.00  0.00    -0.000 C 
BRANCH  23  24
ATOM     24  C   UNL     1       9.309  20.673  37.238  1.00  0.00    -0.000 C 
BRANCH  24  25
ATOM     25  C   UNL     1       8.331  19.817  38.050  1.00  0.00    -0.003 C 
ATOM     26  C   UNL     1       8.994  19.269  39.311  1.00  0.00     0.004 C 
ENDBRANCH  24  25
ENDBRANCH  23  24
ENDBRANCH  22  23
ENDBRANCH  21  22
ENDBRANCH  20  21
ENDBRANCH  19  20
ENDBRANCH  18  19
ENDBRANCH  17  18
ENDBRANCH  16  17
ENDBRANCH  15  16
ENDBRANCH   1  15
TORSDOF 22
ENDMDL
MODEL 7
REMARK VINA RESULT:    -5.630      3.660      8.633
REMARK INTER + INTRA:         -15.742
REMARK INTER:                 -12.951
REMARK INTRA:                  -2.792
REMARK UNBOUND:                -2.871
REMARK SMILES CCCCCCCCCCCCCCCCCCCCCCCC(=O)[O-]
REMARK SMILES IDX 13 1 14 2 15 3 16 4 17 5 18 6 19 7 20 8 21 9 22 10 23 11
REMARK SMILES IDX 24 12 25 13 26 14 12 15 11 16 10 17 9 18 8 19 7 20 6 21 5 22
REMARK SMILES IDX 4 23 3 24 2 25 1 26
REMARK H PARENT
REMARK Flexibility Score: inf
ROOT
ATOM      1  C   UNL     1      11.776  18.496  35.180  1.00  0.00     0.000 C 
ENDROOT
BRANCH   1   2
ATOM      2  C   UNL     1      10.773  19.506  35.771  1.00  0.00     0.000 C 
BRANCH   2   3
ATOM      3  C   UNL     1       9.385  18.898  36.023  1.00  0.00     0.000 C 
BRANCH   3   4
ATOM      4  C   UNL     1       9.086  17.773  35.026  1.00  0.00     0.000 C 
BRANCH   4   5
ATOM      5  C   UNL     1       8.269  18.297  33.835  1.00  0.00     0.000 C 
BRANCH   5   6
ATOM      6  C   UNL     1       9.073  18.326  32.522  1.00  0.00     0.000 C 
BRANCH   6   7
ATOM      7  C   UNL     1       9.567  19.719  32.090  1.00  0.00     0.000 C 
BRANCH   7   8
ATOM      8  C   UNL     1       8.532  20.826  32.359  1.00  0.00     0.000 C 
BRANCH   8   9
ATOM      9  C   UNL     1       9.049  21.912  33.322  1.00  0.00     0.000 C 
BRANCH   9  10
ATOM     10  C   UNL     1      10.520  22.321  33.125  1.00  0.00     0.006 C 
BRANCH  10  11
ATOM     11  C   UNL     1      10.686  23.552  32.225  1.00  0.00     0.053 C 
BRANCH  11  12
ATOM     12  C   UNL     1      10.705  24.801  33.047  1.00  0.00     0.041 C 
ATOM     13  O   UNL     1       9.626  25.363  33.373  1.00  0.00    -0.550 OA
ATOM     14  O   UNL     1      11.914  25.321  33.496  1.00  0.00    -0.550 OA
ENDBRANCH  11  12
ENDBRANCH  10  11
ENDBRANCH   9  10
ENDBRANCH   8   9
ENDBRANCH   7   8
ENDBRANCH   6   7
ENDBRANCH   5   6
ENDBRANCH   4   5
ENDBRANCH   3   4
ENDBRANCH   2   3
ENDBRANCH   1   2
BRANCH   1  15
ATOM     15  C   UNL     1      12.600  17.705  36.214  1.00  0.00     0.000 C 
BRANCH  15  16
ATOM     16  C   UNL     1      13.182  16.400  35.647  1.00  0.00     0.000 C 
BRANCH  16  17
ATOM     17  C   UNL     1      13.855  15.530  36.725  1.00  0.00     0.000 C 
BRANCH  17  18
ATOM     18  C   UNL     1      13.969  16.183  38.117  1.00  0.00    -0.000 C 
BRANCH  18  19
ATOM     19  C   UNL     1      15.391  16.618  38.523  1.00  0.00    -0.000 C 
BRANCH  19  20
ATOM     20  C   UNL     1      15.835  17.985  37.967  1.00  0.00    -0.000 C 
BRANCH  20  21
ATOM     21  C   UNL     1      16.709  17.917  36.697  1.00  0.00    -0.000 C 
BRANCH  21  22
ATOM     22  C   UNL     1      17.352  16.544  36.420  1.00  0.00    -0.000 C 
BRANCH  22  23
ATOM     23  C   UNL     1      17.737  16.289  34.952  1.00  0.00    -0.000 C 
BRANCH  23  24
ATOM     24  C   UNL     1      17.654  17.555  34.086  1.00  0.00    -0.000 C 
BRANCH  24  25
ATOM     25  C   UNL     1      19.037  17.947  33.554  1.00  0.00    -0.003 C 
ATOM     26  C   UNL     1      19.709  18.967  34.470  1.00  0.00     0.004 C 
ENDBRANCH  24  25
ENDBRANCH  23  24
ENDBRANCH  22  23
ENDBRANCH  21  22
ENDBRANCH  20  21
ENDBRANCH  19  20
ENDBRANCH  18  19
ENDBRANCH  17  18
ENDBRANCH  16  17
ENDBRANCH  15  16
ENDBRANCH   1  15
TORSDOF 22
ENDMDL
MODEL 8
REMARK VINA RESULT:    -5.607      4.026      8.631
REMARK INTER + INTRA:         -15.688
REMARK INTER:                 -12.614
REMARK INTRA:                  -3.074
REMARK UNBOUND:                -2.871
REMARK SMILES CCCCCCCCCCCCCCCCCCCCCCCC(=O)[O-]
REMARK SMILES IDX 13 1 14 2 15 3 16 4 17 5 18 6 19 7 20 8 21 9 22 10 23 11
REMARK SMILES IDX 24 12 25 13 26 14 12 15 11 16 10 17 9 18 8 19 7 20 6 21 5 22
REMARK SMILES IDX 4 23 3 24 2 25 1 26
REMARK H PARENT
REMARK Flexibility Score: inf
ROOT
ATOM      1  C   UNL     1       9.009  20.431  35.295  1.00  0.00     0.000 C 
ENDROOT
BRANCH   1   2
ATOM      2  C   UNL     1      10.424  20.524  34.693  1.00  0.00     0.000 C 
BRANCH   2   3
ATOM      3  C   UNL     1      10.834  19.261  33.920  1.00  0.00     0.000 C 
BRANCH   3   4
ATOM      4  C   UNL     1      10.836  19.516  32.408  1.00  0.00     0.000 C 
BRANCH   4   5
ATOM      5  C   UNL     1      10.132  18.375  31.658  1.00  0.00     0.000 C 
BRANCH   5   6
ATOM      6  C   UNL     1       9.012  18.871  30.726  1.00  0.00     0.000 C 
BRANCH   6   7
ATOM      7  C   UNL     1       8.227  20.092  31.240  1.00  0.00     0.000 C 
BRANCH   7   8
ATOM      8  C   UNL     1       8.279  21.284  30.269  1.00  0.00     0.000 C 
BRANCH   8   9
ATOM      9  C   UNL     1       7.937  22.626  30.944  1.00  0.00     0.000 C 
BRANCH   9  10
ATOM     10  C   UNL     1       8.546  22.833  32.343  1.00  0.00     0.006 C 
BRANCH  10  11
ATOM     11  C   UNL     1      10.003  23.309  32.300  1.00  0.00     0.053 C 
BRANCH  11  12
ATOM     12  C   UNL     1      10.148  24.615  33.015  1.00  0.00     0.041 C 
ATOM     13  O   UNL     1       9.666  24.762  34.169  1.00  0.00    -0.550 OA
ATOM     14  O   UNL     1      10.858  25.655  32.428  1.00  0.00    -0.550 OA
ENDBRANCH  11  12
ENDBRANCH  10  11
ENDBRANCH   9  10
ENDBRANCH   8   9
ENDBRANCH   7   8
ENDBRANCH   6   7
ENDBRANCH   5   6
ENDBRANCH   4   5
ENDBRANCH   3   4
ENDBRANCH   2   3
ENDBRANCH   1   2
BRANCH   1  15
ATOM     15  C   UNL     1       8.243  19.133  34.979  1.00  0.00     0.000 C 
BRANCH  15  16
ATOM     16  C   UNL     1       7.885  18.325  36.236  1.00  0.00     0.000 C 
BRANCH  16  17
ATOM     17  C   UNL     1       8.438  18.955  37.528  1.00  0.00     0.000 C 
BRANCH  17  18
ATOM     18  C   UNL     1       9.532  18.134  38.241  1.00  0.00    -0.000 C 
BRANCH  18  19
ATOM     19  C   UNL     1      10.981  18.522  37.883  1.00  0.00    -0.000 C 
BRANCH  19  20
ATOM     20  C   UNL     1      11.697  17.546  36.929  1.00  0.00    -0.000 C 
BRANCH  20  21
ATOM     21  C   UNL     1      13.229  17.482  37.097  1.00  0.00    -0.000 C 
BRANCH  21  22
ATOM     22  C   UNL     1      13.715  17.060  38.498  1.00  0.00    -0.000 C 
BRANCH  22  23
ATOM     23  C   UNL     1      15.237  17.136  38.710  1.00  0.00    -0.000 C 
BRANCH  23  24
ATOM     24  C   UNL     1      15.983  15.929  38.122  1.00  0.00    -0.000 C 
BRANCH  24  25
ATOM     25  C   UNL     1      16.496  16.237  36.710  1.00  0.00    -0.003 C 
ATOM     26  C   UNL     1      17.130  17.625  36.645  1.00  0.00     0.004 C 
ENDBRANCH  24  25
ENDBRANCH  23  24
ENDBRANCH  22  23
ENDBRANCH  21  22
ENDBRANCH  20  21
ENDBRANCH  19  20
ENDBRANCH  18  19
ENDBRANCH  17  18
ENDBRANCH  16  17
ENDBRANCH  15  16
ENDBRANCH   1  15
TORSDOF 22
ENDMDL
MODEL 9
REMARK VINA RESULT:    -5.588      1.652      2.416
REMARK INTER + INTRA:         -15.645
REMARK INTER:                 -12.498
REMARK INTRA:                  -3.148
REMARK UNBOUND:                -2.871
REMARK SMILES CCCCCCCCCCCCCCCCCCCCCCCC(=O)[O-]
REMARK SMILES IDX 13 1 14 2 15 3 16 4 17 5 18 6 19 7 20 8 21 9 22 10 23 11
REMARK SMILES IDX 24 12 25 13 26 14 12 15 11 16 10 17 9 18 8 19 7 20 6 21 5 22
REMARK SMILES IDX 4 23 3 24 2 25 1 26
REMARK H PARENT
REMARK Flexibility Score: inf
ROOT
ATOM      1  C   UNL     1      11.191  18.636  34.746  1.00  0.00     0.000 C 
ENDROOT
BRANCH   1   2
ATOM      2  C   UNL     1      12.411  18.244  35.601  1.00  0.00     0.000 C 
BRANCH   2   3
ATOM      3  C   UNL     1      12.050  17.331  36.782  1.00  0.00     0.000 C 
BRANCH   3   4
ATOM      4  C   UNL     1      12.843  17.714  38.037  1.00  0.00     0.000 C 
BRANCH   4   5
ATOM      5  C   UNL     1      13.817  16.594  38.434  1.00  0.00     0.000 C 
BRANCH   5   6
ATOM      6  C   UNL     1      15.292  17.029  38.362  1.00  0.00     0.000 C 
BRANCH   6   7
ATOM      7  C   UNL     1      16.146  16.272  37.328  1.00  0.00     0.000 C 
BRANCH   7   8
ATOM      8  C   UNL     1      15.751  16.597  35.878  1.00  0.00     0.000 C 
BRANCH   8   9
ATOM      9  C   UNL     1      16.374  17.909  35.364  1.00  0.00     0.000 C 
BRANCH   9  10
ATOM     10  C   UNL     1      17.909  17.989  35.456  1.00  0.00     0.006 C 
BRANCH  10  11
ATOM     11  C   UNL     1      18.610  17.596  34.150  1.00  0.00     0.053 C 
BRANCH  11  12
ATOM     12  C   UNL     1      19.429  16.359  34.348  1.00  0.00     0.041 C 
ATOM     13  O   UNL     1      20.684  16.409  34.261  1.00  0.00    -0.550 OA
ATOM     14  O   UNL     1      18.809  15.160  34.678  1.00  0.00    -0.550 OA
ENDBRANCH  11  12
ENDBRANCH  10  11
ENDBRANCH   9  10
ENDBRANCH   8   9
ENDBRANCH   7   8
ENDBRANCH   6   7
ENDBRANCH   5   6
ENDBRANCH   4   5
ENDBRANCH   3   4
ENDBRANCH   2   3
ENDBRANCH   1   2
BRANCH   1  15
ATOM     15  C   UNL     1      10.108  17.549  34.605  1.00  0.00     0.000 C 
BRANCH  15  16
ATOM     16  C   UNL     1       8.680  18.119  34.606  1.00  0.00     0.000 C 
BRANCH  16  17
ATOM     17  C   UNL     1       7.880  17.719  35.859  1.00  0.00     0.000 C 
BRANCH  17  18
ATOM     18  C   UNL     1       8.544  18.080  37.203  1.00  0.00    -0.000 C 
BRANCH  18  19
ATOM     19  C   UNL     1       8.295  19.521  37.691  1.00  0.00    -0.000 C 
BRANCH  19  20
ATOM     20  C   UNL     1       9.473  20.492  37.475  1.00  0.00    -0.000 C 
BRANCH  20  21
ATOM     21  C   UNL     1       9.108  21.807  36.756  1.00  0.00    -0.000 C 
BRANCH  21  22
ATOM     22  C   UNL     1       9.872  22.067  35.443  1.00  0.00    -0.000 C 
BRANCH  22  23
ATOM     23  C   UNL     1       9.081  21.764  34.158  1.00  0.00    -0.000 C 
BRANCH  23  24
ATOM     24  C   UNL     1       9.977  21.672  32.914  1.00  0.00    -0.000 C 
BRANCH  24  25
ATOM     25  C   UNL     1      11.151  22.653  33.010  1.00  0.00    -0.003 C 
ATOM     26  C   UNL     1      11.043  23.746  31.949  1.00  0.00     0.004 C 
ENDBRANCH  24  25
ENDBRANCH  23  24
ENDBRANCH  22  23
ENDBRANCH  21  22
ENDBRANCH  20  21
ENDBRANCH  19  20
ENDBRANCH  18  19
ENDBRANCH  17  18
ENDBRANCH  16  17
ENDBRANCH  15  16
ENDBRANCH   1  15
TORSDOF 22
ENDMDL
