MODEL 1
REMARK VINA RESULT:    -6.152      0.000      0.000
REMARK INTER + INTRA:         -14.120
REMARK INTER:                 -11.906
REMARK INTRA:                  -2.214
REMARK UNBOUND:                -2.214
REMARK SMILES CCCCCCCCCCCCCCCCCC(=O)[O-]
REMARK SMILES IDX 10 1 11 2 12 3 13 4 14 5 15 6 16 7 17 8 18 9 19 10 20 11
REMARK SMILES IDX 9 12 8 13 7 14 6 15 5 16 4 17 3 18 2 19 1 20
REMARK H PARENT
REMARK Flexibility Score: inf
ROOT
ATOM      1  C   UNL     1      16.074  -1.134  16.341  1.00  0.00     0.000 C 
ENDROOT
BRANCH   1   2
ATOM      2  C   UNL     1      17.118  -0.198  15.719  1.00  0.00     0.000 C 
BRANCH   2   3
ATOM      3  C   UNL     1      16.504   1.168  15.388  1.00  0.00     0.000 C 
BRANCH   3   4
ATOM      4  C   UNL     1      15.163   1.005  14.656  1.00  0.00     0.000 C 
BRANCH   4   5
ATOM      5  C   UNL     1      14.537   2.351  14.258  1.00  0.00     0.000 C 
BRANCH   5   6
ATOM      6  C   UNL     1      15.335   3.076  13.165  1.00  0.00     0.000 C 
BRANCH   6   7
ATOM      7  C   UNL     1      15.498   2.186  11.924  1.00  0.00     0.006 C 
BRANCH   7   8
ATOM      8  C   UNL     1      16.922   2.241  11.353  1.00  0.00     0.053 C 
BRANCH   8   9
ATOM      9  C   UNL     1      17.490   0.871  11.144  1.00  0.00     0.041 C 
ATOM     10  O   UNL     1      17.705   0.444   9.979  1.00  0.00    -0.550 OA
ATOM     11  O   UNL     1      17.751   0.053  12.236  1.00  0.00    -0.550 OA
ENDBRANCH   8   9
ENDBRANCH   7   8
ENDBRANCH   6   7
ENDBRANCH   5   6
ENDBRANCH   4   5
ENDBRANCH   3   4
ENDBRANCH   2   3
ENDBRANCH   1   2
BRANCH   1  12
ATOM     12  C   UNL     1      16.602  -1.759  17.641  1.00  0.00     0.000 C 
BRANCH  12  13
ATOM     13  C   UNL     1      17.773  -0.971  18.256  1.00  0.00    -0.000 C 
BRANCH  13  14
ATOM     14  C   UNL     1      17.371   0.233  19.126  1.00  0.00    -0.000 C 
BRANCH  14  15
ATOM     15  C   UNL     1      16.122  -0.035  19.982  1.00  0.00    -0.000 C 
BRANCH  15  16
ATOM     16  C   UNL     1      15.046   1.054  19.825  1.00  0.00    -0.000 C 
BRANCH  16  17
ATOM     17  C   UNL     1      13.850   0.623  18.951  1.00  0.00    -0.000 C 
BRANCH  17  18
ATOM     18  C   UNL     1      13.591   1.609  17.798  1.00  0.00    -0.000 C 
BRANCH  18  19
ATOM     19  C   UNL     1      13.156   2.995  18.294  1.00  0.00    -0.003 C 
ATOM     20  C   UNL     1      14.125   4.101  17.876  1.00  0.00     0.004 C 
ENDBRANCH  18  19
ENDBRANCH  17  18
ENDBRANCH  16  17
ENDBRANCH  15  16
ENDBRANCH  14  15
ENDBRANCH  13  14
ENDBRANCH  12  13
ENDBRANCH   1  12
TORSDOF 16
ENDMDL
MODEL 2
REMARK VINA RESULT:    -6.042      2.802      6.248
REMARK INTER + INTRA:         -13.907
REMARK INTER:                 -11.351
REMARK INTRA:                  -2.555
REMARK UNBOUND:                -2.214
REMARK SMILES CCCCCCCCCCCCCCCCCC(=O)[O-]
REMARK SMILES IDX 10 1 11 2 12 3 13 4 14 5 15 6 16 7 17 8 18 9 19 10 20 11
REMARK SMILES IDX 9 12 8 13 7 14 6 15 5 16 4 17 3 18 2 19 1 20
REMARK H PARENT
REMARK Flexibility Score: inf
ROOT
ATOM      1  C   UNL     1      19.255  -1.165  14.686  1.00  0.00     0.000 C 
ENDROOT
BRANCH   1   2
ATOM      2  C   UNL     1      19.255  -1.372  16.206  1.00  0.00     0.000 C 
BRANCH   2   3
ATOM      3  C   UNL     1      18.487  -2.644  16.589  1.00  0.00     0.000 C 
BRANCH   3   4
ATOM      4  C   UNL     1      17.245  -2.304  17.427  1.00  0.00     0.000 C 
BRANCH   4   5
ATOM      5  C   UNL     1      17.528  -1.243  18.502  1.00  0.00     0.000 C 
BRANCH   5   6
ATOM      6  C   UNL     1      16.295  -0.928  19.362  1.00  0.00     0.000 C 
BRANCH   6   7
ATOM      7  C   UNL     1      16.242   0.566  19.718  1.00  0.00     0.006 C 
BRANCH   7   8
ATOM      8  C   UNL     1      14.834   1.014  20.132  1.00  0.00     0.053 C 
BRANCH   8   9
ATOM      9  C   UNL     1      14.071   1.584  18.976  1.00  0.00     0.041 C 
ATOM     10  O   UNL     1      13.823   2.818  18.926  1.00  0.00    -0.550 OA
ATOM     11  O   UNL     1      13.605   0.748  17.971  1.00  0.00    -0.550 OA
ENDBRANCH   8   9
ENDBRANCH   7   8
ENDBRANCH   6   7
ENDBRANCH   5   6
ENDBRANCH   4   5
ENDBRANCH   3   4
ENDBRANCH   2   3
ENDBRANCH   1   2
BRANCH   1  12
ATOM     12  C   UNL     1      18.346   0.008  14.291  1.00  0.00     0.000 C 
BRANCH  12  13
ATOM     13  C   UNL     1      16.890  -0.419  14.030  1.00  0.00    -0.000 C 
BRANCH  13  14
ATOM     14  C   UNL     1      15.864   0.075  15.065  1.00  0.00    -0.000 C 
BRANCH  14  15
ATOM     15  C   UNL     1      16.335   1.322  15.830  1.00  0.00    -0.000 C 
BRANCH  15  16
ATOM     16  C   UNL     1      15.455   2.556  15.559  1.00  0.00    -0.000 C 
BRANCH  16  17
ATOM     17  C   UNL     1      14.661   2.473  14.239  1.00  0.00    -0.000 C 
BRANCH  17  18
ATOM     18  C   UNL     1      15.413   3.132  13.069  1.00  0.00    -0.000 C 
BRANCH  18  19
ATOM     19  C   UNL     1      15.560   2.196  11.860  1.00  0.00    -0.003 C 
ATOM     20  C   UNL     1      16.988   2.155  11.318  1.00  0.00     0.004 C 
ENDBRANCH  18  19
ENDBRANCH  17  18
ENDBRANCH  16  17
ENDBRANCH  15  16
ENDBRANCH  14  15
ENDBRANCH  13  14
ENDBRANCH  12  13
ENDBRANCH   1  12
TORSDOF 16
ENDMDL
MODEL 3
REMARK VINA RESULT:    -6.025      1.686      5.910
REMARK INTER + INTRA:         -13.874
REMARK INTER:                 -11.961
REMARK INTRA:                  -1.913
REMARK UNBOUND:                -2.214
REMARK SMILES CCCCCCCCCCCCCCCCCC(=O)[O-]
REMARK SMILES IDX 10 1 11 2 12 3 13 4 14 5 15 6 16 7 17 8 18 9 19 10 20 11
REMARK SMILES IDX 9 12 8 13 7 14 6 15 5 16 4 17 3 18 2 19 1 20
REMARK H PARENT
REMARK Flexibility Score: inf
ROOT
ATOM      1  C   UNL     1      14.042   1.637  18.654  1.00  0.00     0.000 C 
ENDROOT
BRANCH   1   2
ATOM      2  C   UNL     1      14.602   1.613  20.082  1.00  0.00     0.000 C 
BRANCH   2   3
ATOM      3  C   UNL     1      15.364   0.310  20.352  1.00  0.00     0.000 C 
BRANCH   3   4
ATOM      4  C   UNL     1      16.408   0.046  19.255  1.00  0.00     0.000 C 
BRANCH   4   5
ATOM      5  C   UNL     1      16.635  -1.453  19.001  1.00  0.00     0.000 C 
BRANCH   5   6
ATOM      6  C   UNL     1      16.313  -1.864  17.556  1.00  0.00     0.000 C 
BRANCH   6   7
ATOM      7  C   UNL     1      16.033  -0.630  16.685  1.00  0.00     0.006 C 
BRANCH   7   8
ATOM      8  C   UNL     1      16.874  -0.624  15.401  1.00  0.00     0.053 C 
BRANCH   8   9
ATOM      9  C   UNL     1      18.227  -0.020  15.626  1.00  0.00     0.041 C 
ATOM     10  O   UNL     1      19.224  -0.442  14.983  1.00  0.00    -0.550 OA
ATOM     11  O   UNL     1      18.390   0.986  16.569  1.00  0.00    -0.550 OA
ENDBRANCH   8   9
ENDBRANCH   7   8
ENDBRANCH   6   7
ENDBRANCH   5   6
ENDBRANCH   4   5
ENDBRANCH   3   4
ENDBRANCH   2   3
ENDBRANCH   1   2
BRANCH   1  12
ATOM     12  C   UNL     1      13.239   2.921  18.400  1.00  0.00     0.000 C 
BRANCH  12  13
ATOM     13  C   UNL     1      13.222   3.336  16.917  1.00  0.00    -0.000 C 
BRANCH  13  14
ATOM     14  C   UNL     1      13.762   2.283  15.932  1.00  0.00    -0.000 C 
BRANCH  14  15
ATOM     15  C   UNL     1      15.078   2.708  15.261  1.00  0.00    -0.000 C 
BRANCH  15  16
ATOM     16  C   UNL     1      14.931   2.927  13.745  1.00  0.00    -0.000 C 
BRANCH  16  17
ATOM     17  C   UNL     1      15.451   1.748  12.896  1.00  0.00    -0.000 C 
BRANCH  17  18
ATOM     18  C   UNL     1      15.777   2.173  11.453  1.00  0.00    -0.000 C 
BRANCH  18  19
ATOM     19  C   UNL     1      17.211   1.811  11.041  1.00  0.00    -0.003 C 
ATOM     20  C   UNL     1      17.787   0.660  11.866  1.00  0.00     0.004 C 
ENDBRANCH  18  19
ENDBRANCH  17  18
ENDBRANCH  16  17
ENDBRANCH  15  16
ENDBRANCH  14  15
ENDBRANCH  13  14
ENDBRANCH  12  13
ENDBRANCH   1  12
TORSDOF 16
ENDMDL
MODEL 4
REMARK VINA RESULT:    -6.024      2.871      6.544
REMARK INTER + INTRA:         -13.872
REMARK INTER:                 -11.763
REMARK INTRA:                  -2.109
REMARK UNBOUND:                -2.214
REMARK SMILES CCCCCCCCCCCCCCCCCC(=O)[O-]
REMARK SMILES IDX 10 1 11 2 12 3 13 4 14 5 15 6 16 7 17 8 18 9 19 10 20 11
REMARK SMILES IDX 9 12 8 13 7 14 6 15 5 16 4 17 3 18 2 19 1 20
REMARK H PARENT
REMARK Flexibility Score: inf
ROOT
ATOM      1  C   UNL     1      14.978   2.800  15.648  1.00  0.00     0.000 C 
ENDROOT
BRANCH   1   2
ATOM      2  C   UNL     1      13.625   2.381  16.237  1.00  0.00     0.000 C 
BRANCH   2   3
ATOM      3  C   UNL     1      12.979   3.537  17.010  1.00  0.00     0.000 C 
BRANCH   3   4
ATOM      4  C   UNL     1      13.319   3.455  18.506  1.00  0.00     0.000 C 
BRANCH   4   5
ATOM      5  C   UNL     1      13.764   2.048  18.937  1.00  0.00     0.000 C 
BRANCH   5   6
ATOM      6  C   UNL     1      14.656   2.065  20.187  1.00  0.00     0.000 C 
BRANCH   6   7
ATOM      7  C   UNL     1      14.892   0.641  20.711  1.00  0.00     0.006 C 
BRANCH   7   8
ATOM      8  C   UNL     1      15.045  -0.378  19.574  1.00  0.00     0.053 C 
BRANCH   8   9
ATOM      9  C   UNL     1      16.482  -0.727  19.330  1.00  0.00     0.041 C 
ATOM     10  O   UNL     1      16.823  -1.927  19.165  1.00  0.00    -0.550 OA
ATOM     11  O   UNL     1      17.447   0.272  19.319  1.00  0.00    -0.550 OA
ENDBRANCH   8   9
ENDBRANCH   7   8
ENDBRANCH   6   7
ENDBRANCH   5   6
ENDBRANCH   4   5
ENDBRANCH   3   4
ENDBRANCH   2   3
ENDBRANCH   1   2
BRANCH   1  12
ATOM     12  C   UNL     1      16.086   1.822  16.065  1.00  0.00     0.000 C 
BRANCH  12  13
ATOM     13  C   UNL     1      15.619   0.355  16.081  1.00  0.00    -0.000 C 
BRANCH  13  14
ATOM     14  C   UNL     1      16.608  -0.657  15.473  1.00  0.00    -0.000 C 
BRANCH  14  15
ATOM     15  C   UNL     1      17.991  -0.049  15.191  1.00  0.00    -0.000 C 
BRANCH  15  16
ATOM     16  C   UNL     1      18.498  -0.352  13.770  1.00  0.00    -0.000 C 
BRANCH  16  17
ATOM     17  C   UNL     1      17.440  -0.118  12.671  1.00  0.00    -0.000 C 
BRANCH  17  18
ATOM     18  C   UNL     1      17.890   0.945  11.652  1.00  0.00    -0.000 C 
BRANCH  18  19
ATOM     19  C   UNL     1      16.743   1.867  11.217  1.00  0.00    -0.003 C 
ATOM     20  C   UNL     1      15.541   1.797  12.159  1.00  0.00     0.004 C 
ENDBRANCH  18  19
ENDBRANCH  17  18
ENDBRANCH  16  17
ENDBRANCH  15  16
ENDBRANCH  14  15
ENDBRANCH  13  14
ENDBRANCH  12  13
ENDBRANCH   1  12
TORSDOF 16
ENDMDL
MODEL 5
REMARK VINA RESULT:    -5.963      2.283      6.670
REMARK INTER + INTRA:         -13.755
REMARK INTER:                 -11.391
REMARK INTRA:                  -2.364
REMARK UNBOUND:                -2.214
REMARK SMILES CCCCCCCCCCCCCCCCCC(=O)[O-]
REMARK SMILES IDX 10 1 11 2 12 3 13 4 14 5 15 6 16 7 17 8 18 9 19 10 20 11
REMARK SMILES IDX 9 12 8 13 7 14 6 15 5 16 4 17 3 18 2 19 1 20
REMARK H PARENT
REMARK Flexibility Score: inf
ROOT
ATOM      1  C   UNL     1      15.957   2.291  16.602  1.00  0.00     0.000 C 
ENDROOT
BRANCH   1   2
ATOM      2  C   UNL     1      14.928   2.716  17.656  1.00  0.00     0.000 C 
BRANCH   2   3
ATOM      3  C   UNL     1      13.770   1.714  17.732  1.00  0.00     0.000 C 
BRANCH   3   4
ATOM      4  C   UNL     1      13.582   1.198  19.167  1.00  0.00     0.000 C 
BRANCH   4   5
ATOM      5  C   UNL     1      14.793   1.494  20.066  1.00  0.00     0.000 C 
BRANCH   5   6
ATOM      6  C   UNL     1      15.548   0.222  20.482  1.00  0.00     0.000 C 
BRANCH   6   7
ATOM      7  C   UNL     1      16.729  -0.047  19.538  1.00  0.00     0.006 C 
BRANCH   7   8
ATOM      8  C   UNL     1      16.621  -1.414  18.848  1.00  0.00     0.053 C 
BRANCH   8   9
ATOM      9  C   UNL     1      17.582  -1.536  17.705  1.00  0.00     0.041 C 
ATOM     10  O   UNL     1      18.299  -0.557  17.372  1.00  0.00    -0.550 OA
ATOM     11  O   UNL     1      17.659  -2.722  16.986  1.00  0.00    -0.550 OA
ENDBRANCH   8   9
ENDBRANCH   7   8
ENDBRANCH   6   7
ENDBRANCH   5   6
ENDBRANCH   4   5
ENDBRANCH   3   4
ENDBRANCH   2   3
ENDBRANCH   1   2
BRANCH   1  12
ATOM     12  C   UNL     1      15.487   1.036  15.851  1.00  0.00     0.000 C 
BRANCH  12  13
ATOM     13  C   UNL     1      15.024   1.333  14.413  1.00  0.00    -0.000 C 
BRANCH  13  14
ATOM     14  C   UNL     1      15.066   2.816  14.001  1.00  0.00    -0.000 C 
BRANCH  14  15
ATOM     15  C   UNL     1      15.428   3.018  12.521  1.00  0.00    -0.000 C 
BRANCH  15  16
ATOM     16  C   UNL     1      15.576   1.690  11.756  1.00  0.00    -0.000 C 
BRANCH  16  17
ATOM     17  C   UNL     1      16.869   1.599  10.918  1.00  0.00    -0.000 C 
BRANCH  17  18
ATOM     18  C   UNL     1      18.040   1.007  11.723  1.00  0.00    -0.000 C 
BRANCH  18  19
ATOM     19  C   UNL     1      17.643  -0.258  12.497  1.00  0.00    -0.003 C 
ATOM     20  C   UNL     1      18.338  -0.361  13.855  1.00  0.00     0.004 C 
ENDBRANCH  18  19
ENDBRANCH  17  18
ENDBRANCH  16  17
ENDBRANCH  15  16
ENDBRANCH  14  15
ENDBRANCH  13  14
ENDBRANCH  12  13
ENDBRANCH   1  12
TORSDOF 16
ENDMDL
MODEL 6
REMARK VINA RESULT:    -5.959      1.135      3.365
REMARK INTER + INTRA:         -13.748
REMARK INTER:                 -11.500
REMARK INTRA:                  -2.248
REMARK UNBOUND:                -2.214
REMARK SMILES CCCCCCCCCCCCCCCCCC(=O)[O-]
REMARK SMILES IDX 10 1 11 2 12 3 13 4 14 5 15 6 16 7 17 8 18 9 19 10 20 11
REMARK SMILES IDX 9 12 8 13 7 14 6 15 5 16 4 17 3 18 2 19 1 20
REMARK H PARENT
REMARK Flexibility Score: inf
ROOT
ATOM      1  C   UNL     1      13.917   1.872  18.650  1.00  0.00     0.000 C 
ENDROOT
BRANCH   1   2
ATOM      2  C   UNL     1      13.274   3.213  18.274  1.00  0.00     0.000 C 
BRANCH   2   3
ATOM      3  C   UNL     1      13.069   3.319  16.758  1.00  0.00     0.000 C 
BRANCH   3   4
ATOM      4  C   UNL     1      13.882   2.246  16.017  1.00  0.00     0.000 C 
BRANCH   4   5
ATOM      5  C   UNL     1      15.091   2.830  15.268  1.00  0.00     0.000 C 
BRANCH   5   6
ATOM      6  C   UNL     1      14.918   2.792  13.742  1.00  0.00     0.000 C 
BRANCH   6   7
ATOM      7  C   UNL     1      15.667   1.596  13.135  1.00  0.00     0.006 C 
BRANCH   7   8
ATOM      8  C   UNL     1      16.337   1.949  11.800  1.00  0.00     0.053 C 
BRANCH   8   9
ATOM      9  C   UNL     1      17.409   0.966  11.440  1.00  0.00     0.041 C 
ATOM     10  O   UNL     1      17.556   0.599  10.245  1.00  0.00    -0.550 OA
ATOM     11  O   UNL     1      18.223   0.432  12.430  1.00  0.00    -0.550 OA
ENDBRANCH   8   9
ENDBRANCH   7   8
ENDBRANCH   6   7
ENDBRANCH   5   6
ENDBRANCH   4   5
ENDBRANCH   3   4
ENDBRANCH   2   3
ENDBRANCH   1   2
BRANCH   1  12
ATOM     12  C   UNL     1      14.700   1.988  19.966  1.00  0.00     0.000 C 
BRANCH  12  13
ATOM     13  C   UNL     1      15.294   0.646  20.432  1.00  0.00    -0.000 C 
BRANCH  13  14
ATOM     14  C   UNL     1      14.938  -0.571  19.560  1.00  0.00    -0.000 C 
BRANCH  14  15
ATOM     15  C   UNL     1      16.173  -1.358  19.093  1.00  0.00    -0.000 C 
BRANCH  15  16
ATOM     16  C   UNL     1      16.067  -1.825  17.631  1.00  0.00    -0.000 C 
BRANCH  16  17
ATOM     17  C   UNL     1      15.944  -0.667  16.618  1.00  0.00    -0.000 C 
BRANCH  17  18
ATOM     18  C   UNL     1      17.254  -0.435  15.843  1.00  0.00    -0.000 C 
BRANCH  18  19
ATOM     19  C   UNL     1      18.221   0.497  16.587  1.00  0.00    -0.003 C 
ATOM     20  C   UNL     1      17.497   1.524  17.458  1.00  0.00     0.004 C 
ENDBRANCH  18  19
ENDBRANCH  17  18
ENDBRANCH  16  17
ENDBRANCH  15  16
ENDBRANCH  14  15
ENDBRANCH  13  14
ENDBRANCH  12  13
ENDBRANCH   1  12
TORSDOF 16
ENDMDL
MODEL 7
REMARK VINA RESULT:    -5.953      2.631      6.725
REMARK INTER + INTRA:         -13.736
REMARK INTER:                 -11.776
REMARK INTRA:                  -1.960
REMARK UNBOUND:                -2.214
REMARK SMILES CCCCCCCCCCCCCCCCCC(=O)[O-]
REMARK SMILES IDX 10 1 11 2 12 3 13 4 14 5 15 6 16 7 17 8 18 9 19 10 20 11
REMARK SMILES IDX 9 12 8 13 7 14 6 15 5 16 4 17 3 18 2 19 1 20
REMARK H PARENT
REMARK Flexibility Score: inf
ROOT
ATOM      1  C   UNL     1      15.356   2.635  14.194  1.00  0.00     0.000 C 
ENDROOT
BRANCH   1   2
ATOM      2  C   UNL     1      14.065   1.827  14.375  1.00  0.00     0.000 C 
BRANCH   2   3
ATOM      3  C   UNL     1      13.153   2.474  15.425  1.00  0.00     0.000 C 
BRANCH   3   4
ATOM      4  C   UNL     1      13.974   3.272  16.449  1.00  0.00     0.000 C 
BRANCH   4   5
ATOM      5  C   UNL     1      13.126   3.766  17.633  1.00  0.00     0.000 C 
BRANCH   5   6
ATOM      6  C   UNL     1      13.720   3.370  18.992  1.00  0.00     0.000 C 
BRANCH   6   7
ATOM      7  C   UNL     1      13.828   1.843  19.119  1.00  0.00     0.006 C 
BRANCH   7   8
ATOM      8  C   UNL     1      14.877   1.419  20.157  1.00  0.00     0.053 C 
BRANCH   8   9
ATOM      9  C   UNL     1      16.024   0.695  19.522  1.00  0.00     0.041 C 
ATOM     10  O   UNL     1      16.393  -0.424  19.969  1.00  0.00    -0.550 OA
ATOM     11  O   UNL     1      16.707   1.270  18.459  1.00  0.00    -0.550 OA
ENDBRANCH   8   9
ENDBRANCH   7   8
ENDBRANCH   6   7
ENDBRANCH   5   6
ENDBRANCH   4   5
ENDBRANCH   3   4
ENDBRANCH   2   3
ENDBRANCH   1   2
BRANCH   1  12
ATOM     12  C   UNL     1      15.498   3.128  12.747  1.00  0.00     0.000 C 
BRANCH  12  13
ATOM     13  C   UNL     1      15.744   1.987  11.743  1.00  0.00    -0.000 C 
BRANCH  13  14
ATOM     14  C   UNL     1      17.213   1.777  11.332  1.00  0.00    -0.000 C 
BRANCH  14  15
ATOM     15  C   UNL     1      17.696   0.333  11.544  1.00  0.00    -0.000 C 
BRANCH  15  16
ATOM     16  C   UNL     1      17.300  -0.232  12.920  1.00  0.00    -0.000 C 
BRANCH  16  17
ATOM     17  C   UNL     1      18.435  -0.171  13.965  1.00  0.00    -0.000 C 
BRANCH  17  18
ATOM     18  C   UNL     1      17.894  -0.161  15.406  1.00  0.00    -0.000 C 
BRANCH  18  19
ATOM     19  C   UNL     1      16.461  -0.706  15.502  1.00  0.00    -0.003 C 
ATOM     20  C   UNL     1      16.297  -1.734  16.621  1.00  0.00     0.004 C 
ENDBRANCH  18  19
ENDBRANCH  17  18
ENDBRANCH  16  17
ENDBRANCH  15  16
ENDBRANCH  14  15
ENDBRANCH  13  14
ENDBRANCH  12  13
ENDBRANCH   1  12
TORSDOF 16
ENDMDL
MODEL 8
REMARK VINA RESULT:    -5.942      2.328      6.483
REMARK INTER + INTRA:         -13.714
REMARK INTER:                 -11.821
REMARK INTRA:                  -1.893
REMARK UNBOUND:                -2.214
REMARK SMILES CCCCCCCCCCCCCCCCCC(=O)[O-]
REMARK SMILES IDX 10 1 11 2 12 3 13 4 14 5 15 6 16 7 17 8 18 9 19 10 20 11
REMARK SMILES IDX 9 12 8 13 7 14 6 15 5 16 4 17 3 18 2 19 1 20
REMARK H PARENT
REMARK Flexibility Score: inf
ROOT
ATOM      1  C   UNL     1      13.065   2.491  17.040  1.00  0.00     0.000 C 
ENDROOT
BRANCH   1   2
ATOM      2  C   UNL     1      13.072   3.654  18.039  1.00  0.00     0.000 C 
BRANCH   2   3
ATOM      3  C   UNL     1      14.020   3.368  19.211  1.00  0.00     0.000 C 
BRANCH   3   4
ATOM      4  C   UNL     1      14.643   1.970  19.084  1.00  0.00     0.000 C 
BRANCH   4   5
ATOM      5  C   UNL     1      14.865   1.294  20.447  1.00  0.00     0.000 C 
BRANCH   5   6
ATOM      6  C   UNL     1      15.428  -0.129  20.318  1.00  0.00     0.000 C 
BRANCH   6   7
ATOM      7  C   UNL     1      16.429  -0.219  19.155  1.00  0.00     0.006 C 
BRANCH   7   8
ATOM      8  C   UNL     1      17.002  -1.633  18.992  1.00  0.00     0.053 C 
BRANCH   8   9
ATOM      9  C   UNL     1      16.803  -2.156  17.602  1.00  0.00     0.041 C 
ATOM     10  O   UNL     1      17.790  -2.542  16.923  1.00  0.00    -0.550 OA
ATOM     11  O   UNL     1      15.531  -2.185  17.047  1.00  0.00    -0.550 OA
ENDBRANCH   8   9
ENDBRANCH   7   8
ENDBRANCH   6   7
ENDBRANCH   5   6
ENDBRANCH   4   5
ENDBRANCH   3   4
ENDBRANCH   2   3
ENDBRANCH   1   2
BRANCH   1  12
ATOM     12  C   UNL     1      13.081   3.008  15.594  1.00  0.00     0.000 C 
BRANCH  12  13
ATOM     13  C   UNL     1      14.036   2.216  14.682  1.00  0.00    -0.000 C 
BRANCH  13  14
ATOM     14  C   UNL     1      15.532   2.347  15.022  1.00  0.00    -0.000 C 
BRANCH  14  15
ATOM     15  C   UNL     1      16.106   1.092  15.697  1.00  0.00    -0.000 C 
BRANCH  15  16
ATOM     16  C   UNL     1      17.157   0.376  14.830  1.00  0.00    -0.000 C 
BRANCH  16  17
ATOM     17  C   UNL     1      16.700   0.133  13.376  1.00  0.00    -0.000 C 
BRANCH  17  18
ATOM     18  C   UNL     1      17.819   0.427  12.361  1.00  0.00    -0.000 C 
BRANCH  18  19
ATOM     19  C   UNL     1      17.320   1.229  11.149  1.00  0.00    -0.003 C 
ATOM     20  C   UNL     1      15.988   1.930  11.416  1.00  0.00     0.004 C 
ENDBRANCH  18  19
ENDBRANCH  17  18
ENDBRANCH  16  17
ENDBRANCH  15  16
ENDBRANCH  14  15
ENDBRANCH  13  14
ENDBRANCH  12  13
ENDBRANCH   1  12
TORSDOF 16
ENDMDL
MODEL 9
REMARK VINA RESULT:    -5.915      1.677      2.597
REMARK INTER + INTRA:         -13.662
REMARK INTER:                 -11.672
REMARK INTRA:                  -1.989
REMARK UNBOUND:                -2.214
REMARK SMILES CCCCCCCCCCCCCCCCCC(=O)[O-]
REMARK SMILES IDX 10 1 11 2 12 3 13 4 14 5 15 6 16 7 17 8 18 9 19 10 20 11
REMARK SMILES IDX 9 12 8 13 7 14 6 15 5 16 4 17 3 18 2 19 1 20
REMARK H PARENT
REMARK Flexibility Score: inf
ROOT
ATOM      1  C   UNL     1      16.847  -1.902  17.041  1.00  0.00     0.000 C 
ENDROOT
BRANCH   1   2
ATOM      2  C   UNL     1      16.185  -0.738  16.293  1.00  0.00     0.000 C 
BRANCH   2   3
ATOM      3  C   UNL     1      17.238   0.205  15.699  1.00  0.00     0.000 C 
BRANCH   3   4
ATOM      4  C   UNL     1      18.447  -0.583  15.172  1.00  0.00     0.000 C 
BRANCH   4   5
ATOM      5  C   UNL     1      18.591  -0.497  13.644  1.00  0.00     0.000 C 
BRANCH   5   6
ATOM      6  C   UNL     1      17.260  -0.197  12.940  1.00  0.00     0.000 C 
BRANCH   6   7
ATOM      7  C   UNL     1      17.336   1.125  12.162  1.00  0.00     0.006 C 
BRANCH   7   8
ATOM      8  C   UNL     1      15.951   1.624  11.728  1.00  0.00     0.053 C 
BRANCH   8   9
ATOM      9  C   UNL     1      15.154   2.129  12.891  1.00  0.00     0.041 C 
ATOM     10  O   UNL     1      15.250   3.331  13.251  1.00  0.00    -0.550 OA
ATOM     11  O   UNL     1      14.329   1.262  13.597  1.00  0.00    -0.550 OA
ENDBRANCH   8   9
ENDBRANCH   7   8
ENDBRANCH   6   7
ENDBRANCH   5   6
ENDBRANCH   4   5
ENDBRANCH   3   4
ENDBRANCH   2   3
ENDBRANCH   1   2
BRANCH   1  12
ATOM     12  C   UNL     1      17.407  -1.439  18.394  1.00  0.00     0.000 C 
BRANCH  12  13
ATOM     13  C   UNL     1      16.307  -1.056  19.401  1.00  0.00    -0.000 C 
BRANCH  13  14
ATOM     14  C   UNL     1      16.293   0.422  19.830  1.00  0.00    -0.000 C 
BRANCH  14  15
ATOM     15  C   UNL     1      14.894   0.916  20.234  1.00  0.00    -0.000 C 
BRANCH  15  16
ATOM     16  C   UNL     1      13.799   0.486  19.242  1.00  0.00    -0.000 C 
BRANCH  16  17
ATOM     17  C   UNL     1      13.629   1.451  18.050  1.00  0.00    -0.000 C 
BRANCH  17  18
ATOM     18  C   UNL     1      13.460   2.911  18.508  1.00  0.00    -0.000 C 
BRANCH  18  19
ATOM     19  C   UNL     1      14.322   3.887  17.694  1.00  0.00    -0.003 C 
ATOM     20  C   UNL     1      15.431   3.182  16.913  1.00  0.00     0.004 C 
ENDBRANCH  18  19
ENDBRANCH  17  18
ENDBRANCH  16  17
ENDBRANCH  15  16
ENDBRANCH  14  15
ENDBRANCH  13  14
ENDBRANCH  12  13
ENDBRANCH   1  12
TORSDOF 16
ENDMDL
