MODEL 1
REMARK VINA RESULT:    -7.258      0.000      0.000
REMARK INTER + INTRA:          -9.328
REMARK INTER:                  -8.956
REMARK INTRA:                  -0.372
REMARK UNBOUND:                -0.372
REMARK SMILES Oc1cc(O)c2cc(O)c(-c3cc(O)c(O)c(O)c3)[o+]c2c1
REMARK SMILES IDX 10 1 20 2 21 3 22 4 2 5 3 6 4 7 6 8 7 9 8 10 11 11 12 12
REMARK SMILES IDX 13 13 19 14 15 15 17 16 14 17 16 19 18 21 9 23 1 25 5 27
REMARK H PARENT 14 18 16 20 18 22 9 24 1 26 5 28
REMARK Flexibility Score: inf
ROOT
ATOM      1  C   UNL     1     128.232 -11.943 193.179  1.00  0.00     0.402 A 
ATOM      2  O   UNL     1     128.955 -13.001 193.546  1.00  0.00    -0.202 OA
ATOM      3  C   UNL     1     129.940 -12.935 194.436  1.00  0.00     0.368 A 
ATOM      4  C   UNL     1     130.655 -14.091 194.764  1.00  0.00     0.162 A 
ATOM      5  C   UNL     1     131.697 -14.034 195.698  1.00  0.00     0.128 A 
ATOM      6  C   UNL     1     132.023 -12.817 196.305  1.00  0.00     0.093 A 
ATOM      7  C   UNL     1     131.314 -11.650 195.988  1.00  0.00     0.136 A 
ATOM      8  C   UNL     1     130.267 -11.706 195.049  1.00  0.00     0.125 A 
ATOM      9  C   UNL     1     129.521 -10.575 194.699  1.00  0.00     0.078 A 
ATOM     10  C   UNL     1     128.486 -10.687 193.766  1.00  0.00     0.223 A 
ENDROOT
BRANCH   1  11
ATOM     11  C   UNL     1     127.166 -12.140 192.171  1.00  0.00     0.091 A 
ATOM     12  C   UNL     1     125.831 -12.362 192.551  1.00  0.00     0.068 A 
ATOM     13  C   UNL     1     124.832 -12.525 191.580  1.00  0.00     0.162 A 
ATOM     14  C   UNL     1     127.480 -12.047 190.807  1.00  0.00     0.068 A 
ATOM     15  C   UNL     1     125.158 -12.453 190.220  1.00  0.00     0.200 A 
ATOM     16  C   UNL     1     126.486 -12.209 189.830  1.00  0.00     0.162 A 
BRANCH  13  17
ATOM     17  O   UNL     1     123.511 -12.752 191.961  1.00  0.00    -0.504 OA
ATOM     18  H   UNL     1     122.789 -12.950 191.278  1.00  0.00     0.293 HD
ENDBRANCH  13  17
BRANCH  15  19
ATOM     19  O   UNL     1     124.152 -12.620 189.268  1.00  0.00    -0.502 OA
ATOM     20  H   UNL     1     123.244 -13.001 189.504  1.00  0.00     0.293 HD
ENDBRANCH  15  19
BRANCH  16  21
ATOM     21  O   UNL     1     126.814 -12.129 188.478  1.00  0.00    -0.504 OA
ATOM     22  H   UNL     1     127.094 -11.254 188.051  1.00  0.00     0.293 HD
ENDBRANCH  16  21
ENDBRANCH   1  11
BRANCH  10  23
ATOM     23  O   UNL     1     127.706  -9.574 193.451  1.00  0.00    -0.500 OA
ATOM     24  H   UNL     1     128.111  -8.734 193.058  1.00  0.00     0.294 HD
ENDBRANCH  10  23
BRANCH   5  25
ATOM     25  O   UNL     1     132.414 -15.181 196.030  1.00  0.00    -0.507 OA
ATOM     26  H   UNL     1     132.364 -16.020 195.463  1.00  0.00     0.293 HD
ENDBRANCH   5  25
BRANCH   7  27
ATOM     27  O   UNL     1     131.649 -10.442 196.601  1.00  0.00    -0.507 OA
ATOM     28  H   UNL     1     132.152 -10.415 197.481  1.00  0.00     0.293 HD
ENDBRANCH   7  27
TORSDOF 7
ENDMDL
MODEL 2
REMARK VINA RESULT:    -7.191      5.198     10.894
REMARK INTER + INTRA:          -9.245
REMARK INTER:                  -9.451
REMARK INTRA:                   0.206
REMARK UNBOUND:                -0.372
REMARK SMILES Oc1cc(O)c2cc(O)c(-c3cc(O)c(O)c(O)c3)[o+]c2c1
REMARK SMILES IDX 10 1 20 2 21 3 22 4 2 5 3 6 4 7 6 8 7 9 8 10 11 11 12 12
REMARK SMILES IDX 13 13 19 14 15 15 17 16 14 17 16 19 18 21 9 23 1 25 5 27
REMARK H PARENT 14 18 16 20 18 22 9 24 1 26 5 28
REMARK Flexibility Score: inf
ROOT
ATOM      1  C   UNL     1     122.727 -14.645 188.084  1.00  0.00     0.402 A 
ATOM      2  O   UNL     1     121.428 -14.541 188.367  1.00  0.00    -0.202 OA
ATOM      3  C   UNL     1     120.470 -14.738 187.467  1.00  0.00     0.368 A 
ATOM      4  C   UNL     1     119.130 -14.604 187.843  1.00  0.00     0.162 A 
ATOM      5  C   UNL     1     118.111 -14.805 186.903  1.00  0.00     0.128 A 
ATOM      6  C   UNL     1     118.436 -15.142 185.585  1.00  0.00     0.093 A 
ATOM      7  C   UNL     1     119.775 -15.280 185.193  1.00  0.00     0.136 A 
ATOM      8  C   UNL     1     120.800 -15.078 186.137  1.00  0.00     0.125 A 
ATOM      9  C   UNL     1     122.153 -15.210 185.805  1.00  0.00     0.078 A 
ATOM     10  C   UNL     1     123.131 -15.004 186.783  1.00  0.00     0.223 A 
ENDROOT
BRANCH   1  11
ATOM     11  C   UNL     1     123.702 -14.394 189.170  1.00  0.00     0.091 A 
ATOM     12  C   UNL     1     124.951 -15.036 189.194  1.00  0.00     0.068 A 
ATOM     13  C   UNL     1     125.870 -14.768 190.219  1.00  0.00     0.162 A 
ATOM     14  C   UNL     1     123.399 -13.453 190.166  1.00  0.00     0.068 A 
ATOM     15  C   UNL     1     125.551 -13.844 191.222  1.00  0.00     0.200 A 
ATOM     16  C   UNL     1     124.312 -13.180 191.195  1.00  0.00     0.162 A 
BRANCH  13  17
ATOM     17  O   UNL     1     127.106 -15.412 190.244  1.00  0.00    -0.504 OA
ATOM     18  H   UNL     1     127.798 -15.260 189.518  1.00  0.00     0.293 HD
ENDBRANCH  13  17
BRANCH  15  19
ATOM     19  O   UNL     1     126.475 -13.592 192.236  1.00  0.00    -0.502 OA
ATOM     20  H   UNL     1     126.839 -12.665 192.416  1.00  0.00     0.293 HD
ENDBRANCH  15  19
BRANCH  16  21
ATOM     21  O   UNL     1     123.993 -12.254 192.186  1.00  0.00    -0.504 OA
ATOM     22  H   UNL     1     123.557 -11.368 191.964  1.00  0.00     0.293 HD
ENDBRANCH  16  21
ENDBRANCH   1  11
BRANCH  10  23
ATOM     23  O   UNL     1     124.478 -15.184 186.471  1.00  0.00    -0.500 OA
ATOM     24  H   UNL     1     124.770 -15.617 185.604  1.00  0.00     0.294 HD
ENDBRANCH  10  23
BRANCH   5  25
ATOM     25  O   UNL     1     116.774 -14.674 187.269  1.00  0.00    -0.507 OA
ATOM     26  H   UNL     1     116.506 -14.307 188.175  1.00  0.00     0.293 HD
ENDBRANCH   5  25
BRANCH   7  27
ATOM     27  O   UNL     1     120.085 -15.617 183.875  1.00  0.00    -0.507 OA
ATOM     28  H   UNL     1     119.478 -16.212 183.323  1.00  0.00     0.293 HD
ENDBRANCH   7  27
TORSDOF 7
ENDMDL
MODEL 3
REMARK VINA RESULT:    -7.184      0.067      1.790
REMARK INTER + INTRA:          -9.236
REMARK INTER:                  -8.864
REMARK INTRA:                  -0.372
REMARK UNBOUND:                -0.372
REMARK SMILES Oc1cc(O)c2cc(O)c(-c3cc(O)c(O)c(O)c3)[o+]c2c1
REMARK SMILES IDX 10 1 20 2 21 3 22 4 2 5 3 6 4 7 6 8 7 9 8 10 11 11 12 12
REMARK SMILES IDX 13 13 19 14 15 15 17 16 14 17 16 19 18 21 9 23 1 25 5 27
REMARK H PARENT 14 18 16 20 18 22 9 24 1 26 5 28
REMARK Flexibility Score: inf
ROOT
ATOM      1  C   UNL     1     128.264 -11.889 193.130  1.00  0.00     0.402 A 
ATOM      2  O   UNL     1     128.976 -12.960 193.479  1.00  0.00    -0.202 OA
ATOM      3  C   UNL     1     129.951 -12.923 194.382  1.00  0.00     0.368 A 
ATOM      4  C   UNL     1     130.655 -14.091 194.689  1.00  0.00     0.162 A 
ATOM      5  C   UNL     1     131.687 -14.063 195.636  1.00  0.00     0.128 A 
ATOM      6  C   UNL     1     132.014 -12.863 196.276  1.00  0.00     0.093 A 
ATOM      7  C   UNL     1     131.316 -11.684 195.979  1.00  0.00     0.136 A 
ATOM      8  C   UNL     1     130.279 -11.710 195.027  1.00  0.00     0.125 A 
ATOM      9  C   UNL     1     129.544 -10.566 194.696  1.00  0.00     0.078 A 
ATOM     10  C   UNL     1     128.520 -10.649 193.749  1.00  0.00     0.223 A 
ENDROOT
BRANCH   1  11
ATOM     11  C   UNL     1     127.209 -12.055 192.105  1.00  0.00     0.091 A 
ATOM     12  C   UNL     1     127.509 -12.014 190.732  1.00  0.00     0.068 A 
ATOM     13  C   UNL     1     126.499 -12.195 189.777  1.00  0.00     0.162 A 
ATOM     14  C   UNL     1     125.890 -12.315 192.507  1.00  0.00     0.068 A 
ATOM     15  C   UNL     1     125.181 -12.431 190.186  1.00  0.00     0.200 A 
ATOM     16  C   UNL     1     124.874 -12.495 191.557  1.00  0.00     0.162 A 
BRANCH  13  17
ATOM     17  O   UNL     1     126.799 -12.147 188.417  1.00  0.00    -0.504 OA
ATOM     18  H   UNL     1     127.754 -12.059 188.087  1.00  0.00     0.293 HD
ENDBRANCH  13  17
BRANCH  15  19
ATOM     19  O   UNL     1     124.188 -12.605 189.223  1.00  0.00    -0.502 OA
ATOM     20  H   UNL     1     123.202 -12.587 189.454  1.00  0.00     0.293 HD
ENDBRANCH  15  19
BRANCH  16  21
ATOM     21  O   UNL     1     123.566 -12.739 191.970  1.00  0.00    -0.504 OA
ATOM     22  H   UNL     1     122.960 -11.990 192.285  1.00  0.00     0.293 HD
ENDBRANCH  16  21
ENDBRANCH   1  11
BRANCH  10  23
ATOM     23  O   UNL     1     127.750  -9.524 193.452  1.00  0.00    -0.500 OA
ATOM     24  H   UNL     1     128.161  -8.689 193.054  1.00  0.00     0.294 HD
ENDBRANCH  10  23
BRANCH   5  25
ATOM     25  O   UNL     1     132.393 -15.222 195.948  1.00  0.00    -0.507 OA
ATOM     26  H   UNL     1     132.608 -15.471 196.907  1.00  0.00     0.293 HD
ENDBRANCH   5  25
BRANCH   7  27
ATOM     27  O   UNL     1     131.652 -10.494 196.625  1.00  0.00    -0.507 OA
ATOM     28  H   UNL     1     131.127  -9.640 196.472  1.00  0.00     0.293 HD
ENDBRANCH   7  27
TORSDOF 7
ENDMDL
MODEL 4
REMARK VINA RESULT:    -7.039      1.870      2.871
REMARK INTER + INTRA:          -9.057
REMARK INTER:                  -8.705
REMARK INTRA:                  -0.352
REMARK UNBOUND:                -0.372
REMARK SMILES Oc1cc(O)c2cc(O)c(-c3cc(O)c(O)c(O)c3)[o+]c2c1
REMARK SMILES IDX 10 1 20 2 21 3 22 4 2 5 3 6 4 7 6 8 7 9 8 10 11 11 12 12
REMARK SMILES IDX 13 13 19 14 15 15 17 16 14 17 16 19 18 21 9 23 1 25 5 27
REMARK H PARENT 14 18 16 20 18 22 9 24 1 26 5 28
REMARK Flexibility Score: inf
ROOT
ATOM      1  C   UNL     1     128.701 -10.963 192.050  1.00  0.00     0.402 A 
ATOM      2  O   UNL     1     129.780 -11.604 192.498  1.00  0.00    -0.202 OA
ATOM      3  C   UNL     1     130.297 -11.403 193.706  1.00  0.00     0.368 A 
ATOM      4  C   UNL     1     131.435 -12.114 194.099  1.00  0.00     0.162 A 
ATOM      5  C   UNL     1     131.991 -11.907 195.368  1.00  0.00     0.128 A 
ATOM      6  C   UNL     1     131.406 -10.988 196.245  1.00  0.00     0.093 A 
ATOM      7  C   UNL     1     130.264 -10.269 195.865  1.00  0.00     0.136 A 
ATOM      8  C   UNL     1     129.704 -10.475 194.590  1.00  0.00     0.125 A 
ATOM      9  C   UNL     1     128.562  -9.791 194.160  1.00  0.00     0.078 A 
ATOM     10  C   UNL     1     128.043 -10.038 192.886  1.00  0.00     0.223 A 
ENDROOT
BRANCH   1  11
ATOM     11  C   UNL     1     128.224 -11.266 190.682  1.00  0.00     0.091 A 
ATOM     12  C   UNL     1     128.838 -10.700 189.551  1.00  0.00     0.068 A 
ATOM     13  C   UNL     1     128.386 -11.017 188.262  1.00  0.00     0.162 A 
ATOM     14  C   UNL     1     127.176 -12.181 190.503  1.00  0.00     0.068 A 
ATOM     15  C   UNL     1     127.324 -11.914 188.093  1.00  0.00     0.200 A 
ATOM     16  C   UNL     1     126.718 -12.502 189.217  1.00  0.00     0.162 A 
BRANCH  13  17
ATOM     17  O   UNL     1     128.991 -10.449 187.143  1.00  0.00    -0.504 OA
ATOM     18  H   UNL     1     129.384 -11.021 186.404  1.00  0.00     0.293 HD
ENDBRANCH  13  17
BRANCH  15  19
ATOM     19  O   UNL     1     126.884 -12.216 186.804  1.00  0.00    -0.502 OA
ATOM     20  H   UNL     1     126.991 -11.569 186.033  1.00  0.00     0.293 HD
ENDBRANCH  15  19
BRANCH  16  21
ATOM     21  O   UNL     1     125.666 -13.402 189.054  1.00  0.00    -0.504 OA
ATOM     22  H   UNL     1     124.700 -13.111 189.143  1.00  0.00     0.293 HD
ENDBRANCH  16  21
ENDBRANCH   1  11
BRANCH  10  23
ATOM     23  O   UNL     1     126.875  -9.397 192.471  1.00  0.00    -0.500 OA
ATOM     24  H   UNL     1     126.007  -9.489 192.983  1.00  0.00     0.294 HD
ENDBRANCH  10  23
BRANCH   5  25
ATOM     25  O   UNL     1     133.125 -12.612 195.767  1.00  0.00    -0.507 OA
ATOM     26  H   UNL     1     133.474 -13.400 195.234  1.00  0.00     0.293 HD
ENDBRANCH   5  25
BRANCH   7  27
ATOM     27  O   UNL     1     129.690  -9.355 196.749  1.00  0.00    -0.507 OA
ATOM     28  H   UNL     1     128.841  -8.853 196.516  1.00  0.00     0.293 HD
ENDBRANCH   7  27
TORSDOF 7
ENDMDL
MODEL 5
REMARK VINA RESULT:    -7.006      1.891      2.410
REMARK INTER + INTRA:          -9.017
REMARK INTER:                  -8.677
REMARK INTRA:                  -0.339
REMARK UNBOUND:                -0.372
REMARK SMILES Oc1cc(O)c2cc(O)c(-c3cc(O)c(O)c(O)c3)[o+]c2c1
REMARK SMILES IDX 10 1 20 2 21 3 22 4 2 5 3 6 4 7 6 8 7 9 8 10 11 11 12 12
REMARK SMILES IDX 13 13 19 14 15 15 17 16 14 17 16 19 18 21 9 23 1 25 5 27
REMARK H PARENT 14 18 16 20 18 22 9 24 1 26 5 28
REMARK Flexibility Score: inf
ROOT
ATOM      1  C   UNL     1     128.667 -10.936 192.020  1.00  0.00     0.402 A 
ATOM      2  O   UNL     1     129.748 -11.574 192.470  1.00  0.00    -0.202 OA
ATOM      3  C   UNL     1     130.258 -11.375 193.681  1.00  0.00     0.368 A 
ATOM      4  C   UNL     1     131.397 -12.082 194.077  1.00  0.00     0.162 A 
ATOM      5  C   UNL     1     131.947 -11.878 195.349  1.00  0.00     0.128 A 
ATOM      6  C   UNL     1     131.353 -10.966 196.227  1.00  0.00     0.093 A 
ATOM      7  C   UNL     1     130.209 -10.251 195.845  1.00  0.00     0.136 A 
ATOM      8  C   UNL     1     129.656 -10.454 194.567  1.00  0.00     0.125 A 
ATOM      9  C   UNL     1     128.512  -9.774 194.134  1.00  0.00     0.078 A 
ATOM     10  C   UNL     1     128.000 -10.019 192.857  1.00  0.00     0.223 A 
ENDROOT
BRANCH   1  11
ATOM     11  C   UNL     1     128.198 -11.236 190.648  1.00  0.00     0.091 A 
ATOM     12  C   UNL     1     127.106 -12.091 190.419  1.00  0.00     0.068 A 
ATOM     13  C   UNL     1     126.663 -12.345 189.113  1.00  0.00     0.162 A 
ATOM     14  C   UNL     1     128.817 -10.612 189.555  1.00  0.00     0.068 A 
ATOM     15  C   UNL     1     127.301 -11.736 188.025  1.00  0.00     0.200 A 
ATOM     16  C   UNL     1     128.380 -10.862 188.246  1.00  0.00     0.162 A 
BRANCH  13  17
ATOM     17  O   UNL     1     125.585 -13.198 188.889  1.00  0.00    -0.504 OA
ATOM     18  H   UNL     1     124.824 -12.940 188.271  1.00  0.00     0.293 HD
ENDBRANCH  13  17
BRANCH  15  19
ATOM     19  O   UNL     1     126.850 -12.003 186.733  1.00  0.00    -0.502 OA
ATOM     20  H   UNL     1     126.523 -11.272 186.114  1.00  0.00     0.293 HD
ENDBRANCH  15  19
BRANCH  16  21
ATOM     21  O   UNL     1     129.013 -10.247 187.167  1.00  0.00    -0.504 OA
ATOM     22  H   UNL     1     128.486  -9.793 186.431  1.00  0.00     0.293 HD
ENDBRANCH  16  21
ENDBRANCH   1  11
BRANCH  10  23
ATOM     23  O   UNL     1     126.831  -9.383 192.439  1.00  0.00    -0.500 OA
ATOM     24  H   UNL     1     126.827  -8.412 192.152  1.00  0.00     0.294 HD
ENDBRANCH  10  23
BRANCH   5  25
ATOM     25  O   UNL     1     133.082 -12.578 195.750  1.00  0.00    -0.507 OA
ATOM     26  H   UNL     1     133.907 -12.632 195.163  1.00  0.00     0.293 HD
ENDBRANCH   5  25
BRANCH   7  27
ATOM     27  O   UNL     1     129.625  -9.344 196.731  1.00  0.00    -0.507 OA
ATOM     28  H   UNL     1     129.288  -8.441 196.420  1.00  0.00     0.293 HD
ENDBRANCH   7  27
TORSDOF 7
ENDMDL
MODEL 6
REMARK VINA RESULT:    -6.952      1.842      7.125
REMARK INTER + INTRA:          -8.949
REMARK INTER:                  -8.567
REMARK INTRA:                  -0.382
REMARK UNBOUND:                -0.372
REMARK SMILES Oc1cc(O)c2cc(O)c(-c3cc(O)c(O)c(O)c3)[o+]c2c1
REMARK SMILES IDX 10 1 20 2 21 3 22 4 2 5 3 6 4 7 6 8 7 9 8 10 11 11 12 12
REMARK SMILES IDX 13 13 19 14 15 15 17 16 14 17 16 19 18 21 9 23 1 25 5 27
REMARK H PARENT 14 18 16 20 18 22 9 24 1 26 5 28
REMARK Flexibility Score: inf
ROOT
ATOM      1  C   UNL     1     129.124 -11.668 193.152  1.00  0.00     0.402 A 
ATOM      2  O   UNL     1     129.655 -11.290 191.989  1.00  0.00    -0.202 OA
ATOM      3  C   UNL     1     128.925 -10.903 190.948  1.00  0.00     0.368 A 
ATOM      4  C   UNL     1     129.559 -10.525 189.761  1.00  0.00     0.162 A 
ATOM      5  C   UNL     1     128.800 -10.119 188.655  1.00  0.00     0.128 A 
ATOM      6  C   UNL     1     127.405 -10.091 188.740  1.00  0.00     0.093 A 
ATOM      7  C   UNL     1     126.755 -10.466 189.925  1.00  0.00     0.136 A 
ATOM      8  C   UNL     1     127.516 -10.874 191.036  1.00  0.00     0.125 A 
ATOM      9  C   UNL     1     126.923 -11.252 192.246  1.00  0.00     0.078 A 
ATOM     10  C   UNL     1     127.726 -11.643 193.321  1.00  0.00     0.223 A 
ENDROOT
BRANCH   1  11
ATOM     11  C   UNL     1     130.041 -12.087 194.237  1.00  0.00     0.091 A 
ATOM     12  C   UNL     1     130.361 -13.440 194.443  1.00  0.00     0.068 A 
ATOM     13  C   UNL     1     131.249 -13.814 195.461  1.00  0.00     0.162 A 
ATOM     14  C   UNL     1     130.650 -11.112 195.041  1.00  0.00     0.068 A 
ATOM     15  C   UNL     1     131.835 -12.837 196.275  1.00  0.00     0.200 A 
ATOM     16  C   UNL     1     131.538 -11.479 196.062  1.00  0.00     0.162 A 
BRANCH  13  17
ATOM     17  O   UNL     1     131.558 -15.157 195.667  1.00  0.00    -0.504 OA
ATOM     18  H   UNL     1     130.950 -15.898 195.337  1.00  0.00     0.293 HD
ENDBRANCH  13  17
BRANCH  15  19
ATOM     19  O   UNL     1     132.713 -13.227 197.286  1.00  0.00    -0.502 OA
ATOM     20  H   UNL     1     133.263 -14.075 197.225  1.00  0.00     0.293 HD
ENDBRANCH  15  19
BRANCH  16  21
ATOM     21  O   UNL     1     132.125 -10.502 196.864  1.00  0.00    -0.504 OA
ATOM     22  H   UNL     1     132.441 -10.705 197.805  1.00  0.00     0.293 HD
ENDBRANCH  16  21
ENDBRANCH   1  11
BRANCH  10  23
ATOM     23  O   UNL     1     127.142 -11.972 194.545  1.00  0.00    -0.500 OA
ATOM     24  H   UNL     1     126.838 -11.260 195.197  1.00  0.00     0.294 HD
ENDBRANCH  10  23
BRANCH   5  25
ATOM     25  O   UNL     1     129.424  -9.742 187.469  1.00  0.00    -0.507 OA
ATOM     26  H   UNL     1     130.289 -10.174 187.163  1.00  0.00     0.293 HD
ENDBRANCH   5  25
BRANCH   7  27
ATOM     27  O   UNL     1     125.362 -10.432 189.996  1.00  0.00    -0.507 OA
ATOM     28  H   UNL     1     124.879  -9.829 190.651  1.00  0.00     0.293 HD
ENDBRANCH   7  27
TORSDOF 7
ENDMDL
MODEL 7
REMARK VINA RESULT:    -6.851      1.577      7.248
REMARK INTER + INTRA:          -8.825
REMARK INTER:                  -8.609
REMARK INTRA:                  -0.216
REMARK UNBOUND:                -0.372
REMARK SMILES Oc1cc(O)c2cc(O)c(-c3cc(O)c(O)c(O)c3)[o+]c2c1
REMARK SMILES IDX 10 1 20 2 21 3 22 4 2 5 3 6 4 7 6 8 7 9 8 10 11 11 12 12
REMARK SMILES IDX 13 13 19 14 15 15 17 16 14 17 16 19 18 21 9 23 1 25 5 27
REMARK H PARENT 14 18 16 20 18 22 9 24 1 26 5 28
REMARK Flexibility Score: inf
ROOT
ATOM      1  C   UNL     1     127.941 -11.886 192.821  1.00  0.00     0.402 A 
ATOM      2  O   UNL     1     128.218 -11.638 191.541  1.00  0.00    -0.202 OA
ATOM      3  C   UNL     1     127.373 -11.900 190.550  1.00  0.00     0.368 A 
ATOM      4  C   UNL     1     127.742 -11.614 189.232  1.00  0.00     0.162 A 
ATOM      5  C   UNL     1     126.861 -11.890 188.178  1.00  0.00     0.128 A 
ATOM      6  C   UNL     1     125.609 -12.452 188.445  1.00  0.00     0.093 A 
ATOM      7  C   UNL     1     125.224 -12.744 189.762  1.00  0.00     0.136 A 
ATOM      8  C   UNL     1     126.109 -12.468 190.822  1.00  0.00     0.125 A 
ATOM      9  C   UNL     1     125.776 -12.730 192.155  1.00  0.00     0.078 A 
ATOM     10  C   UNL     1     126.689 -12.430 193.171  1.00  0.00     0.223 A 
ENDROOT
BRANCH   1  11
ATOM     11  C   UNL     1     128.968 -11.558 193.836  1.00  0.00     0.091 A 
ATOM     12  C   UNL     1     130.216 -12.204 193.850  1.00  0.00     0.068 A 
ATOM     13  C   UNL     1     131.183 -11.864 194.805  1.00  0.00     0.162 A 
ATOM     14  C   UNL     1     128.716 -10.541 194.770  1.00  0.00     0.068 A 
ATOM     15  C   UNL     1     130.916 -10.864 195.749  1.00  0.00     0.200 A 
ATOM     16  C   UNL     1     129.679 -10.196 195.729  1.00  0.00     0.162 A 
BRANCH  13  17
ATOM     17  O   UNL     1     132.417 -12.511 194.820  1.00  0.00    -0.504 OA
ATOM     18  H   UNL     1     132.836 -12.875 193.972  1.00  0.00     0.293 HD
ENDBRANCH  13  17
BRANCH  15  19
ATOM     19  O   UNL     1     131.888 -10.540 196.695  1.00  0.00    -0.502 OA
ATOM     20  H   UNL     1     131.707  -9.898 197.456  1.00  0.00     0.293 HD
ENDBRANCH  15  19
BRANCH  16  21
ATOM     21  O   UNL     1     129.410  -9.195 196.661  1.00  0.00    -0.504 OA
ATOM     22  H   UNL     1     130.037  -9.007 197.434  1.00  0.00     0.293 HD
ENDBRANCH  16  21
ENDBRANCH   1  11
BRANCH  10  23
ATOM     23  O   UNL     1     126.343 -12.643 194.505  1.00  0.00    -0.500 OA
ATOM     24  H   UNL     1     126.783 -13.366 195.060  1.00  0.00     0.294 HD
ENDBRANCH  10  23
BRANCH   5  25
ATOM     25  O   UNL     1     127.221 -11.608 186.863  1.00  0.00    -0.507 OA
ATOM     26  H   UNL     1     126.597 -11.806 186.088  1.00  0.00     0.293 HD
ENDBRANCH   5  25
BRANCH   7  27
ATOM     27  O   UNL     1     123.972 -13.304 190.014  1.00  0.00    -0.507 OA
ATOM     28  H   UNL     1     123.124 -12.750 189.975  1.00  0.00     0.293 HD
ENDBRANCH   7  27
TORSDOF 7
ENDMDL
MODEL 8
REMARK VINA RESULT:    -6.844      1.318      7.165
REMARK INTER + INTRA:          -8.816
REMARK INTER:                  -8.443
REMARK INTRA:                  -0.373
REMARK UNBOUND:                -0.372
REMARK SMILES Oc1cc(O)c2cc(O)c(-c3cc(O)c(O)c(O)c3)[o+]c2c1
REMARK SMILES IDX 10 1 20 2 21 3 22 4 2 5 3 6 4 7 6 8 7 9 8 10 11 11 12 12
REMARK SMILES IDX 13 13 19 14 15 15 17 16 14 17 16 19 18 21 9 23 1 25 5 27
REMARK H PARENT 14 18 16 20 18 22 9 24 1 26 5 28
REMARK Flexibility Score: inf
ROOT
ATOM      1  C   UNL     1     128.034 -12.275 192.992  1.00  0.00     0.402 A 
ATOM      2  O   UNL     1     128.249 -11.982 191.709  1.00  0.00    -0.202 OA
ATOM      3  C   UNL     1     127.277 -11.916 190.805  1.00  0.00     0.368 A 
ATOM      4  C   UNL     1     127.587 -11.606 189.478  1.00  0.00     0.162 A 
ATOM      5  C   UNL     1     126.572 -11.538 188.515  1.00  0.00     0.128 A 
ATOM      6  C   UNL     1     125.244 -11.778 188.883  1.00  0.00     0.093 A 
ATOM      7  C   UNL     1     124.918 -12.088 190.211  1.00  0.00     0.136 A 
ATOM      8  C   UNL     1     125.937 -12.158 191.180  1.00  0.00     0.125 A 
ATOM      9  C   UNL     1     125.670 -12.456 192.520  1.00  0.00     0.078 A 
ATOM     10  C   UNL     1     126.719 -12.506 193.443  1.00  0.00     0.223 A 
ENDROOT
BRANCH   1  11
ATOM     11  C   UNL     1     129.200 -12.327 193.903  1.00  0.00     0.091 A 
ATOM     12  C   UNL     1     129.576 -11.214 194.674  1.00  0.00     0.068 A 
ATOM     13  C   UNL     1     130.670 -11.291 195.548  1.00  0.00     0.162 A 
ATOM     14  C   UNL     1     129.912 -13.528 194.045  1.00  0.00     0.068 A 
ATOM     15  C   UNL     1     131.390 -12.486 195.667  1.00  0.00     0.200 A 
ATOM     16  C   UNL     1     131.008 -13.611 194.916  1.00  0.00     0.162 A 
BRANCH  13  17
ATOM     17  O   UNL     1     131.045 -10.183 196.306  1.00  0.00    -0.504 OA
ATOM     18  H   UNL     1     130.846  -9.238 195.999  1.00  0.00     0.293 HD
ENDBRANCH  13  17
BRANCH  15  19
ATOM     19  O   UNL     1     132.478 -12.543 196.538  1.00  0.00    -0.502 OA
ATOM     20  H   UNL     1     132.835 -13.419 196.898  1.00  0.00     0.293 HD
ENDBRANCH  15  19
BRANCH  16  21
ATOM     21  O   UNL     1     131.716 -14.805 195.037  1.00  0.00    -0.504 OA
ATOM     22  H   UNL     1     131.262 -15.705 194.932  1.00  0.00     0.293 HD
ENDBRANCH  16  21
ENDBRANCH   1  11
BRANCH  10  23
ATOM     23  O   UNL     1     126.453 -12.752 194.790  1.00  0.00    -0.500 OA
ATOM     24  H   UNL     1     125.641 -12.361 195.252  1.00  0.00     0.294 HD
ENDBRANCH  10  23
BRANCH   5  25
ATOM     25  O   UNL     1     126.872 -11.231 187.190  1.00  0.00    -0.507 OA
ATOM     26  H   UNL     1     127.501 -11.806 186.642  1.00  0.00     0.293 HD
ENDBRANCH   5  25
BRANCH   7  27
ATOM     27  O   UNL     1     123.589 -12.325 190.566  1.00  0.00    -0.507 OA
ATOM     28  H   UNL     1     122.846 -12.310 189.878  1.00  0.00     0.293 HD
ENDBRANCH   7  27
TORSDOF 7
ENDMDL
MODEL 9
REMARK VINA RESULT:    -6.828      1.830      7.135
REMARK INTER + INTRA:          -8.797
REMARK INTER:                  -8.416
REMARK INTRA:                  -0.381
REMARK UNBOUND:                -0.372
REMARK SMILES Oc1cc(O)c2cc(O)c(-c3cc(O)c(O)c(O)c3)[o+]c2c1
REMARK SMILES IDX 10 1 20 2 21 3 22 4 2 5 3 6 4 7 6 8 7 9 8 10 11 11 12 12
REMARK SMILES IDX 13 13 19 14 15 15 17 16 14 17 16 19 18 21 9 23 1 25 5 27
REMARK H PARENT 14 18 16 20 18 22 9 24 1 26 5 28
REMARK Flexibility Score: inf
ROOT
ATOM      1  C   UNL     1     128.912 -11.595 192.822  1.00  0.00     0.402 A 
ATOM      2  O   UNL     1     129.404 -11.254 191.631  1.00  0.00    -0.202 OA
ATOM      3  C   UNL     1     128.640 -10.905 190.601  1.00  0.00     0.368 A 
ATOM      4  C   UNL     1     129.234 -10.565 189.382  1.00  0.00     0.162 A 
ATOM      5  C   UNL     1     128.439 -10.199 188.288  1.00  0.00     0.128 A 
ATOM      6  C   UNL     1     127.047 -10.173 188.416  1.00  0.00     0.093 A 
ATOM      7  C   UNL     1     126.436 -10.510 189.632  1.00  0.00     0.136 A 
ATOM      8  C   UNL     1     127.234 -10.878 190.733  1.00  0.00     0.125 A 
ATOM      9  C   UNL     1     126.680 -11.217 191.972  1.00  0.00     0.078 A 
ATOM     10  C   UNL     1     127.519 -11.569 193.034  1.00  0.00     0.223 A 
ENDROOT
BRANCH   1  11
ATOM     11  C   UNL     1     129.864 -11.974 193.890  1.00  0.00     0.091 A 
ATOM     12  C   UNL     1     130.393 -11.016 194.772  1.00  0.00     0.068 A 
ATOM     13  C   UNL     1     131.276 -11.397 195.792  1.00  0.00     0.162 A 
ATOM     14  C   UNL     1     130.205 -13.323 194.065  1.00  0.00     0.068 A 
ATOM     15  C   UNL     1     131.629 -12.744 195.946  1.00  0.00     0.200 A 
ATOM     16  C   UNL     1     131.089 -13.712 195.082  1.00  0.00     0.162 A 
BRANCH  13  17
ATOM     17  O   UNL     1     131.804 -10.444 196.661  1.00  0.00    -0.504 OA
ATOM     18  H   UNL     1     132.325  -9.645 196.318  1.00  0.00     0.293 HD
ENDBRANCH  13  17
BRANCH  15  19
ATOM     19  O   UNL     1     132.512 -13.105 196.963  1.00  0.00    -0.502 OA
ATOM     20  H   UNL     1     133.512 -13.167 196.813  1.00  0.00     0.293 HD
ENDBRANCH  15  19
BRANCH  16  21
ATOM     21  O   UNL     1     131.431 -15.055 195.236  1.00  0.00    -0.504 OA
ATOM     22  H   UNL     1     130.749 -15.746 195.525  1.00  0.00     0.293 HD
ENDBRANCH  16  21
ENDBRANCH   1  11
BRANCH  10  23
ATOM     23  O   UNL     1     126.976 -11.858 194.286  1.00  0.00    -0.500 OA
ATOM     24  H   UNL     1     126.083 -11.481 194.579  1.00  0.00     0.294 HD
ENDBRANCH  10  23
BRANCH   5  25
ATOM     25  O   UNL     1     129.023  -9.860 187.070  1.00  0.00    -0.507 OA
ATOM     26  H   UNL     1     128.492  -9.864 186.207  1.00  0.00     0.293 HD
ENDBRANCH   5  25
BRANCH   7  27
ATOM     27  O   UNL     1     125.046 -10.479 189.747  1.00  0.00    -0.507 OA
ATOM     28  H   UNL     1     124.499  -9.718 189.363  1.00  0.00     0.293 HD
ENDBRANCH   7  27
TORSDOF 7
ENDMDL
