MODEL 1
REMARK VINA RESULT:    -2.532      0.000      0.000
REMARK INTER + INTRA:          -6.020
REMARK INTER:                  -4.308
REMARK INTRA:                  -1.712
REMARK UNBOUND:                -1.712
REMARK SMILES CCCCCCCCCCCCCC(=O)[O-]
REMARK SMILES IDX 8 1 9 2 10 3 11 4 12 5 13 6 14 7 15 8 16 9 7 10 6 11 5 12
REMARK SMILES IDX 4 13 3 14 2 15 1 16
REMARK H PARENT
REMARK Flexibility Score: inf
ROOT
ATOM      1  C   UNL     1      52.765 -35.604  24.646  1.00  0.00     0.000 C 
ENDROOT
BRANCH   1   2
ATOM      2  C   UNL     1      54.246 -35.628  24.239  1.00  0.00     0.000 C 
BRANCH   2   3
ATOM      3  C   UNL     1      54.490 -35.002  22.854  1.00  0.00     0.000 C 
BRANCH   3   4
ATOM      4  C   UNL     1      55.310 -35.917  21.931  1.00  0.00     0.000 C 
BRANCH   4   5
ATOM      5  C   UNL     1      56.439 -36.649  22.675  1.00  0.00     0.006 C 
BRANCH   5   6
ATOM      6  C   UNL     1      57.828 -36.142  22.264  1.00  0.00     0.053 C 
BRANCH   6   7
ATOM      7  C   UNL     1      58.485 -35.370  23.366  1.00  0.00     0.041 C 
ATOM      8  O   UNL     1      59.721 -35.495  23.578  1.00  0.00    -0.550 OA
ATOM      9  O   UNL     1      57.727 -34.539  24.182  1.00  0.00    -0.550 OA
ENDBRANCH   6   7
ENDBRANCH   5   6
ENDBRANCH   4   5
ENDBRANCH   3   4
ENDBRANCH   2   3
ENDBRANCH   1   2
BRANCH   1  10
ATOM     10  C   UNL     1      51.847 -35.123  23.512  1.00  0.00     0.000 C 
BRANCH  10  11
ATOM     11  C   UNL     1      50.909 -34.010  23.999  1.00  0.00    -0.000 C 
BRANCH  11  12
ATOM     12  C   UNL     1      51.061 -32.706  23.194  1.00  0.00    -0.000 C 
BRANCH  12  13
ATOM     13  C   UNL     1      52.326 -31.886  23.514  1.00  0.00    -0.000 C 
BRANCH  13  14
ATOM     14  C   UNL     1      52.627 -31.703  25.015  1.00  0.00    -0.000 C 
BRANCH  14  15
ATOM     15  C   UNL     1      54.021 -32.182  25.457  1.00  0.00    -0.003 C 
ATOM     16  C   UNL     1      55.129 -31.753  24.496  1.00  0.00     0.004 C 
ENDBRANCH  14  15
ENDBRANCH  13  14
ENDBRANCH  12  13
ENDBRANCH  11  12
ENDBRANCH  10  11
ENDBRANCH   1  10
TORSDOF 12
ENDMDL
MODEL 2
REMARK VINA RESULT:    -2.448      1.329      2.984
REMARK INTER + INTRA:          -5.877
REMARK INTER:                  -3.726
REMARK INTRA:                  -2.151
REMARK UNBOUND:                -1.712
REMARK SMILES CCCCCCCCCCCCCC(=O)[O-]
REMARK SMILES IDX 8 1 9 2 10 3 11 4 12 5 13 6 14 7 15 8 16 9 7 10 6 11 5 12
REMARK SMILES IDX 4 13 3 14 2 15 1 16
REMARK H PARENT
REMARK Flexibility Score: inf
ROOT
ATOM      1  C   UNL     1      52.958 -32.293  23.546  1.00  0.00     0.000 C 
ENDROOT
BRANCH   1   2
ATOM      2  C   UNL     1      53.998 -32.234  24.676  1.00  0.00     0.000 C 
BRANCH   2   3
ATOM      3  C   UNL     1      55.106 -33.291  24.518  1.00  0.00     0.000 C 
BRANCH   3   4
ATOM      4  C   UNL     1      55.088 -33.959  23.135  1.00  0.00     0.000 C 
BRANCH   4   5
ATOM      5  C   UNL     1      55.104 -35.495  23.221  1.00  0.00     0.006 C 
BRANCH   5   6
ATOM      6  C   UNL     1      56.340 -36.022  23.962  1.00  0.00     0.053 C 
BRANCH   6   7
ATOM      7  C   UNL     1      57.608 -35.660  23.253  1.00  0.00     0.041 C 
ATOM      8  O   UNL     1      57.889 -36.190  22.145  1.00  0.00    -0.550 OA
ATOM      9  O   UNL     1      58.497 -34.763  23.832  1.00  0.00    -0.550 OA
ENDBRANCH   6   7
ENDBRANCH   5   6
ENDBRANCH   4   5
ENDBRANCH   3   4
ENDBRANCH   2   3
ENDBRANCH   1   2
BRANCH   1  10
ATOM     10  C   UNL     1      51.515 -32.328  24.071  1.00  0.00     0.000 C 
BRANCH  10  11
ATOM     11  C   UNL     1      50.682 -33.374  23.317  1.00  0.00    -0.000 C 
BRANCH  11  12
ATOM     12  C   UNL     1      51.429 -34.707  23.123  1.00  0.00    -0.000 C 
BRANCH  12  13
ATOM     13  C   UNL     1      50.929 -35.868  24.005  1.00  0.00    -0.000 C 
BRANCH  13  14
ATOM     14  C   UNL     1      51.958 -36.420  25.011  1.00  0.00    -0.000 C 
BRANCH  14  15
ATOM     15  C   UNL     1      52.473 -35.394  26.035  1.00  0.00    -0.003 C 
ATOM     16  C   UNL     1      53.737 -35.859  26.757  1.00  0.00     0.004 C 
ENDBRANCH  14  15
ENDBRANCH  13  14
ENDBRANCH  12  13
ENDBRANCH  11  12
ENDBRANCH  10  11
ENDBRANCH   1  10
TORSDOF 12
ENDMDL
MODEL 3
REMARK VINA RESULT:    -2.441      1.696      3.264
REMARK INTER + INTRA:          -5.866
REMARK INTER:                  -3.941
REMARK INTRA:                  -1.925
REMARK UNBOUND:                -1.712
REMARK SMILES CCCCCCCCCCCCCC(=O)[O-]
REMARK SMILES IDX 8 1 9 2 10 3 11 4 12 5 13 6 14 7 15 8 16 9 7 10 6 11 5 12
REMARK SMILES IDX 4 13 3 14 2 15 1 16
REMARK H PARENT
REMARK Flexibility Score: inf
ROOT
ATOM      1  C   UNL     1      49.876 -33.132  23.546  1.00  0.00     0.000 C 
ENDROOT
BRANCH   1   2
ATOM      2  C   UNL     1      50.173 -34.468  22.847  1.00  0.00     0.000 C 
BRANCH   2   3
ATOM      3  C   UNL     1      51.296 -35.262  23.536  1.00  0.00     0.000 C 
BRANCH   3   4
ATOM      4  C   UNL     1      52.694 -34.842  23.056  1.00  0.00     0.000 C 
BRANCH   4   5
ATOM      5  C   UNL     1      53.820 -35.594  23.785  1.00  0.00     0.006 C 
BRANCH   5   6
ATOM      6  C   UNL     1      55.202 -34.994  23.492  1.00  0.00     0.053 C 
BRANCH   6   7
ATOM      7  C   UNL     1      55.937 -35.776  22.449  1.00  0.00     0.041 C 
ATOM      8  O   UNL     1      55.306 -36.334  21.512  1.00  0.00    -0.550 OA
ATOM      9  O   UNL     1      57.317 -35.920  22.530  1.00  0.00    -0.550 OA
ENDBRANCH   6   7
ENDBRANCH   5   6
ENDBRANCH   4   5
ENDBRANCH   3   4
ENDBRANCH   2   3
ENDBRANCH   1   2
BRANCH   1  10
ATOM     10  C   UNL     1      50.232 -31.918  22.674  1.00  0.00     0.000 C 
BRANCH  10  11
ATOM     11  C   UNL     1      51.558 -31.289  23.124  1.00  0.00    -0.000 C 
BRANCH  11  12
ATOM     12  C   UNL     1      51.913 -31.624  24.585  1.00  0.00    -0.000 C 
BRANCH  12  13
ATOM     13  C   UNL     1      53.417 -31.814  24.862  1.00  0.00    -0.000 C 
BRANCH  13  14
ATOM     14  C   UNL     1      53.754 -32.654  26.111  1.00  0.00    -0.000 C 
BRANCH  14  15
ATOM     15  C   UNL     1      52.579 -33.470  26.676  1.00  0.00    -0.003 C 
ATOM     16  C   UNL     1      53.023 -34.781  27.324  1.00  0.00     0.004 C 
ENDBRANCH  14  15
ENDBRANCH  13  14
ENDBRANCH  12  13
ENDBRANCH  11  12
ENDBRANCH  10  11
ENDBRANCH   1  10
TORSDOF 12
ENDMDL
MODEL 4
REMARK VINA RESULT:    -2.439      2.883      5.804
REMARK INTER + INTRA:          -5.862
REMARK INTER:                  -4.079
REMARK INTRA:                  -1.782
REMARK UNBOUND:                -1.712
REMARK SMILES CCCCCCCCCCCCCC(=O)[O-]
REMARK SMILES IDX 8 1 9 2 10 3 11 4 12 5 13 6 14 7 15 8 16 9 7 10 6 11 5 12
REMARK SMILES IDX 4 13 3 14 2 15 1 16
REMARK H PARENT
REMARK Flexibility Score: inf
ROOT
ATOM      1  C   UNL     1      55.722 -35.617  21.849  1.00  0.00     0.000 C 
ENDROOT
BRANCH   1   2
ATOM      2  C   UNL     1      54.254 -35.627  22.304  1.00  0.00     0.000 C 
BRANCH   2   3
ATOM      3  C   UNL     1      54.107 -35.594  23.836  1.00  0.00     0.000 C 
BRANCH   3   4
ATOM      4  C   UNL     1      52.778 -34.969  24.286  1.00  0.00     0.000 C 
BRANCH   4   5
ATOM      5  C   UNL     1      51.799 -34.755  23.119  1.00  0.00     0.006 C 
BRANCH   5   6
ATOM      6  C   UNL     1      50.617 -33.858  23.511  1.00  0.00     0.053 C 
BRANCH   6   7
ATOM      7  C   UNL     1      51.062 -32.469  23.850  1.00  0.00     0.041 C 
ATOM      8  O   UNL     1      50.667 -31.918  24.912  1.00  0.00    -0.550 OA
ATOM      9  O   UNL     1      51.886 -31.769  22.977  1.00  0.00    -0.550 OA
ENDBRANCH   6   7
ENDBRANCH   5   6
ENDBRANCH   4   5
ENDBRANCH   3   4
ENDBRANCH   2   3
ENDBRANCH   1   2
BRANCH   1  10
ATOM     10  C   UNL     1      56.635 -36.426  22.782  1.00  0.00     0.000 C 
BRANCH  10  11
ATOM     11  C   UNL     1      58.097 -35.978  22.644  1.00  0.00    -0.000 C 
BRANCH  11  12
ATOM     12  C   UNL     1      58.523 -34.985  23.742  1.00  0.00    -0.000 C 
BRANCH  12  13
ATOM     13  C   UNL     1      57.661 -35.016  25.019  1.00  0.00    -0.000 C 
BRANCH  13  14
ATOM     14  C   UNL     1      56.929 -33.700  25.350  1.00  0.00    -0.000 C 
BRANCH  14  15
ATOM     15  C   UNL     1      56.758 -32.740  24.160  1.00  0.00    -0.003 C 
ATOM     16  C   UNL     1      55.335 -32.196  24.036  1.00  0.00     0.004 C 
ENDBRANCH  14  15
ENDBRANCH  13  14
ENDBRANCH  12  13
ENDBRANCH  11  12
ENDBRANCH  10  11
ENDBRANCH   1  10
TORSDOF 12
ENDMDL
MODEL 5
REMARK VINA RESULT:    -2.436      1.418      2.984
REMARK INTER + INTRA:          -5.857
REMARK INTER:                  -4.648
REMARK INTRA:                  -1.209
REMARK UNBOUND:                -1.712
REMARK SMILES CCCCCCCCCCCCCC(=O)[O-]
REMARK SMILES IDX 8 1 9 2 10 3 11 4 12 5 13 6 14 7 15 8 16 9 7 10 6 11 5 12
REMARK SMILES IDX 4 13 3 14 2 15 1 16
REMARK H PARENT
REMARK Flexibility Score: inf
ROOT
ATOM      1  C   UNL     1      55.131 -34.822  22.780  1.00  0.00     0.000 C 
ENDROOT
BRANCH   1   2
ATOM      2  C   UNL     1      55.643 -36.085  22.070  1.00  0.00     0.000 C 
BRANCH   2   3
ATOM      3  C   UNL     1      56.827 -36.739  22.804  1.00  0.00     0.000 C 
BRANCH   3   4
ATOM      4  C   UNL     1      58.186 -36.243  22.288  1.00  0.00     0.000 C 
BRANCH   4   5
ATOM      5  C   UNL     1      59.162 -35.901  23.427  1.00  0.00     0.006 C 
BRANCH   5   6
ATOM      6  C   UNL     1      58.499 -35.059  24.525  1.00  0.00     0.053 C 
BRANCH   6   7
ATOM      7  C   UNL     1      58.530 -33.598  24.199  1.00  0.00     0.041 C 
ATOM      8  O   UNL     1      57.551 -32.862  24.492  1.00  0.00    -0.550 OA
ATOM      9  O   UNL     1      59.627 -33.055  23.540  1.00  0.00    -0.550 OA
ENDBRANCH   6   7
ENDBRANCH   5   6
ENDBRANCH   4   5
ENDBRANCH   3   4
ENDBRANCH   2   3
ENDBRANCH   1   2
BRANCH   1  10
ATOM     10  C   UNL     1      54.741 -35.083  24.242  1.00  0.00     0.000 C 
BRANCH  10  11
ATOM     11  C   UNL     1      53.295 -35.590  24.343  1.00  0.00    -0.000 C 
BRANCH  11  12
ATOM     12  C   UNL     1      52.378 -34.998  23.256  1.00  0.00    -0.000 C 
BRANCH  12  13
ATOM     13  C   UNL     1      51.463 -33.852  23.729  1.00  0.00    -0.000 C 
BRANCH  13  14
ATOM     14  C   UNL     1      52.161 -32.492  23.924  1.00  0.00    -0.000 C 
BRANCH  14  15
ATOM     15  C   UNL     1      51.663 -31.371  22.995  1.00  0.00    -0.003 C 
ATOM     16  C   UNL     1      50.177 -31.493  22.661  1.00  0.00     0.004 C 
ENDBRANCH  14  15
ENDBRANCH  13  14
ENDBRANCH  12  13
ENDBRANCH  11  12
ENDBRANCH  10  11
ENDBRANCH   1  10
TORSDOF 12
ENDMDL
MODEL 6
REMARK VINA RESULT:    -2.430      1.034      2.719
REMARK INTER + INTRA:          -5.847
REMARK INTER:                  -4.439
REMARK INTRA:                  -1.408
REMARK UNBOUND:                -1.712
REMARK SMILES CCCCCCCCCCCCCC(=O)[O-]
REMARK SMILES IDX 8 1 9 2 10 3 11 4 12 5 13 6 14 7 15 8 16 9 7 10 6 11 5 12
REMARK SMILES IDX 4 13 3 14 2 15 1 16
REMARK H PARENT
REMARK Flexibility Score: inf
ROOT
ATOM      1  C   UNL     1      54.125 -33.445  24.597  1.00  0.00     0.000 C 
ENDROOT
BRANCH   1   2
ATOM      2  C   UNL     1      55.090 -33.958  23.516  1.00  0.00     0.000 C 
BRANCH   2   3
ATOM      3  C   UNL     1      54.543 -35.186  22.768  1.00  0.00     0.000 C 
BRANCH   3   4
ATOM      4  C   UNL     1      55.589 -35.825  21.842  1.00  0.00     0.000 C 
BRANCH   4   5
ATOM      5  C   UNL     1      56.596 -36.703  22.605  1.00  0.00     0.006 C 
BRANCH   5   6
ATOM      6  C   UNL     1      58.037 -36.199  22.452  1.00  0.00     0.053 C 
BRANCH   6   7
ATOM      7  C   UNL     1      58.456 -35.354  23.614  1.00  0.00     0.041 C 
ATOM      8  O   UNL     1      59.204 -34.356  23.436  1.00  0.00    -0.550 OA
ATOM      9  O   UNL     1      58.048 -35.687  24.900  1.00  0.00    -0.550 OA
ENDBRANCH   6   7
ENDBRANCH   5   6
ENDBRANCH   4   5
ENDBRANCH   3   4
ENDBRANCH   2   3
ENDBRANCH   1   2
BRANCH   1  10
ATOM     10  C   UNL     1      53.658 -32.005  24.336  1.00  0.00     0.000 C 
BRANCH  10  11
ATOM     11  C   UNL     1      52.387 -31.988  23.475  1.00  0.00    -0.000 C 
BRANCH  11  12
ATOM     12  C   UNL     1      51.116 -32.321  24.278  1.00  0.00    -0.000 C 
BRANCH  12  13
ATOM     13  C   UNL     1      50.185 -33.360  23.623  1.00  0.00    -0.000 C 
BRANCH  13  14
ATOM     14  C   UNL     1      50.894 -34.586  23.014  1.00  0.00    -0.000 C 
BRANCH  14  15
ATOM     15  C   UNL     1      50.632 -35.913  23.747  1.00  0.00    -0.003 C 
ATOM     16  C   UNL     1      51.634 -36.181  24.869  1.00  0.00     0.004 C 
ENDBRANCH  14  15
ENDBRANCH  13  14
ENDBRANCH  12  13
ENDBRANCH  11  12
ENDBRANCH  10  11
ENDBRANCH   1  10
TORSDOF 12
ENDMDL
MODEL 7
REMARK VINA RESULT:    -2.424      3.149      6.095
REMARK INTER + INTRA:          -5.836
REMARK INTER:                  -4.172
REMARK INTRA:                  -1.664
REMARK UNBOUND:                -1.712
REMARK SMILES CCCCCCCCCCCCCC(=O)[O-]
REMARK SMILES IDX 8 1 9 2 10 3 11 4 12 5 13 6 14 7 15 8 16 9 7 10 6 11 5 12
REMARK SMILES IDX 4 13 3 14 2 15 1 16
REMARK H PARENT
REMARK Flexibility Score: inf
ROOT
ATOM      1  C   UNL     1      54.035 -34.334  24.493  1.00  0.00     0.000 C 
ENDROOT
BRANCH   1   2
ATOM      2  C   UNL     1      54.188 -32.856  24.101  1.00  0.00     0.000 C 
BRANCH   2   3
ATOM      3  C   UNL     1      53.420 -31.911  25.042  1.00  0.00     0.000 C 
BRANCH   3   4
ATOM      4  C   UNL     1      52.425 -31.014  24.291  1.00  0.00     0.000 C 
BRANCH   4   5
ATOM      5  C   UNL     1      51.877 -31.678  23.015  1.00  0.00     0.006 C 
BRANCH   5   6
ATOM      6  C   UNL     1      50.459 -32.230  23.212  1.00  0.00     0.053 C 
BRANCH   6   7
ATOM      7  C   UNL     1      50.472 -33.693  23.532  1.00  0.00     0.041 C 
ATOM      8  O   UNL     1      50.443 -34.545  22.604  1.00  0.00    -0.550 OA
ATOM      9  O   UNL     1      50.481 -34.116  24.856  1.00  0.00    -0.550 OA
ENDBRANCH   6   7
ENDBRANCH   5   6
ENDBRANCH   4   5
ENDBRANCH   3   4
ENDBRANCH   2   3
ENDBRANCH   1   2
BRANCH   1  10
ATOM     10  C   UNL     1      53.870 -35.255  23.274  1.00  0.00     0.000 C 
BRANCH  10  11
ATOM     11  C   UNL     1      55.080 -35.145  22.336  1.00  0.00    -0.000 C 
BRANCH  11  12
ATOM     12  C   UNL     1      55.753 -36.504  22.067  1.00  0.00    -0.000 C 
BRANCH  12  13
ATOM     13  C   UNL     1      57.030 -36.773  22.888  1.00  0.00    -0.000 C 
BRANCH  13  14
ATOM     14  C   UNL     1      57.528 -35.585  23.735  1.00  0.00    -0.000 C 
BRANCH  14  15
ATOM     15  C   UNL     1      57.553 -35.840  25.252  1.00  0.00    -0.003 C 
ATOM     16  C   UNL     1      56.510 -36.863  25.700  1.00  0.00     0.004 C 
ENDBRANCH  14  15
ENDBRANCH  13  14
ENDBRANCH  12  13
ENDBRANCH  11  12
ENDBRANCH  10  11
ENDBRANCH   1  10
TORSDOF 12
ENDMDL
MODEL 8
REMARK VINA RESULT:    -2.420      3.195      6.219
REMARK INTER + INTRA:          -5.830
REMARK INTER:                  -4.690
REMARK INTRA:                  -1.139
REMARK UNBOUND:                -1.712
REMARK SMILES CCCCCCCCCCCCCC(=O)[O-]
REMARK SMILES IDX 8 1 9 2 10 3 11 4 12 5 13 6 14 7 15 8 16 9 7 10 6 11 5 12
REMARK SMILES IDX 4 13 3 14 2 15 1 16
REMARK H PARENT
REMARK Flexibility Score: inf
ROOT
ATOM      1  C   UNL     1      50.868 -33.012  24.618  1.00  0.00     0.000 C 
ENDROOT
BRANCH   1   2
ATOM      2  C   UNL     1      51.707 -31.732  24.490  1.00  0.00     0.000 C 
BRANCH   2   3
ATOM      3  C   UNL     1      51.617 -31.102  23.088  1.00  0.00     0.000 C 
BRANCH   3   4
ATOM      4  C   UNL     1      50.856 -29.768  23.090  1.00  0.00     0.000 C 
BRANCH   4   5
ATOM      5  C   UNL     1      51.407 -28.774  24.127  1.00  0.00     0.006 C 
BRANCH   5   6
ATOM      6  C   UNL     1      52.484 -27.856  23.534  1.00  0.00     0.053 C 
BRANCH   6   7
ATOM      7  C   UNL     1      53.792 -28.003  24.248  1.00  0.00     0.041 C 
ATOM      8  O   UNL     1      54.597 -27.035  24.302  1.00  0.00    -0.550 OA
ATOM      9  O   UNL     1      54.139 -29.220  24.823  1.00  0.00    -0.550 OA
ENDBRANCH   6   7
ENDBRANCH   5   6
ENDBRANCH   4   5
ENDBRANCH   3   4
ENDBRANCH   2   3
ENDBRANCH   1   2
BRANCH   1  10
ATOM     10  C   UNL     1      50.589 -33.676  23.261  1.00  0.00     0.000 C 
BRANCH  10  11
ATOM     11  C   UNL     1      51.507 -34.887  23.044  1.00  0.00    -0.000 C 
BRANCH  11  12
ATOM     12  C   UNL     1      52.238 -35.320  24.329  1.00  0.00    -0.000 C 
BRANCH  12  13
ATOM     13  C   UNL     1      53.757 -35.537  24.172  1.00  0.00    -0.000 C 
BRANCH  13  14
ATOM     14  C   UNL     1      54.426 -34.714  23.054  1.00  0.00    -0.000 C 
BRANCH  14  15
ATOM     15  C   UNL     1      55.155 -35.548  21.986  1.00  0.00    -0.003 C 
ATOM     16  C   UNL     1      56.223 -36.467  22.578  1.00  0.00     0.004 C 
ENDBRANCH  14  15
ENDBRANCH  13  14
ENDBRANCH  12  13
ENDBRANCH  11  12
ENDBRANCH  10  11
ENDBRANCH   1  10
TORSDOF 12
ENDMDL
MODEL 9
REMARK VINA RESULT:    -2.406      3.290      6.033
REMARK INTER + INTRA:          -5.806
REMARK INTER:                  -4.151
REMARK INTRA:                  -1.655
REMARK UNBOUND:                -1.712
REMARK SMILES CCCCCCCCCCCCCC(=O)[O-]
REMARK SMILES IDX 8 1 9 2 10 3 11 4 12 5 13 6 14 7 15 8 16 9 7 10 6 11 5 12
REMARK SMILES IDX 4 13 3 14 2 15 1 16
REMARK H PARENT
REMARK Flexibility Score: inf
ROOT
ATOM      1  C   UNL     1      56.449 -36.739  22.663  1.00  0.00     0.000 C 
ENDROOT
BRANCH   1   2
ATOM      2  C   UNL     1      55.427 -35.838  21.953  1.00  0.00     0.000 C 
BRANCH   2   3
ATOM      3  C   UNL     1      54.218 -35.497  22.841  1.00  0.00     0.000 C 
BRANCH   3   4
ATOM      4  C   UNL     1      54.342 -34.115  23.499  1.00  0.00     0.000 C 
BRANCH   4   5
ATOM      5  C   UNL     1      52.979 -33.532  23.912  1.00  0.00     0.006 C 
BRANCH   5   6
ATOM      6  C   UNL     1      52.983 -31.997  23.920  1.00  0.00     0.053 C 
BRANCH   6   7
ATOM      7  C   UNL     1      51.762 -31.436  23.261  1.00  0.00     0.041 C 
ATOM      8  O   UNL     1      50.861 -32.205  22.834  1.00  0.00    -0.550 OA
ATOM      9  O   UNL     1      51.635 -30.063  23.085  1.00  0.00    -0.550 OA
ENDBRANCH   6   7
ENDBRANCH   5   6
ENDBRANCH   4   5
ENDBRANCH   3   4
ENDBRANCH   2   3
ENDBRANCH   1   2
BRANCH   1  10
ATOM     10  C   UNL     1      57.852 -36.115  22.716  1.00  0.00     0.000 C 
BRANCH  10  11
ATOM     11  C   UNL     1      58.486 -36.305  24.101  1.00  0.00    -0.000 C 
BRANCH  11  12
ATOM     12  C   UNL     1      57.442 -36.546  25.208  1.00  0.00    -0.000 C 
BRANCH  12  13
ATOM     13  C   UNL     1      56.993 -35.281  25.966  1.00  0.00    -0.000 C 
BRANCH  13  14
ATOM     14  C   UNL     1      55.634 -35.394  26.686  1.00  0.00    -0.000 C 
BRANCH  14  15
ATOM     15  C   UNL     1      54.815 -36.645  26.325  1.00  0.00    -0.003 C 
ATOM     16  C   UNL     1      53.307 -36.404  26.380  1.00  0.00     0.004 C 
ENDBRANCH  14  15
ENDBRANCH  13  14
ENDBRANCH  12  13
ENDBRANCH  11  12
ENDBRANCH  10  11
ENDBRANCH   1  10
TORSDOF 12
ENDMDL
