MODEL 1
REMARK VINA RESULT:    -3.102      0.000      0.000
REMARK INTER + INTRA:          -6.438
REMARK INTER:                  -4.916
REMARK INTRA:                  -1.522
REMARK UNBOUND:                -1.522
REMARK SMILES CCCCCCCCCCCC(=O)[O-]
REMARK SMILES IDX 7 1 8 2 9 3 10 4 11 5 12 6 13 7 14 8 6 9 5 10 4 11 3 12 2 13
REMARK SMILES IDX 1 14
REMARK H PARENT
REMARK Flexibility Score: inf
ROOT
ATOM      1  C   UNL     1      25.173  -4.250 -27.109  1.00  0.00     0.000 C 
ENDROOT
BRANCH   1   2
ATOM      2  C   UNL     1      25.215  -4.076 -28.635  1.00  0.00     0.000 C 
BRANCH   2   3
ATOM      3  C   UNL     1      23.802  -3.908 -29.207  1.00  0.00     0.000 C 
BRANCH   3   4
ATOM      4  C   UNL     1      23.524  -4.946 -30.301  1.00  0.00     0.006 C 
BRANCH   4   5
ATOM      5  C   UNL     1      24.792  -5.253 -31.104  1.00  0.00     0.053 C 
BRANCH   5   6
ATOM      6  C   UNL     1      24.596  -4.905 -32.545  1.00  0.00     0.041 C 
ATOM      7  O   UNL     1      23.474  -4.508 -32.955  1.00  0.00    -0.550 OA
ATOM      8  O   UNL     1      25.640  -5.068 -33.447  1.00  0.00    -0.550 OA
ENDBRANCH   5   6
ENDBRANCH   4   5
ENDBRANCH   3   4
ENDBRANCH   2   3
ENDBRANCH   1   2
BRANCH   1   9
ATOM      9  C   UNL     1      24.129  -5.283 -26.649  1.00  0.00     0.000 C 
BRANCH   9  10
ATOM     10  C   UNL     1      24.618  -6.743 -26.616  1.00  0.00    -0.000 C 
BRANCH  10  11
ATOM     11  C   UNL     1      24.226  -7.535 -27.874  1.00  0.00    -0.000 C 
BRANCH  11  12
ATOM     12  C   UNL     1      25.432  -7.872 -28.770  1.00  0.00    -0.000 C 
BRANCH  12  13
ATOM     13  C   UNL     1      26.790  -7.920 -28.046  1.00  0.00    -0.003 C 
ATOM     14  C   UNL     1      27.798  -6.911 -28.594  1.00  0.00     0.004 C 
ENDBRANCH  12  13
ENDBRANCH  11  12
ENDBRANCH  10  11
ENDBRANCH   9  10
ENDBRANCH   1   9
TORSDOF 10
ENDMDL
MODEL 2
REMARK VINA RESULT:    -3.076     13.743     15.157
REMARK INTER + INTRA:          -6.396
REMARK INTER:                  -4.830
REMARK INTRA:                  -1.566
REMARK UNBOUND:                -1.522
REMARK SMILES CCCCCCCCCCCC(=O)[O-]
REMARK SMILES IDX 7 1 8 2 9 3 10 4 11 5 12 6 13 7 14 8 6 9 5 10 4 11 3 12 2 13
REMARK SMILES IDX 1 14
REMARK H PARENT
REMARK Flexibility Score: inf
ROOT
ATOM      1  C   UNL     1      34.369   5.413 -32.931  1.00  0.00     0.000 C 
ENDROOT
BRANCH   1   2
ATOM      2  C   UNL     1      35.491   5.435 -31.883  1.00  0.00     0.000 C 
BRANCH   2   3
ATOM      3  C   UNL     1      35.303   6.596 -30.900  1.00  0.00     0.000 C 
BRANCH   3   4
ATOM      4  C   UNL     1      34.177   7.531 -31.360  1.00  0.00     0.006 C 
BRANCH   4   5
ATOM      5  C   UNL     1      33.274   7.924 -30.187  1.00  0.00     0.053 C 
BRANCH   5   6
ATOM      6  C   UNL     1      32.658   9.265 -30.427  1.00  0.00     0.041 C 
ATOM      7  O   UNL     1      33.203  10.082 -31.213  1.00  0.00    -0.550 OA
ATOM      8  O   UNL     1      31.505   9.632 -29.744  1.00  0.00    -0.550 OA
ENDBRANCH   5   6
ENDBRANCH   4   5
ENDBRANCH   3   4
ENDBRANCH   2   3
ENDBRANCH   1   2
BRANCH   1   9
ATOM      9  C   UNL     1      33.832   3.997 -33.210  1.00  0.00     0.000 C 
BRANCH   9  10
ATOM     10  C   UNL     1      32.344   3.781 -32.879  1.00  0.00    -0.000 C 
BRANCH  10  11
ATOM     11  C   UNL     1      31.713   4.977 -32.145  1.00  0.00    -0.000 C 
BRANCH  11  12
ATOM     12  C   UNL     1      31.447   4.692 -30.655  1.00  0.00    -0.000 C 
BRANCH  12  13
ATOM     13  C   UNL     1      32.466   3.759 -29.976  1.00  0.00    -0.003 C 
ATOM     14  C   UNL     1      33.167   4.403 -28.782  1.00  0.00     0.004 C 
ENDBRANCH  12  13
ENDBRANCH  11  12
ENDBRANCH  10  11
ENDBRANCH   9  10
ENDBRANCH   1   9
TORSDOF 10
ENDMDL
MODEL 3
REMARK VINA RESULT:    -3.024     15.253     16.870
REMARK INTER + INTRA:          -6.314
REMARK INTER:                  -5.863
REMARK INTRA:                  -0.451
REMARK UNBOUND:                -1.522
REMARK SMILES CCCCCCCCCCCC(=O)[O-]
REMARK SMILES IDX 7 1 8 2 9 3 10 4 11 5 12 6 13 7 14 8 6 9 5 10 4 11 3 12 2 13
REMARK SMILES IDX 1 14
REMARK H PARENT
REMARK Flexibility Score: inf
ROOT
ATOM      1  C   UNL     1      32.736   7.684 -29.144  1.00  0.00     0.000 C 
ENDROOT
BRANCH   1   2
ATOM      2  C   UNL     1      32.901   7.266 -30.613  1.00  0.00     0.000 C 
BRANCH   2   3
ATOM      3  C   UNL     1      34.245   7.744 -31.173  1.00  0.00     0.000 C 
BRANCH   3   4
ATOM      4  C   UNL     1      35.326   6.669 -31.006  1.00  0.00     0.006 C 
BRANCH   4   5
ATOM      5  C   UNL     1      34.767   5.275 -31.308  1.00  0.00     0.053 C 
BRANCH   5   6
ATOM      6  C   UNL     1      34.803   5.004 -32.778  1.00  0.00     0.041 C 
ATOM      7  O   UNL     1      35.680   5.544 -33.501  1.00  0.00    -0.550 OA
ATOM      8  O   UNL     1      33.838   4.190 -33.359  1.00  0.00    -0.550 OA
ENDBRANCH   5   6
ENDBRANCH   4   5
ENDBRANCH   3   4
ENDBRANCH   2   3
ENDBRANCH   1   2
BRANCH   1   9
ATOM      9  C   UNL     1      32.523   9.198 -28.968  1.00  0.00     0.000 C 
BRANCH   9  10
ATOM     10  C   UNL     1      32.317   9.669 -27.516  1.00  0.00    -0.000 C 
BRANCH  10  11
ATOM     11  C   UNL     1      33.353  10.717 -27.072  1.00  0.00    -0.000 C 
BRANCH  11  12
ATOM     12  C   UNL     1      32.780  11.739 -26.073  1.00  0.00    -0.000 C 
BRANCH  12  13
ATOM     13  C   UNL     1      32.757  11.274 -24.605  1.00  0.00    -0.003 C 
ATOM     14  C   UNL     1      33.941  10.380 -24.240  1.00  0.00     0.004 C 
ENDBRANCH  12  13
ENDBRANCH  11  12
ENDBRANCH  10  11
ENDBRANCH   9  10
ENDBRANCH   1   9
TORSDOF 10
ENDMDL
MODEL 4
REMARK VINA RESULT:    -2.982      1.074      2.360
REMARK INTER + INTRA:          -6.247
REMARK INTER:                  -4.872
REMARK INTRA:                  -1.375
REMARK UNBOUND:                -1.522
REMARK SMILES CCCCCCCCCCCC(=O)[O-]
REMARK SMILES IDX 7 1 8 2 9 3 10 4 11 5 12 6 13 7 14 8 6 9 5 10 4 11 3 12 2 13
REMARK SMILES IDX 1 14
REMARK H PARENT
REMARK Flexibility Score: inf
ROOT
ATOM      1  C   UNL     1      26.506  -5.351 -29.504  1.00  0.00     0.000 C 
ENDROOT
BRANCH   1   2
ATOM      2  C   UNL     1      25.986  -4.079 -28.819  1.00  0.00     0.000 C 
BRANCH   2   3
ATOM      3  C   UNL     1      24.466  -4.137 -28.633  1.00  0.00     0.000 C 
BRANCH   3   4
ATOM      4  C   UNL     1      23.785  -4.767 -29.854  1.00  0.00     0.006 C 
BRANCH   4   5
ATOM      5  C   UNL     1      23.708  -3.773 -31.016  1.00  0.00     0.053 C 
BRANCH   5   6
ATOM      6  C   UNL     1      23.883  -4.479 -32.323  1.00  0.00     0.041 C 
ATOM      7  O   UNL     1      24.465  -5.594 -32.369  1.00  0.00    -0.550 OA
ATOM      8  O   UNL     1      23.444  -3.883 -33.499  1.00  0.00    -0.550 OA
ENDBRANCH   5   6
ENDBRANCH   4   5
ENDBRANCH   3   4
ENDBRANCH   2   3
ENDBRANCH   1   2
BRANCH   1   9
ATOM      9  C   UNL     1      27.407  -6.203 -28.591  1.00  0.00     0.000 C 
BRANCH   9  10
ATOM     10  C   UNL     1      26.894  -7.627 -28.305  1.00  0.00    -0.000 C 
BRANCH  10  11
ATOM     11  C   UNL     1      25.467  -7.866 -28.826  1.00  0.00    -0.000 C 
BRANCH  11  12
ATOM     12  C   UNL     1      24.424  -7.954 -27.697  1.00  0.00    -0.000 C 
BRANCH  12  13
ATOM     13  C   UNL     1      24.981  -7.750 -26.276  1.00  0.00    -0.003 C 
ATOM     14  C   UNL     1      24.566  -6.418 -25.655  1.00  0.00     0.004 C 
ENDBRANCH  12  13
ENDBRANCH  11  12
ENDBRANCH  10  11
ENDBRANCH   9  10
ENDBRANCH   1   9
TORSDOF 10
ENDMDL
MODEL 5
REMARK VINA RESULT:    -2.868     14.430     15.852
REMARK INTER + INTRA:          -6.067
REMARK INTER:                  -4.991
REMARK INTRA:                  -1.075
REMARK UNBOUND:                -1.522
REMARK SMILES CCCCCCCCCCCC(=O)[O-]
REMARK SMILES IDX 7 1 8 2 9 3 10 4 11 5 12 6 13 7 14 8 6 9 5 10 4 11 3 12 2 13
REMARK SMILES IDX 1 14
REMARK H PARENT
REMARK Flexibility Score: inf
ROOT
ATOM      1  C   UNL     1      35.374   6.801 -31.004  1.00  0.00     0.000 C 
ENDROOT
BRANCH   1   2
ATOM      2  C   UNL     1      34.067   7.560 -31.277  1.00  0.00     0.000 C 
BRANCH   2   3
ATOM      3  C   UNL     1      33.183   7.603 -30.025  1.00  0.00     0.000 C 
BRANCH   3   4
ATOM      4  C   UNL     1      32.676   9.025 -29.757  1.00  0.00     0.006 C 
BRANCH   4   5
ATOM      5  C   UNL     1      32.392   9.236 -28.267  1.00  0.00     0.053 C 
BRANCH   5   6
ATOM      6  C   UNL     1      31.216  10.141 -28.081  1.00  0.00     0.041 C 
ATOM      7  O   UNL     1      30.292  10.164 -28.934  1.00  0.00    -0.550 OA
ATOM      8  O   UNL     1      31.165  10.997 -26.987  1.00  0.00    -0.550 OA
ENDBRANCH   5   6
ENDBRANCH   4   5
ENDBRANCH   3   4
ENDBRANCH   2   3
ENDBRANCH   1   2
BRANCH   1   9
ATOM      9  C   UNL     1      35.676   5.721 -32.058  1.00  0.00     0.000 C 
BRANCH   9  10
ATOM     10  C   UNL     1      34.583   5.520 -33.125  1.00  0.00    -0.000 C 
BRANCH  10  11
ATOM     11  C   UNL     1      33.875   4.159 -33.008  1.00  0.00    -0.000 C 
BRANCH  11  12
ATOM     12  C   UNL     1      32.341   4.284 -32.964  1.00  0.00    -0.000 C 
BRANCH  12  13
ATOM     13  C   UNL     1      31.749   4.567 -31.571  1.00  0.00    -0.003 C 
ATOM     14  C   UNL     1      32.542   3.918 -30.439  1.00  0.00     0.004 C 
ENDBRANCH  12  13
ENDBRANCH  11  12
ENDBRANCH  10  11
ENDBRANCH   9  10
ENDBRANCH   1   9
TORSDOF 10
ENDMDL
MODEL 6
REMARK VINA RESULT:    -2.852     15.527     16.951
REMARK INTER + INTRA:          -6.042
REMARK INTER:                  -5.341
REMARK INTRA:                  -0.701
REMARK UNBOUND:                -1.522
REMARK SMILES CCCCCCCCCCCC(=O)[O-]
REMARK SMILES IDX 7 1 8 2 9 3 10 4 11 5 12 6 13 7 14 8 6 9 5 10 4 11 3 12 2 13
REMARK SMILES IDX 1 14
REMARK H PARENT
REMARK Flexibility Score: inf
ROOT
ATOM      1  C   UNL     1      33.132   7.171 -29.990  1.00  0.00     0.000 C 
ENDROOT
BRANCH   1   2
ATOM      2  C   UNL     1      31.942   8.121 -29.787  1.00  0.00     0.000 C 
BRANCH   2   3
ATOM      3  C   UNL     1      32.417   9.506 -29.334  1.00  0.00     0.000 C 
BRANCH   3   4
ATOM      4  C   UNL     1      31.935   9.816 -27.911  1.00  0.00     0.006 C 
BRANCH   4   5
ATOM      5  C   UNL     1      33.096  10.278 -27.025  1.00  0.00     0.053 C 
BRANCH   5   6
ATOM      6  C   UNL     1      32.662  11.397 -26.134  1.00  0.00     0.041 C 
ATOM      7  O   UNL     1      33.400  11.778 -25.188  1.00  0.00    -0.550 OA
ATOM      8  O   UNL     1      31.418  11.988 -26.317  1.00  0.00    -0.550 OA
ENDBRANCH   5   6
ENDBRANCH   4   5
ENDBRANCH   3   4
ENDBRANCH   2   3
ENDBRANCH   1   2
BRANCH   1   9
ATOM      9  C   UNL     1      34.105   7.649 -31.083  1.00  0.00     0.000 C 
BRANCH   9  10
ATOM     10  C   UNL     1      35.446   6.894 -31.145  1.00  0.00    -0.000 C 
BRANCH  10  11
ATOM     11  C   UNL     1      35.275   5.389 -31.413  1.00  0.00    -0.000 C 
BRANCH  11  12
ATOM     12  C   UNL     1      34.930   5.077 -32.881  1.00  0.00    -0.000 C 
BRANCH  12  13
ATOM     13  C   UNL     1      33.762   4.094 -33.081  1.00  0.00    -0.003 C 
ATOM     14  C   UNL     1      32.397   4.718 -32.798  1.00  0.00     0.004 C 
ENDBRANCH  12  13
ENDBRANCH  11  12
ENDBRANCH  10  11
ENDBRANCH   9  10
ENDBRANCH   1   9
TORSDOF 10
ENDMDL
MODEL 7
REMARK VINA RESULT:    -2.845     12.180     13.812
REMARK INTER + INTRA:          -6.031
REMARK INTER:                  -5.079
REMARK INTRA:                  -0.952
REMARK UNBOUND:                -1.522
REMARK SMILES CCCCCCCCCCCC(=O)[O-]
REMARK SMILES IDX 7 1 8 2 9 3 10 4 11 5 12 6 13 7 14 8 6 9 5 10 4 11 3 12 2 13
REMARK SMILES IDX 1 14
REMARK H PARENT
REMARK Flexibility Score: inf
ROOT
ATOM      1  C   UNL     1      33.540   4.302 -33.181  1.00  0.00     0.000 C 
ENDROOT
BRANCH   1   2
ATOM      2  C   UNL     1      33.181   3.581 -31.873  1.00  0.00     0.000 C 
BRANCH   2   3
ATOM      3  C   UNL     1      32.868   2.102 -32.128  1.00  0.00     0.000 C 
BRANCH   3   4
ATOM      4  C   UNL     1      33.059   1.745 -33.607  1.00  0.00     0.006 C 
BRANCH   4   5
ATOM      5  C   UNL     1      32.224   0.521 -33.991  1.00  0.00     0.053 C 
BRANCH   5   6
ATOM      6  C   UNL     1      32.695  -0.049 -35.291  1.00  0.00     0.041 C 
ATOM      7  O   UNL     1      31.905  -0.703 -36.020  1.00  0.00    -0.550 OA
ATOM      8  O   UNL     1      34.021   0.102 -35.675  1.00  0.00    -0.550 OA
ENDBRANCH   5   6
ENDBRANCH   4   5
ENDBRANCH   3   4
ENDBRANCH   2   3
ENDBRANCH   1   2
BRANCH   1   9
ATOM      9  C   UNL     1      34.781   5.204 -33.052  1.00  0.00     0.000 C 
BRANCH   9  10
ATOM     10  C   UNL     1      35.332   5.362 -31.622  1.00  0.00    -0.000 C 
BRANCH  10  11
ATOM     11  C   UNL     1      35.469   6.831 -31.191  1.00  0.00    -0.000 C 
BRANCH  11  12
ATOM     12  C   UNL     1      34.119   7.571 -31.146  1.00  0.00    -0.000 C 
BRANCH  12  13
ATOM     13  C   UNL     1      33.058   6.937 -30.227  1.00  0.00    -0.003 C 
ATOM     14  C   UNL     1      31.635   7.084 -30.762  1.00  0.00     0.004 C 
ENDBRANCH  12  13
ENDBRANCH  11  12
ENDBRANCH  10  11
ENDBRANCH   9  10
ENDBRANCH   1   9
TORSDOF 10
ENDMDL
MODEL 8
REMARK VINA RESULT:    -2.772     11.862     13.632
REMARK INTER + INTRA:          -5.914
REMARK INTER:                  -5.520
REMARK INTRA:                  -0.394
REMARK UNBOUND:                -1.522
REMARK SMILES CCCCCCCCCCCC(=O)[O-]
REMARK SMILES IDX 7 1 8 2 9 3 10 4 11 5 12 6 13 7 14 8 6 9 5 10 4 11 3 12 2 13
REMARK SMILES IDX 1 14
REMARK H PARENT
REMARK Flexibility Score: inf
ROOT
ATOM      1  C   UNL     1      32.462   0.396 -33.480  1.00  0.00     0.000 C 
ENDROOT
BRANCH   1   2
ATOM      2  C   UNL     1      33.159   1.714 -33.850  1.00  0.00     0.000 C 
BRANCH   2   3
ATOM      3  C   UNL     1      33.141   2.695 -32.672  1.00  0.00     0.000 C 
BRANCH   3   4
ATOM      4  C   UNL     1      33.713   4.058 -33.082  1.00  0.00     0.006 C 
BRANCH   4   5
ATOM      5  C   UNL     1      34.299   4.794 -31.874  1.00  0.00     0.053 C 
BRANCH   5   6
ATOM      6  C   UNL     1      35.411   5.698 -32.301  1.00  0.00     0.041 C 
ATOM      7  O   UNL     1      35.810   5.693 -33.494  1.00  0.00    -0.550 OA
ATOM      8  O   UNL     1      36.041   6.513 -31.368  1.00  0.00    -0.550 OA
ENDBRANCH   5   6
ENDBRANCH   4   5
ENDBRANCH   3   4
ENDBRANCH   2   3
ENDBRANCH   1   2
BRANCH   1   9
ATOM      9  C   UNL     1      32.742  -0.737 -34.484  1.00  0.00     0.000 C 
BRANCH   9  10
ATOM     10  C   UNL     1      33.603  -0.342 -35.698  1.00  0.00    -0.000 C 
BRANCH  10  11
ATOM     11  C   UNL     1      33.250  -1.134 -36.968  1.00  0.00    -0.000 C 
BRANCH  11  12
ATOM     12  C   UNL     1      32.867  -0.229 -38.153  1.00  0.00    -0.000 C 
BRANCH  12  13
ATOM     13  C   UNL     1      31.409  -0.358 -38.630  1.00  0.00    -0.003 C 
ATOM     14  C   UNL     1      31.023  -1.790 -38.997  1.00  0.00     0.004 C 
ENDBRANCH  12  13
ENDBRANCH  11  12
ENDBRANCH  10  11
ENDBRANCH   9  10
ENDBRANCH   1   9
TORSDOF 10
ENDMDL
MODEL 9
REMARK VINA RESULT:    -2.756      1.502      2.768
REMARK INTER + INTRA:          -5.889
REMARK INTER:                  -4.470
REMARK INTRA:                  -1.418
REMARK UNBOUND:                -1.522
REMARK SMILES CCCCCCCCCCCC(=O)[O-]
REMARK SMILES IDX 7 1 8 2 9 3 10 4 11 5 12 6 13 7 14 8 6 9 5 10 4 11 3 12 2 13
REMARK SMILES IDX 1 14
REMARK H PARENT
REMARK Flexibility Score: inf
ROOT
ATOM      1  C   UNL     1      25.331  -4.127 -29.597  1.00  0.00     0.000 C 
ENDROOT
BRANCH   1   2
ATOM      2  C   UNL     1      23.967  -4.617 -30.105  1.00  0.00     0.000 C 
BRANCH   2   3
ATOM      3  C   UNL     1      24.133  -5.575 -31.290  1.00  0.00     0.000 C 
BRANCH   3   4
ATOM      4  C   UNL     1      24.125  -4.813 -32.621  1.00  0.00     0.006 C 
BRANCH   4   5
ATOM      5  C   UNL     1      25.376  -5.130 -33.445  1.00  0.00     0.053 C 
BRANCH   5   6
ATOM      6  C   UNL     1      26.126  -3.875 -33.762  1.00  0.00     0.041 C 
ATOM      7  O   UNL     1      26.305  -3.002 -32.874  1.00  0.00    -0.550 OA
ATOM      8  O   UNL     1      26.587  -3.649 -35.053  1.00  0.00    -0.550 OA
ENDBRANCH   5   6
ENDBRANCH   4   5
ENDBRANCH   3   4
ENDBRANCH   2   3
ENDBRANCH   1   2
BRANCH   1   9
ATOM      9  C   UNL     1      26.465  -5.139 -29.842  1.00  0.00     0.000 C 
BRANCH   9  10
ATOM     10  C   UNL     1      27.329  -5.470 -28.611  1.00  0.00    -0.000 C 
BRANCH  10  11
ATOM     11  C   UNL     1      26.799  -6.672 -27.812  1.00  0.00    -0.000 C 
BRANCH  11  12
ATOM     12  C   UNL     1      25.948  -7.631 -28.666  1.00  0.00    -0.000 C 
BRANCH  12  13
ATOM     13  C   UNL     1      24.505  -7.841 -28.170  1.00  0.00    -0.003 C 
ATOM     14  C   UNL     1      24.089  -6.840 -27.094  1.00  0.00     0.004 C 
ENDBRANCH  12  13
ENDBRANCH  11  12
ENDBRANCH  10  11
ENDBRANCH   9  10
ENDBRANCH   1   9
TORSDOF 10
ENDMDL
