MODEL 1
REMARK VINA RESULT:    -4.177      0.000      0.000
REMARK INTER + INTRA:          -8.176
REMARK INTER:                  -6.619
REMARK INTRA:                  -1.556
REMARK UNBOUND:                -1.556
REMARK SMILES CCCCCCCCCCCC(=O)[O-]
REMARK SMILES IDX 7 1 8 2 9 3 10 4 11 5 12 6 13 7 14 8 6 9 5 10 4 11 3 12 2 13
REMARK SMILES IDX 1 14
REMARK H PARENT
REMARK Flexibility Score: inf
ROOT
ATOM      1  C   UNL     1     -37.852  17.075 -30.074  1.00  0.00     0.000 C 
ENDROOT
BRANCH   1   2
ATOM      2  C   UNL     1     -38.645  18.394 -30.124  1.00  0.00     0.000 C 
BRANCH   2   3
ATOM      3  C   UNL     1     -38.138  19.426 -31.148  1.00  0.00     0.000 C 
BRANCH   3   4
ATOM      4  C   UNL     1     -38.332  20.879 -30.685  1.00  0.00     0.006 C 
BRANCH   4   5
ATOM      5  C   UNL     1     -38.923  20.962 -29.271  1.00  0.00     0.053 C 
BRANCH   5   6
ATOM      6  C   UNL     1     -39.759  22.192 -29.089  1.00  0.00     0.041 C 
ATOM      7  O   UNL     1     -39.399  23.090 -28.283  1.00  0.00    -0.550 OA
ATOM      8  O   UNL     1     -40.923  22.357 -29.829  1.00  0.00    -0.550 OA
ENDBRANCH   5   6
ENDBRANCH   4   5
ENDBRANCH   3   4
ENDBRANCH   2   3
ENDBRANCH   1   2
BRANCH   1   9
ATOM      9  C   UNL     1     -36.897  16.995 -28.870  1.00  0.00     0.000 C 
BRANCH   9  10
ATOM     10  C   UNL     1     -37.307  17.941 -27.729  1.00  0.00    -0.000 C 
BRANCH  10  11
ATOM     11  C   UNL     1     -36.145  18.828 -27.247  1.00  0.00    -0.000 C 
BRANCH  11  12
ATOM     12  C   UNL     1     -35.005  18.916 -28.275  1.00  0.00    -0.000 C 
BRANCH  12  13
ATOM     13  C   UNL     1     -35.012  20.241 -29.052  1.00  0.00    -0.003 C 
ATOM     14  C   UNL     1     -35.446  21.399 -28.158  1.00  0.00     0.004 C 
ENDBRANCH  12  13
ENDBRANCH  11  12
ENDBRANCH  10  11
ENDBRANCH   9  10
ENDBRANCH   1   9
TORSDOF 10
ENDMDL
MODEL 2
REMARK VINA RESULT:    -4.043      1.344      3.214
REMARK INTER + INTRA:          -7.964
REMARK INTER:                  -6.628
REMARK INTRA:                  -1.335
REMARK UNBOUND:                -1.556
REMARK SMILES CCCCCCCCCCCC(=O)[O-]
REMARK SMILES IDX 7 1 8 2 9 3 10 4 11 5 12 6 13 7 14 8 6 9 5 10 4 11 3 12 2 13
REMARK SMILES IDX 1 14
REMARK H PARENT
REMARK Flexibility Score: inf
ROOT
ATOM      1  C   UNL     1     -34.824  20.189 -30.093  1.00  0.00     0.000 C 
ENDROOT
BRANCH   1   2
ATOM      2  C   UNL     1     -35.784  21.303 -30.552  1.00  0.00     0.000 C 
BRANCH   2   3
ATOM      3  C   UNL     1     -36.760  20.906 -31.674  1.00  0.00     0.000 C 
BRANCH   3   4
ATOM      4  C   UNL     1     -38.225  20.862 -31.208  1.00  0.00     0.006 C 
BRANCH   4   5
ATOM      5  C   UNL     1     -38.384  21.319 -29.752  1.00  0.00     0.053 C 
BRANCH   5   6
ATOM      6  C   UNL     1     -39.803  21.202 -29.284  1.00  0.00     0.041 C 
ATOM      7  O   UNL     1     -40.163  20.214 -28.590  1.00  0.00    -0.550 OA
ATOM      8  O   UNL     1     -40.721  22.197 -29.594  1.00  0.00    -0.550 OA
ENDBRANCH   5   6
ENDBRANCH   4   5
ENDBRANCH   3   4
ENDBRANCH   2   3
ENDBRANCH   1   2
BRANCH   1   9
ATOM      9  C   UNL     1     -35.041  19.777 -28.627  1.00  0.00     0.000 C 
BRANCH   9  10
ATOM     10  C   UNL     1     -35.565  18.337 -28.491  1.00  0.00    -0.000 C 
BRANCH  10  11
ATOM     11  C   UNL     1     -35.601  17.590 -29.837  1.00  0.00    -0.000 C 
BRANCH  11  12
ATOM     12  C   UNL     1     -36.857  16.718 -29.993  1.00  0.00    -0.000 C 
BRANCH  12  13
ATOM     13  C   UNL     1     -38.150  17.546 -30.019  1.00  0.00    -0.003 C 
ATOM     14  C   UNL     1     -39.076  17.083 -31.141  1.00  0.00     0.004 C 
ENDBRANCH  12  13
ENDBRANCH  11  12
ENDBRANCH  10  11
ENDBRANCH   9  10
ENDBRANCH   1   9
TORSDOF 10
ENDMDL
MODEL 3
REMARK VINA RESULT:    -4.018      3.279      5.274
REMARK INTER + INTRA:          -7.924
REMARK INTER:                  -6.430
REMARK INTRA:                  -1.494
REMARK UNBOUND:                -1.556
REMARK SMILES CCCCCCCCCCCC(=O)[O-]
REMARK SMILES IDX 7 1 8 2 9 3 10 4 11 5 12 6 13 7 14 8 6 9 5 10 4 11 3 12 2 13
REMARK SMILES IDX 1 14
REMARK H PARENT
REMARK Flexibility Score: inf
ROOT
ATOM      1  C   UNL     1     -35.027  20.449 -29.093  1.00  0.00     0.000 C 
ENDROOT
BRANCH   1   2
ATOM      2  C   UNL     1     -35.125  19.105 -28.347  1.00  0.00     0.000 C 
BRANCH   2   3
ATOM      3  C   UNL     1     -36.352  18.952 -27.430  1.00  0.00     0.000 C 
BRANCH   3   4
ATOM      4  C   UNL     1     -37.177  17.691 -27.736  1.00  0.00     0.006 C 
BRANCH   4   5
ATOM      5  C   UNL     1     -37.323  17.446 -29.244  1.00  0.00     0.053 C 
BRANCH   5   6
ATOM      6  C   UNL     1     -36.746  16.123 -29.650  1.00  0.00     0.041 C 
ATOM      7  O   UNL     1     -37.293  15.052 -29.278  1.00  0.00    -0.550 OA
ATOM      8  O   UNL     1     -35.620  16.075 -30.461  1.00  0.00    -0.550 OA
ENDBRANCH   5   6
ENDBRANCH   4   5
ENDBRANCH   3   4
ENDBRANCH   2   3
ENDBRANCH   1   2
BRANCH   1   9
ATOM      9  C   UNL     1     -35.627  20.395 -30.508  1.00  0.00     0.000 C 
BRANCH   9  10
ATOM     10  C   UNL     1     -37.000  21.082 -30.592  1.00  0.00    -0.000 C 
BRANCH  10  11
ATOM     11  C   UNL     1     -37.317  21.930 -29.346  1.00  0.00    -0.000 C 
BRANCH  11  12
ATOM     12  C   UNL     1     -38.742  21.696 -28.822  1.00  0.00    -0.000 C 
BRANCH  12  13
ATOM     13  C   UNL     1     -39.332  20.357 -29.290  1.00  0.00    -0.003 C 
ATOM     14  C   UNL     1     -40.314  19.801 -28.263  1.00  0.00     0.004 C 
ENDBRANCH  12  13
ENDBRANCH  11  12
ENDBRANCH  10  11
ENDBRANCH   9  10
ENDBRANCH   1   9
TORSDOF 10
ENDMDL
MODEL 4
REMARK VINA RESULT:    -3.962      1.230      3.431
REMARK INTER + INTRA:          -7.835
REMARK INTER:                  -6.624
REMARK INTRA:                  -1.211
REMARK UNBOUND:                -1.556
REMARK SMILES CCCCCCCCCCCC(=O)[O-]
REMARK SMILES IDX 7 1 8 2 9 3 10 4 11 5 12 6 13 7 14 8 6 9 5 10 4 11 3 12 2 13
REMARK SMILES IDX 1 14
REMARK H PARENT
REMARK Flexibility Score: inf
ROOT
ATOM      1  C   UNL     1     -34.536  20.584 -27.940  1.00  0.00     0.000 C 
ENDROOT
BRANCH   1   2
ATOM      2  C   UNL     1     -35.419  21.333 -28.957  1.00  0.00     0.000 C 
BRANCH   2   3
ATOM      3  C   UNL     1     -36.096  22.608 -28.423  1.00  0.00     0.000 C 
BRANCH   3   4
ATOM      4  C   UNL     1     -37.630  22.550 -28.497  1.00  0.00     0.006 C 
BRANCH   4   5
ATOM      5  C   UNL     1     -38.125  21.373 -29.350  1.00  0.00     0.053 C 
BRANCH   5   6
ATOM      6  C   UNL     1     -39.602  21.163 -29.203  1.00  0.00     0.041 C 
ATOM      7  O   UNL     1     -40.412  22.015 -29.652  1.00  0.00    -0.550 OA
ATOM      8  O   UNL     1     -40.082  20.011 -28.593  1.00  0.00    -0.550 OA
ENDBRANCH   5   6
ENDBRANCH   4   5
ENDBRANCH   3   4
ENDBRANCH   2   3
ENDBRANCH   1   2
BRANCH   1   9
ATOM      9  C   UNL     1     -34.861  19.083 -27.856  1.00  0.00     0.000 C 
BRANCH   9  10
ATOM     10  C   UNL     1     -36.122  18.798 -27.024  1.00  0.00    -0.000 C 
BRANCH  10  11
ATOM     11  C   UNL     1     -37.201  18.042 -27.821  1.00  0.00    -0.000 C 
BRANCH  11  12
ATOM     12  C   UNL     1     -36.857  17.926 -29.315  1.00  0.00    -0.000 C 
BRANCH  12  13
ATOM     13  C   UNL     1     -37.700  16.862 -30.033  1.00  0.00    -0.003 C 
ATOM     14  C   UNL     1     -38.822  17.507 -30.843  1.00  0.00     0.004 C 
ENDBRANCH  12  13
ENDBRANCH  11  12
ENDBRANCH  10  11
ENDBRANCH   9  10
ENDBRANCH   1   9
TORSDOF 10
ENDMDL
MODEL 5
REMARK VINA RESULT:    -3.883      3.282      4.878
REMARK INTER + INTRA:          -7.709
REMARK INTER:                  -6.263
REMARK INTRA:                  -1.446
REMARK UNBOUND:                -1.556
REMARK SMILES CCCCCCCCCCCC(=O)[O-]
REMARK SMILES IDX 7 1 8 2 9 3 10 4 11 5 12 6 13 7 14 8 6 9 5 10 4 11 3 12 2 13
REMARK SMILES IDX 1 14
REMARK H PARENT
REMARK Flexibility Score: inf
ROOT
ATOM      1  C   UNL     1     -39.209  20.860 -29.081  1.00  0.00     0.000 C 
ENDROOT
BRANCH   1   2
ATOM      2  C   UNL     1     -39.010  19.346 -28.878  1.00  0.00     0.000 C 
BRANCH   2   3
ATOM      3  C   UNL     1     -38.045  18.958 -27.743  1.00  0.00     0.000 C 
BRANCH   3   4
ATOM      4  C   UNL     1     -36.789  18.228 -28.246  1.00  0.00     0.006 C 
BRANCH   4   5
ATOM      5  C   UNL     1     -37.057  17.433 -29.532  1.00  0.00     0.053 C 
BRANCH   5   6
ATOM      6  C   UNL     1     -35.811  16.781 -30.052  1.00  0.00     0.041 C 
ATOM      7  O   UNL     1     -35.787  15.542 -30.270  1.00  0.00    -0.550 OA
ATOM      8  O   UNL     1     -34.685  17.549 -30.320  1.00  0.00    -0.550 OA
ENDBRANCH   5   6
ENDBRANCH   4   5
ENDBRANCH   3   4
ENDBRANCH   2   3
ENDBRANCH   1   2
BRANCH   1   9
ATOM      9  C   UNL     1     -39.014  21.299 -30.543  1.00  0.00     0.000 C 
BRANCH   9  10
ATOM     10  C   UNL     1     -38.023  20.400 -31.301  1.00  0.00    -0.000 C 
BRANCH  10  11
ATOM     11  C   UNL     1     -36.715  21.128 -31.659  1.00  0.00    -0.000 C 
BRANCH  11  12
ATOM     12  C   UNL     1     -36.215  22.034 -30.523  1.00  0.00    -0.000 C 
BRANCH  12  13
ATOM     13  C   UNL     1     -35.431  21.259 -29.453  1.00  0.00    -0.003 C 
ATOM     14  C   UNL     1     -35.529  21.948 -28.095  1.00  0.00     0.004 C 
ENDBRANCH  12  13
ENDBRANCH  11  12
ENDBRANCH  10  11
ENDBRANCH   9  10
ENDBRANCH   1   9
TORSDOF 10
ENDMDL
MODEL 6
REMARK VINA RESULT:    -3.832      2.019      3.599
REMARK INTER + INTRA:          -7.629
REMARK INTER:                  -6.104
REMARK INTRA:                  -1.526
REMARK UNBOUND:                -1.556
REMARK SMILES CCCCCCCCCCCC(=O)[O-]
REMARK SMILES IDX 7 1 8 2 9 3 10 4 11 5 12 6 13 7 14 8 6 9 5 10 4 11 3 12 2 13
REMARK SMILES IDX 1 14
REMARK H PARENT
REMARK Flexibility Score: inf
ROOT
ATOM      1  C   UNL     1     -39.083  21.278 -30.018  1.00  0.00     0.000 C 
ENDROOT
BRANCH   1   2
ATOM      2  C   UNL     1     -38.359  20.476 -31.116  1.00  0.00     0.000 C 
BRANCH   2   3
ATOM      3  C   UNL     1     -36.890  20.869 -31.353  1.00  0.00     0.000 C 
BRANCH   3   4
ATOM      4  C   UNL     1     -36.375  21.909 -30.344  1.00  0.00     0.006 C 
BRANCH   4   5
ATOM      5  C   UNL     1     -35.535  21.269 -29.230  1.00  0.00     0.053 C 
BRANCH   5   6
ATOM      6  C   UNL     1     -35.356  22.198 -28.067  1.00  0.00     0.041 C 
ATOM      7  O   UNL     1     -34.384  22.049 -27.280  1.00  0.00    -0.550 OA
ATOM      8  O   UNL     1     -36.249  23.243 -27.867  1.00  0.00    -0.550 OA
ENDBRANCH   5   6
ENDBRANCH   4   5
ENDBRANCH   3   4
ENDBRANCH   2   3
ENDBRANCH   1   2
BRANCH   1   9
ATOM      9  C   UNL     1     -39.719  20.382 -28.942  1.00  0.00     0.000 C 
BRANCH   9  10
ATOM     10  C   UNL     1     -39.032  19.010 -28.835  1.00  0.00    -0.000 C 
BRANCH  10  11
ATOM     11  C   UNL     1     -37.946  18.974 -27.744  1.00  0.00    -0.000 C 
BRANCH  11  12
ATOM     12  C   UNL     1     -36.915  17.858 -27.975  1.00  0.00    -0.000 C 
BRANCH  12  13
ATOM     13  C   UNL     1     -36.820  17.439 -29.450  1.00  0.00    -0.003 C 
ATOM     14  C   UNL     1     -35.390  17.572 -29.967  1.00  0.00     0.004 C 
ENDBRANCH  12  13
ENDBRANCH  11  12
ENDBRANCH  10  11
ENDBRANCH   9  10
ENDBRANCH   1   9
TORSDOF 10
ENDMDL
MODEL 7
REMARK VINA RESULT:    -3.634      2.760      4.253
REMARK INTER + INTRA:          -7.315
REMARK INTER:                  -5.942
REMARK INTRA:                  -1.373
REMARK UNBOUND:                -1.556
REMARK SMILES CCCCCCCCCCCC(=O)[O-]
REMARK SMILES IDX 7 1 8 2 9 3 10 4 11 5 12 6 13 7 14 8 6 9 5 10 4 11 3 12 2 13
REMARK SMILES IDX 1 14
REMARK H PARENT
REMARK Flexibility Score: inf
ROOT
ATOM      1  C   UNL     1     -38.746  20.870 -30.325  1.00  0.00     0.000 C 
ENDROOT
BRANCH   1   2
ATOM      2  C   UNL     1     -37.970  19.719 -30.992  1.00  0.00     0.000 C 
BRANCH   2   3
ATOM      3  C   UNL     1     -38.481  18.305 -30.660  1.00  0.00     0.000 C 
BRANCH   3   4
ATOM      4  C   UNL     1     -37.407  17.415 -30.013  1.00  0.00     0.006 C 
BRANCH   4   5
ATOM      5  C   UNL     1     -37.311  17.633 -28.496  1.00  0.00     0.053 C 
BRANCH   5   6
ATOM      6  C   UNL     1     -36.004  18.254 -28.106  1.00  0.00     0.041 C 
ATOM      7  O   UNL     1     -35.038  18.262 -28.914  1.00  0.00    -0.550 OA
ATOM      8  O   UNL     1     -35.861  18.847 -26.858  1.00  0.00    -0.550 OA
ENDBRANCH   5   6
ENDBRANCH   4   5
ENDBRANCH   3   4
ENDBRANCH   2   3
ENDBRANCH   1   2
BRANCH   1   9
ATOM      9  C   UNL     1     -38.256  21.178 -28.900  1.00  0.00     0.000 C 
BRANCH   9  10
ATOM     10  C   UNL     1     -37.323  22.399 -28.848  1.00  0.00    -0.000 C 
BRANCH  10  11
ATOM     11  C   UNL     1     -35.901  22.039 -28.379  1.00  0.00    -0.000 C 
BRANCH  11  12
ATOM     12  C   UNL     1     -34.960  21.711 -29.550  1.00  0.00    -0.000 C 
BRANCH  12  13
ATOM     13  C   UNL     1     -35.151  22.660 -30.743  1.00  0.00    -0.003 C 
ATOM     14  C   UNL     1     -35.258  21.881 -32.051  1.00  0.00     0.004 C 
ENDBRANCH  12  13
ENDBRANCH  11  12
ENDBRANCH  10  11
ENDBRANCH   9  10
ENDBRANCH   1   9
TORSDOF 10
ENDMDL
MODEL 8
REMARK VINA RESULT:    -3.624     15.869     18.017
REMARK INTER + INTRA:          -7.300
REMARK INTER:                  -5.976
REMARK INTRA:                  -1.323
REMARK UNBOUND:                -1.556
REMARK SMILES CCCCCCCCCCCC(=O)[O-]
REMARK SMILES IDX 7 1 8 2 9 3 10 4 11 5 12 6 13 7 14 8 6 9 5 10 4 11 3 12 2 13
REMARK SMILES IDX 1 14
REMARK H PARENT
REMARK Flexibility Score: inf
ROOT
ATOM      1  C   UNL     1     -50.177   9.842 -31.666  1.00  0.00     0.000 C 
ENDROOT
BRANCH   1   2
ATOM      2  C   UNL     1     -49.626   9.638 -33.090  1.00  0.00     0.000 C 
BRANCH   2   3
ATOM      3  C   UNL     1     -48.494   8.603 -33.213  1.00  0.00     0.000 C 
BRANCH   3   4
ATOM      4  C   UNL     1     -47.592   8.547 -31.969  1.00  0.00     0.006 C 
BRANCH   4   5
ATOM      5  C   UNL     1     -47.586   7.157 -31.318  1.00  0.00     0.053 C 
BRANCH   5   6
ATOM      6  C   UNL     1     -47.572   7.244 -29.822  1.00  0.00     0.041 C 
ATOM      7  O   UNL     1     -48.147   6.363 -29.130  1.00  0.00    -0.550 OA
ATOM      8  O   UNL     1     -46.901   8.285 -29.193  1.00  0.00    -0.550 OA
ENDBRANCH   5   6
ENDBRANCH   4   5
ENDBRANCH   3   4
ENDBRANCH   2   3
ENDBRANCH   1   2
BRANCH   1   9
ATOM      9  C   UNL     1     -51.548   9.177 -31.453  1.00  0.00     0.000 C 
BRANCH   9  10
ATOM     10  C   UNL     1     -51.454   7.886 -30.623  1.00  0.00    -0.000 C 
BRANCH  10  11
ATOM     11  C   UNL     1     -51.189   6.641 -31.490  1.00  0.00    -0.000 C 
BRANCH  11  12
ATOM     12  C   UNL     1     -52.382   6.286 -32.391  1.00  0.00    -0.000 C 
BRANCH  12  13
ATOM     13  C   UNL     1     -52.153   6.686 -33.857  1.00  0.00    -0.003 C 
ATOM     14  C   UNL     1     -53.345   7.465 -34.406  1.00  0.00     0.004 C 
ENDBRANCH  12  13
ENDBRANCH  11  12
ENDBRANCH  10  11
ENDBRANCH   9  10
ENDBRANCH   1   9
TORSDOF 10
ENDMDL
MODEL 9
REMARK VINA RESULT:    -3.588     14.474     16.507
REMARK INTER + INTRA:          -7.242
REMARK INTER:                  -5.918
REMARK INTRA:                  -1.324
REMARK UNBOUND:                -1.556
REMARK SMILES CCCCCCCCCCCC(=O)[O-]
REMARK SMILES IDX 7 1 8 2 9 3 10 4 11 5 12 6 13 7 14 8 6 9 5 10 4 11 3 12 2 13
REMARK SMILES IDX 1 14
REMARK H PARENT
REMARK Flexibility Score: inf
ROOT
ATOM      1  C   UNL     1     -48.081   8.550 -33.030  1.00  0.00     0.000 C 
ENDROOT
BRANCH   1   2
ATOM      2  C   UNL     1     -48.445   7.057 -32.927  1.00  0.00     0.000 C 
BRANCH   2   3
ATOM      3  C   UNL     1     -47.718   6.280 -31.814  1.00  0.00     0.000 C 
BRANCH   3   4
ATOM      4  C   UNL     1     -48.592   6.058 -30.568  1.00  0.00     0.006 C 
BRANCH   4   5
ATOM      5  C   UNL     1     -48.609   7.285 -29.646  1.00  0.00     0.053 C 
BRANCH   5   6
ATOM      6  C   UNL     1     -47.224   7.731 -29.289  1.00  0.00     0.041 C 
ATOM      7  O   UNL     1     -46.474   6.987 -28.604  1.00  0.00    -0.550 OA
ATOM      8  O   UNL     1     -46.753   8.959 -29.735  1.00  0.00    -0.550 OA
ENDBRANCH   5   6
ENDBRANCH   4   5
ENDBRANCH   3   4
ENDBRANCH   2   3
ENDBRANCH   1   2
BRANCH   1   9
ATOM      9  C   UNL     1     -49.316   9.461 -33.142  1.00  0.00     0.000 C 
BRANCH   9  10
ATOM     10  C   UNL     1     -50.593   8.791 -32.610  1.00  0.00    -0.000 C 
BRANCH  10  11
ATOM     11  C   UNL     1     -51.139   9.475 -31.343  1.00  0.00    -0.000 C 
BRANCH  11  12
ATOM     12  C   UNL     1     -50.409  10.789 -31.022  1.00  0.00    -0.000 C 
BRANCH  12  13
ATOM     13  C   UNL     1     -49.782  10.787 -29.620  1.00  0.00    -0.003 C 
ATOM     14  C   UNL     1     -49.228  12.164 -29.264  1.00  0.00     0.004 C 
ENDBRANCH  12  13
ENDBRANCH  11  12
ENDBRANCH  10  11
ENDBRANCH   9  10
ENDBRANCH   1   9
TORSDOF 10
ENDMDL
