MODEL 1
REMARK VINA RESULT:    -0.632      0.000      0.000
REMARK INTER + INTRA:          -1.787
REMARK INTER:                  -1.371
REMARK INTRA:                  -0.416
REMARK UNBOUND:                -0.416
REMARK SMILES CCCCCCCCCCCCCCCCCCCCCC(=O)[O-]
REMARK SMILES IDX 12 1 11 2 10 3 9 4 8 5 7 6 6 7 5 8 4 9 3 10 2 11 1 12 13 13
REMARK SMILES IDX 14 14 15 15 16 16 17 17 18 18 19 19 20 20 21 21 22 22 23 23
REMARK SMILES IDX 24 24
REMARK H PARENT
REMARK Flexibility Score: inf
ROOT
ATOM      1  C   UNL     1      -5.649  35.565  24.680  1.00  0.00     0.000 C 
ENDROOT
BRANCH   1   2
ATOM      2  C   UNL     1      -6.123  35.284  23.240  1.00  0.00     0.000 C 
BRANCH   2   3
ATOM      3  C   UNL     1      -5.005  34.960  22.232  1.00  0.00     0.000 C 
BRANCH   3   4
ATOM      4  C   UNL     1      -5.518  34.872  20.784  1.00  0.00    -0.000 C 
BRANCH   4   5
ATOM      5  C   UNL     1      -4.391  34.622  19.766  1.00  0.00    -0.000 C 
BRANCH   5   6
ATOM      6  C   UNL     1      -4.856  34.146  18.373  1.00  0.00    -0.000 C 
BRANCH   6   7
ATOM      7  C   UNL     1      -4.483  35.078  17.203  1.00  0.00    -0.000 C 
BRANCH   7   8
ATOM      8  C   UNL     1      -3.146  34.744  16.515  1.00  0.00    -0.000 C 
BRANCH   8   9
ATOM      9  C   UNL     1      -2.342  36.000  16.143  1.00  0.00    -0.000 C 
BRANCH   9  10
ATOM     10  C   UNL     1      -2.536  36.417  14.674  1.00  0.00    -0.000 C 
BRANCH  10  11
ATOM     11  C   UNL     1      -3.980  36.795  14.297  1.00  0.00    -0.003 C 
ATOM     12  C   UNL     1      -4.200  38.304  14.215  1.00  0.00     0.004 C 
ENDBRANCH  10  11
ENDBRANCH   9  10
ENDBRANCH   8   9
ENDBRANCH   7   8
ENDBRANCH   6   7
ENDBRANCH   5   6
ENDBRANCH   4   5
ENDBRANCH   3   4
ENDBRANCH   2   3
ENDBRANCH   1   2
BRANCH   1  13
ATOM     13  C   UNL     1      -5.452  37.051  25.026  1.00  0.00     0.000 C 
BRANCH  13  14
ATOM     14  C   UNL     1      -5.732  37.985  23.835  1.00  0.00     0.000 C 
BRANCH  14  15
ATOM     15  C   UNL     1      -5.124  39.383  24.027  1.00  0.00     0.000 C 
BRANCH  15  16
ATOM     16  C   UNL     1      -5.033  40.167  22.709  1.00  0.00     0.000 C 
BRANCH  16  17
ATOM     17  C   UNL     1      -6.050  39.647  21.683  1.00  0.00     0.000 C 
BRANCH  17  18
ATOM     18  C   UNL     1      -5.715  38.219  21.199  1.00  0.00     0.000 C 
BRANCH  18  19
ATOM     19  C   UNL     1      -4.825  38.180  19.942  1.00  0.00     0.000 C 
BRANCH  19  20
ATOM     20  C   UNL     1      -3.425  37.582  20.158  1.00  0.00     0.006 C 
BRANCH  20  21
ATOM     21  C   UNL     1      -2.562  37.611  18.889  1.00  0.00     0.053 C 
BRANCH  21  22
ATOM     22  C   UNL     1      -1.109  37.605  19.247  1.00  0.00     0.041 C 
ATOM     23  O   UNL     1      -0.252  38.023  18.423  1.00  0.00    -0.550 OA
ATOM     24  O   UNL     1      -0.695  37.099  20.473  1.00  0.00    -0.550 OA
ENDBRANCH  21  22
ENDBRANCH  20  21
ENDBRANCH  19  20
ENDBRANCH  18  19
ENDBRANCH  17  18
ENDBRANCH  16  17
ENDBRANCH  15  16
ENDBRANCH  14  15
ENDBRANCH  13  14
ENDBRANCH   1  13
TORSDOF 20
ENDMDL
MODEL 2
REMARK VINA RESULT:    -0.096      0.935      2.296
REMARK INTER + INTRA:          -0.623
REMARK INTER:                  -1.126
REMARK INTRA:                   0.503
REMARK UNBOUND:                -0.416
REMARK SMILES CCCCCCCCCCCCCCCCCCCCCC(=O)[O-]
REMARK SMILES IDX 12 1 11 2 10 3 9 4 8 5 7 6 6 7 5 8 4 9 3 10 2 11 1 12 13 13
REMARK SMILES IDX 14 14 15 15 16 16 17 17 18 18 19 19 20 20 21 21 22 22 23 23
REMARK SMILES IDX 24 24
REMARK H PARENT
REMARK Flexibility Score: inf
ROOT
ATOM      1  C   UNL     1      -5.314  35.489  22.050  1.00  0.00     0.000 C 
ENDROOT
BRANCH   1   2
ATOM      2  C   UNL     1      -4.848  34.658  20.837  1.00  0.00     0.000 C 
BRANCH   2   3
ATOM      3  C   UNL     1      -5.931  34.373  19.781  1.00  0.00     0.000 C 
BRANCH   3   4
ATOM      4  C   UNL     1      -5.343  34.082  18.390  1.00  0.00    -0.000 C 
BRANCH   4   5
ATOM      5  C   UNL     1      -4.516  35.254  17.833  1.00  0.00    -0.000 C 
BRANCH   5   6
ATOM      6  C   UNL     1      -3.760  34.961  16.520  1.00  0.00    -0.000 C 
BRANCH   6   7
ATOM      7  C   UNL     1      -2.549  35.874  16.241  1.00  0.00    -0.000 C 
BRANCH   7   8
ATOM      8  C   UNL     1      -2.841  37.064  15.308  1.00  0.00    -0.000 C 
BRANCH   8   9
ATOM      9  C   UNL     1      -3.747  36.680  14.127  1.00  0.00    -0.000 C 
BRANCH   9  10
ATOM     10  C   UNL     1      -4.874  37.701  13.885  1.00  0.00    -0.000 C 
BRANCH  10  11
ATOM     11  C   UNL     1      -4.419  39.171  13.875  1.00  0.00    -0.003 C 
ATOM     12  C   UNL     1      -5.540  40.147  14.228  1.00  0.00     0.004 C 
ENDBRANCH  10  11
ENDBRANCH   9  10
ENDBRANCH   8   9
ENDBRANCH   7   8
ENDBRANCH   6   7
ENDBRANCH   5   6
ENDBRANCH   4   5
ENDBRANCH   3   4
ENDBRANCH   2   3
ENDBRANCH   1   2
BRANCH   1  13
ATOM     13  C   UNL     1      -6.007  34.687  23.165  1.00  0.00     0.000 C 
BRANCH  13  14
ATOM     14  C   UNL     1      -5.756  35.273  24.567  1.00  0.00     0.000 C 
BRANCH  14  15
ATOM     15  C   UNL     1      -5.520  36.791  24.537  1.00  0.00     0.000 C 
BRANCH  15  16
ATOM     16  C   UNL     1      -6.124  37.453  23.289  1.00  0.00     0.000 C 
BRANCH  16  17
ATOM     17  C   UNL     1      -5.820  38.958  23.257  1.00  0.00     0.000 C 
BRANCH  17  18
ATOM     18  C   UNL     1      -5.138  39.388  21.940  1.00  0.00     0.000 C 
BRANCH  18  19
ATOM     19  C   UNL     1      -5.692  38.678  20.690  1.00  0.00     0.000 C 
BRANCH  19  20
ATOM     20  C   UNL     1      -4.625  38.189  19.696  1.00  0.00     0.006 C 
BRANCH  20  21
ATOM     21  C   UNL     1      -3.479  37.428  20.376  1.00  0.00     0.053 C 
BRANCH  21  22
ATOM     22  C   UNL     1      -2.221  37.558  19.578  1.00  0.00     0.041 C 
ATOM     23  O   UNL     1      -2.276  37.741  18.332  1.00  0.00    -0.550 OA
ATOM     24  O   UNL     1      -0.985  37.435  20.200  1.00  0.00    -0.550 OA
ENDBRANCH  21  22
ENDBRANCH  20  21
ENDBRANCH  19  20
ENDBRANCH  18  19
ENDBRANCH  17  18
ENDBRANCH  16  17
ENDBRANCH  15  16
ENDBRANCH  14  15
ENDBRANCH  13  14
ENDBRANCH   1  13
TORSDOF 20
ENDMDL
MODEL 3
REMARK VINA RESULT:     0.178      1.652      2.936
REMARK INTER + INTRA:          -0.031
REMARK INTER:                  -0.649
REMARK INTRA:                   0.619
REMARK UNBOUND:                -0.416
REMARK SMILES CCCCCCCCCCCCCCCCCCCCCC(=O)[O-]
REMARK SMILES IDX 12 1 11 2 10 3 9 4 8 5 7 6 6 7 5 8 4 9 3 10 2 11 1 12 13 13
REMARK SMILES IDX 14 14 15 15 16 16 17 17 18 18 19 19 20 20 21 21 22 22 23 23
REMARK SMILES IDX 24 24
REMARK H PARENT
REMARK Flexibility Score: inf
ROOT
ATOM      1  C   UNL     1      -5.379  34.984  23.354  1.00  0.00     0.000 C 
ENDROOT
BRANCH   1   2
ATOM      2  C   UNL     1      -6.089  35.779  22.240  1.00  0.00     0.000 C 
BRANCH   2   3
ATOM      3  C   UNL     1      -6.125  35.092  20.863  1.00  0.00     0.000 C 
BRANCH   3   4
ATOM      4  C   UNL     1      -4.795  35.218  20.101  1.00  0.00    -0.000 C 
BRANCH   4   5
ATOM      5  C   UNL     1      -4.669  34.207  18.947  1.00  0.00    -0.000 C 
BRANCH   5   6
ATOM      6  C   UNL     1      -4.560  34.826  17.538  1.00  0.00    -0.000 C 
BRANCH   6   7
ATOM      7  C   UNL     1      -3.131  35.193  17.090  1.00  0.00    -0.000 C 
BRANCH   7   8
ATOM      8  C   UNL     1      -2.862  36.704  16.970  1.00  0.00    -0.000 C 
BRANCH   8   9
ATOM      9  C   UNL     1      -2.459  37.122  15.547  1.00  0.00    -0.000 C 
BRANCH   9  10
ATOM     10  C   UNL     1      -3.296  36.421  14.461  1.00  0.00    -0.000 C 
BRANCH  10  11
ATOM     11  C   UNL     1      -4.623  37.122  14.118  1.00  0.00    -0.003 C 
ATOM     12  C   UNL     1      -4.509  38.646  14.108  1.00  0.00     0.004 C 
ENDBRANCH  10  11
ENDBRANCH   9  10
ENDBRANCH   8   9
ENDBRANCH   7   8
ENDBRANCH   6   7
ENDBRANCH   5   6
ENDBRANCH   4   5
ENDBRANCH   3   4
ENDBRANCH   2   3
ENDBRANCH   1   2
BRANCH   1  13
ATOM     13  C   UNL     1      -5.992  35.134  24.757  1.00  0.00     0.000 C 
BRANCH  13  14
ATOM     14  C   UNL     1      -6.039  36.596  25.237  1.00  0.00     0.000 C 
BRANCH  14  15
ATOM     15  C   UNL     1      -4.657  37.122  25.657  1.00  0.00     0.000 C 
BRANCH  15  16
ATOM     16  C   UNL     1      -4.598  38.656  25.680  1.00  0.00     0.000 C 
BRANCH  16  17
ATOM     17  C   UNL     1      -5.344  39.258  24.480  1.00  0.00     0.000 C 
BRANCH  17  18
ATOM     18  C   UNL     1      -5.477  40.793  24.584  1.00  0.00     0.000 C 
BRANCH  18  19
ATOM     19  C   UNL     1      -6.122  41.447  23.347  1.00  0.00     0.000 C 
BRANCH  19  20
ATOM     20  C   UNL     1      -5.796  40.764  22.008  1.00  0.00     0.006 C 
BRANCH  20  21
ATOM     21  C   UNL     1      -5.643  39.243  22.136  1.00  0.00     0.053 C 
BRANCH  21  22
ATOM     22  C   UNL     1      -5.247  38.647  20.822  1.00  0.00     0.041 C 
ATOM     23  O   UNL     1      -5.998  38.769  19.818  1.00  0.00    -0.550 OA
ATOM     24  O   UNL     1      -4.068  37.920  20.714  1.00  0.00    -0.550 OA
ENDBRANCH  21  22
ENDBRANCH  20  21
ENDBRANCH  19  20
ENDBRANCH  18  19
ENDBRANCH  17  18
ENDBRANCH  16  17
ENDBRANCH  15  16
ENDBRANCH  14  15
ENDBRANCH  13  14
ENDBRANCH   1  13
TORSDOF 20
ENDMDL
MODEL 4
REMARK VINA RESULT:     0.224      2.217      6.280
REMARK INTER + INTRA:           0.070
REMARK INTER:                   1.210
REMARK INTRA:                  -1.140
REMARK UNBOUND:                -0.416
REMARK SMILES CCCCCCCCCCCCCCCCCCCCCC(=O)[O-]
REMARK SMILES IDX 12 1 11 2 10 3 9 4 8 5 7 6 6 7 5 8 4 9 3 10 2 11 1 12 13 13
REMARK SMILES IDX 14 14 15 15 16 16 17 17 18 18 19 19 20 20 21 21 22 22 23 23
REMARK SMILES IDX 24 24
REMARK H PARENT
REMARK Flexibility Score: inf
ROOT
ATOM      1  C   UNL     1      -4.313  35.388  21.774  1.00  0.00     0.000 C 
ENDROOT
BRANCH   1   2
ATOM      2  C   UNL     1      -4.402  33.966  22.362  1.00  0.00     0.000 C 
BRANCH   2   3
ATOM      3  C   UNL     1      -5.211  33.844  23.666  1.00  0.00     0.000 C 
BRANCH   3   4
ATOM      4  C   UNL     1      -6.036  35.105  23.975  1.00  0.00    -0.000 C 
BRANCH   4   5
ATOM      5  C   UNL     1      -5.810  35.632  25.403  1.00  0.00    -0.000 C 
BRANCH   5   6
ATOM      6  C   UNL     1      -5.493  37.139  25.506  1.00  0.00    -0.000 C 
BRANCH   6   7
ATOM      7  C   UNL     1      -5.731  37.950  24.216  1.00  0.00    -0.000 C 
BRANCH   7   8
ATOM      8  C   UNL     1      -5.140  39.372  24.232  1.00  0.00    -0.000 C 
BRANCH   8   9
ATOM      9  C   UNL     1      -5.507  40.179  22.977  1.00  0.00    -0.000 C 
BRANCH   9  10
ATOM     10  C   UNL     1      -6.125  39.307  21.868  1.00  0.00    -0.000 C 
BRANCH  10  11
ATOM     11  C   UNL     1      -5.351  39.314  20.537  1.00  0.00    -0.003 C 
ATOM     12  C   UNL     1      -5.669  38.109  19.654  1.00  0.00     0.004 C 
ENDBRANCH  10  11
ENDBRANCH   9  10
ENDBRANCH   8   9
ENDBRANCH   7   8
ENDBRANCH   6   7
ENDBRANCH   5   6
ENDBRANCH   4   5
ENDBRANCH   3   4
ENDBRANCH   2   3
ENDBRANCH   1   2
BRANCH   1  13
ATOM     13  C   UNL     1      -4.756  35.519  20.306  1.00  0.00     0.000 C 
BRANCH  13  14
ATOM     14  C   UNL     1      -6.031  34.717  19.993  1.00  0.00     0.000 C 
BRANCH  14  15
ATOM     15  C   UNL     1      -5.965  34.013  18.628  1.00  0.00     0.000 C 
BRANCH  15  16
ATOM     16  C   UNL     1      -4.607  34.206  17.937  1.00  0.00     0.000 C 
BRANCH  16  17
ATOM     17  C   UNL     1      -4.543  35.556  17.206  1.00  0.00     0.000 C 
BRANCH  17  18
ATOM     18  C   UNL     1      -3.150  36.213  17.311  1.00  0.00     0.000 C 
BRANCH  18  19
ATOM     19  C   UNL     1      -2.174  35.786  16.198  1.00  0.00     0.000 C 
BRANCH  19  20
ATOM     20  C   UNL     1      -2.017  36.799  15.051  1.00  0.00     0.006 C 
BRANCH  20  21
ATOM     21  C   UNL     1      -2.983  36.537  13.887  1.00  0.00     0.053 C 
BRANCH  21  22
ATOM     22  C   UNL     1      -4.218  37.367  14.037  1.00  0.00     0.041 C 
ATOM     23  O   UNL     1      -5.355  36.838  13.917  1.00  0.00    -0.550 OA
ATOM     24  O   UNL     1      -4.116  38.733  14.269  1.00  0.00    -0.550 OA
ENDBRANCH  21  22
ENDBRANCH  20  21
ENDBRANCH  19  20
ENDBRANCH  18  19
ENDBRANCH  17  18
ENDBRANCH  16  17
ENDBRANCH  15  16
ENDBRANCH  14  15
ENDBRANCH  13  14
ENDBRANCH   1  13
TORSDOF 20
ENDMDL
MODEL 5
REMARK VINA RESULT:     0.383      1.048      6.582
REMARK INTER + INTRA:           0.416
REMARK INTER:                   1.026
REMARK INTRA:                  -0.610
REMARK UNBOUND:                -0.416
REMARK SMILES CCCCCCCCCCCCCCCCCCCCCC(=O)[O-]
REMARK SMILES IDX 12 1 11 2 10 3 9 4 8 5 7 6 6 7 5 8 4 9 3 10 2 11 1 12 13 13
REMARK SMILES IDX 14 14 15 15 16 16 17 17 18 18 19 19 20 20 21 21 22 22 23 23
REMARK SMILES IDX 24 24
REMARK H PARENT
REMARK Flexibility Score: inf
ROOT
ATOM      1  C   UNL     1      -4.911  36.757  20.820  1.00  0.00     0.000 C 
ENDROOT
BRANCH   1   2
ATOM      2  C   UNL     1      -5.477  37.852  19.893  1.00  0.00     0.000 C 
BRANCH   2   3
ATOM      3  C   UNL     1      -6.125  39.049  20.611  1.00  0.00     0.000 C 
BRANCH   3   4
ATOM      4  C   UNL     1      -5.127  39.833  21.480  1.00  0.00    -0.000 C 
BRANCH   4   5
ATOM      5  C   UNL     1      -5.747  40.338  22.795  1.00  0.00    -0.000 C 
BRANCH   5   6
ATOM      6  C   UNL     1      -5.368  39.531  24.054  1.00  0.00    -0.000 C 
BRANCH   6   7
ATOM      7  C   UNL     1      -5.844  38.065  24.063  1.00  0.00    -0.000 C 
BRANCH   7   8
ATOM      8  C   UNL     1      -5.526  37.292  25.356  1.00  0.00    -0.000 C 
BRANCH   8   9
ATOM      9  C   UNL     1      -5.961  35.820  25.289  1.00  0.00    -0.000 C 
BRANCH   9  10
ATOM     10  C   UNL     1      -6.042  35.289  23.846  1.00  0.00    -0.000 C 
BRANCH  10  11
ATOM     11  C   UNL     1      -5.531  33.848  23.662  1.00  0.00    -0.003 C 
ATOM     12  C   UNL     1      -4.271  33.765  22.802  1.00  0.00     0.004 C 
ENDBRANCH  10  11
ENDBRANCH   9  10
ENDBRANCH   8   9
ENDBRANCH   7   8
ENDBRANCH   6   7
ENDBRANCH   5   6
ENDBRANCH   4   5
ENDBRANCH   3   4
ENDBRANCH   2   3
ENDBRANCH   1   2
BRANCH   1  13
ATOM     13  C   UNL     1      -4.584  35.421  20.131  1.00  0.00     0.000 C 
BRANCH  13  14
ATOM     14  C   UNL     1      -5.670  34.981  19.132  1.00  0.00     0.000 C 
BRANCH  14  15
ATOM     15  C   UNL     1      -5.140  33.988  18.085  1.00  0.00     0.000 C 
BRANCH  15  16
ATOM     16  C   UNL     1      -3.956  34.555  17.289  1.00  0.00     0.000 C 
BRANCH  16  17
ATOM     17  C   UNL     1      -4.295  35.930  16.693  1.00  0.00     0.000 C 
BRANCH  17  18
ATOM     18  C   UNL     1      -3.572  36.180  15.352  1.00  0.00     0.000 C 
BRANCH  18  19
ATOM     19  C   UNL     1      -2.065  36.464  15.500  1.00  0.00     0.000 C 
BRANCH  19  20
ATOM     20  C   UNL     1      -1.525  36.368  16.937  1.00  0.00     0.006 C 
BRANCH  20  21
ATOM     21  C   UNL     1      -2.241  37.317  17.907  1.00  0.00     0.053 C 
BRANCH  21  22
ATOM     22  C   UNL     1      -1.283  37.835  18.933  1.00  0.00     0.041 C 
ATOM     23  O   UNL     1      -0.476  38.756  18.638  1.00  0.00    -0.550 OA
ATOM     24  O   UNL     1      -1.251  37.273  20.203  1.00  0.00    -0.550 OA
ENDBRANCH  21  22
ENDBRANCH  20  21
ENDBRANCH  19  20
ENDBRANCH  18  19
ENDBRANCH  17  18
ENDBRANCH  16  17
ENDBRANCH  15  16
ENDBRANCH  14  15
ENDBRANCH  13  14
ENDBRANCH   1  13
TORSDOF 20
ENDMDL
MODEL 6
REMARK VINA RESULT:     0.430      1.195      5.977
REMARK INTER + INTRA:           0.517
REMARK INTER:                   1.422
REMARK INTRA:                  -0.905
REMARK UNBOUND:                -0.416
REMARK SMILES CCCCCCCCCCCCCCCCCCCCCC(=O)[O-]
REMARK SMILES IDX 12 1 11 2 10 3 9 4 8 5 7 6 6 7 5 8 4 9 3 10 2 11 1 12 13 13
REMARK SMILES IDX 14 14 15 15 16 16 17 17 18 18 19 19 20 20 21 21 22 22 23 23
REMARK SMILES IDX 24 24
REMARK H PARENT
REMARK Flexibility Score: inf
ROOT
ATOM      1  C   UNL     1      -4.218  35.572  21.806  1.00  0.00     0.000 C 
ENDROOT
BRANCH   1   2
ATOM      2  C   UNL     1      -4.588  34.193  22.389  1.00  0.00     0.000 C 
BRANCH   2   3
ATOM      3  C   UNL     1      -5.754  34.196  23.394  1.00  0.00     0.000 C 
BRANCH   3   4
ATOM      4  C   UNL     1      -6.069  35.602  23.935  1.00  0.00    -0.000 C 
BRANCH   4   5
ATOM      5  C   UNL     1      -5.386  35.890  25.284  1.00  0.00    -0.000 C 
BRANCH   5   6
ATOM      6  C   UNL     1      -5.357  37.374  25.703  1.00  0.00    -0.000 C 
BRANCH   6   7
ATOM      7  C   UNL     1      -5.795  38.374  24.614  1.00  0.00    -0.000 C 
BRANCH   7   8
ATOM      8  C   UNL     1      -4.794  39.512  24.344  1.00  0.00    -0.000 C 
BRANCH   8   9
ATOM      9  C   UNL     1      -5.466  40.767  23.765  1.00  0.00    -0.000 C 
BRANCH   9  10
ATOM     10  C   UNL     1      -5.948  40.569  22.316  1.00  0.00    -0.000 C 
BRANCH  10  11
ATOM     11  C   UNL     1      -5.443  39.281  21.640  1.00  0.00    -0.003 C 
ATOM     12  C   UNL     1      -6.125  39.002  20.302  1.00  0.00     0.004 C 
ENDBRANCH  10  11
ENDBRANCH   9  10
ENDBRANCH   8   9
ENDBRANCH   7   8
ENDBRANCH   6   7
ENDBRANCH   5   6
ENDBRANCH   4   5
ENDBRANCH   3   4
ENDBRANCH   2   3
ENDBRANCH   1   2
BRANCH   1  13
ATOM     13  C   UNL     1      -4.756  35.849  20.391  1.00  0.00     0.000 C 
BRANCH  13  14
ATOM     14  C   UNL     1      -6.122  35.190  20.131  1.00  0.00     0.000 C 
BRANCH  14  15
ATOM     15  C   UNL     1      -6.096  34.238  18.924  1.00  0.00     0.000 C 
BRANCH  15  16
ATOM     16  C   UNL     1      -4.692  34.104  18.315  1.00  0.00     0.000 C 
BRANCH  16  17
ATOM     17  C   UNL     1      -4.528  35.019  17.093  1.00  0.00     0.000 C 
BRANCH  17  18
ATOM     18  C   UNL     1      -3.103  34.956  16.502  1.00  0.00     0.000 C 
BRANCH  18  19
ATOM     19  C   UNL     1      -2.761  36.136  15.572  1.00  0.00     0.000 C 
BRANCH  19  20
ATOM     20  C   UNL     1      -2.251  37.398  16.288  1.00  0.00     0.006 C 
BRANCH  20  21
ATOM     21  C   UNL     1      -2.846  37.571  17.691  1.00  0.00     0.053 C 
BRANCH  21  22
ATOM     22  C   UNL     1      -1.787  37.392  18.732  1.00  0.00     0.041 C 
ATOM     23  O   UNL     1      -2.082  36.921  19.863  1.00  0.00    -0.550 OA
ATOM     24  O   UNL     1      -0.480  37.784  18.471  1.00  0.00    -0.550 OA
ENDBRANCH  21  22
ENDBRANCH  20  21
ENDBRANCH  19  20
ENDBRANCH  18  19
ENDBRANCH  17  18
ENDBRANCH  16  17
ENDBRANCH  15  16
ENDBRANCH  14  15
ENDBRANCH  13  14
ENDBRANCH   1  13
TORSDOF 20
ENDMDL
MODEL 7
REMARK VINA RESULT:     0.493      2.596      5.236
REMARK INTER + INTRA:           0.654
REMARK INTER:                   0.387
REMARK INTRA:                   0.268
REMARK UNBOUND:                -0.416
REMARK SMILES CCCCCCCCCCCCCCCCCCCCCC(=O)[O-]
REMARK SMILES IDX 12 1 11 2 10 3 9 4 8 5 7 6 6 7 5 8 4 9 3 10 2 11 1 12 13 13
REMARK SMILES IDX 14 14 15 15 16 16 17 17 18 18 19 19 20 20 21 21 22 22 23 23
REMARK SMILES IDX 24 24
REMARK H PARENT
REMARK Flexibility Score: inf
ROOT
ATOM      1  C   UNL     1      -4.289  38.050  20.873  1.00  0.00     0.000 C 
ENDROOT
BRANCH   1   2
ATOM      2  C   UNL     1      -2.993  37.274  20.563  1.00  0.00     0.000 C 
BRANCH   2   3
ATOM      3  C   UNL     1      -2.288  37.669  19.252  1.00  0.00     0.000 C 
BRANCH   3   4
ATOM      4  C   UNL     1      -2.795  36.869  18.040  1.00  0.00    -0.000 C 
BRANCH   4   5
ATOM      5  C   UNL     1      -1.746  36.754  16.920  1.00  0.00    -0.000 C 
BRANCH   5   6
ATOM      6  C   UNL     1      -2.264  36.167  15.590  1.00  0.00    -0.000 C 
BRANCH   6   7
ATOM      7  C   UNL     1      -3.670  36.639  15.167  1.00  0.00    -0.000 C 
BRANCH   7   8
ATOM      8  C   UNL     1      -3.688  37.914  14.305  1.00  0.00    -0.000 C 
BRANCH   8   9
ATOM      9  C   UNL     1      -5.112  38.432  14.045  1.00  0.00    -0.000 C 
BRANCH   9  10
ATOM     10  C   UNL     1      -5.167  39.962  13.876  1.00  0.00    -0.000 C 
BRANCH  10  11
ATOM     11  C   UNL     1      -5.028  40.759  15.186  1.00  0.00    -0.003 C 
ATOM     12  C   UNL     1      -5.749  42.105  15.147  1.00  0.00     0.004 C 
ENDBRANCH  10  11
ENDBRANCH   9  10
ENDBRANCH   8   9
ENDBRANCH   7   8
ENDBRANCH   6   7
ENDBRANCH   5   6
ENDBRANCH   4   5
ENDBRANCH   3   4
ENDBRANCH   2   3
ENDBRANCH   1   2
BRANCH   1  13
ATOM     13  C   UNL     1      -5.386  37.947  19.799  1.00  0.00     0.000 C 
BRANCH  13  14
ATOM     14  C   UNL     1      -5.489  36.541  19.183  1.00  0.00     0.000 C 
BRANCH  14  15
ATOM     15  C   UNL     1      -5.775  35.456  20.234  1.00  0.00     0.000 C 
BRANCH  15  16
ATOM     16  C   UNL     1      -4.627  34.443  20.355  1.00  0.00     0.000 C 
BRANCH  16  17
ATOM     17  C   UNL     1      -3.919  34.567  21.713  1.00  0.00     0.000 C 
BRANCH  17  18
ATOM     18  C   UNL     1      -4.815  34.109  22.884  1.00  0.00     0.000 C 
BRANCH  18  19
ATOM     19  C   UNL     1      -6.124  34.911  23.016  1.00  0.00     0.000 C 
BRANCH  19  20
ATOM     20  C   UNL     1      -5.968  36.307  23.642  1.00  0.00     0.006 C 
BRANCH  20  21
ATOM     21  C   UNL     1      -5.545  36.257  25.116  1.00  0.00     0.053 C 
BRANCH  21  22
ATOM     22  C   UNL     1      -5.046  37.596  25.561  1.00  0.00     0.041 C 
ATOM     23  O   UNL     1      -5.374  38.636  24.930  1.00  0.00    -0.550 OA
ATOM     24  O   UNL     1      -4.185  37.693  26.646  1.00  0.00    -0.550 OA
ENDBRANCH  21  22
ENDBRANCH  20  21
ENDBRANCH  19  20
ENDBRANCH  18  19
ENDBRANCH  17  18
ENDBRANCH  16  17
ENDBRANCH  15  16
ENDBRANCH  14  15
ENDBRANCH  13  14
ENDBRANCH   1  13
TORSDOF 20
ENDMDL
