MODEL 1
REMARK VINA RESULT:    -5.359      0.000      0.000
REMARK INTER + INTRA:         -10.569
REMARK INTER:                  -9.744
REMARK INTRA:                  -0.825
REMARK UNBOUND:                -0.825
REMARK SMILES CCCCCCCCCCCCCCCC(=O)[O-]
REMARK SMILES IDX 9 1 10 2 11 3 12 4 13 5 14 6 15 7 16 8 17 9 18 10 8 11 7 12
REMARK SMILES IDX 6 13 5 14 4 15 3 16 2 17 1 18
REMARK H PARENT
REMARK Flexibility Score: inf
ROOT
ATOM      1  C   UNL     1      83.406  59.562  10.285  1.00  0.00     0.000 C 
ENDROOT
BRANCH   1   2
ATOM      2  C   UNL     1      82.108  58.860  10.739  1.00  0.00     0.000 C 
BRANCH   2   3
ATOM      3  C   UNL     1      80.852  59.665  10.363  1.00  0.00     0.000 C 
BRANCH   3   4
ATOM      4  C   UNL     1      79.588  58.791  10.263  1.00  0.00     0.000 C 
BRANCH   4   5
ATOM      5  C   UNL     1      79.768  57.336  10.732  1.00  0.00     0.000 C 
BRANCH   5   6
ATOM      6  C   UNL     1      78.967  56.330   9.887  1.00  0.00     0.006 C 
BRANCH   6   7
ATOM      7  C   UNL     1      77.907  57.018   9.017  1.00  0.00     0.053 C 
BRANCH   7   8
ATOM      8  C   UNL     1      77.765  56.351   7.683  1.00  0.00     0.041 C 
ATOM      9  O   UNL     1      77.634  57.044   6.639  1.00  0.00    -0.550 OA
ATOM     10  O   UNL     1      77.734  54.965   7.598  1.00  0.00    -0.550 OA
ENDBRANCH   7   8
ENDBRANCH   6   7
ENDBRANCH   5   6
ENDBRANCH   4   5
ENDBRANCH   3   4
ENDBRANCH   2   3
ENDBRANCH   1   2
BRANCH   1  11
ATOM     11  C   UNL     1      84.673  58.721  10.508  1.00  0.00     0.000 C 
BRANCH  11  12
ATOM     12  C   UNL     1      85.774  59.487  11.260  1.00  0.00    -0.000 C 
BRANCH  12  13
ATOM     13  C   UNL     1      85.634  59.364  12.787  1.00  0.00    -0.000 C 
BRANCH  13  14
ATOM     14  C   UNL     1      84.857  60.542  13.401  1.00  0.00    -0.000 C 
BRANCH  14  15
ATOM     15  C   UNL     1      84.357  60.249  14.828  1.00  0.00    -0.000 C 
BRANCH  15  16
ATOM     16  C   UNL     1      85.036  61.071  15.941  1.00  0.00    -0.000 C 
BRANCH  16  17
ATOM     17  C   UNL     1      85.989  62.173  15.447  1.00  0.00    -0.003 C 
ATOM     18  C   UNL     1      85.357  63.563  15.476  1.00  0.00     0.004 C 
ENDBRANCH  16  17
ENDBRANCH  15  16
ENDBRANCH  14  15
ENDBRANCH  13  14
ENDBRANCH  12  13
ENDBRANCH  11  12
ENDBRANCH   1  11
TORSDOF 14
ENDMDL
MODEL 2
REMARK VINA RESULT:    -5.262      3.826      8.537
REMARK INTER + INTRA:         -10.393
REMARK INTER:                  -8.996
REMARK INTRA:                  -1.397
REMARK UNBOUND:                -0.825
REMARK SMILES CCCCCCCCCCCCCCCC(=O)[O-]
REMARK SMILES IDX 9 1 10 2 11 3 12 4 13 5 14 6 15 7 16 8 17 9 18 10 8 11 7 12
REMARK SMILES IDX 6 13 5 14 4 15 3 16 2 17 1 18
REMARK H PARENT
REMARK Flexibility Score: inf
ROOT
ATOM      1  C   UNL     1      78.842  56.942  10.967  1.00  0.00     0.000 C 
ENDROOT
BRANCH   1   2
ATOM      2  C   UNL     1      80.032  57.744  10.397  1.00  0.00     0.000 C 
BRANCH   2   3
ATOM      3  C   UNL     1      79.703  59.239  10.242  1.00  0.00     0.000 C 
BRANCH   3   4
ATOM      4  C   UNL     1      80.947  60.140  10.348  1.00  0.00     0.000 C 
BRANCH   4   5
ATOM      5  C   UNL     1      82.089  59.570  11.209  1.00  0.00     0.000 C 
BRANCH   5   6
ATOM      6  C   UNL     1      83.457  59.636  10.509  1.00  0.00     0.006 C 
BRANCH   6   7
ATOM      7  C   UNL     1      84.534  60.268  11.401  1.00  0.00     0.053 C 
BRANCH   7   8
ATOM      8  C   UNL     1      85.553  59.261  11.840  1.00  0.00     0.041 C 
ATOM      9  O   UNL     1      86.341  59.528  12.785  1.00  0.00    -0.550 OA
ATOM     10  O   UNL     1      85.660  58.045  11.177  1.00  0.00    -0.550 OA
ENDBRANCH   7   8
ENDBRANCH   6   7
ENDBRANCH   5   6
ENDBRANCH   4   5
ENDBRANCH   3   4
ENDBRANCH   2   3
ENDBRANCH   1   2
BRANCH   1  11
ATOM     11  C   UNL     1      78.106  56.098   9.914  1.00  0.00     0.000 C 
BRANCH  11  12
ATOM     12  C   UNL     1      77.970  56.816   8.561  1.00  0.00    -0.000 C 
BRANCH  12  13
ATOM     13  C   UNL     1      78.080  55.848   7.371  1.00  0.00    -0.000 C 
BRANCH  13  14
ATOM     14  C   UNL     1      77.856  54.383   7.783  1.00  0.00    -0.000 C 
BRANCH  14  15
ATOM     15  C   UNL     1      79.140  53.536   7.705  1.00  0.00    -0.000 C 
BRANCH  15  16
ATOM     16  C   UNL     1      80.442  54.339   7.508  1.00  0.00    -0.000 C 
BRANCH  16  17
ATOM     17  C   UNL     1      81.310  54.489   8.769  1.00  0.00    -0.003 C 
ATOM     18  C   UNL     1      80.840  53.605   9.923  1.00  0.00     0.004 C 
ENDBRANCH  16  17
ENDBRANCH  15  16
ENDBRANCH  14  15
ENDBRANCH  13  14
ENDBRANCH  12  13
ENDBRANCH  11  12
ENDBRANCH   1  11
TORSDOF 14
ENDMDL
MODEL 3
REMARK VINA RESULT:    -5.194      4.670      9.420
REMARK INTER + INTRA:         -10.270
REMARK INTER:                  -9.540
REMARK INTRA:                  -0.729
REMARK UNBOUND:                -0.825
REMARK SMILES CCCCCCCCCCCCCCCC(=O)[O-]
REMARK SMILES IDX 9 1 10 2 11 3 12 4 13 5 14 6 15 7 16 8 17 9 18 10 8 11 7 12
REMARK SMILES IDX 6 13 5 14 4 15 3 16 2 17 1 18
REMARK H PARENT
REMARK Flexibility Score: inf
ROOT
ATOM      1  C   UNL     1      82.673  60.116  10.413  1.00  0.00     0.000 C 
ENDROOT
BRANCH   1   2
ATOM      2  C   UNL     1      83.918  59.285  10.789  1.00  0.00     0.000 C 
BRANCH   2   3
ATOM      3  C   UNL     1      85.065  60.165  11.315  1.00  0.00     0.000 C 
BRANCH   3   4
ATOM      4  C   UNL     1      85.346  59.951  12.814  1.00  0.00     0.000 C 
BRANCH   4   5
ATOM      5  C   UNL     1      84.871  61.091  13.732  1.00  0.00     0.000 C 
BRANCH   5   6
ATOM      6  C   UNL     1      85.672  61.180  15.042  1.00  0.00     0.006 C 
BRANCH   6   7
ATOM      7  C   UNL     1      86.121  62.614  15.350  1.00  0.00     0.053 C 
BRANCH   7   8
ATOM      8  C   UNL     1      85.053  63.392  16.056  1.00  0.00     0.041 C 
ATOM      9  O   UNL     1      84.546  64.409  15.514  1.00  0.00    -0.550 OA
ATOM     10  O   UNL     1      84.648  63.017  17.331  1.00  0.00    -0.550 OA
ENDBRANCH   7   8
ENDBRANCH   6   7
ENDBRANCH   5   6
ENDBRANCH   4   5
ENDBRANCH   3   4
ENDBRANCH   2   3
ENDBRANCH   1   2
BRANCH   1  11
ATOM     11  C   UNL     1      81.421  59.758  11.231  1.00  0.00     0.000 C 
BRANCH  11  12
ATOM     12  C   UNL     1      80.271  59.226  10.360  1.00  0.00    -0.000 C 
BRANCH  12  13
ATOM     13  C   UNL     1      80.191  57.690  10.368  1.00  0.00    -0.000 C 
BRANCH  13  14
ATOM     14  C   UNL     1      78.838  57.176  10.890  1.00  0.00    -0.000 C 
BRANCH  14  15
ATOM     15  C   UNL     1      77.905  56.697   9.762  1.00  0.00    -0.000 C 
BRANCH  15  16
ATOM     16  C   UNL     1      78.532  55.688   8.778  1.00  0.00    -0.000 C 
BRANCH  16  17
ATOM     17  C   UNL     1      77.860  55.626   7.395  1.00  0.00    -0.003 C 
ATOM     18  C   UNL     1      77.804  56.986   6.700  1.00  0.00     0.004 C 
ENDBRANCH  16  17
ENDBRANCH  15  16
ENDBRANCH  14  15
ENDBRANCH  13  14
ENDBRANCH  12  13
ENDBRANCH  11  12
ENDBRANCH   1  11
TORSDOF 14
ENDMDL
MODEL 4
REMARK VINA RESULT:    -5.125      2.302      4.528
REMARK INTER + INTRA:         -10.144
REMARK INTER:                  -9.222
REMARK INTRA:                  -0.922
REMARK UNBOUND:                -0.825
REMARK SMILES CCCCCCCCCCCCCCCC(=O)[O-]
REMARK SMILES IDX 9 1 10 2 11 3 12 4 13 5 14 6 15 7 16 8 17 9 18 10 8 11 7 12
REMARK SMILES IDX 6 13 5 14 4 15 3 16 2 17 1 18
REMARK H PARENT
REMARK Flexibility Score: inf
ROOT
ATOM      1  C   UNL     1      79.698  57.508  10.748  1.00  0.00     0.000 C 
ENDROOT
BRANCH   1   2
ATOM      2  C   UNL     1      78.693  56.398  10.373  1.00  0.00     0.000 C 
BRANCH   2   3
ATOM      3  C   UNL     1      77.715  56.848   9.274  1.00  0.00     0.000 C 
BRANCH   3   4
ATOM      4  C   UNL     1      77.905  56.082   7.952  1.00  0.00     0.000 C 
BRANCH   4   5
ATOM      5  C   UNL     1      77.990  54.552   8.096  1.00  0.00     0.000 C 
BRANCH   5   6
ATOM      6  C   UNL     1      79.345  53.981   7.645  1.00  0.00     0.006 C 
BRANCH   6   7
ATOM      7  C   UNL     1      80.067  53.237   8.776  1.00  0.00     0.053 C 
BRANCH   7   8
ATOM      8  C   UNL     1      79.922  51.752   8.645  1.00  0.00     0.041 C 
ATOM      9  O   UNL     1      79.062  51.265   7.864  1.00  0.00    -0.550 OA
ATOM     10  O   UNL     1      80.708  50.906   9.417  1.00  0.00    -0.550 OA
ENDBRANCH   7   8
ENDBRANCH   6   7
ENDBRANCH   5   6
ENDBRANCH   4   5
ENDBRANCH   3   4
ENDBRANCH   2   3
ENDBRANCH   1   2
BRANCH   1  11
ATOM     11  C   UNL     1      79.351  58.882  10.152  1.00  0.00     0.000 C 
BRANCH  11  12
ATOM     12  C   UNL     1      80.564  59.824  10.075  1.00  0.00    -0.000 C 
BRANCH  12  13
ATOM     13  C   UNL     1      81.623  59.504  11.143  1.00  0.00    -0.000 C 
BRANCH  13  14
ATOM     14  C   UNL     1      83.022  59.295  10.537  1.00  0.00    -0.000 C 
BRANCH  14  15
ATOM     15  C   UNL     1      84.046  60.338  11.023  1.00  0.00    -0.000 C 
BRANCH  15  16
ATOM     16  C   UNL     1      85.497  59.830  11.131  1.00  0.00    -0.000 C 
BRANCH  16  17
ATOM     17  C   UNL     1      85.948  59.449  12.552  1.00  0.00    -0.003 C 
ATOM     18  C   UNL     1      85.241  60.258  13.637  1.00  0.00     0.004 C 
ENDBRANCH  16  17
ENDBRANCH  15  16
ENDBRANCH  14  15
ENDBRANCH  13  14
ENDBRANCH  12  13
ENDBRANCH  11  12
ENDBRANCH   1  11
TORSDOF 14
ENDMDL
MODEL 5
REMARK VINA RESULT:    -5.099      2.825      4.366
REMARK INTER + INTRA:         -10.097
REMARK INTER:                  -9.081
REMARK INTRA:                  -1.016
REMARK UNBOUND:                -0.825
REMARK SMILES CCCCCCCCCCCCCCCC(=O)[O-]
REMARK SMILES IDX 9 1 10 2 11 3 12 4 13 5 14 6 15 7 16 8 17 9 18 10 8 11 7 12
REMARK SMILES IDX 6 13 5 14 4 15 3 16 2 17 1 18
REMARK H PARENT
REMARK Flexibility Score: inf
ROOT
ATOM      1  C   UNL     1      79.579  58.724  10.039  1.00  0.00     0.000 C 
ENDROOT
BRANCH   1   2
ATOM      2  C   UNL     1      79.826  57.356  10.713  1.00  0.00     0.000 C 
BRANCH   2   3
ATOM      3  C   UNL     1      78.716  56.341  10.387  1.00  0.00     0.000 C 
BRANCH   3   4
ATOM      4  C   UNL     1      77.736  56.849   9.314  1.00  0.00     0.000 C 
BRANCH   4   5
ATOM      5  C   UNL     1      77.717  56.026   8.013  1.00  0.00     0.000 C 
BRANCH   5   6
ATOM      6  C   UNL     1      78.961  55.137   7.847  1.00  0.00     0.006 C 
BRANCH   6   7
ATOM      7  C   UNL     1      78.596  53.656   7.677  1.00  0.00     0.053 C 
BRANCH   7   8
ATOM      8  C   UNL     1      79.528  52.763   8.437  1.00  0.00     0.041 C 
ATOM      9  O   UNL     1      80.488  53.255   9.088  1.00  0.00    -0.550 OA
ATOM     10  O   UNL     1      79.362  51.385   8.392  1.00  0.00    -0.550 OA
ENDBRANCH   7   8
ENDBRANCH   6   7
ENDBRANCH   5   6
ENDBRANCH   4   5
ENDBRANCH   3   4
ENDBRANCH   2   3
ENDBRANCH   1   2
BRANCH   1  11
ATOM     11  C   UNL     1      80.516  59.835  10.537  1.00  0.00     0.000 C 
BRANCH  11  12
ATOM     12  C   UNL     1      81.999  59.430  10.495  1.00  0.00    -0.000 C 
BRANCH  12  13
ATOM     13  C   UNL     1      82.799  60.008  11.674  1.00  0.00    -0.000 C 
BRANCH  13  14
ATOM     14  C   UNL     1      84.318  59.940  11.441  1.00  0.00    -0.000 C 
BRANCH  14  15
ATOM     15  C   UNL     1      84.773  60.763  10.221  1.00  0.00    -0.000 C 
BRANCH  15  16
ATOM     16  C   UNL     1      84.593  62.289  10.356  1.00  0.00    -0.000 C 
BRANCH  16  17
ATOM     17  C   UNL     1      83.688  62.933   9.291  1.00  0.00    -0.003 C 
ATOM     18  C   UNL     1      84.425  63.233   7.987  1.00  0.00     0.004 C 
ENDBRANCH  16  17
ENDBRANCH  15  16
ENDBRANCH  14  15
ENDBRANCH  13  14
ENDBRANCH  12  13
ENDBRANCH  11  12
ENDBRANCH   1  11
TORSDOF 14
ENDMDL
MODEL 6
REMARK VINA RESULT:    -5.049      4.100      8.130
REMARK INTER + INTRA:         -10.006
REMARK INTER:                  -8.661
REMARK INTRA:                  -1.346
REMARK UNBOUND:                -0.825
REMARK SMILES CCCCCCCCCCCCCCCC(=O)[O-]
REMARK SMILES IDX 9 1 10 2 11 3 12 4 13 5 14 6 15 7 16 8 17 9 18 10 8 11 7 12
REMARK SMILES IDX 6 13 5 14 4 15 3 16 2 17 1 18
REMARK H PARENT
REMARK Flexibility Score: inf
ROOT
ATOM      1  C   UNL     1      78.206  56.747   9.908  1.00  0.00     0.000 C 
ENDROOT
BRANCH   1   2
ATOM      2  C   UNL     1      79.441  57.485  10.466  1.00  0.00     0.000 C 
BRANCH   2   3
ATOM      3  C   UNL     1      79.477  58.962  10.037  1.00  0.00     0.000 C 
BRANCH   3   4
ATOM      4  C   UNL     1      80.703  59.715  10.585  1.00  0.00     0.000 C 
BRANCH   4   5
ATOM      5  C   UNL     1      81.942  58.838  10.841  1.00  0.00     0.000 C 
BRANCH   5   6
ATOM      6  C   UNL     1      83.211  59.660  11.123  1.00  0.00     0.006 C 
BRANCH   6   7
ATOM      7  C   UNL     1      83.718  60.390   9.873  1.00  0.00     0.053 C 
BRANCH   7   8
ATOM      8  C   UNL     1      83.891  61.858  10.119  1.00  0.00     0.041 C 
ATOM      9  O   UNL     1      83.030  62.677   9.702  1.00  0.00    -0.550 OA
ATOM     10  O   UNL     1      85.026  62.325  10.771  1.00  0.00    -0.550 OA
ENDBRANCH   7   8
ENDBRANCH   6   7
ENDBRANCH   5   6
ENDBRANCH   4   5
ENDBRANCH   3   4
ENDBRANCH   2   3
ENDBRANCH   1   2
BRANCH   1  11
ATOM     11  C   UNL     1      77.911  57.066   8.433  1.00  0.00     0.000 C 
BRANCH  11  12
ATOM     12  C   UNL     1      77.723  55.804   7.575  1.00  0.00    -0.000 C 
BRANCH  12  13
ATOM     13  C   UNL     1      78.129  54.522   8.321  1.00  0.00    -0.000 C 
BRANCH  13  14
ATOM     14  C   UNL     1      79.449  53.931   7.796  1.00  0.00    -0.000 C 
BRANCH  14  15
ATOM     15  C   UNL     1      80.144  53.015   8.821  1.00  0.00    -0.000 C 
BRANCH  15  16
ATOM     16  C   UNL     1      81.663  53.232   8.970  1.00  0.00    -0.000 C 
BRANCH  16  17
ATOM     17  C   UNL     1      82.132  54.686   8.790  1.00  0.00    -0.003 C 
ATOM     18  C   UNL     1      82.516  55.355  10.110  1.00  0.00     0.004 C 
ENDBRANCH  16  17
ENDBRANCH  15  16
ENDBRANCH  14  15
ENDBRANCH  13  14
ENDBRANCH  12  13
ENDBRANCH  11  12
ENDBRANCH   1  11
TORSDOF 14
ENDMDL
MODEL 7
REMARK VINA RESULT:    -5.015      3.809      7.756
REMARK INTER + INTRA:          -9.943
REMARK INTER:                  -8.107
REMARK INTRA:                  -1.837
REMARK UNBOUND:                -0.825
REMARK SMILES CCCCCCCCCCCCCCCC(=O)[O-]
REMARK SMILES IDX 9 1 10 2 11 3 12 4 13 5 14 6 15 7 16 8 17 9 18 10 8 11 7 12
REMARK SMILES IDX 6 13 5 14 4 15 3 16 2 17 1 18
REMARK H PARENT
REMARK Flexibility Score: inf
ROOT
ATOM      1  C   UNL     1      81.348  53.492   9.495  1.00  0.00     0.000 C 
ENDROOT
BRANCH   1   2
ATOM      2  C   UNL     1      82.064  54.631   8.737  1.00  0.00     0.000 C 
BRANCH   2   3
ATOM      3  C   UNL     1      83.165  55.290   9.586  1.00  0.00     0.000 C 
BRANCH   3   4
ATOM      4  C   UNL     1      84.212  56.032   8.736  1.00  0.00     0.000 C 
BRANCH   4   5
ATOM      5  C   UNL     1      84.381  57.525   9.074  1.00  0.00     0.000 C 
BRANCH   5   6
ATOM      6  C   UNL     1      83.428  58.000  10.183  1.00  0.00     0.006 C 
BRANCH   6   7
ATOM      7  C   UNL     1      83.712  59.445  10.612  1.00  0.00     0.053 C 
BRANCH   7   8
ATOM      8  C   UNL     1      82.452  60.247  10.732  1.00  0.00     0.041 C 
ATOM      9  O   UNL     1      81.477  59.801  11.394  1.00  0.00    -0.550 OA
ATOM     10  O   UNL     1      82.339  61.468  10.079  1.00  0.00    -0.550 OA
ENDBRANCH   7   8
ENDBRANCH   6   7
ENDBRANCH   5   6
ENDBRANCH   4   5
ENDBRANCH   3   4
ENDBRANCH   2   3
ENDBRANCH   1   2
BRANCH   1  11
ATOM     11  C   UNL     1      80.081  52.982   8.790  1.00  0.00     0.000 C 
BRANCH  11  12
ATOM     12  C   UNL     1      79.537  53.973   7.748  1.00  0.00    -0.000 C 
BRANCH  12  13
ATOM     13  C   UNL     1      78.167  54.547   8.145  1.00  0.00    -0.000 C 
BRANCH  13  14
ATOM     14  C   UNL     1      78.103  56.076   7.985  1.00  0.00    -0.000 C 
BRANCH  14  15
ATOM     15  C   UNL     1      77.669  56.795   9.276  1.00  0.00    -0.000 C 
BRANCH  15  16
ATOM     16  C   UNL     1      78.786  57.575   9.998  1.00  0.00    -0.000 C 
BRANCH  16  17
ATOM     17  C   UNL     1      79.832  56.702  10.712  1.00  0.00    -0.003 C 
ATOM     18  C   UNL     1      79.207  55.688  11.669  1.00  0.00     0.004 C 
ENDBRANCH  16  17
ENDBRANCH  15  16
ENDBRANCH  14  15
ENDBRANCH  13  14
ENDBRANCH  12  13
ENDBRANCH  11  12
ENDBRANCH   1  11
TORSDOF 14
ENDMDL
MODEL 8
REMARK VINA RESULT:    -5.003      4.754      8.768
REMARK INTER + INTRA:          -9.922
REMARK INTER:                  -8.981
REMARK INTRA:                  -0.941
REMARK UNBOUND:                -0.825
REMARK SMILES CCCCCCCCCCCCCCCC(=O)[O-]
REMARK SMILES IDX 9 1 10 2 11 3 12 4 13 5 14 6 15 7 16 8 17 9 18 10 8 11 7 12
REMARK SMILES IDX 6 13 5 14 4 15 3 16 2 17 1 18
REMARK H PARENT
REMARK Flexibility Score: inf
ROOT
ATOM      1  C   UNL     1      81.420  59.484  10.693  1.00  0.00     0.000 C 
ENDROOT
BRANCH   1   2
ATOM      2  C   UNL     1      82.048  60.798  10.179  1.00  0.00     0.000 C 
BRANCH   2   3
ATOM      3  C   UNL     1      83.505  60.964  10.646  1.00  0.00     0.000 C 
BRANCH   3   4
ATOM      4  C   UNL     1      84.529  60.546   9.574  1.00  0.00     0.000 C 
BRANCH   4   5
ATOM      5  C   UNL     1      85.760  61.463   9.460  1.00  0.00     0.000 C 
BRANCH   5   6
ATOM      6  C   UNL     1      85.389  62.944   9.272  1.00  0.00     0.006 C 
BRANCH   6   7
ATOM      7  C   UNL     1      84.680  63.199   7.935  1.00  0.00     0.053 C 
BRANCH   7   8
ATOM      8  C   UNL     1      85.622  63.735   6.901  1.00  0.00     0.041 C 
ATOM      9  O   UNL     1      85.631  64.965   6.629  1.00  0.00    -0.550 OA
ATOM     10  O   UNL     1      86.459  62.871   6.207  1.00  0.00    -0.550 OA
ENDBRANCH   7   8
ENDBRANCH   6   7
ENDBRANCH   5   6
ENDBRANCH   4   5
ENDBRANCH   3   4
ENDBRANCH   2   3
ENDBRANCH   1   2
BRANCH   1  11
ATOM     11  C   UNL     1      79.920  59.354  10.382  1.00  0.00     0.000 C 
BRANCH  11  12
ATOM     12  C   UNL     1      79.437  57.895  10.371  1.00  0.00    -0.000 C 
BRANCH  12  13
ATOM     13  C   UNL     1      80.597  56.892  10.482  1.00  0.00    -0.000 C 
BRANCH  13  14
ATOM     14  C   UNL     1      80.113  55.431  10.460  1.00  0.00    -0.000 C 
BRANCH  14  15
ATOM     15  C   UNL     1      79.844  54.912   9.034  1.00  0.00    -0.000 C 
BRANCH  15  16
ATOM     16  C   UNL     1      78.360  54.665   8.697  1.00  0.00    -0.000 C 
BRANCH  16  17
ATOM     17  C   UNL     1      77.893  55.253   7.354  1.00  0.00    -0.003 C 
ATOM     18  C   UNL     1      77.732  56.772   7.394  1.00  0.00     0.004 C 
ENDBRANCH  16  17
ENDBRANCH  15  16
ENDBRANCH  14  15
ENDBRANCH  13  14
ENDBRANCH  12  13
ENDBRANCH  11  12
ENDBRANCH   1  11
TORSDOF 14
ENDMDL
MODEL 9
REMARK VINA RESULT:    -4.964      4.011      7.713
REMARK INTER + INTRA:          -9.851
REMARK INTER:                  -8.277
REMARK INTRA:                  -1.574
REMARK UNBOUND:                -0.825
REMARK SMILES CCCCCCCCCCCCCCCC(=O)[O-]
REMARK SMILES IDX 9 1 10 2 11 3 12 4 13 5 14 6 15 7 16 8 17 9 18 10 8 11 7 12
REMARK SMILES IDX 6 13 5 14 4 15 3 16 2 17 1 18
REMARK H PARENT
REMARK Flexibility Score: inf
ROOT
ATOM      1  C   UNL     1      78.074  55.510   7.587  1.00  0.00     0.000 C 
ENDROOT
BRANCH   1   2
ATOM      2  C   UNL     1      77.753  56.720   8.491  1.00  0.00     0.000 C 
BRANCH   2   3
ATOM      3  C   UNL     1      78.229  56.505   9.938  1.00  0.00     0.000 C 
BRANCH   3   4
ATOM      4  C   UNL     1      79.471  57.344  10.291  1.00  0.00     0.000 C 
BRANCH   4   5
ATOM      5  C   UNL     1      79.226  58.861  10.373  1.00  0.00     0.000 C 
BRANCH   5   6
ATOM      6  C   UNL     1      80.498  59.689  10.120  1.00  0.00     0.006 C 
BRANCH   6   7
ATOM      7  C   UNL     1      81.732  59.076  10.795  1.00  0.00     0.053 C 
BRANCH   7   8
ATOM      8  C   UNL     1      82.649  60.130  11.336  1.00  0.00     0.041 C 
ATOM      9  O   UNL     1      83.130  61.006  10.570  1.00  0.00    -0.550 OA
ATOM     10  O   UNL     1      83.006  60.119  12.679  1.00  0.00    -0.550 OA
ENDBRANCH   7   8
ENDBRANCH   6   7
ENDBRANCH   5   6
ENDBRANCH   4   5
ENDBRANCH   3   4
ENDBRANCH   2   3
ENDBRANCH   1   2
BRANCH   1  11
ATOM     11  C   UNL     1      78.467  54.245   8.366  1.00  0.00     0.000 C 
BRANCH  11  12
ATOM     12  C   UNL     1      79.343  53.285   7.544  1.00  0.00    -0.000 C 
BRANCH  12  13
ATOM     13  C   UNL     1      80.751  53.121   8.139  1.00  0.00    -0.000 C 
BRANCH  13  14
ATOM     14  C   UNL     1      81.372  54.467   8.554  1.00  0.00    -0.000 C 
BRANCH  14  15
ATOM     15  C   UNL     1      81.793  54.500  10.035  1.00  0.00    -0.000 C 
BRANCH  15  16
ATOM     16  C   UNL     1      81.153  53.413  10.922  1.00  0.00    -0.000 C 
BRANCH  16  17
ATOM     17  C   UNL     1      82.140  52.393  11.515  1.00  0.00    -0.003 C 
ATOM     18  C   UNL     1      83.600  52.738  11.222  1.00  0.00     0.004 C 
ENDBRANCH  16  17
ENDBRANCH  15  16
ENDBRANCH  14  15
ENDBRANCH  13  14
ENDBRANCH  12  13
ENDBRANCH  11  12
ENDBRANCH   1  11
TORSDOF 14
ENDMDL
