MODEL 1
REMARK VINA RESULT:    -5.388      0.000      0.000
REMARK INTER + INTRA:          -6.757
REMARK INTER:                  -6.491
REMARK INTRA:                  -0.266
REMARK UNBOUND:                -0.266
REMARK SMILES O=c1c(O)c(-c2ccc(O)c(O)c2)oc2cc(O)cc(O)c12
REMARK SMILES IDX 5 1 3 2 2 3 1 4 22 5 20 6 19 7 17 8 16 9 15 10 14 11 6 12
REMARK SMILES IDX 7 13 8 14 9 15 13 16 11 17 10 18 12 20 4 22 21 24 18 26
REMARK H PARENT 10 19 12 21 4 23 21 25 18 27
REMARK Flexibility Score: inf
ROOT
ATOM      1  C   UNL     1      13.876  -4.421  23.890  1.00  0.00     0.180 A 
ATOM      2  C   UNL     1      12.670  -4.777  23.263  1.00  0.00     0.208 A 
ATOM      3  C   UNL     1      12.016  -3.833  22.456  1.00  0.00     0.238 A 
ATOM      4  O   UNL     1      10.977  -4.181  21.838  1.00  0.00    -0.285 OA
ATOM      5  C   UNL     1      12.547  -2.525  22.331  1.00  0.00     0.111 A 
ATOM      6  C   UNL     1      11.945  -1.473  21.575  1.00  0.00     0.134 A 
ATOM      7  C   UNL     1      12.616  -0.252  21.436  1.00  0.00     0.093 A 
ATOM      8  C   UNL     1      13.835  -0.022  22.077  1.00  0.00     0.123 A 
ATOM      9  C   UNL     1      14.404  -1.023  22.861  1.00  0.00     0.094 A 
ATOM     10  C   UNL     1      13.778  -2.266  22.988  1.00  0.00     0.146 A 
ATOM     11  O   UNL     1      14.366  -3.198  23.727  1.00  0.00    -0.452 OA
ENDROOT
BRANCH   1  12
ATOM     12  C   UNL     1      14.630  -5.367  24.744  1.00  0.00     0.025 A 
ATOM     13  C   UNL     1      15.764  -6.011  24.224  1.00  0.00     0.016 A 
ATOM     14  C   UNL     1      16.479  -6.924  25.004  1.00  0.00     0.051 A 
ATOM     15  C   UNL     1      16.062  -7.216  26.310  1.00  0.00     0.157 A 
ATOM     16  C   UNL     1      14.202  -5.679  26.047  1.00  0.00     0.062 A 
ATOM     17  C   UNL     1      14.919  -6.597  26.830  1.00  0.00     0.158 A 
BRANCH  15  18
ATOM     18  O   UNL     1      16.773  -8.124  27.092  1.00  0.00    -0.504 OA
ATOM     19  H   UNL     1      17.553  -8.652  26.715  1.00  0.00     0.293 HD
ENDBRANCH  15  18
BRANCH  17  20
ATOM     20  O   UNL     1      14.497  -6.900  28.123  1.00  0.00    -0.504 OA
ATOM     21  H   UNL     1      15.144  -7.234  28.828  1.00  0.00     0.293 HD
ENDBRANCH  17  20
ENDBRANCH   1  12
BRANCH   2  22
ATOM     22  O   UNL     1      12.123  -6.048  23.461  1.00  0.00    -0.502 OA
ATOM     23  H   UNL     1      12.684  -6.843  23.745  1.00  0.00     0.293 HD
ENDBRANCH   2  22
BRANCH   6  24
ATOM     24  O   UNL     1      10.688  -1.565  20.967  1.00  0.00    -0.507 OA
ATOM     25  H   UNL     1      10.297  -0.876  20.343  1.00  0.00     0.293 HD
ENDBRANCH   6  24
BRANCH   8  26
ATOM     26  O   UNL     1      14.487   1.203  21.948  1.00  0.00    -0.508 OA
ATOM     27  H   UNL     1      14.366   1.941  22.630  1.00  0.00     0.293 HD
ENDBRANCH   8  26
TORSDOF 6
ENDMDL
MODEL 2
REMARK VINA RESULT:    -5.332      1.728      3.494
REMARK INTER + INTRA:          -6.689
REMARK INTER:                  -6.373
REMARK INTRA:                  -0.316
REMARK UNBOUND:                -0.266
REMARK SMILES O=c1c(O)c(-c2ccc(O)c(O)c2)oc2cc(O)cc(O)c12
REMARK SMILES IDX 5 1 3 2 2 3 1 4 22 5 20 6 19 7 17 8 16 9 15 10 14 11 6 12
REMARK SMILES IDX 7 13 8 14 9 15 13 16 11 17 10 18 12 20 4 22 21 24 18 26
REMARK H PARENT 10 19 12 21 4 23 21 25 18 27
REMARK Flexibility Score: inf
ROOT
ATOM      1  C   UNL     1      13.063  -4.779  24.029  1.00  0.00     0.180 A 
ATOM      2  C   UNL     1      13.434  -3.567  23.422  1.00  0.00     0.208 A 
ATOM      3  C   UNL     1      12.485  -2.868  22.658  1.00  0.00     0.238 A 
ATOM      4  O   UNL     1      12.801  -1.749  22.180  1.00  0.00    -0.285 OA
ATOM      5  C   UNL     1      11.195  -3.418  22.463  1.00  0.00     0.111 A 
ATOM      6  C   UNL     1      10.168  -2.820  21.671  1.00  0.00     0.134 A 
ATOM      7  C   UNL     1       8.894  -3.402  21.637  1.00  0.00     0.093 A 
ATOM      8  C   UNL     1       8.628  -4.594  22.314  1.00  0.00     0.123 A 
ATOM      9  C   UNL     1       9.638  -5.215  23.045  1.00  0.00     0.094 A 
ATOM     10  C   UNL     1      10.908  -4.639  23.130  1.00  0.00     0.146 A 
ATOM     11  O   UNL     1      11.835  -5.253  23.854  1.00  0.00    -0.452 OA
ENDROOT
BRANCH   1  12
ATOM     12  C   UNL     1      14.002  -5.565  24.861  1.00  0.00     0.025 A 
ATOM     13  C   UNL     1      14.871  -6.479  24.244  1.00  0.00     0.016 A 
ATOM     14  C   UNL     1      15.751  -7.246  25.011  1.00  0.00     0.051 A 
ATOM     15  C   UNL     1      15.765  -7.122  26.407  1.00  0.00     0.157 A 
ATOM     16  C   UNL     1      14.004  -5.457  26.263  1.00  0.00     0.062 A 
ATOM     17  C   UNL     1      14.887  -6.229  27.034  1.00  0.00     0.158 A 
BRANCH  15  18
ATOM     18  O   UNL     1      16.642  -7.883  27.176  1.00  0.00    -0.504 OA
ATOM     19  H   UNL     1      16.743  -7.731  28.173  1.00  0.00     0.293 HD
ENDBRANCH  15  18
BRANCH  17  20
ATOM     20  O   UNL     1      14.892  -6.117  28.423  1.00  0.00    -0.504 OA
ATOM     21  H   UNL     1      14.835  -6.933  29.022  1.00  0.00     0.293 HD
ENDBRANCH  17  20
ENDBRANCH   1  12
BRANCH   2  22
ATOM     22  O   UNL     1      14.736  -3.079  23.564  1.00  0.00    -0.502 OA
ATOM     23  H   UNL     1      15.490  -3.354  22.945  1.00  0.00     0.293 HD
ENDBRANCH   2  22
BRANCH   6  24
ATOM     24  O   UNL     1      10.350  -1.678  20.884  1.00  0.00    -0.507 OA
ATOM     25  H   UNL     1       9.658  -1.287  20.264  1.00  0.00     0.293 HD
ENDBRANCH   6  24
BRANCH   8  26
ATOM     26  O   UNL     1       7.363  -5.175  22.260  1.00  0.00    -0.508 OA
ATOM     27  H   UNL     1       6.563  -4.744  22.707  1.00  0.00     0.293 HD
ENDBRANCH   8  26
TORSDOF 6
ENDMDL
MODEL 3
REMARK VINA RESULT:    -5.322     10.996     13.466
REMARK INTER + INTRA:          -6.678
REMARK INTER:                  -6.419
REMARK INTRA:                  -0.259
REMARK UNBOUND:                -0.266
REMARK SMILES O=c1c(O)c(-c2ccc(O)c(O)c2)oc2cc(O)cc(O)c12
REMARK SMILES IDX 5 1 3 2 2 3 1 4 22 5 20 6 19 7 17 8 16 9 15 10 14 11 6 12
REMARK SMILES IDX 7 13 8 14 9 15 13 16 11 17 10 18 12 20 4 22 21 24 18 26
REMARK H PARENT 10 19 12 21 4 23 21 25 18 27
REMARK Flexibility Score: inf
ROOT
ATOM      1  C   UNL     1       8.216   6.374  26.492  1.00  0.00     0.180 A 
ATOM      2  C   UNL     1       7.986   5.303  27.372  1.00  0.00     0.208 A 
ATOM      3  C   UNL     1       6.846   5.326  28.192  1.00  0.00     0.238 A 
ATOM      4  O   UNL     1       6.608   4.330  28.922  1.00  0.00    -0.285 OA
ATOM      5  C   UNL     1       5.979   6.445  28.162  1.00  0.00     0.111 A 
ATOM      6  C   UNL     1       4.819   6.597  28.981  1.00  0.00     0.134 A 
ATOM      7  C   UNL     1       3.977   7.699  28.788  1.00  0.00     0.093 A 
ATOM      8  C   UNL     1       4.286   8.688  27.852  1.00  0.00     0.123 A 
ATOM      9  C   UNL     1       5.444   8.577  27.086  1.00  0.00     0.094 A 
ATOM     10  C   UNL     1       6.285   7.470  27.227  1.00  0.00     0.146 A 
ATOM     11  O   UNL     1       7.367   7.395  26.463  1.00  0.00    -0.452 OA
ENDROOT
BRANCH   1  12
ATOM     12  C   UNL     1       9.387   6.415  25.587  1.00  0.00     0.025 A 
ATOM     13  C   UNL     1      10.651   6.730  26.109  1.00  0.00     0.016 A 
ATOM     14  C   UNL     1      11.767   6.795  25.271  1.00  0.00     0.051 A 
ATOM     15  C   UNL     1      11.632   6.561  23.896  1.00  0.00     0.157 A 
ATOM     16  C   UNL     1       9.251   6.201  24.204  1.00  0.00     0.062 A 
ATOM     17  C   UNL     1      10.371   6.268  23.361  1.00  0.00     0.158 A 
BRANCH  15  18
ATOM     18  O   UNL     1      12.742   6.622  23.056  1.00  0.00    -0.504 OA
ATOM     19  H   UNL     1      13.474   7.310  23.195  1.00  0.00     0.293 HD
ENDBRANCH  15  18
BRANCH  17  20
ATOM     20  O   UNL     1      10.236   6.050  21.991  1.00  0.00    -0.504 OA
ATOM     21  H   UNL     1       9.465   5.513  21.612  1.00  0.00     0.293 HD
ENDBRANCH  17  20
ENDBRANCH   1  12
BRANCH   2  22
ATOM     22  O   UNL     1       8.895   4.243  27.442  1.00  0.00    -0.502 OA
ATOM     23  H   UNL     1       9.859   4.372  27.726  1.00  0.00     0.293 HD
ENDBRANCH   2  22
BRANCH   6  24
ATOM     24  O   UNL     1       4.463   5.714  30.006  1.00  0.00    -0.507 OA
ATOM     25  H   UNL     1       3.707   5.860  30.657  1.00  0.00     0.293 HD
ENDBRANCH   6  24
BRANCH   8  26
ATOM     26  O   UNL     1       3.452   9.790  27.679  1.00  0.00    -0.508 OA
ATOM     27  H   UNL     1       3.222  10.142  26.757  1.00  0.00     0.293 HD
ENDBRANCH   8  26
TORSDOF 6
ENDMDL
MODEL 4
REMARK VINA RESULT:    -5.320     16.947     18.187
REMARK INTER + INTRA:          -6.674
REMARK INTER:                  -6.535
REMARK INTRA:                  -0.140
REMARK UNBOUND:                -0.266
REMARK SMILES O=c1c(O)c(-c2ccc(O)c(O)c2)oc2cc(O)cc(O)c12
REMARK SMILES IDX 5 1 3 2 2 3 1 4 22 5 20 6 19 7 17 8 16 9 15 10 14 11 6 12
REMARK SMILES IDX 7 13 8 14 9 15 13 16 11 17 10 18 12 20 4 22 21 24 18 26
REMARK H PARENT 10 19 12 21 4 23 21 25 18 27
REMARK Flexibility Score: inf
ROOT
ATOM      1  C   UNL     1      14.920   6.401  37.826  1.00  0.00     0.180 A 
ATOM      2  C   UNL     1      14.854   6.352  39.229  1.00  0.00     0.208 A 
ATOM      3  C   UNL     1      13.635   6.636  39.864  1.00  0.00     0.238 A 
ATOM      4  O   UNL     1      13.564   6.518  41.115  1.00  0.00    -0.285 OA
ATOM      5  C   UNL     1      12.510   7.020  39.093  1.00  0.00     0.111 A 
ATOM      6  C   UNL     1      11.236   7.373  39.633  1.00  0.00     0.134 A 
ATOM      7  C   UNL     1      10.167   7.633  38.767  1.00  0.00     0.093 A 
ATOM      8  C   UNL     1      10.341   7.614  37.382  1.00  0.00     0.123 A 
ATOM      9  C   UNL     1      11.592   7.324  36.845  1.00  0.00     0.094 A 
ATOM     10  C   UNL     1      12.670   7.023  37.682  1.00  0.00     0.146 A 
ATOM     11  O   UNL     1      13.840   6.732  37.128  1.00  0.00    -0.452 OA
ENDROOT
BRANCH   1  12
ATOM     12  C   UNL     1      16.165   6.101  37.084  1.00  0.00     0.025 A 
ATOM     13  C   UNL     1      16.731   4.819  37.175  1.00  0.00     0.016 A 
ATOM     14  C   UNL     1      17.917   4.519  36.500  1.00  0.00     0.051 A 
ATOM     15  C   UNL     1      18.563   5.501  35.737  1.00  0.00     0.157 A 
ATOM     16  C   UNL     1      16.828   7.089  36.334  1.00  0.00     0.062 A 
ATOM     17  C   UNL     1      18.020   6.789  35.657  1.00  0.00     0.158 A 
BRANCH  15  18
ATOM     18  O   UNL     1      19.745   5.206  35.061  1.00  0.00    -0.504 OA
ATOM     19  H   UNL     1      19.969   4.260  34.772  1.00  0.00     0.293 HD
ENDBRANCH  15  18
BRANCH  17  20
ATOM     20  O   UNL     1      18.672   7.768  34.909  1.00  0.00    -0.504 OA
ATOM     21  H   UNL     1      19.541   7.575  34.425  1.00  0.00     0.293 HD
ENDBRANCH  17  20
ENDBRANCH   1  12
BRANCH   2  22
ATOM     22  O   UNL     1      15.995   6.046  39.976  1.00  0.00    -0.502 OA
ATOM     23  H   UNL     1      15.947   5.732  40.938  1.00  0.00     0.293 HD
ENDBRANCH   2  22
BRANCH   6  24
ATOM     24  O   UNL     1      10.976   7.507  41.001  1.00  0.00    -0.507 OA
ATOM     25  H   UNL     1      10.058   7.612  41.406  1.00  0.00     0.293 HD
ENDBRANCH   6  24
BRANCH   8  26
ATOM     26  O   UNL     1       9.275   7.891  36.528  1.00  0.00    -0.508 OA
ATOM     27  H   UNL     1       8.751   8.756  36.598  1.00  0.00     0.293 HD
ENDBRANCH   8  26
TORSDOF 6
ENDMDL
MODEL 5
REMARK VINA RESULT:    -5.294     10.303     11.987
REMARK INTER + INTRA:          -6.644
REMARK INTER:                  -6.456
REMARK INTRA:                  -0.187
REMARK UNBOUND:                -0.266
REMARK SMILES O=c1c(O)c(-c2ccc(O)c(O)c2)oc2cc(O)cc(O)c12
REMARK SMILES IDX 5 1 3 2 2 3 1 4 22 5 20 6 19 7 17 8 16 9 15 10 14 11 6 12
REMARK SMILES IDX 7 13 8 14 9 15 13 16 11 17 10 18 12 20 4 22 21 24 18 26
REMARK H PARENT 10 19 12 21 4 23 21 25 18 27
REMARK Flexibility Score: inf
ROOT
ATOM      1  C   UNL     1      10.526   6.399  24.816  1.00  0.00     0.180 A 
ATOM      2  C   UNL     1      10.684   5.516  23.734  1.00  0.00     0.208 A 
ATOM      3  C   UNL     1      11.739   5.726  22.831  1.00  0.00     0.238 A 
ATOM      4  O   UNL     1      11.919   4.890  21.909  1.00  0.00    -0.285 OA
ATOM      5  C   UNL     1      12.589   6.848  22.989  1.00  0.00     0.111 A 
ATOM      6  C   UNL     1      13.663   7.184  22.109  1.00  0.00     0.134 A 
ATOM      7  C   UNL     1      14.504   8.258  22.425  1.00  0.00     0.093 A 
ATOM      8  C   UNL     1      14.272   9.047  23.553  1.00  0.00     0.123 A 
ATOM      9  C   UNL     1      13.196   8.761  24.388  1.00  0.00     0.094 A 
ATOM     10  C   UNL     1      12.361   7.672  24.122  1.00  0.00     0.146 A 
ATOM     11  O   UNL     1      11.359   7.424  24.956  1.00  0.00    -0.452 OA
ENDROOT
BRANCH   1  12
ATOM     12  C   UNL     1       9.448   6.235  25.817  1.00  0.00     0.025 A 
ATOM     13  C   UNL     1       9.466   5.125  26.675  1.00  0.00     0.016 A 
ATOM     14  C   UNL     1       8.448   4.938  27.613  1.00  0.00     0.051 A 
ATOM     15  C   UNL     1       7.388   5.851  27.696  1.00  0.00     0.157 A 
ATOM     16  C   UNL     1       8.371   7.138  25.888  1.00  0.00     0.062 A 
ATOM     17  C   UNL     1       7.347   6.950  26.829  1.00  0.00     0.158 A 
BRANCH  15  18
ATOM     18  O   UNL     1       6.371   5.671  28.632  1.00  0.00    -0.504 OA
ATOM     19  H   UNL     1       6.402   6.118  29.541  1.00  0.00     0.293 HD
ENDBRANCH  15  18
BRANCH  17  20
ATOM     20  O   UNL     1       6.285   7.849  26.903  1.00  0.00    -0.504 OA
ATOM     21  H   UNL     1       5.570   7.769  27.617  1.00  0.00     0.293 HD
ENDBRANCH  17  20
ENDBRANCH   1  12
BRANCH   2  22
ATOM     22  O   UNL     1       9.788   4.459  23.553  1.00  0.00    -0.502 OA
ATOM     23  H   UNL     1       9.487   3.864  24.316  1.00  0.00     0.293 HD
ENDBRANCH   2  22
BRANCH   6  24
ATOM     24  O   UNL     1      13.929   6.517  20.908  1.00  0.00    -0.507 OA
ATOM     25  H   UNL     1      13.783   5.532  20.750  1.00  0.00     0.293 HD
ENDBRANCH   6  24
BRANCH   8  26
ATOM     26  O   UNL     1      15.104  10.125  23.850  1.00  0.00    -0.508 OA
ATOM     27  H   UNL     1      14.753  10.952  24.318  1.00  0.00     0.293 HD
ENDBRANCH   8  26
TORSDOF 6
ENDMDL
MODEL 6
REMARK VINA RESULT:    -5.188     15.744     17.178
REMARK INTER + INTRA:          -6.515
REMARK INTER:                  -6.227
REMARK INTRA:                  -0.288
REMARK UNBOUND:                -0.266
REMARK SMILES O=c1c(O)c(-c2ccc(O)c(O)c2)oc2cc(O)cc(O)c12
REMARK SMILES IDX 5 1 3 2 2 3 1 4 22 5 20 6 19 7 17 8 16 9 15 10 14 11 6 12
REMARK SMILES IDX 7 13 8 14 9 15 13 16 11 17 10 18 12 20 4 22 21 24 18 26
REMARK H PARENT 10 19 12 21 4 23 21 25 18 27
REMARK Flexibility Score: inf
ROOT
ATOM      1  C   UNL     1      17.088   6.383  35.994  1.00  0.00     0.180 A 
ATOM      2  C   UNL     1      17.404   5.241  35.239  1.00  0.00     0.208 A 
ATOM      3  C   UNL     1      18.569   5.243  34.455  1.00  0.00     0.238 A 
ATOM      4  O   UNL     1      18.885   4.192  33.841  1.00  0.00    -0.285 OA
ATOM      5  C   UNL     1      19.374   6.407  34.392  1.00  0.00     0.111 A 
ATOM      6  C   UNL     1      20.553   6.537  33.596  1.00  0.00     0.134 A 
ATOM      7  C   UNL     1      21.328   7.699  33.695  1.00  0.00     0.093 A 
ATOM      8  C   UNL     1      20.934   8.761  34.513  1.00  0.00     0.123 A 
ATOM      9  C   UNL     1      19.757   8.665  35.251  1.00  0.00     0.094 A 
ATOM     10  C   UNL     1      18.982   7.504  35.204  1.00  0.00     0.146 A 
ATOM     11  O   UNL     1      17.880   7.448  35.940  1.00  0.00    -0.452 OA
ENDROOT
BRANCH   1  12
ATOM     12  C   UNL     1      15.885   6.452  36.855  1.00  0.00     0.025 A 
ATOM     13  C   UNL     1      14.635   6.718  36.274  1.00  0.00     0.016 A 
ATOM     14  C   UNL     1      13.490   6.808  37.070  1.00  0.00     0.051 A 
ATOM     15  C   UNL     1      13.580   6.648  38.459  1.00  0.00     0.157 A 
ATOM     16  C   UNL     1      15.976   6.313  38.252  1.00  0.00     0.062 A 
ATOM     17  C   UNL     1      14.826   6.405  39.052  1.00  0.00     0.158 A 
BRANCH  15  18
ATOM     18  O   UNL     1      12.441   6.735  39.256  1.00  0.00    -0.504 OA
ATOM     19  H   UNL     1      11.564   7.090  38.891  1.00  0.00     0.293 HD
ENDBRANCH  15  18
BRANCH  17  20
ATOM     20  O   UNL     1      14.916   6.261  40.435  1.00  0.00    -0.504 OA
ATOM     21  H   UNL     1      14.089   6.190  41.016  1.00  0.00     0.293 HD
ENDBRANCH  17  20
ENDBRANCH   1  12
BRANCH   2  22
ATOM     22  O   UNL     1      16.556   4.130  35.256  1.00  0.00    -0.502 OA
ATOM     23  H   UNL     1      16.286   3.639  34.411  1.00  0.00     0.293 HD
ENDBRANCH   2  22
BRANCH   6  24
ATOM     24  O   UNL     1      20.990   5.574  32.680  1.00  0.00    -0.507 OA
ATOM     25  H   UNL     1      21.532   5.769  31.853  1.00  0.00     0.293 HD
ENDBRANCH   6  24
BRANCH   8  26
ATOM     26  O   UNL     1      21.702   9.920  34.591  1.00  0.00    -0.508 OA
ATOM     27  H   UNL     1      22.524  10.051  34.013  1.00  0.00     0.293 HD
ENDBRANCH   8  26
TORSDOF 6
ENDMDL
MODEL 7
REMARK VINA RESULT:    -5.181     13.342     15.980
REMARK INTER + INTRA:          -6.508
REMARK INTER:                  -6.185
REMARK INTRA:                  -0.323
REMARK UNBOUND:                -0.266
REMARK SMILES O=c1c(O)c(-c2ccc(O)c(O)c2)oc2cc(O)cc(O)c12
REMARK SMILES IDX 5 1 3 2 2 3 1 4 22 5 20 6 19 7 17 8 16 9 15 10 14 11 6 12
REMARK SMILES IDX 7 13 8 14 9 15 13 16 11 17 10 18 12 20 4 22 21 24 18 26
REMARK H PARENT 10 19 12 21 4 23 21 25 18 27
REMARK Flexibility Score: inf
ROOT
ATOM      1  C   UNL     1      11.069  -4.429  38.709  1.00  0.00     0.180 A 
ATOM      2  C   UNL     1      12.285  -4.701  39.358  1.00  0.00     0.208 A 
ATOM      3  C   UNL     1      12.961  -3.656  40.007  1.00  0.00     0.238 A 
ATOM      4  O   UNL     1      14.010  -3.921  40.649  1.00  0.00    -0.285 OA
ATOM      5  C   UNL     1      12.442  -2.339  39.951  1.00  0.00     0.111 A 
ATOM      6  C   UNL     1      13.066  -1.194  40.534  1.00  0.00     0.134 A 
ATOM      7  C   UNL     1      12.406   0.041  40.506  1.00  0.00     0.093 A 
ATOM      8  C   UNL     1      11.175   0.186  39.862  1.00  0.00     0.123 A 
ATOM      9  C   UNL     1      10.585  -0.912  39.243  1.00  0.00     0.094 A 
ATOM     10  C   UNL     1      11.199  -2.166  39.287  1.00  0.00     0.146 A 
ATOM     11  O   UNL     1      10.591  -3.190  38.701  1.00  0.00    -0.452 OA
ENDROOT
BRANCH   1  12
ATOM     12  C   UNL     1      10.292  -5.481  38.016  1.00  0.00     0.025 A 
ATOM     13  C   UNL     1       9.344  -6.226  38.736  1.00  0.00     0.016 A 
ATOM     14  C   UNL     1       8.614  -7.238  38.109  1.00  0.00     0.051 A 
ATOM     15  C   UNL     1       8.831  -7.530  36.755  1.00  0.00     0.157 A 
ATOM     16  C   UNL     1      10.522  -5.792  36.664  1.00  0.00     0.062 A 
ATOM     17  C   UNL     1       9.790  -6.809  36.033  1.00  0.00     0.158 A 
BRANCH  15  18
ATOM     18  O   UNL     1       8.104  -8.537  36.125  1.00  0.00    -0.504 OA
ATOM     19  H   UNL     1       7.429  -8.328  35.397  1.00  0.00     0.293 HD
ENDBRANCH  15  18
BRANCH  17  20
ATOM     20  O   UNL     1      10.015  -7.112  34.691  1.00  0.00    -0.504 OA
ATOM     21  H   UNL     1      10.790  -7.696  34.402  1.00  0.00     0.293 HD
ENDBRANCH  17  20
ENDBRANCH   1  12
BRANCH   2  22
ATOM     22  O   UNL     1      12.820  -5.993  39.337  1.00  0.00    -0.502 OA
ATOM     23  H   UNL     1      13.406  -6.326  38.580  1.00  0.00     0.293 HD
ENDBRANCH   2  22
BRANCH   6  24
ATOM     24  O   UNL     1      14.334  -1.209  41.125  1.00  0.00    -0.507 OA
ATOM     25  H   UNL     1      14.558  -0.801  42.020  1.00  0.00     0.293 HD
ENDBRANCH   6  24
BRANCH   8  26
ATOM     26  O   UNL     1      10.534   1.423  39.825  1.00  0.00    -0.508 OA
ATOM     27  H   UNL     1      10.585   2.021  39.009  1.00  0.00     0.293 HD
ENDBRANCH   8  26
TORSDOF 6
ENDMDL
MODEL 8
REMARK VINA RESULT:    -5.165     10.788     13.829
REMARK INTER + INTRA:          -6.488
REMARK INTER:                  -6.190
REMARK INTRA:                  -0.298
REMARK UNBOUND:                -0.266
REMARK SMILES O=c1c(O)c(-c2ccc(O)c(O)c2)oc2cc(O)cc(O)c12
REMARK SMILES IDX 5 1 3 2 2 3 1 4 22 5 20 6 19 7 17 8 16 9 15 10 14 11 6 12
REMARK SMILES IDX 7 13 8 14 9 15 13 16 11 17 10 18 12 20 4 22 21 24 18 26
REMARK H PARENT 10 19 12 21 4 23 21 25 18 27
REMARK Flexibility Score: inf
ROOT
ATOM      1  C   UNL     1       6.592   6.521  26.897  1.00  0.00     0.180 A 
ATOM      2  C   UNL     1       6.142   5.258  26.476  1.00  0.00     0.208 A 
ATOM      3  C   UNL     1       7.008   4.435  25.739  1.00  0.00     0.238 A 
ATOM      4  O   UNL     1       6.625   3.278  25.430  1.00  0.00    -0.285 OA
ATOM      5  C   UNL     1       8.295   4.908  25.384  1.00  0.00     0.111 A 
ATOM      6  C   UNL     1       9.241   4.178  24.601  1.00  0.00     0.134 A 
ATOM      7  C   UNL     1      10.524   4.703  24.402  1.00  0.00     0.093 A 
ATOM      8  C   UNL     1      10.875   5.959  24.902  1.00  0.00     0.123 A 
ATOM      9  C   UNL     1       9.942   6.702  25.620  1.00  0.00     0.094 A 
ATOM     10  C   UNL     1       8.666   6.190  25.869  1.00  0.00     0.146 A 
ATOM     11  O   UNL     1       7.816   6.923  26.576  1.00  0.00    -0.452 OA
ENDROOT
BRANCH   1  12
ATOM     12  C   UNL     1       5.741   7.438  27.689  1.00  0.00     0.025 A 
ATOM     13  C   UNL     1       5.161   8.553  27.065  1.00  0.00     0.016 A 
ATOM     14  C   UNL     1       4.373   9.444  27.797  1.00  0.00     0.051 A 
ATOM     15  C   UNL     1       4.165   9.241  29.168  1.00  0.00     0.157 A 
ATOM     16  C   UNL     1       5.548   7.249  29.070  1.00  0.00     0.062 A 
ATOM     17  C   UNL     1       4.757   8.144  29.806  1.00  0.00     0.158 A 
BRANCH  15  18
ATOM     18  O   UNL     1       3.377  10.125  29.902  1.00  0.00    -0.504 OA
ATOM     19  H   UNL     1       3.758  10.653  30.680  1.00  0.00     0.293 HD
ENDBRANCH  15  18
BRANCH  17  20
ATOM     20  O   UNL     1       4.562   7.952  31.173  1.00  0.00    -0.504 OA
ATOM     21  H   UNL     1       4.611   8.722  31.830  1.00  0.00     0.293 HD
ENDBRANCH  17  20
ENDBRANCH   1  12
BRANCH   2  22
ATOM     22  O   UNL     1       4.841   4.841  26.772  1.00  0.00    -0.502 OA
ATOM     23  H   UNL     1       4.629   4.230  27.553  1.00  0.00     0.293 HD
ENDBRANCH   2  22
BRANCH   6  24
ATOM     24  O   UNL     1       8.966   2.955  23.980  1.00  0.00    -0.507 OA
ATOM     25  H   UNL     1       9.462   2.589  23.181  1.00  0.00     0.293 HD
ENDBRANCH   6  24
BRANCH   8  26
ATOM     26  O   UNL     1      12.148   6.481  24.684  1.00  0.00    -0.508 OA
ATOM     27  H   UNL     1      12.933   6.225  25.272  1.00  0.00     0.293 HD
ENDBRANCH   8  26
TORSDOF 6
ENDMDL
MODEL 9
REMARK VINA RESULT:    -5.127     15.982     17.533
REMARK INTER + INTRA:          -6.443
REMARK INTER:                  -6.130
REMARK INTRA:                  -0.313
REMARK UNBOUND:                -0.266
REMARK SMILES O=c1c(O)c(-c2ccc(O)c(O)c2)oc2cc(O)cc(O)c12
REMARK SMILES IDX 5 1 3 2 2 3 1 4 22 5 20 6 19 7 17 8 16 9 15 10 14 11 6 12
REMARK SMILES IDX 7 13 8 14 9 15 13 16 11 17 10 18 12 20 4 22 21 24 18 26
REMARK H PARENT 10 19 12 21 4 23 21 25 18 27
REMARK Flexibility Score: inf
ROOT
ATOM      1  C   UNL     1      18.620   6.558  35.590  1.00  0.00     0.180 A 
ATOM      2  C   UNL     1      19.062   5.300  36.035  1.00  0.00     0.208 A 
ATOM      3  C   UNL     1      18.180   4.486  36.763  1.00  0.00     0.238 A 
ATOM      4  O   UNL     1      18.556   3.332  37.093  1.00  0.00    -0.285 OA
ATOM      5  C   UNL     1      16.886   4.962  37.086  1.00  0.00     0.111 A 
ATOM      6  C   UNL     1      15.924   4.241  37.857  1.00  0.00     0.134 A 
ATOM      7  C   UNL     1      14.637   4.768  38.023  1.00  0.00     0.093 A 
ATOM      8  C   UNL     1      14.296   6.017  37.501  1.00  0.00     0.123 A 
ATOM      9  C   UNL     1      15.244   6.753  36.794  1.00  0.00     0.094 A 
ATOM     10  C   UNL     1      16.525   6.238  36.578  1.00  0.00     0.146 A 
ATOM     11  O   UNL     1      17.390   6.963  35.881  1.00  0.00    -0.452 OA
ENDROOT
BRANCH   1  12
ATOM     12  C   UNL     1      19.487   7.466  34.805  1.00  0.00     0.025 A 
ATOM     13  C   UNL     1      20.374   8.323  35.475  1.00  0.00     0.016 A 
ATOM     14  C   UNL     1      21.187   9.203  34.756  1.00  0.00     0.051 A 
ATOM     15  C   UNL     1      21.113   9.250  33.357  1.00  0.00     0.157 A 
ATOM     16  C   UNL     1      19.400   7.531  33.403  1.00  0.00     0.062 A 
ATOM     17  C   UNL     1      20.215   8.416  32.680  1.00  0.00     0.158 A 
BRANCH  15  18
ATOM     18  O   UNL     1      21.922  10.125  32.636  1.00  0.00    -0.504 OA
ATOM     19  H   UNL     1      21.914  11.123  32.813  1.00  0.00     0.293 HD
ENDBRANCH  15  18
BRANCH  17  20
ATOM     20  O   UNL     1      20.131   8.475  31.290  1.00  0.00    -0.504 OA
ATOM     21  H   UNL     1      19.475   7.902  30.773  1.00  0.00     0.293 HD
ENDBRANCH  17  20
ENDBRANCH   1  12
BRANCH   2  22
ATOM     22  O   UNL     1      20.369   4.880  35.771  1.00  0.00    -0.502 OA
ATOM     23  H   UNL     1      20.631   3.901  35.743  1.00  0.00     0.293 HD
ENDBRANCH   2  22
BRANCH   6  24
ATOM     24  O   UNL     1      16.185   3.025  38.498  1.00  0.00    -0.507 OA
ATOM     25  H   UNL     1      15.738   2.149  38.279  1.00  0.00     0.293 HD
ENDBRANCH   6  24
BRANCH   8  26
ATOM     26  O   UNL     1      13.018   6.541  37.686  1.00  0.00    -0.508 OA
ATOM     27  H   UNL     1      12.416   6.758  36.901  1.00  0.00     0.293 HD
ENDBRANCH   8  26
TORSDOF 6
ENDMDL
