MODEL 1
REMARK VINA RESULT:    -7.735      0.000      0.000
REMARK INTER + INTRA:          -8.866
REMARK INTER:                  -9.091
REMARK INTRA:                   0.225
REMARK UNBOUND:                 0.225
REMARK SMILES O=c1c(O)c(-c2ccc(O)cc2)oc2cc(O)cc(O)c12
REMARK SMILES IDX 5 1 3 2 2 3 1 4 21 5 19 6 18 7 16 8 15 9 14 10 13 11 6 12
REMARK SMILES IDX 7 13 8 14 9 15 12 16 11 17 10 18 4 20 20 22 17 24
REMARK H PARENT 10 19 4 21 20 23 17 25
REMARK Flexibility Score: inf
ROOT
ATOM      1  C   UNL     1      29.089  23.501  48.744  1.00  0.00     0.180 A 
ATOM      2  C   UNL     1      30.434  23.107  48.848  1.00  0.00     0.208 A 
ATOM      3  C   UNL     1      30.907  22.620  50.078  1.00  0.00     0.238 A 
ATOM      4  O   UNL     1      32.125  22.319  50.180  1.00  0.00    -0.285 OA
ATOM      5  C   UNL     1      30.026  22.519  51.182  1.00  0.00     0.111 A 
ATOM      6  C   UNL     1      30.387  22.003  52.462  1.00  0.00     0.134 A 
ATOM      7  C   UNL     1      29.470  22.070  53.517  1.00  0.00     0.093 A 
ATOM      8  C   UNL     1      28.182  22.576  53.322  1.00  0.00     0.123 A 
ATOM      9  C   UNL     1      27.801  23.028  52.061  1.00  0.00     0.094 A 
ATOM     10  C   UNL     1      28.706  23.006  50.996  1.00  0.00     0.146 A 
ATOM     11  O   UNL     1      28.305  23.456  49.814  1.00  0.00    -0.452 OA
ENDROOT
BRANCH   1  12
ATOM     12  C   UNL     1      28.511  24.000  47.474  1.00  0.00     0.021 A 
ATOM     13  C   UNL     1      27.212  23.613  47.107  1.00  0.00     0.016 A 
ATOM     14  C   UNL     1      26.655  24.054  45.902  1.00  0.00     0.047 A 
ATOM     15  C   UNL     1      27.397  24.877  45.044  1.00  0.00     0.115 A 
ATOM     16  C   UNL     1      29.257  24.810  46.598  1.00  0.00     0.016 A 
ATOM     17  C   UNL     1      28.697  25.249  45.394  1.00  0.00     0.047 A 
BRANCH  15  18
ATOM     18  O   UNL     1      26.852  25.323  43.842  1.00  0.00    -0.508 OA
ATOM     19  H   UNL     1      27.361  25.949  43.230  1.00  0.00     0.293 HD
ENDBRANCH  15  18
ENDBRANCH   1  12
BRANCH   2  20
ATOM     20  O   UNL     1      31.292  23.236  47.753  1.00  0.00    -0.502 OA
ATOM     21  H   UNL     1      30.982  23.590  46.857  1.00  0.00     0.293 HD
ENDBRANCH   2  20
BRANCH   6  22
ATOM     22  O   UNL     1      31.613  21.392  52.739  1.00  0.00    -0.507 OA
ATOM     23  H   UNL     1      31.897  20.487  52.394  1.00  0.00     0.293 HD
ENDBRANCH   6  22
BRANCH   8  24
ATOM     24  O   UNL     1      27.271  22.627  54.375  1.00  0.00    -0.508 OA
ATOM     25  H   UNL     1      27.578  22.670  55.340  1.00  0.00     0.293 HD
ENDBRANCH   8  24
TORSDOF 5
ENDMDL
MODEL 2
REMARK VINA RESULT:    -7.065      1.758      7.064
REMARK INTER + INTRA:          -8.079
REMARK INTER:                  -7.836
REMARK INTRA:                  -0.243
REMARK UNBOUND:                 0.225
REMARK SMILES O=c1c(O)c(-c2ccc(O)cc2)oc2cc(O)cc(O)c12
REMARK SMILES IDX 5 1 3 2 2 3 1 4 21 5 19 6 18 7 16 8 15 9 14 10 13 11 6 12
REMARK SMILES IDX 7 13 8 14 9 15 12 16 11 17 10 18 4 20 20 22 17 24
REMARK H PARENT 10 19 4 21 20 23 17 25
REMARK Flexibility Score: inf
ROOT
ATOM      1  C   UNL     1      29.212  23.342  50.313  1.00  0.00     0.180 A 
ATOM      2  C   UNL     1      27.818  23.218  50.177  1.00  0.00     0.208 A 
ATOM      3  C   UNL     1      27.222  23.548  48.949  1.00  0.00     0.238 A 
ATOM      4  O   UNL     1      25.969  23.487  48.851  1.00  0.00    -0.285 OA
ATOM      5  C   UNL     1      28.027  23.982  47.869  1.00  0.00     0.111 A 
ATOM      6  C   UNL     1      27.534  24.304  46.569  1.00  0.00     0.134 A 
ATOM      7  C   UNL     1      28.404  24.847  45.616  1.00  0.00     0.093 A 
ATOM      8  C   UNL     1      29.762  25.019  45.894  1.00  0.00     0.123 A 
ATOM      9  C   UNL     1      30.264  24.652  47.141  1.00  0.00     0.094 A 
ATOM     10  C   UNL     1      29.414  24.141  48.125  1.00  0.00     0.146 A 
ATOM     11  O   UNL     1      29.932  23.814  49.303  1.00  0.00    -0.452 OA
ENDROOT
BRANCH   1  12
ATOM     12  C   UNL     1      29.915  22.989  51.568  1.00  0.00     0.021 A 
ATOM     13  C   UNL     1      29.902  23.891  52.645  1.00  0.00     0.016 A 
ATOM     14  C   UNL     1      30.579  23.588  53.831  1.00  0.00     0.047 A 
ATOM     15  C   UNL     1      31.289  22.386  53.948  1.00  0.00     0.115 A 
ATOM     16  C   UNL     1      30.648  21.794  51.686  1.00  0.00     0.016 A 
ATOM     17  C   UNL     1      31.324  21.495  52.873  1.00  0.00     0.047 A 
BRANCH  15  18
ATOM     18  O   UNL     1      31.966  22.074  55.125  1.00  0.00    -0.508 OA
ATOM     19  H   UNL     1      31.869  22.641  55.959  1.00  0.00     0.293 HD
ENDBRANCH  15  18
ENDBRANCH   1  12
BRANCH   2  20
ATOM     20  O   UNL     1      27.039  22.809  51.263  1.00  0.00    -0.502 OA
ATOM     21  H   UNL     1      27.152  21.905  51.704  1.00  0.00     0.293 HD
ENDBRANCH   2  20
BRANCH   6  22
ATOM     22  O   UNL     1      26.217  24.085  46.158  1.00  0.00    -0.507 OA
ATOM     23  H   UNL     1      25.600  24.798  45.799  1.00  0.00     0.293 HD
ENDBRANCH   6  22
BRANCH   8  24
ATOM     24  O   UNL     1      30.624  25.546  44.935  1.00  0.00    -0.508 OA
ATOM     25  H   UNL     1      30.542  26.506  44.619  1.00  0.00     0.293 HD
ENDBRANCH   8  24
TORSDOF 5
ENDMDL
MODEL 3
REMARK VINA RESULT:    -7.026      1.606      2.850
REMARK INTER + INTRA:          -8.033
REMARK INTER:                  -8.549
REMARK INTRA:                   0.515
REMARK UNBOUND:                 0.225
REMARK SMILES O=c1c(O)c(-c2ccc(O)cc2)oc2cc(O)cc(O)c12
REMARK SMILES IDX 5 1 3 2 2 3 1 4 21 5 19 6 18 7 16 8 15 9 14 10 13 11 6 12
REMARK SMILES IDX 7 13 8 14 9 15 12 16 11 17 10 18 4 20 20 22 17 24
REMARK H PARENT 10 19 4 21 20 23 17 25
REMARK Flexibility Score: inf
ROOT
ATOM      1  C   UNL     1      28.239  23.715  49.364  1.00  0.00     0.180 A 
ATOM      2  C   UNL     1      27.198  22.992  49.970  1.00  0.00     0.208 A 
ATOM      3  C   UNL     1      27.315  22.634  51.323  1.00  0.00     0.238 A 
ATOM      4  O   UNL     1      26.404  21.940  51.846  1.00  0.00    -0.285 OA
ATOM      5  C   UNL     1      28.464  23.017  52.056  1.00  0.00     0.111 A 
ATOM      6  C   UNL     1      28.669  22.743  53.441  1.00  0.00     0.134 A 
ATOM      7  C   UNL     1      29.900  23.055  54.032  1.00  0.00     0.093 A 
ATOM      8  C   UNL     1      30.909  23.691  53.303  1.00  0.00     0.123 A 
ATOM      9  C   UNL     1      30.695  24.015  51.966  1.00  0.00     0.094 A 
ATOM     10  C   UNL     1      29.490  23.684  51.339  1.00  0.00     0.146 A 
ATOM     11  O   UNL     1      29.332  24.002  50.060  1.00  0.00    -0.452 OA
ENDROOT
BRANCH   1  12
ATOM     12  C   UNL     1      28.177  24.150  47.949  1.00  0.00     0.021 A 
ATOM     13  C   UNL     1      26.949  24.108  47.267  1.00  0.00     0.016 A 
ATOM     14  C   UNL     1      26.873  24.493  45.924  1.00  0.00     0.047 A 
ATOM     15  C   UNL     1      28.024  24.910  45.245  1.00  0.00     0.115 A 
ATOM     16  C   UNL     1      29.332  24.550  47.254  1.00  0.00     0.016 A 
ATOM     17  C   UNL     1      29.252  24.933  45.912  1.00  0.00     0.047 A 
BRANCH  15  18
ATOM     18  O   UNL     1      27.959  25.295  43.907  1.00  0.00    -0.508 OA
ATOM     19  H   UNL     1      27.330  24.843  43.255  1.00  0.00     0.293 HD
ENDBRANCH  15  18
ENDBRANCH   1  12
BRANCH   2  20
ATOM     20  O   UNL     1      26.082  22.604  49.222  1.00  0.00    -0.502 OA
ATOM     21  H   UNL     1      26.045  22.694  48.215  1.00  0.00     0.293 HD
ENDBRANCH   2  20
BRANCH   6  22
ATOM     22  O   UNL     1      27.695  22.197  54.282  1.00  0.00    -0.507 OA
ATOM     23  H   UNL     1      27.883  21.567  55.047  1.00  0.00     0.293 HD
ENDBRANCH   6  22
BRANCH   8  24
ATOM     24  O   UNL     1      32.125  24.011  53.902  1.00  0.00    -0.508 OA
ATOM     25  H   UNL     1      32.584  23.374  54.542  1.00  0.00     0.293 HD
ENDBRANCH   8  24
TORSDOF 5
ENDMDL
MODEL 4
REMARK VINA RESULT:    -6.652      1.298      6.453
REMARK INTER + INTRA:          -7.594
REMARK INTER:                  -7.521
REMARK INTRA:                  -0.073
REMARK UNBOUND:                 0.225
REMARK SMILES O=c1c(O)c(-c2ccc(O)cc2)oc2cc(O)cc(O)c12
REMARK SMILES IDX 5 1 3 2 2 3 1 4 21 5 19 6 18 7 16 8 15 9 14 10 13 11 6 12
REMARK SMILES IDX 7 13 8 14 9 15 12 16 11 17 10 18 4 20 20 22 17 24
REMARK H PARENT 10 19 4 21 20 23 17 25
REMARK Flexibility Score: inf
ROOT
ATOM      1  C   UNL     1      29.011  23.618  49.685  1.00  0.00     0.180 A 
ATOM      2  C   UNL     1      30.308  23.630  49.145  1.00  0.00     0.208 A 
ATOM      3  C   UNL     1      30.486  24.027  47.809  1.00  0.00     0.238 A 
ATOM      4  O   UNL     1      31.642  23.984  47.315  1.00  0.00    -0.285 OA
ATOM      5  C   UNL     1      29.366  24.422  47.037  1.00  0.00     0.111 A 
ATOM      6  C   UNL     1      29.435  24.880  45.688  1.00  0.00     0.134 A 
ATOM      7  C   UNL     1      28.251  25.121  44.980  1.00  0.00     0.093 A 
ATOM      8  C   UNL     1      27.003  24.981  45.593  1.00  0.00     0.123 A 
ATOM      9  C   UNL     1      26.929  24.591  46.928  1.00  0.00     0.094 A 
ATOM     10  C   UNL     1      28.092  24.309  47.650  1.00  0.00     0.146 A 
ATOM     11  O   UNL     1      27.975  23.930  48.917  1.00  0.00    -0.452 OA
ENDROOT
BRANCH   1  12
ATOM     12  C   UNL     1      28.748  23.236  51.092  1.00  0.00     0.021 A 
ATOM     13  C   UNL     1      27.813  22.224  51.370  1.00  0.00     0.016 A 
ATOM     14  C   UNL     1      27.532  21.863  52.692  1.00  0.00     0.047 A 
ATOM     15  C   UNL     1      28.172  22.519  53.751  1.00  0.00     0.115 A 
ATOM     16  C   UNL     1      29.370  23.904  52.162  1.00  0.00     0.016 A 
ATOM     17  C   UNL     1      29.086  23.541  53.482  1.00  0.00     0.047 A 
BRANCH  15  18
ATOM     18  O   UNL     1      27.900  22.168  55.072  1.00  0.00    -0.508 OA
ATOM     19  H   UNL     1      28.519  21.561  55.597  1.00  0.00     0.293 HD
ENDBRANCH  15  18
ENDBRANCH   1  12
BRANCH   2  20
ATOM     20  O   UNL     1      31.397  23.215  49.917  1.00  0.00    -0.502 OA
ATOM     21  H   UNL     1      32.355  23.413  49.658  1.00  0.00     0.293 HD
ENDBRANCH   2  20
BRANCH   6  22
ATOM     22  O   UNL     1      30.630  25.141  45.012  1.00  0.00    -0.507 OA
ATOM     23  H   UNL     1      30.741  25.833  44.286  1.00  0.00     0.293 HD
ENDBRANCH   6  22
BRANCH   8  24
ATOM     24  O   UNL     1      25.831  25.237  44.885  1.00  0.00    -0.508 OA
ATOM     25  H   UNL     1      25.710  26.089  44.350  1.00  0.00     0.293 HD
ENDBRANCH   8  24
TORSDOF 5
ENDMDL
MODEL 5
REMARK VINA RESULT:    -6.437     12.966     15.667
REMARK INTER + INTRA:          -7.342
REMARK INTER:                  -7.059
REMARK INTRA:                  -0.282
REMARK UNBOUND:                 0.225
REMARK SMILES O=c1c(O)c(-c2ccc(O)cc2)oc2cc(O)cc(O)c12
REMARK SMILES IDX 5 1 3 2 2 3 1 4 21 5 19 6 18 7 16 8 15 9 14 10 13 11 6 12
REMARK SMILES IDX 7 13 8 14 9 15 12 16 11 17 10 18 4 20 20 22 17 24
REMARK H PARENT 10 19 4 21 20 23 17 25
REMARK Flexibility Score: inf
ROOT
ATOM      1  C   UNL     1      16.317  28.842  52.097  1.00  0.00     0.180 A 
ATOM      2  C   UNL     1      15.001  28.943  52.580  1.00  0.00     0.208 A 
ATOM      3  C   UNL     1      13.941  28.511  51.765  1.00  0.00     0.238 A 
ATOM      4  O   UNL     1      12.762  28.653  52.181  1.00  0.00    -0.285 OA
ATOM      5  C   UNL     1      14.213  27.971  50.485  1.00  0.00     0.111 A 
ATOM      6  C   UNL     1      13.221  27.466  49.592  1.00  0.00     0.134 A 
ATOM      7  C   UNL     1      13.591  27.075  48.299  1.00  0.00     0.093 A 
ATOM      8  C   UNL     1      14.926  27.109  47.889  1.00  0.00     0.123 A 
ATOM      9  C   UNL     1      15.909  27.545  48.775  1.00  0.00     0.094 A 
ATOM     10  C   UNL     1      15.567  27.976  50.059  1.00  0.00     0.146 A 
ATOM     11  O   UNL     1      16.534  28.393  50.867  1.00  0.00    -0.452 OA
ENDROOT
BRANCH   1  12
ATOM     12  C   UNL     1      17.487  29.253  52.907  1.00  0.00     0.021 A 
ATOM     13  C   UNL     1      17.909  30.593  52.882  1.00  0.00     0.016 A 
ATOM     14  C   UNL     1      19.025  30.998  53.622  1.00  0.00     0.047 A 
ATOM     15  C   UNL     1      19.740  30.065  54.384  1.00  0.00     0.115 A 
ATOM     16  C   UNL     1      18.222  28.319  53.659  1.00  0.00     0.016 A 
ATOM     17  C   UNL     1      19.338  28.727  54.397  1.00  0.00     0.047 A 
BRANCH  15  18
ATOM     18  O   UNL     1      20.853  30.458  55.125  1.00  0.00    -0.508 OA
ATOM     19  H   UNL     1      20.801  31.212  55.799  1.00  0.00     0.293 HD
ENDBRANCH  15  18
ENDBRANCH   1  12
BRANCH   2  20
ATOM     20  O   UNL     1      14.753  29.500  53.838  1.00  0.00    -0.502 OA
ATOM     21  H   UNL     1      13.824  29.759  54.145  1.00  0.00     0.293 HD
ENDBRANCH   2  20
BRANCH   6  22
ATOM     22  O   UNL     1      11.875  27.302  49.932  1.00  0.00    -0.507 OA
ATOM     23  H   UNL     1      11.365  26.435  49.859  1.00  0.00     0.293 HD
ENDBRANCH   6  22
BRANCH   8  24
ATOM     24  O   UNL     1      15.287  26.705  46.606  1.00  0.00    -0.508 OA
ATOM     25  H   UNL     1      15.017  27.237  45.787  1.00  0.00     0.293 HD
ENDBRANCH   8  24
TORSDOF 5
ENDMDL
MODEL 6
REMARK VINA RESULT:    -6.366     11.543     13.217
REMARK INTER + INTRA:          -7.257
REMARK INTER:                  -7.026
REMARK INTRA:                  -0.231
REMARK UNBOUND:                 0.225
REMARK SMILES O=c1c(O)c(-c2ccc(O)cc2)oc2cc(O)cc(O)c12
REMARK SMILES IDX 5 1 3 2 2 3 1 4 21 5 19 6 18 7 16 8 15 9 14 10 13 11 6 12
REMARK SMILES IDX 7 13 8 14 9 15 12 16 11 17 10 18 4 20 20 22 17 24
REMARK H PARENT 10 19 4 21 20 23 17 25
REMARK Flexibility Score: inf
ROOT
ATOM      1  C   UNL     1      16.386  26.900  51.511  1.00  0.00     0.180 A 
ATOM      2  C   UNL     1      17.151  27.774  52.302  1.00  0.00     0.208 A 
ATOM      3  C   UNL     1      18.151  27.243  53.134  1.00  0.00     0.238 A 
ATOM      4  O   UNL     1      18.795  28.026  53.879  1.00  0.00    -0.285 OA
ATOM      5  C   UNL     1      18.383  25.847  53.151  1.00  0.00     0.111 A 
ATOM      6  C   UNL     1      19.396  25.204  53.924  1.00  0.00     0.134 A 
ATOM      7  C   UNL     1      19.451  23.806  53.964  1.00  0.00     0.093 A 
ATOM      8  C   UNL     1      18.571  23.028  53.208  1.00  0.00     0.123 A 
ATOM      9  C   UNL     1      17.617  23.648  52.404  1.00  0.00     0.094 A 
ATOM     10  C   UNL     1      17.514  25.041  52.371  1.00  0.00     0.146 A 
ATOM     11  O   UNL     1      16.584  25.590  51.599  1.00  0.00    -0.452 OA
ENDROOT
BRANCH   1  12
ATOM     12  C   UNL     1      15.332  27.387  50.592  1.00  0.00     0.021 A 
ATOM     13  C   UNL     1      15.600  27.470  49.215  1.00  0.00     0.016 A 
ATOM     14  C   UNL     1      14.627  27.949  48.332  1.00  0.00     0.047 A 
ATOM     15  C   UNL     1      13.379  28.363  48.817  1.00  0.00     0.115 A 
ATOM     16  C   UNL     1      14.085  27.824  51.073  1.00  0.00     0.016 A 
ATOM     17  C   UNL     1      13.114  28.303  50.187  1.00  0.00     0.047 A 
BRANCH  15  18
ATOM     18  O   UNL     1      12.402  28.841  47.946  1.00  0.00    -0.508 OA
ATOM     19  H   UNL     1      11.701  29.506  48.250  1.00  0.00     0.293 HD
ENDBRANCH  15  18
ENDBRANCH   1  12
BRANCH   2  20
ATOM     20  O   UNL     1      16.890  29.148  52.287  1.00  0.00    -0.502 OA
ATOM     21  H   UNL     1      17.576  29.828  51.985  1.00  0.00     0.293 HD
ENDBRANCH   2  20
BRANCH   6  22
ATOM     22  O   UNL     1      20.381  25.888  54.642  1.00  0.00    -0.507 OA
ATOM     23  H   UNL     1      20.206  26.479  55.440  1.00  0.00     0.293 HD
ENDBRANCH   6  22
BRANCH   8  24
ATOM     24  O   UNL     1      18.642  21.637  53.242  1.00  0.00    -0.508 OA
ATOM     25  H   UNL     1      18.451  21.117  54.091  1.00  0.00     0.293 HD
ENDBRANCH   8  24
TORSDOF 5
ENDMDL
MODEL 7
REMARK VINA RESULT:    -6.174     12.736     14.213
REMARK INTER + INTRA:          -7.032
REMARK INTER:                  -6.771
REMARK INTRA:                  -0.261
REMARK UNBOUND:                 0.225
REMARK SMILES O=c1c(O)c(-c2ccc(O)cc2)oc2cc(O)cc(O)c12
REMARK SMILES IDX 5 1 3 2 2 3 1 4 21 5 19 6 18 7 16 8 15 9 14 10 13 11 6 12
REMARK SMILES IDX 7 13 8 14 9 15 12 16 11 17 10 18 4 20 20 22 17 24
REMARK H PARENT 10 19 4 21 20 23 17 25
REMARK Flexibility Score: inf
ROOT
ATOM      1  C   UNL     1      15.736  27.845  51.092  1.00  0.00     0.180 A 
ATOM      2  C   UNL     1      16.198  26.604  51.562  1.00  0.00     0.208 A 
ATOM      3  C   UNL     1      17.148  26.578  52.596  1.00  0.00     0.238 A 
ATOM      4  O   UNL     1      17.598  25.465  52.976  1.00  0.00    -0.285 OA
ATOM      5  C   UNL     1      17.613  27.792  53.156  1.00  0.00     0.111 A 
ATOM      6  C   UNL     1      18.544  27.883  54.233  1.00  0.00     0.134 A 
ATOM      7  C   UNL     1      19.032  29.137  54.620  1.00  0.00     0.093 A 
ATOM      8  C   UNL     1      18.573  30.309  54.012  1.00  0.00     0.123 A 
ATOM      9  C   UNL     1      17.619  30.233  52.999  1.00  0.00     0.094 A 
ATOM     10  C   UNL     1      17.140  28.994  52.567  1.00  0.00     0.146 A 
ATOM     11  O   UNL     1      16.240  28.967  51.592  1.00  0.00    -0.452 OA
ENDROOT
BRANCH   1  12
ATOM     12  C   UNL     1      14.716  27.952  50.023  1.00  0.00     0.021 A 
ATOM     13  C   UNL     1      15.109  27.837  48.678  1.00  0.00     0.016 A 
ATOM     14  C   UNL     1      14.166  27.958  47.653  1.00  0.00     0.047 A 
ATOM     15  C   UNL     1      12.823  28.210  47.958  1.00  0.00     0.115 A 
ATOM     16  C   UNL     1      13.369  28.226  50.320  1.00  0.00     0.016 A 
ATOM     17  C   UNL     1      12.429  28.348  49.292  1.00  0.00     0.047 A 
BRANCH  15  18
ATOM     18  O   UNL     1      11.875  28.332  46.944  1.00  0.00    -0.508 OA
ATOM     19  H   UNL     1      11.804  27.648  46.200  1.00  0.00     0.293 HD
ENDBRANCH  15  18
ENDBRANCH   1  12
BRANCH   2  20
ATOM     20  O   UNL     1      15.743  25.417  50.980  1.00  0.00    -0.502 OA
ATOM     21  H   UNL     1      15.309  24.678  51.519  1.00  0.00     0.293 HD
ENDBRANCH   2  20
BRANCH   6  22
ATOM     22  O   UNL     1      18.997  26.784  54.969  1.00  0.00    -0.507 OA
ATOM     23  H   UNL     1      18.426  25.995  55.233  1.00  0.00     0.293 HD
ENDBRANCH   6  22
BRANCH   8  24
ATOM     24  O   UNL     1      19.052  31.553  54.413  1.00  0.00    -0.508 OA
ATOM     25  H   UNL     1      19.276  31.748  55.382  1.00  0.00     0.293 HD
ENDBRANCH   8  24
TORSDOF 5
ENDMDL
MODEL 8
REMARK VINA RESULT:    -6.017     13.730     16.203
REMARK INTER + INTRA:          -6.847
REMARK INTER:                  -6.974
REMARK INTRA:                   0.127
REMARK UNBOUND:                 0.225
REMARK SMILES O=c1c(O)c(-c2ccc(O)cc2)oc2cc(O)cc(O)c12
REMARK SMILES IDX 5 1 3 2 2 3 1 4 21 5 19 6 18 7 16 8 15 9 14 10 13 11 6 12
REMARK SMILES IDX 7 13 8 14 9 15 12 16 11 17 10 18 4 20 20 22 17 24
REMARK H PARENT 10 19 4 21 20 23 17 25
REMARK Flexibility Score: inf
ROOT
ATOM      1  C   UNL     1      15.820  21.778  43.145  1.00  0.00     0.180 A 
ATOM      2  C   UNL     1      17.163  22.062  42.846  1.00  0.00     0.208 A 
ATOM      3  C   UNL     1      17.457  23.112  41.961  1.00  0.00     0.238 A 
ATOM      4  O   UNL     1      18.659  23.328  41.656  1.00  0.00    -0.285 OA
ATOM      5  C   UNL     1      16.404  23.874  41.398  1.00  0.00     0.111 A 
ATOM      6  C   UNL     1      16.587  24.985  40.522  1.00  0.00     0.134 A 
ATOM      7  C   UNL     1      15.472  25.583  39.923  1.00  0.00     0.093 A 
ATOM      8  C   UNL     1      14.177  25.151  40.219  1.00  0.00     0.123 A 
ATOM      9  C   UNL     1      13.985  24.106  41.119  1.00  0.00     0.094 A 
ATOM     10  C   UNL     1      15.080  23.466  41.706  1.00  0.00     0.146 A 
ATOM     11  O   UNL     1      14.853  22.467  42.550  1.00  0.00    -0.452 OA
ENDROOT
BRANCH   1  12
ATOM     12  C   UNL     1      15.433  20.703  44.088  1.00  0.00     0.021 A 
ATOM     13  C   UNL     1      14.479  20.968  45.085  1.00  0.00     0.016 A 
ATOM     14  C   UNL     1      14.116  19.975  46.000  1.00  0.00     0.047 A 
ATOM     15  C   UNL     1      14.712  18.709  45.937  1.00  0.00     0.115 A 
ATOM     16  C   UNL     1      16.041  19.435  44.044  1.00  0.00     0.016 A 
ATOM     17  C   UNL     1      15.676  18.445  44.961  1.00  0.00     0.047 A 
BRANCH  15  18
ATOM     18  O   UNL     1      14.357  17.711  46.843  1.00  0.00    -0.508 OA
ATOM     19  H   UNL     1      13.403  17.379  46.919  1.00  0.00     0.293 HD
ENDBRANCH  15  18
ENDBRANCH   1  12
BRANCH   2  20
ATOM     20  O   UNL     1      18.186  21.284  43.396  1.00  0.00    -0.502 OA
ATOM     21  H   UNL     1      18.105  20.838  44.301  1.00  0.00     0.293 HD
ENDBRANCH   2  20
BRANCH   6  22
ATOM     22  O   UNL     1      17.831  25.553  40.232  1.00  0.00    -0.507 OA
ATOM     23  H   UNL     1      18.655  25.033  39.972  1.00  0.00     0.293 HD
ENDBRANCH   6  22
BRANCH   8  24
ATOM     24  O   UNL     1      13.072  25.761  39.629  1.00  0.00    -0.508 OA
ATOM     25  H   UNL     1      12.672  25.412  38.766  1.00  0.00     0.293 HD
ENDBRANCH   8  24
TORSDOF 5
ENDMDL
MODEL 9
REMARK VINA RESULT:    -5.828     11.464     13.883
REMARK INTER + INTRA:          -6.625
REMARK INTER:                  -6.527
REMARK INTRA:                  -0.098
REMARK UNBOUND:                 0.225
REMARK SMILES O=c1c(O)c(-c2ccc(O)cc2)oc2cc(O)cc(O)c12
REMARK SMILES IDX 5 1 3 2 2 3 1 4 21 5 19 6 18 7 16 8 15 9 14 10 13 11 6 12
REMARK SMILES IDX 7 13 8 14 9 15 12 16 11 17 10 18 4 20 20 22 17 24
REMARK H PARENT 10 19 4 21 20 23 17 25
REMARK Flexibility Score: inf
ROOT
ATOM      1  C   UNL     1      17.335  25.932  53.275  1.00  0.00     0.180 A 
ATOM      2  C   UNL     1      16.018  26.234  53.660  1.00  0.00     0.208 A 
ATOM      3  C   UNL     1      15.697  27.556  54.010  1.00  0.00     0.238 A 
ATOM      4  O   UNL     1      14.530  27.810  54.406  1.00  0.00    -0.285 OA
ATOM      5  C   UNL     1      16.694  28.561  53.955  1.00  0.00     0.111 A 
ATOM      6  C   UNL     1      16.471  29.939  54.249  1.00  0.00     0.134 A 
ATOM      7  C   UNL     1      17.558  30.821  54.288  1.00  0.00     0.093 A 
ATOM      8  C   UNL     1      18.850  30.387  53.980  1.00  0.00     0.123 A 
ATOM      9  C   UNL     1      19.067  29.056  53.634  1.00  0.00     0.094 A 
ATOM     10  C   UNL     1      18.008  28.144  53.622  1.00  0.00     0.146 A 
ATOM     11  O   UNL     1      18.262  26.882  53.297  1.00  0.00    -0.452 OA
ENDROOT
BRANCH   1  12
ATOM     12  C   UNL     1      17.743  24.567  52.868  1.00  0.00     0.021 A 
ATOM     13  C   UNL     1      18.805  23.935  53.537  1.00  0.00     0.016 A 
ATOM     14  C   UNL     1      19.221  22.656  53.155  1.00  0.00     0.047 A 
ATOM     15  C   UNL     1      18.591  22.000  52.089  1.00  0.00     0.115 A 
ATOM     16  C   UNL     1      17.129  23.910  51.786  1.00  0.00     0.016 A 
ATOM     17  C   UNL     1      17.548  22.632  51.406  1.00  0.00     0.047 A 
BRANCH  15  18
ATOM     18  O   UNL     1      18.997  20.725  51.700  1.00  0.00    -0.508 OA
ATOM     19  H   UNL     1      19.043  19.959  52.361  1.00  0.00     0.293 HD
ENDBRANCH  15  18
ENDBRANCH   1  12
BRANCH   2  20
ATOM     20  O   UNL     1      15.055  25.223  53.730  1.00  0.00    -0.502 OA
ATOM     21  H   UNL     1      14.659  24.792  52.904  1.00  0.00     0.293 HD
ENDBRANCH   2  20
BRANCH   6  22
ATOM     22  O   UNL     1      15.209  30.494  54.479  1.00  0.00    -0.507 OA
ATOM     23  H   UNL     1      14.806  31.248  53.944  1.00  0.00     0.293 HD
ENDBRANCH   6  22
BRANCH   8  24
ATOM     24  O   UNL     1      19.923  31.275  54.007  1.00  0.00    -0.508 OA
ATOM     25  H   UNL     1      20.882  30.947  53.976  1.00  0.00     0.293 HD
ENDBRANCH   8  24
TORSDOF 5
ENDMDL
