MODEL 1
REMARK VINA RESULT:    -7.090      0.000      0.000
REMARK INTER + INTRA:          -8.465
REMARK INTER:                  -8.333
REMARK INTRA:                  -0.132
REMARK UNBOUND:                -0.132
REMARK SMILES O=C([O-])C=Cc1ccc(O)c(O)c1
REMARK SMILES IDX 6 1 13 2 7 3 11 4 8 5 9 6 5 7 4 8 2 9 1 10 3 11 12 12 10 14
REMARK H PARENT 12 13 10 15
REMARK Flexibility Score: inf
ROOT
ATOM      1  C   UNL     1     -21.183 -15.569 -12.795  1.00  0.00    -0.022 A 
ATOM      2  C   UNL     1     -20.215 -16.515 -13.172  1.00  0.00     0.058 A 
ATOM      3  C   UNL     1     -20.760 -14.349 -12.231  1.00  0.00     0.012 A 
ATOM      4  C   UNL     1     -18.851 -16.264 -12.968  1.00  0.00     0.157 A 
ATOM      5  C   UNL     1     -19.399 -14.100 -12.028  1.00  0.00     0.051 A 
ATOM      6  C   UNL     1     -18.442 -15.055 -12.392  1.00  0.00     0.157 A 
ENDROOT
BRANCH   1   7
ATOM      7  C   UNL     1     -22.614 -15.879 -13.043  1.00  0.00     0.010 C 
ATOM      8  C   UNL     1     -23.034 -16.912 -13.787  1.00  0.00     0.025 C 
BRANCH   8   9
ATOM      9  C   UNL     1     -24.463 -17.182 -14.020  1.00  0.00     0.064 C 
ATOM     10  O   UNL     1     -25.056 -18.121 -13.425  1.00  0.00    -0.545 OA
ATOM     11  O   UNL     1     -25.169 -16.389 -14.915  1.00  0.00    -0.545 OA
ENDBRANCH   8   9
ENDBRANCH   1   7
BRANCH   4  12
ATOM     12  O   UNL     1     -17.896 -17.211 -13.336  1.00  0.00    -0.504 OA
ATOM     13  H   UNL     1     -18.123 -18.195 -13.398  1.00  0.00     0.293 HD
ENDBRANCH   4  12
BRANCH   6  14
ATOM     14  O   UNL     1     -17.085 -14.809 -12.190  1.00  0.00    -0.504 OA
ATOM     15  H   UNL     1     -16.736 -13.872 -12.022  1.00  0.00     0.293 HD
ENDBRANCH   6  14
TORSDOF 4
ENDMDL
MODEL 2
REMARK VINA RESULT:    -6.941      1.438      5.796
REMARK INTER + INTRA:          -8.291
REMARK INTER:                  -8.157
REMARK INTRA:                  -0.134
REMARK UNBOUND:                -0.132
REMARK SMILES O=C([O-])C=Cc1ccc(O)c(O)c1
REMARK SMILES IDX 6 1 13 2 7 3 11 4 8 5 9 6 5 7 4 8 2 9 1 10 3 11 12 12 10 14
REMARK H PARENT 12 13 10 15
REMARK Flexibility Score: inf
ROOT
ATOM      1  C   UNL     1     -22.225 -16.760 -13.387  1.00  0.00    -0.022 A 
ATOM      2  C   UNL     1     -22.085 -18.152 -13.517  1.00  0.00     0.058 A 
ATOM      3  C   UNL     1     -23.511 -16.193 -13.492  1.00  0.00     0.012 A 
ATOM      4  C   UNL     1     -23.200 -18.963 -13.774  1.00  0.00     0.157 A 
ATOM      5  C   UNL     1     -24.621 -17.002 -13.748  1.00  0.00     0.051 A 
ATOM      6  C   UNL     1     -24.470 -18.387 -13.893  1.00  0.00     0.157 A 
ENDROOT
BRANCH   1   7
ATOM      7  C   UNL     1     -21.015 -15.948 -13.105  1.00  0.00     0.010 C 
ATOM      8  C   UNL     1     -19.777 -16.457 -13.027  1.00  0.00     0.025 C 
BRANCH   8   9
ATOM      9  C   UNL     1     -18.601 -15.621 -12.733  1.00  0.00     0.064 C 
ATOM     10  O   UNL     1     -17.441 -15.989 -13.058  1.00  0.00    -0.545 OA
ATOM     11  O   UNL     1     -18.774 -14.406 -12.082  1.00  0.00    -0.545 OA
ENDBRANCH   8   9
ENDBRANCH   1   7
BRANCH   4  12
ATOM     12  O   UNL     1     -23.052 -20.342 -13.911  1.00  0.00    -0.504 OA
ATOM     13  H   UNL     1     -23.641 -20.991 -13.405  1.00  0.00     0.293 HD
ENDBRANCH   4  12
BRANCH   6  14
ATOM     14  O   UNL     1     -25.576 -19.196 -14.149  1.00  0.00    -0.504 OA
ATOM     15  H   UNL     1     -26.157 -19.552 -13.398  1.00  0.00     0.293 HD
ENDBRANCH   6  14
TORSDOF 4
ENDMDL
MODEL 3
REMARK VINA RESULT:    -6.219      1.360      6.109
REMARK INTER + INTRA:          -7.442
REMARK INTER:                  -7.300
REMARK INTRA:                  -0.141
REMARK UNBOUND:                -0.132
REMARK SMILES O=C([O-])C=Cc1ccc(O)c(O)c1
REMARK SMILES IDX 6 1 13 2 7 3 11 4 8 5 9 6 5 7 4 8 2 9 1 10 3 11 12 12 10 14
REMARK H PARENT 12 13 10 15
REMARK Flexibility Score: inf
ROOT
ATOM      1  C   UNL     1     -22.220 -16.913 -13.400  1.00  0.00    -0.022 A 
ATOM      2  C   UNL     1     -23.513 -16.489 -13.751  1.00  0.00     0.058 A 
ATOM      3  C   UNL     1     -21.934 -18.293 -13.395  1.00  0.00     0.012 A 
ATOM      4  C   UNL     1     -24.511 -17.422 -14.066  1.00  0.00     0.157 A 
ATOM      5  C   UNL     1     -22.931 -19.222 -13.709  1.00  0.00     0.051 A 
ATOM      6  C   UNL     1     -24.221 -18.791 -14.042  1.00  0.00     0.157 A 
ENDROOT
BRANCH   1   7
ATOM      7  C   UNL     1     -21.196 -15.886 -13.085  1.00  0.00     0.010 C 
ATOM      8  C   UNL     1     -19.899 -16.162 -12.889  1.00  0.00     0.025 C 
BRANCH   8   9
ATOM      9  C   UNL     1     -18.913 -15.117 -12.566  1.00  0.00     0.064 C 
ATOM     10  O   UNL     1     -19.246 -13.903 -12.503  1.00  0.00    -0.545 OA
ATOM     11  O   UNL     1     -17.592 -15.475 -12.330  1.00  0.00    -0.545 OA
ENDBRANCH   8   9
ENDBRANCH   1   7
BRANCH   4  12
ATOM     12  O   UNL     1     -25.794 -16.994 -14.405  1.00  0.00    -0.504 OA
ATOM     13  H   UNL     1     -25.982 -16.034 -14.666  1.00  0.00     0.293 HD
ENDBRANCH   4  12
BRANCH   6  14
ATOM     14  O   UNL     1     -25.216 -19.715 -14.355  1.00  0.00    -0.504 OA
ATOM     15  H   UNL     1     -25.621 -19.763 -15.283  1.00  0.00     0.293 HD
ENDBRANCH   6  14
TORSDOF 4
ENDMDL
MODEL 4
REMARK VINA RESULT:    -5.979      1.329      5.880
REMARK INTER + INTRA:          -7.160
REMARK INTER:                  -7.030
REMARK INTRA:                  -0.130
REMARK UNBOUND:                -0.132
REMARK SMILES O=C([O-])C=Cc1ccc(O)c(O)c1
REMARK SMILES IDX 6 1 13 2 7 3 11 4 8 5 9 6 5 7 4 8 2 9 1 10 3 11 12 12 10 14
REMARK H PARENT 12 13 10 15
REMARK Flexibility Score: inf
ROOT
ATOM      1  C   UNL     1     -22.453 -15.477 -14.008  1.00  0.00    -0.022 A 
ATOM      2  C   UNL     1     -23.180 -16.630 -13.663  1.00  0.00     0.058 A 
ATOM      3  C   UNL     1     -23.055 -14.519 -14.849  1.00  0.00     0.012 A 
ATOM      4  C   UNL     1     -24.471 -16.839 -14.167  1.00  0.00     0.157 A 
ATOM      5  C   UNL     1     -24.343 -14.729 -15.350  1.00  0.00     0.051 A 
ATOM      6  C   UNL     1     -25.053 -15.889 -15.015  1.00  0.00     0.157 A 
ENDROOT
BRANCH   1   7
ATOM      7  C   UNL     1     -21.094 -15.297 -13.440  1.00  0.00     0.010 C 
ATOM      8  C   UNL     1     -20.190 -16.283 -13.344  1.00  0.00     0.025 C 
BRANCH   8   9
ATOM      9  C   UNL     1     -18.854 -16.070 -12.762  1.00  0.00     0.064 C 
ATOM     10  O   UNL     1     -17.893 -16.837 -13.037  1.00  0.00    -0.545 OA
ATOM     11  O   UNL     1     -18.651 -15.007 -11.893  1.00  0.00    -0.545 OA
ENDBRANCH   8   9
ENDBRANCH   1   7
BRANCH   4  12
ATOM     12  O   UNL     1     -25.182 -17.990 -13.829  1.00  0.00    -0.504 OA
ATOM     13  H   UNL     1     -25.740 -18.488 -14.512  1.00  0.00     0.293 HD
ENDBRANCH   4  12
BRANCH   6  14
ATOM     14  O   UNL     1     -26.337 -16.101 -15.514  1.00  0.00    -0.504 OA
ATOM     15  H   UNL     1     -26.725 -17.034 -15.600  1.00  0.00     0.293 HD
ENDBRANCH   6  14
TORSDOF 4
ENDMDL
MODEL 5
REMARK VINA RESULT:    -5.928      1.712      6.105
REMARK INTER + INTRA:          -7.100
REMARK INTER:                  -6.962
REMARK INTRA:                  -0.138
REMARK UNBOUND:                -0.132
REMARK SMILES O=C([O-])C=Cc1ccc(O)c(O)c1
REMARK SMILES IDX 6 1 13 2 7 3 11 4 8 5 9 6 5 7 4 8 2 9 1 10 3 11 12 12 10 14
REMARK H PARENT 12 13 10 15
REMARK Flexibility Score: inf
ROOT
ATOM      1  C   UNL     1     -22.480 -15.239 -13.996  1.00  0.00    -0.022 A 
ATOM      2  C   UNL     1     -22.976 -14.467 -15.060  1.00  0.00     0.058 A 
ATOM      3  C   UNL     1     -23.230 -16.346 -13.551  1.00  0.00     0.012 A 
ATOM      4  C   UNL     1     -24.208 -14.775 -15.655  1.00  0.00     0.157 A 
ATOM      5  C   UNL     1     -24.458 -16.652 -14.145  1.00  0.00     0.051 A 
ATOM      6  C   UNL     1     -24.952 -15.868 -15.194  1.00  0.00     0.157 A 
ENDROOT
BRANCH   1   7
ATOM      7  C   UNL     1     -21.166 -14.877 -13.408  1.00  0.00     0.010 C 
ATOM      8  C   UNL     1     -20.251 -15.776 -13.020  1.00  0.00     0.025 C 
BRANCH   8   9
ATOM      9  C   UNL     1     -18.961 -15.380 -12.429  1.00  0.00     0.064 C 
ATOM     10  O   UNL     1     -18.870 -14.374 -11.676  1.00  0.00    -0.545 OA
ATOM     11  O   UNL     1     -17.825 -16.126 -12.710  1.00  0.00    -0.545 OA
ENDBRANCH   8   9
ENDBRANCH   1   7
BRANCH   4  12
ATOM     12  O   UNL     1     -24.699 -14.000 -16.704  1.00  0.00    -0.504 OA
ATOM     13  H   UNL     1     -25.246 -13.165 -16.536  1.00  0.00     0.293 HD
ENDBRANCH   4  12
BRANCH   6  14
ATOM     14  O   UNL     1     -26.176 -16.171 -15.787  1.00  0.00    -0.504 OA
ATOM     15  H   UNL     1     -26.882 -15.459 -15.940  1.00  0.00     0.293 HD
ENDBRANCH   6  14
TORSDOF 4
ENDMDL
MODEL 6
REMARK VINA RESULT:    -5.688      1.039      2.127
REMARK INTER + INTRA:          -6.818
REMARK INTER:                  -6.684
REMARK INTRA:                  -0.134
REMARK UNBOUND:                -0.132
REMARK SMILES O=C([O-])C=Cc1ccc(O)c(O)c1
REMARK SMILES IDX 6 1 13 2 7 3 11 4 8 5 9 6 5 7 4 8 2 9 1 10 3 11 12 12 10 14
REMARK H PARENT 12 13 10 15
REMARK Flexibility Score: inf
ROOT
ATOM      1  C   UNL     1     -21.521 -16.034 -13.109  1.00  0.00    -0.022 A 
ATOM      2  C   UNL     1     -21.018 -15.004 -12.295  1.00  0.00     0.058 A 
ATOM      3  C   UNL     1     -20.624 -16.983 -13.637  1.00  0.00     0.012 A 
ATOM      4  C   UNL     1     -19.644 -14.905 -12.034  1.00  0.00     0.157 A 
ATOM      5  C   UNL     1     -19.254 -16.883 -13.375  1.00  0.00     0.051 A 
ATOM      6  C   UNL     1     -18.760 -15.845 -12.577  1.00  0.00     0.157 A 
ENDROOT
BRANCH   1   7
ATOM      7  C   UNL     1     -22.985 -16.101 -13.347  1.00  0.00     0.010 C 
ATOM      8  C   UNL     1     -23.538 -16.650 -14.437  1.00  0.00     0.025 C 
BRANCH   8   9
ATOM      9  C   UNL     1     -24.995 -16.688 -14.644  1.00  0.00     0.064 C 
ATOM     10  O   UNL     1     -25.586 -15.782 -15.292  1.00  0.00    -0.545 OA
ATOM     11  O   UNL     1     -25.733 -17.738 -14.114  1.00  0.00    -0.545 OA
ENDBRANCH   8   9
ENDBRANCH   1   7
BRANCH   4  12
ATOM     12  O   UNL     1     -19.151 -13.875 -11.233  1.00  0.00    -0.504 OA
ATOM     13  H   UNL     1     -18.234 -13.476 -11.389  1.00  0.00     0.293 HD
ENDBRANCH   4  12
BRANCH   6  14
ATOM     14  O   UNL     1     -17.395 -15.742 -12.315  1.00  0.00    -0.504 OA
ATOM     15  H   UNL     1     -17.043 -15.180 -11.548  1.00  0.00     0.293 HD
ENDBRANCH   6  14
TORSDOF 4
ENDMDL
MODEL 7
REMARK VINA RESULT:    -5.024      1.791      5.833
REMARK INTER + INTRA:          -6.038
REMARK INTER:                  -5.911
REMARK INTRA:                  -0.127
REMARK UNBOUND:                -0.132
REMARK SMILES O=C([O-])C=Cc1ccc(O)c(O)c1
REMARK SMILES IDX 6 1 13 2 7 3 11 4 8 5 9 6 5 7 4 8 2 9 1 10 3 11 12 12 10 14
REMARK H PARENT 12 13 10 15
REMARK Flexibility Score: inf
ROOT
ATOM      1  C   UNL     1     -21.545 -14.898 -13.130  1.00  0.00    -0.022 A 
ATOM      2  C   UNL     1     -21.968 -15.472 -14.341  1.00  0.00     0.058 A 
ATOM      3  C   UNL     1     -22.454 -14.107 -12.398  1.00  0.00     0.012 A 
ATOM      4  C   UNL     1     -23.262 -15.242 -14.829  1.00  0.00     0.157 A 
ATOM      5  C   UNL     1     -23.744 -13.879 -12.886  1.00  0.00     0.051 A 
ATOM      6  C   UNL     1     -24.152 -14.442 -14.101  1.00  0.00     0.157 A 
ENDROOT
BRANCH   1   7
ATOM      7  C   UNL     1     -20.169 -15.180 -12.652  1.00  0.00     0.010 C 
ATOM      8  C   UNL     1     -19.092 -14.472 -13.021  1.00  0.00     0.025 C 
BRANCH   8   9
ATOM      9  C   UNL     1     -17.739 -14.790 -12.536  1.00  0.00     0.064 C 
ATOM     10  O   UNL     1     -16.878 -13.886 -12.363  1.00  0.00    -0.545 OA
ATOM     11  O   UNL     1     -17.404 -16.111 -12.266  1.00  0.00    -0.545 OA
ENDBRANCH   8   9
ENDBRANCH   1   7
BRANCH   4  12
ATOM     12  O   UNL     1     -23.672 -15.807 -16.036  1.00  0.00    -0.504 OA
ATOM     13  H   UNL     1     -23.040 -16.355 -16.606  1.00  0.00     0.293 HD
ENDBRANCH   4  12
BRANCH   6  14
ATOM     14  O   UNL     1     -25.437 -14.215 -14.590  1.00  0.00    -0.504 OA
ATOM     15  H   UNL     1     -26.164 -13.818 -14.005  1.00  0.00     0.293 HD
ENDBRANCH   6  14
TORSDOF 4
ENDMDL
MODEL 8
REMARK VINA RESULT:    -4.355      1.222      1.569
REMARK INTER + INTRA:          -5.252
REMARK INTER:                  -5.125
REMARK INTRA:                  -0.126
REMARK UNBOUND:                -0.132
REMARK SMILES O=C([O-])C=Cc1ccc(O)c(O)c1
REMARK SMILES IDX 6 1 13 2 7 3 11 4 8 5 9 6 5 7 4 8 2 9 1 10 3 11 12 12 10 14
REMARK H PARENT 12 13 10 15
REMARK Flexibility Score: inf
ROOT
ATOM      1  C   UNL     1     -22.307 -15.913 -13.593  1.00  0.00    -0.022 A 
ATOM      2  C   UNL     1     -21.040 -16.521 -13.566  1.00  0.00     0.058 A 
ATOM      3  C   UNL     1     -22.443 -14.600 -13.100  1.00  0.00     0.012 A 
ATOM      4  C   UNL     1     -19.933 -15.844 -13.035  1.00  0.00     0.157 A 
ATOM      5  C   UNL     1     -21.339 -13.927 -12.570  1.00  0.00     0.051 A 
ATOM      6  C   UNL     1     -20.083 -14.545 -12.533  1.00  0.00     0.157 A 
ENDROOT
BRANCH   1   7
ATOM      7  C   UNL     1     -23.444 -16.669 -14.176  1.00  0.00     0.010 C 
ATOM      8  C   UNL     1     -24.520 -17.053 -13.475  1.00  0.00     0.025 C 
BRANCH   8   9
ATOM      9  C   UNL     1     -25.625 -17.813 -14.085  1.00  0.00     0.064 C 
ATOM     10  O   UNL     1     -25.615 -19.072 -14.110  1.00  0.00    -0.545 OA
ATOM     11  O   UNL     1     -26.695 -17.128 -14.645  1.00  0.00    -0.545 OA
ENDBRANCH   8   9
ENDBRANCH   1   7
BRANCH   4  12
ATOM     12  O   UNL     1     -18.681 -16.455 -13.003  1.00  0.00    -0.504 OA
ATOM     13  H   UNL     1     -17.826 -15.915 -13.058  1.00  0.00     0.293 HD
ENDBRANCH   4  12
BRANCH   6  14
ATOM     14  O   UNL     1     -18.981 -13.876 -12.005  1.00  0.00    -0.504 OA
ATOM     15  H   UNL     1     -18.037 -14.218 -12.144  1.00  0.00     0.293 HD
ENDBRANCH   6  14
TORSDOF 4
ENDMDL
MODEL 9
REMARK VINA RESULT:    -4.297      3.246      5.347
REMARK INTER + INTRA:          -5.183
REMARK INTER:                  -5.049
REMARK INTRA:                  -0.134
REMARK UNBOUND:                -0.132
REMARK SMILES O=C([O-])C=Cc1ccc(O)c(O)c1
REMARK SMILES IDX 6 1 13 2 7 3 11 4 8 5 9 6 5 7 4 8 2 9 1 10 3 11 12 12 10 14
REMARK H PARENT 12 13 10 15
REMARK Flexibility Score: inf
ROOT
ATOM      1  C   UNL     1     -22.785 -17.352 -13.749  1.00  0.00    -0.022 A 
ATOM      2  C   UNL     1     -24.027 -17.428 -14.401  1.00  0.00     0.058 A 
ATOM      3  C   UNL     1     -22.317 -16.094 -13.319  1.00  0.00     0.012 A 
ATOM      4  C   UNL     1     -24.779 -16.271 -14.645  1.00  0.00     0.157 A 
ATOM      5  C   UNL     1     -23.068 -14.941 -13.563  1.00  0.00     0.051 A 
ATOM      6  C   UNL     1     -24.298 -15.024 -14.228  1.00  0.00     0.157 A 
ENDROOT
BRANCH   1   7
ATOM      7  C   UNL     1     -22.033 -18.609 -13.505  1.00  0.00     0.010 C 
ATOM      8  C   UNL     1     -22.544 -19.833 -13.700  1.00  0.00     0.025 C 
BRANCH   8   9
ATOM      9  C   UNL     1     -21.771 -21.058 -13.435  1.00  0.00     0.064 C 
ATOM     10  O   UNL     1     -22.345 -22.156 -13.212  1.00  0.00    -0.545 OA
ATOM     11  O   UNL     1     -20.383 -21.000 -13.428  1.00  0.00    -0.545 OA
ENDBRANCH   8   9
ENDBRANCH   1   7
BRANCH   4  12
ATOM     12  O   UNL     1     -26.007 -16.352 -15.301  1.00  0.00    -0.504 OA
ATOM     13  H   UNL     1     -26.820 -16.757 -14.855  1.00  0.00     0.293 HD
ENDBRANCH   4  12
BRANCH   6  14
ATOM     14  O   UNL     1     -25.048 -13.875 -14.474  1.00  0.00    -0.504 OA
ATOM     15  H   UNL     1     -25.567 -13.755 -15.336  1.00  0.00     0.293 HD
ENDBRANCH   6  14
TORSDOF 4
ENDMDL
