MODEL 1
REMARK VINA RESULT:    -3.914      0.000      0.000
REMARK INTER + INTRA:         -13.976
REMARK INTER:                  -9.863
REMARK INTRA:                  -4.113
REMARK UNBOUND:                -4.113
REMARK SMILES CCCCCCCCCCCCCCCCCCCCCCCCCCCC(=O)[O-]
REMARK SMILES IDX 15 1 16 2 17 3 18 4 19 5 20 6 21 7 22 8 23 9 24 10 25 11
REMARK SMILES IDX 26 12 27 13 28 14 29 15 30 16 14 17 13 18 12 19 11 20 10 21
REMARK SMILES IDX 9 22 8 23 7 24 6 25 5 26 4 27 3 28 2 29 1 30
REMARK H PARENT
REMARK Flexibility Score: inf
ROOT
ATOM      1  C   UNL     1      -8.197   0.350  36.644  1.00  0.00     0.000 C 
ENDROOT
BRANCH   1   2
ATOM      2  C   UNL     1      -6.700   0.390  36.284  1.00  0.00     0.000 C 
BRANCH   2   3
ATOM      3  C   UNL     1      -5.922  -0.814  36.857  1.00  0.00     0.000 C 
BRANCH   3   4
ATOM      4  C   UNL     1      -5.250  -0.534  38.216  1.00  0.00     0.000 C 
BRANCH   4   5
ATOM      5  C   UNL     1      -3.850   0.100  38.137  1.00  0.00     0.000 C 
BRANCH   5   6
ATOM      6  C   UNL     1      -3.822   1.639  38.231  1.00  0.00     0.000 C 
BRANCH   6   7
ATOM      7  C   UNL     1      -3.119   2.327  37.044  1.00  0.00     0.000 C 
BRANCH   7   8
ATOM      8  C   UNL     1      -2.805   1.351  35.895  1.00  0.00     0.000 C 
BRANCH   8   9
ATOM      9  C   UNL     1      -3.629   1.663  34.627  1.00  0.00     0.000 C 
BRANCH   9  10
ATOM     10  C   UNL     1      -3.436   0.631  33.503  1.00  0.00     0.000 C 
BRANCH  10  11
ATOM     11  C   UNL     1      -3.258  -0.800  34.029  1.00  0.00     0.000 C 
BRANCH  11  12
ATOM     12  C   UNL     1      -3.371  -1.821  32.887  1.00  0.00     0.006 C 
BRANCH  12  13
ATOM     13  C   UNL     1      -4.179  -3.060  33.293  1.00  0.00     0.053 C 
BRANCH  13  14
ATOM     14  C   UNL     1      -3.529  -4.330  32.835  1.00  0.00     0.041 C 
ATOM     15  O   UNL     1      -4.211  -5.218  32.257  1.00  0.00    -0.550 OA
ATOM     16  O   UNL     1      -2.173  -4.538  33.057  1.00  0.00    -0.550 OA
ENDBRANCH  13  14
ENDBRANCH  12  13
ENDBRANCH  11  12
ENDBRANCH  10  11
ENDBRANCH   9  10
ENDBRANCH   8   9
ENDBRANCH   7   8
ENDBRANCH   6   7
ENDBRANCH   5   6
ENDBRANCH   4   5
ENDBRANCH   3   4
ENDBRANCH   2   3
ENDBRANCH   1   2
BRANCH   1  17
ATOM     17  C   UNL     1      -8.532   1.175  37.898  1.00  0.00     0.000 C 
BRANCH  17  18
ATOM     18  C   UNL     1      -9.936   0.872  38.449  1.00  0.00     0.000 C 
BRANCH  18  19
ATOM     19  C   UNL     1     -10.613   2.123  39.038  1.00  0.00     0.000 C 
BRANCH  19  20
ATOM     20  C   UNL     1     -12.136   2.173  38.813  1.00  0.00     0.000 C 
BRANCH  20  21
ATOM     21  C   UNL     1     -12.558   3.349  37.919  1.00  0.00     0.000 C 
BRANCH  21  22
ATOM     22  C   UNL     1     -13.335   2.858  36.688  1.00  0.00    -0.000 C 
BRANCH  22  23
ATOM     23  C   UNL     1     -12.592   3.110  35.363  1.00  0.00    -0.000 C 
BRANCH  23  24
ATOM     24  C   UNL     1     -11.244   2.379  35.214  1.00  0.00    -0.000 C 
BRANCH  24  25
ATOM     25  C   UNL     1     -10.053   3.337  35.034  1.00  0.00    -0.000 C 
BRANCH  25  26
ATOM     26  C   UNL     1     -10.466   4.815  35.121  1.00  0.00    -0.000 C 
BRANCH  26  27
ATOM     27  C   UNL     1      -9.899   5.523  36.362  1.00  0.00    -0.000 C 
BRANCH  27  28
ATOM     28  C   UNL     1      -8.859   4.639  37.067  1.00  0.00    -0.000 C 
BRANCH  28  29
ATOM     29  C   UNL     1      -7.914   5.445  37.971  1.00  0.00    -0.003 C 
ATOM     30  C   UNL     1      -7.595   4.724  39.280  1.00  0.00     0.004 C 
ENDBRANCH  28  29
ENDBRANCH  27  28
ENDBRANCH  26  27
ENDBRANCH  25  26
ENDBRANCH  24  25
ENDBRANCH  23  24
ENDBRANCH  22  23
ENDBRANCH  21  22
ENDBRANCH  20  21
ENDBRANCH  19  20
ENDBRANCH  18  19
ENDBRANCH  17  18
ENDBRANCH   1  17
TORSDOF 26
ENDMDL
MODEL 2
REMARK VINA RESULT:    -3.792      1.303      2.754
REMARK INTER + INTRA:         -13.669
REMARK INTER:                  -8.004
REMARK INTRA:                  -5.666
REMARK UNBOUND:                -4.113
REMARK SMILES CCCCCCCCCCCCCCCCCCCCCCCCCCCC(=O)[O-]
REMARK SMILES IDX 15 1 16 2 17 3 18 4 19 5 20 6 21 7 22 8 23 9 24 10 25 11
REMARK SMILES IDX 26 12 27 13 28 14 29 15 30 16 14 17 13 18 12 19 11 20 10 21
REMARK SMILES IDX 9 22 8 23 7 24 6 25 5 26 4 27 3 28 2 29 1 30
REMARK H PARENT
REMARK Flexibility Score: inf
ROOT
ATOM      1  C   UNL     1      -7.072  -0.598  35.115  1.00  0.00     0.000 C 
ENDROOT
BRANCH   1   2
ATOM      2  C   UNL     1      -6.146  -1.231  36.171  1.00  0.00     0.000 C 
BRANCH   2   3
ATOM      3  C   UNL     1      -6.789  -1.271  37.574  1.00  0.00     0.000 C 
BRANCH   3   4
ATOM      4  C   UNL     1      -5.922  -0.629  38.677  1.00  0.00     0.000 C 
BRANCH   4   5
ATOM      5  C   UNL     1      -4.545  -0.123  38.215  1.00  0.00     0.000 C 
BRANCH   5   6
ATOM      6  C   UNL     1      -4.218   1.332  38.606  1.00  0.00     0.000 C 
BRANCH   6   7
ATOM      7  C   UNL     1      -3.641   2.178  37.452  1.00  0.00     0.000 C 
BRANCH   7   8
ATOM      8  C   UNL     1      -4.654   2.393  36.312  1.00  0.00     0.000 C 
BRANCH   8   9
ATOM      9  C   UNL     1      -4.188   1.742  34.992  1.00  0.00     0.000 C 
BRANCH   9  10
ATOM     10  C   UNL     1      -2.791   1.107  35.082  1.00  0.00     0.000 C 
BRANCH  10  11
ATOM     11  C   UNL     1      -2.747  -0.321  34.519  1.00  0.00     0.000 C 
BRANCH  11  12
ATOM     12  C   UNL     1      -3.864  -0.539  33.490  1.00  0.00     0.006 C 
BRANCH  12  13
ATOM     13  C   UNL     1      -3.558  -1.701  32.536  1.00  0.00     0.053 C 
BRANCH  13  14
ATOM     14  C   UNL     1      -3.794  -3.033  33.180  1.00  0.00     0.041 C 
ATOM     15  O   UNL     1      -2.847  -3.856  33.299  1.00  0.00    -0.550 OA
ATOM     16  O   UNL     1      -5.062  -3.371  33.637  1.00  0.00    -0.550 OA
ENDBRANCH  13  14
ENDBRANCH  12  13
ENDBRANCH  11  12
ENDBRANCH  10  11
ENDBRANCH   9  10
ENDBRANCH   8   9
ENDBRANCH   7   8
ENDBRANCH   6   7
ENDBRANCH   5   6
ENDBRANCH   4   5
ENDBRANCH   3   4
ENDBRANCH   2   3
ENDBRANCH   1   2
BRANCH   1  17
ATOM     17  C   UNL     1      -7.901   0.571  35.671  1.00  0.00     0.000 C 
BRANCH  17  18
ATOM     18  C   UNL     1      -8.902   1.129  34.645  1.00  0.00     0.000 C 
BRANCH  18  19
ATOM     19  C   UNL     1     -10.355   1.062  35.153  1.00  0.00     0.000 C 
BRANCH  19  20
ATOM     20  C   UNL     1     -11.354   1.856  34.291  1.00  0.00     0.000 C 
BRANCH  20  21
ATOM     21  C   UNL     1     -11.652   3.248  34.872  1.00  0.00     0.000 C 
BRANCH  21  22
ATOM     22  C   UNL     1     -11.581   3.234  36.406  1.00  0.00    -0.000 C 
BRANCH  22  23
ATOM     23  C   UNL     1     -10.609   4.284  36.978  1.00  0.00    -0.000 C 
BRANCH  23  24
ATOM     24  C   UNL     1      -9.378   4.585  36.102  1.00  0.00    -0.000 C 
BRANCH  24  25
ATOM     25  C   UNL     1      -8.054   4.125  36.740  1.00  0.00    -0.000 C 
BRANCH  25  26
ATOM     26  C   UNL     1      -8.125   4.075  38.275  1.00  0.00    -0.000 C 
BRANCH  26  27
ATOM     27  C   UNL     1      -7.464   2.819  38.864  1.00  0.00    -0.000 C 
BRANCH  27  28
ATOM     28  C   UNL     1      -8.209   2.352  40.125  1.00  0.00    -0.000 C 
BRANCH  28  29
ATOM     29  C   UNL     1      -9.681   2.011  39.848  1.00  0.00    -0.003 C 
ATOM     30  C   UNL     1      -9.842   0.876  38.837  1.00  0.00     0.004 C 
ENDBRANCH  28  29
ENDBRANCH  27  28
ENDBRANCH  26  27
ENDBRANCH  25  26
ENDBRANCH  24  25
ENDBRANCH  23  24
ENDBRANCH  22  23
ENDBRANCH  21  22
ENDBRANCH  20  21
ENDBRANCH  19  20
ENDBRANCH  18  19
ENDBRANCH  17  18
ENDBRANCH   1  17
TORSDOF 26
ENDMDL
MODEL 3
REMARK VINA RESULT:    -3.779      1.117      2.935
REMARK INTER + INTRA:         -13.635
REMARK INTER:                  -9.052
REMARK INTRA:                  -4.583
REMARK UNBOUND:                -4.113
REMARK SMILES CCCCCCCCCCCCCCCCCCCCCCCCCCCC(=O)[O-]
REMARK SMILES IDX 15 1 16 2 17 3 18 4 19 5 20 6 21 7 22 8 23 9 24 10 25 11
REMARK SMILES IDX 26 12 27 13 28 14 29 15 30 16 14 17 13 18 12 19 11 20 10 21
REMARK SMILES IDX 9 22 8 23 7 24 6 25 5 26 4 27 3 28 2 29 1 30
REMARK H PARENT
REMARK Flexibility Score: inf
ROOT
ATOM      1  C   UNL     1      -7.110   0.681  37.524  1.00  0.00     0.000 C 
ENDROOT
BRANCH   1   2
ATOM      2  C   UNL     1      -6.079  -0.424  37.227  1.00  0.00     0.000 C 
BRANCH   2   3
ATOM      3  C   UNL     1      -4.989  -0.526  38.315  1.00  0.00     0.000 C 
BRANCH   3   4
ATOM      4  C   UNL     1      -3.647   0.123  37.919  1.00  0.00     0.000 C 
BRANCH   4   5
ATOM      5  C   UNL     1      -3.507   1.611  38.285  1.00  0.00     0.000 C 
BRANCH   5   6
ATOM      6  C   UNL     1      -3.231   2.554  37.097  1.00  0.00     0.000 C 
BRANCH   6   7
ATOM      7  C   UNL     1      -4.466   2.830  36.215  1.00  0.00     0.000 C 
BRANCH   7   8
ATOM      8  C   UNL     1      -4.487   1.968  34.939  1.00  0.00     0.000 C 
BRANCH   8   9
ATOM      9  C   UNL     1      -3.069   1.731  34.376  1.00  0.00     0.000 C 
BRANCH   9  10
ATOM     10  C   UNL     1      -2.622   0.260  34.443  1.00  0.00     0.000 C 
BRANCH  10  11
ATOM     11  C   UNL     1      -3.761  -0.724  34.142  1.00  0.00     0.000 C 
BRANCH  11  12
ATOM     12  C   UNL     1      -3.253  -1.913  33.314  1.00  0.00     0.006 C 
BRANCH  12  13
ATOM     13  C   UNL     1      -4.283  -3.046  33.230  1.00  0.00     0.053 C 
BRANCH  13  14
ATOM     14  C   UNL     1      -3.656  -4.349  32.836  1.00  0.00     0.041 C 
ATOM     15  O   UNL     1      -4.288  -5.162  32.110  1.00  0.00    -0.550 OA
ATOM     16  O   UNL     1      -2.378  -4.669  33.279  1.00  0.00    -0.550 OA
ENDBRANCH  13  14
ENDBRANCH  12  13
ENDBRANCH  11  12
ENDBRANCH  10  11
ENDBRANCH   9  10
ENDBRANCH   8   9
ENDBRANCH   7   8
ENDBRANCH   6   7
ENDBRANCH   5   6
ENDBRANCH   4   5
ENDBRANCH   3   4
ENDBRANCH   2   3
ENDBRANCH   1   2
BRANCH   1  17
ATOM     17  C   UNL     1      -7.690   0.590  38.945  1.00  0.00     0.000 C 
BRANCH  17  18
ATOM     18  C   UNL     1      -7.785   1.961  39.636  1.00  0.00     0.000 C 
BRANCH  18  19
ATOM     19  C   UNL     1      -6.452   2.731  39.590  1.00  0.00     0.000 C 
BRANCH  19  20
ATOM     20  C   UNL     1      -6.574   4.156  39.019  1.00  0.00     0.000 C 
BRANCH  20  21
ATOM     21  C   UNL     1      -8.024   4.524  38.668  1.00  0.00     0.000 C 
BRANCH  21  22
ATOM     22  C   UNL     1      -8.184   4.766  37.160  1.00  0.00    -0.000 C 
BRANCH  22  23
ATOM     23  C   UNL     1      -9.501   5.478  36.796  1.00  0.00    -0.000 C 
BRANCH  23  24
ATOM     24  C   UNL     1     -10.122   5.063  35.448  1.00  0.00    -0.000 C 
BRANCH  24  25
ATOM     25  C   UNL     1     -11.182   3.956  35.585  1.00  0.00    -0.000 C 
BRANCH  25  26
ATOM     26  C   UNL     1     -10.711   2.613  35.003  1.00  0.00    -0.000 C 
BRANCH  26  27
ATOM     27  C   UNL     1     -10.414   1.563  36.085  1.00  0.00    -0.000 C 
BRANCH  27  28
ATOM     28  C   UNL     1     -10.777   2.097  37.479  1.00  0.00    -0.000 C 
BRANCH  28  29
ATOM     29  C   UNL     1     -11.608   1.097  38.296  1.00  0.00    -0.003 C 
ATOM     30  C   UNL     1     -11.477   1.316  39.803  1.00  0.00     0.004 C 
ENDBRANCH  28  29
ENDBRANCH  27  28
ENDBRANCH  26  27
ENDBRANCH  25  26
ENDBRANCH  24  25
ENDBRANCH  23  24
ENDBRANCH  22  23
ENDBRANCH  21  22
ENDBRANCH  20  21
ENDBRANCH  19  20
ENDBRANCH  18  19
ENDBRANCH  17  18
ENDBRANCH   1  17
TORSDOF 26
ENDMDL
MODEL 4
REMARK VINA RESULT:    -3.761      3.890      7.528
REMARK INTER + INTRA:         -13.590
REMARK INTER:                  -7.723
REMARK INTRA:                  -5.867
REMARK UNBOUND:                -4.113
REMARK SMILES CCCCCCCCCCCCCCCCCCCCCCCCCCCC(=O)[O-]
REMARK SMILES IDX 15 1 16 2 17 3 18 4 19 5 20 6 21 7 22 8 23 9 24 10 25 11
REMARK SMILES IDX 26 12 27 13 28 14 29 15 30 16 14 17 13 18 12 19 11 20 10 21
REMARK SMILES IDX 9 22 8 23 7 24 6 25 5 26 4 27 3 28 2 29 1 30
REMARK H PARENT
REMARK Flexibility Score: inf
ROOT
ATOM      1  C   UNL     1      -7.266  -0.424  38.025  1.00  0.00     0.000 C 
ENDROOT
BRANCH   1   2
ATOM      2  C   UNL     1      -8.585   0.002  38.695  1.00  0.00     0.000 C 
BRANCH   2   3
ATOM      3  C   UNL     1      -8.391   1.156  39.702  1.00  0.00     0.000 C 
BRANCH   3   4
ATOM      4  C   UNL     1      -9.538   2.188  39.700  1.00  0.00     0.000 C 
BRANCH   4   5
ATOM      5  C   UNL     1     -10.950   1.597  39.857  1.00  0.00     0.000 C 
BRANCH   5   6
ATOM      6  C   UNL     1     -11.863   1.747  38.624  1.00  0.00     0.000 C 
BRANCH   6   7
ATOM      7  C   UNL     1     -11.769   3.124  37.936  1.00  0.00     0.000 C 
BRANCH   7   8
ATOM      8  C   UNL     1     -11.403   3.018  36.444  1.00  0.00     0.000 C 
BRANCH   8   9
ATOM      9  C   UNL     1     -10.632   1.719  36.128  1.00  0.00     0.000 C 
BRANCH   9  10
ATOM     10  C   UNL     1     -10.505   1.433  34.622  1.00  0.00     0.000 C 
BRANCH  10  11
ATOM     11  C   UNL     1     -11.666   2.016  33.803  1.00  0.00     0.000 C 
BRANCH  11  12
ATOM     12  C   UNL     1     -11.152   2.668  32.512  1.00  0.00     0.006 C 
BRANCH  12  13
ATOM     13  C   UNL     1     -10.182   3.823  32.790  1.00  0.00     0.053 C 
BRANCH  13  14
ATOM     14  C   UNL     1     -10.873   5.003  33.403  1.00  0.00     0.041 C 
ATOM     15  O   UNL     1     -11.973   5.404  32.938  1.00  0.00    -0.550 OA
ATOM     16  O   UNL     1     -10.297   5.666  34.480  1.00  0.00    -0.550 OA
ENDBRANCH  13  14
ENDBRANCH  12  13
ENDBRANCH  11  12
ENDBRANCH  10  11
ENDBRANCH   9  10
ENDBRANCH   8   9
ENDBRANCH   7   8
ENDBRANCH   6   7
ENDBRANCH   5   6
ENDBRANCH   4   5
ENDBRANCH   3   4
ENDBRANCH   2   3
ENDBRANCH   1   2
BRANCH   1  17
ATOM     17  C   UNL     1      -6.035   0.263  38.637  1.00  0.00     0.000 C 
BRANCH  17  18
ATOM     18  C   UNL     1      -4.711  -0.379  38.186  1.00  0.00     0.000 C 
BRANCH  18  19
ATOM     19  C   UNL     1      -3.540   0.621  38.217  1.00  0.00     0.000 C 
BRANCH  19  20
ATOM     20  C   UNL     1      -3.959   2.063  38.558  1.00  0.00     0.000 C 
BRANCH  20  21
ATOM     21  C   UNL     1      -3.586   3.060  37.449  1.00  0.00     0.000 C 
BRANCH  21  22
ATOM     22  C   UNL     1      -2.927   2.344  36.261  1.00  0.00    -0.000 C 
BRANCH  22  23
ATOM     23  C   UNL     1      -3.728   2.478  34.952  1.00  0.00    -0.000 C 
BRANCH  23  24
ATOM     24  C   UNL     1      -4.560   1.241  34.562  1.00  0.00    -0.000 C 
BRANCH  24  25
ATOM     25  C   UNL     1      -6.009   1.299  35.077  1.00  0.00    -0.000 C 
BRANCH  25  26
ATOM     26  C   UNL     1      -6.865   2.325  34.319  1.00  0.00    -0.000 C 
BRANCH  26  27
ATOM     27  C   UNL     1      -7.298   3.511  35.197  1.00  0.00    -0.000 C 
BRANCH  27  28
ATOM     28  C   UNL     1      -7.326   3.109  36.680  1.00  0.00    -0.000 C 
BRANCH  28  29
ATOM     29  C   UNL     1      -7.117   4.306  37.619  1.00  0.00    -0.003 C 
ATOM     30  C   UNL     1      -8.385   5.141  37.799  1.00  0.00     0.004 C 
ENDBRANCH  28  29
ENDBRANCH  27  28
ENDBRANCH  26  27
ENDBRANCH  25  26
ENDBRANCH  24  25
ENDBRANCH  23  24
ENDBRANCH  22  23
ENDBRANCH  21  22
ENDBRANCH  20  21
ENDBRANCH  19  20
ENDBRANCH  18  19
ENDBRANCH  17  18
ENDBRANCH   1  17
TORSDOF 26
ENDMDL
MODEL 5
REMARK VINA RESULT:    -3.752      2.101      2.668
REMARK INTER + INTRA:         -13.567
REMARK INTER:                  -7.772
REMARK INTRA:                  -5.795
REMARK UNBOUND:                -4.113
REMARK SMILES CCCCCCCCCCCCCCCCCCCCCCCCCCCC(=O)[O-]
REMARK SMILES IDX 15 1 16 2 17 3 18 4 19 5 20 6 21 7 22 8 23 9 24 10 25 11
REMARK SMILES IDX 26 12 27 13 28 14 29 15 30 16 14 17 13 18 12 19 11 20 10 21
REMARK SMILES IDX 9 22 8 23 7 24 6 25 5 26 4 27 3 28 2 29 1 30
REMARK H PARENT
REMARK Flexibility Score: inf
ROOT
ATOM      1  C   UNL     1      -8.650  -0.415  36.343  1.00  0.00     0.000 C 
ENDROOT
BRANCH   1   2
ATOM      2  C   UNL     1      -7.173  -0.832  36.475  1.00  0.00     0.000 C 
BRANCH   2   3
ATOM      3  C   UNL     1      -6.838  -1.388  37.875  1.00  0.00     0.000 C 
BRANCH   3   4
ATOM      4  C   UNL     1      -5.754  -0.585  38.623  1.00  0.00     0.000 C 
BRANCH   4   5
ATOM      5  C   UNL     1      -4.935   0.381  37.750  1.00  0.00     0.000 C 
BRANCH   5   6
ATOM      6  C   UNL     1      -3.746   1.058  38.460  1.00  0.00     0.000 C 
BRANCH   6   7
ATOM      7  C   UNL     1      -3.482   2.507  38.000  1.00  0.00     0.000 C 
BRANCH   7   8
ATOM      8  C   UNL     1      -3.822   2.727  36.515  1.00  0.00     0.000 C 
BRANCH   8   9
ATOM      9  C   UNL     1      -4.594   4.044  36.285  1.00  0.00     0.000 C 
BRANCH   9  10
ATOM     10  C   UNL     1      -5.704   3.926  35.228  1.00  0.00     0.000 C 
BRANCH  10  11
ATOM     11  C   UNL     1      -6.551   2.656  35.389  1.00  0.00     0.000 C 
BRANCH  11  12
ATOM     12  C   UNL     1      -6.702   1.924  34.048  1.00  0.00     0.006 C 
BRANCH  12  13
ATOM     13  C   UNL     1      -5.445   2.044  33.176  1.00  0.00     0.053 C 
BRANCH  13  14
ATOM     14  C   UNL     1      -4.486   0.918  33.415  1.00  0.00     0.041 C 
ATOM     15  O   UNL     1      -4.907  -0.198  33.824  1.00  0.00    -0.550 OA
ATOM     16  O   UNL     1      -3.126   1.103  33.198  1.00  0.00    -0.550 OA
ENDBRANCH  13  14
ENDBRANCH  12  13
ENDBRANCH  11  12
ENDBRANCH  10  11
ENDBRANCH   9  10
ENDBRANCH   8   9
ENDBRANCH   7   8
ENDBRANCH   6   7
ENDBRANCH   5   6
ENDBRANCH   4   5
ENDBRANCH   3   4
ENDBRANCH   2   3
ENDBRANCH   1   2
BRANCH   1  17
ATOM     17  C   UNL     1      -9.029   0.743  37.280  1.00  0.00     0.000 C 
BRANCH  17  18
ATOM     18  C   UNL     1     -10.205   0.393  38.209  1.00  0.00     0.000 C 
BRANCH  18  19
ATOM     19  C   UNL     1     -10.659   1.600  39.052  1.00  0.00     0.000 C 
BRANCH  19  20
ATOM     20  C   UNL     1     -12.176   1.861  38.999  1.00  0.00     0.000 C 
BRANCH  20  21
ATOM     21  C   UNL     1     -12.530   3.090  38.147  1.00  0.00     0.000 C 
BRANCH  21  22
ATOM     22  C   UNL     1     -13.266   2.680  36.862  1.00  0.00    -0.000 C 
BRANCH  22  23
ATOM     23  C   UNL     1     -12.639   3.276  35.588  1.00  0.00    -0.000 C 
BRANCH  23  24
ATOM     24  C   UNL     1     -11.380   2.552  35.074  1.00  0.00    -0.000 C 
BRANCH  24  25
ATOM     25  C   UNL     1     -10.109   3.417  35.152  1.00  0.00    -0.000 C 
BRANCH  25  26
ATOM     26  C   UNL     1     -10.416   4.886  35.488  1.00  0.00    -0.000 C 
BRANCH  26  27
ATOM     27  C   UNL     1      -9.499   5.454  36.583  1.00  0.00    -0.000 C 
BRANCH  27  28
ATOM     28  C   UNL     1      -9.079   4.353  37.569  1.00  0.00    -0.000 C 
BRANCH  28  29
ATOM     29  C   UNL     1      -7.768   4.681  38.298  1.00  0.00    -0.003 C 
ATOM     30  C   UNL     1      -7.167   3.465  39.003  1.00  0.00     0.004 C 
ENDBRANCH  28  29
ENDBRANCH  27  28
ENDBRANCH  26  27
ENDBRANCH  25  26
ENDBRANCH  24  25
ENDBRANCH  23  24
ENDBRANCH  22  23
ENDBRANCH  21  22
ENDBRANCH  20  21
ENDBRANCH  19  20
ENDBRANCH  18  19
ENDBRANCH  17  18
ENDBRANCH   1  17
TORSDOF 26
ENDMDL
MODEL 6
REMARK VINA RESULT:    -3.744      3.984      7.686
REMARK INTER + INTRA:         -13.548
REMARK INTER:                  -8.247
REMARK INTRA:                  -5.301
REMARK UNBOUND:                -4.113
REMARK SMILES CCCCCCCCCCCCCCCCCCCCCCCCCCCC(=O)[O-]
REMARK SMILES IDX 15 1 16 2 17 3 18 4 19 5 20 6 21 7 22 8 23 9 24 10 25 11
REMARK SMILES IDX 26 12 27 13 28 14 29 15 30 16 14 17 13 18 12 19 11 20 10 21
REMARK SMILES IDX 9 22 8 23 7 24 6 25 5 26 4 27 3 28 2 29 1 30
REMARK H PARENT
REMARK Flexibility Score: inf
ROOT
ATOM      1  C   UNL     1      -6.290  -1.072  38.445  1.00  0.00     0.000 C 
ENDROOT
BRANCH   1   2
ATOM      2  C   UNL     1      -7.771  -0.804  38.118  1.00  0.00     0.000 C 
BRANCH   2   3
ATOM      3  C   UNL     1      -8.112   0.701  38.108  1.00  0.00     0.000 C 
BRANCH   3   4
ATOM      4  C   UNL     1      -8.134   1.346  39.509  1.00  0.00     0.000 C 
BRANCH   4   5
ATOM      5  C   UNL     1      -6.957   2.289  39.815  1.00  0.00     0.000 C 
BRANCH   5   6
ATOM      6  C   UNL     1      -7.320   3.785  39.892  1.00  0.00     0.000 C 
BRANCH   6   7
ATOM      7  C   UNL     1      -6.992   4.577  38.609  1.00  0.00     0.000 C 
BRANCH   7   8
ATOM      8  C   UNL     1      -8.190   5.398  38.098  1.00  0.00     0.000 C 
BRANCH   8   9
ATOM      9  C   UNL     1      -8.848   4.756  36.858  1.00  0.00     0.000 C 
BRANCH   9  10
ATOM     10  C   UNL     1      -9.973   3.766  37.205  1.00  0.00     0.000 C 
BRANCH  10  11
ATOM     11  C   UNL     1     -11.107   3.764  36.170  1.00  0.00     0.000 C 
BRANCH  11  12
ATOM     12  C   UNL     1     -10.719   4.585  34.932  1.00  0.00     0.006 C 
BRANCH  12  13
ATOM     13  C   UNL     1     -11.130   3.895  33.625  1.00  0.00     0.053 C 
BRANCH  13  14
ATOM     14  C   UNL     1     -12.273   4.596  32.955  1.00  0.00     0.041 C 
ATOM     15  O   UNL     1     -12.052   5.497  32.102  1.00  0.00    -0.550 OA
ATOM     16  O   UNL     1     -13.582   4.263  33.282  1.00  0.00    -0.550 OA
ENDBRANCH  13  14
ENDBRANCH  12  13
ENDBRANCH  11  12
ENDBRANCH  10  11
ENDBRANCH   9  10
ENDBRANCH   8   9
ENDBRANCH   7   8
ENDBRANCH   6   7
ENDBRANCH   5   6
ENDBRANCH   4   5
ENDBRANCH   3   4
ENDBRANCH   2   3
ENDBRANCH   1   2
BRANCH   1  17
ATOM     17  C   UNL     1      -5.327  -0.297  37.532  1.00  0.00     0.000 C 
BRANCH  17  18
ATOM     18  C   UNL     1      -4.158   0.337  38.305  1.00  0.00     0.000 C 
BRANCH  18  19
ATOM     19  C   UNL     1      -3.547   1.536  37.556  1.00  0.00     0.000 C 
BRANCH  19  20
ATOM     20  C   UNL     1      -3.567   2.849  38.361  1.00  0.00     0.000 C 
BRANCH  20  21
ATOM     21  C   UNL     1      -2.866   4.000  37.623  1.00  0.00     0.000 C 
BRANCH  21  22
ATOM     22  C   UNL     1      -3.874   5.076  37.191  1.00  0.00    -0.000 C 
BRANCH  22  23
ATOM     23  C   UNL     1      -3.957   5.251  35.663  1.00  0.00    -0.000 C 
BRANCH  23  24
ATOM     24  C   UNL     1      -4.300   3.973  34.873  1.00  0.00    -0.000 C 
BRANCH  24  25
ATOM     25  C   UNL     1      -5.814   3.771  34.677  1.00  0.00    -0.000 C 
BRANCH  25  26
ATOM     26  C   UNL     1      -6.352   2.557  35.452  1.00  0.00    -0.000 C 
BRANCH  26  27
ATOM     27  C   UNL     1      -7.606   1.945  34.809  1.00  0.00    -0.000 C 
BRANCH  27  28
ATOM     28  C   UNL     1      -7.375   0.465  34.465  1.00  0.00    -0.000 C 
BRANCH  28  29
ATOM     29  C   UNL     1      -5.987   0.210  33.860  1.00  0.00    -0.003 C 
ATOM     30  C   UNL     1      -5.515  -1.231  34.057  1.00  0.00     0.004 C 
ENDBRANCH  28  29
ENDBRANCH  27  28
ENDBRANCH  26  27
ENDBRANCH  25  26
ENDBRANCH  24  25
ENDBRANCH  23  24
ENDBRANCH  22  23
ENDBRANCH  21  22
ENDBRANCH  20  21
ENDBRANCH  19  20
ENDBRANCH  18  19
ENDBRANCH  17  18
ENDBRANCH   1  17
TORSDOF 26
ENDMDL
MODEL 7
REMARK VINA RESULT:    -3.736      3.583      7.472
REMARK INTER + INTRA:         -13.527
REMARK INTER:                  -8.243
REMARK INTRA:                  -5.284
REMARK UNBOUND:                -4.113
REMARK SMILES CCCCCCCCCCCCCCCCCCCCCCCCCCCC(=O)[O-]
REMARK SMILES IDX 15 1 16 2 17 3 18 4 19 5 20 6 21 7 22 8 23 9 24 10 25 11
REMARK SMILES IDX 26 12 27 13 28 14 29 15 30 16 14 17 13 18 12 19 11 20 10 21
REMARK SMILES IDX 9 22 8 23 7 24 6 25 5 26 4 27 3 28 2 29 1 30
REMARK H PARENT
REMARK Flexibility Score: inf
ROOT
ATOM      1  C   UNL     1      -3.651   0.765  37.107  1.00  0.00     0.000 C 
ENDROOT
BRANCH   1   2
ATOM      2  C   UNL     1      -4.240  -0.053  38.272  1.00  0.00     0.000 C 
BRANCH   2   3
ATOM      3  C   UNL     1      -5.576  -0.733  37.902  1.00  0.00     0.000 C 
BRANCH   3   4
ATOM      4  C   UNL     1      -6.823   0.082  38.302  1.00  0.00     0.000 C 
BRANCH   4   5
ATOM      5  C   UNL     1      -8.142  -0.380  37.657  1.00  0.00     0.000 C 
BRANCH   5   6
ATOM      6  C   UNL     1      -9.188   0.731  37.439  1.00  0.00     0.000 C 
BRANCH   6   7
ATOM      7  C   UNL     1     -10.292   0.774  38.516  1.00  0.00     0.000 C 
BRANCH   7   8
ATOM      8  C   UNL     1     -10.765   2.207  38.821  1.00  0.00     0.000 C 
BRANCH   8   9
ATOM      9  C   UNL     1     -12.239   2.429  38.421  1.00  0.00     0.000 C 
BRANCH   9  10
ATOM     10  C   UNL     1     -12.436   3.578  37.419  1.00  0.00     0.000 C 
BRANCH  10  11
ATOM     11  C   UNL     1     -11.127   4.011  36.742  1.00  0.00     0.000 C 
BRANCH  11  12
ATOM     12  C   UNL     1     -11.185   3.761  35.228  1.00  0.00     0.006 C 
BRANCH  12  13
ATOM     13  C   UNL     1     -10.875   5.025  34.418  1.00  0.00     0.053 C 
BRANCH  13  14
ATOM     14  C   UNL     1     -11.352   4.916  33.001  1.00  0.00     0.041 C 
ATOM     15  O   UNL     1     -12.583   4.973  32.740  1.00  0.00    -0.550 OA
ATOM     16  O   UNL     1     -10.437   4.738  31.970  1.00  0.00    -0.550 OA
ENDBRANCH  13  14
ENDBRANCH  12  13
ENDBRANCH  11  12
ENDBRANCH  10  11
ENDBRANCH   9  10
ENDBRANCH   8   9
ENDBRANCH   7   8
ENDBRANCH   6   7
ENDBRANCH   5   6
ENDBRANCH   4   5
ENDBRANCH   3   4
ENDBRANCH   2   3
ENDBRANCH   1   2
BRANCH   1  17
ATOM     17  C   UNL     1      -3.565   2.268  37.417  1.00  0.00     0.000 C 
BRANCH  17  18
ATOM     18  C   UNL     1      -3.827   2.584  38.899  1.00  0.00     0.000 C 
BRANCH  18  19
ATOM     19  C   UNL     1      -4.469   3.970  39.095  1.00  0.00     0.000 C 
BRANCH  19  20
ATOM     20  C   UNL     1      -5.679   3.968  40.048  1.00  0.00     0.000 C 
BRANCH  20  21
ATOM     21  C   UNL     1      -6.963   3.474  39.364  1.00  0.00     0.000 C 
BRANCH  21  22
ATOM     22  C   UNL     1      -7.825   4.652  38.886  1.00  0.00    -0.000 C 
BRANCH  22  23
ATOM     23  C   UNL     1      -7.859   4.795  37.353  1.00  0.00    -0.000 C 
BRANCH  23  24
ATOM     24  C   UNL     1      -7.217   3.634  36.569  1.00  0.00    -0.000 C 
BRANCH  24  25
ATOM     25  C   UNL     1      -7.432   3.737  35.049  1.00  0.00    -0.000 C 
BRANCH  25  26
ATOM     26  C   UNL     1      -6.476   2.833  34.255  1.00  0.00    -0.000 C 
BRANCH  26  27
ATOM     27  C   UNL     1      -6.298   1.444  34.890  1.00  0.00    -0.000 C 
BRANCH  27  28
ATOM     28  C   UNL     1      -7.011   0.368  34.056  1.00  0.00    -0.000 C 
BRANCH  28  29
ATOM     29  C   UNL     1      -6.488  -1.047  34.347  1.00  0.00    -0.003 C 
ATOM     30  C   UNL     1      -4.971  -1.157  34.191  1.00  0.00     0.004 C 
ENDBRANCH  28  29
ENDBRANCH  27  28
ENDBRANCH  26  27
ENDBRANCH  25  26
ENDBRANCH  24  25
ENDBRANCH  23  24
ENDBRANCH  22  23
ENDBRANCH  21  22
ENDBRANCH  20  21
ENDBRANCH  19  20
ENDBRANCH  18  19
ENDBRANCH  17  18
ENDBRANCH   1  17
TORSDOF 26
ENDMDL
MODEL 8
REMARK VINA RESULT:    -3.723      3.784      6.651
REMARK INTER + INTRA:         -13.493
REMARK INTER:                  -7.460
REMARK INTRA:                  -6.033
REMARK UNBOUND:                -4.113
REMARK SMILES CCCCCCCCCCCCCCCCCCCCCCCCCCCC(=O)[O-]
REMARK SMILES IDX 15 1 16 2 17 3 18 4 19 5 20 6 21 7 22 8 23 9 24 10 25 11
REMARK SMILES IDX 26 12 27 13 28 14 29 15 30 16 14 17 13 18 12 19 11 20 10 21
REMARK SMILES IDX 9 22 8 23 7 24 6 25 5 26 4 27 3 28 2 29 1 30
REMARK H PARENT
REMARK Flexibility Score: inf
ROOT
ATOM      1  C   UNL     1      -3.794   1.118  36.861  1.00  0.00     0.000 C 
ENDROOT
BRANCH   1   2
ATOM      2  C   UNL     1      -2.562   0.761  36.008  1.00  0.00     0.000 C 
BRANCH   2   3
ATOM      3  C   UNL     1      -2.914  -0.150  34.812  1.00  0.00     0.000 C 
BRANCH   3   4
ATOM      4  C   UNL     1      -4.346   0.048  34.276  1.00  0.00     0.000 C 
BRANCH   4   5
ATOM      5  C   UNL     1      -5.261  -1.185  34.381  1.00  0.00     0.000 C 
BRANCH   5   6
ATOM      6  C   UNL     1      -6.741  -0.878  34.687  1.00  0.00     0.000 C 
BRANCH   6   7
ATOM      7  C   UNL     1      -7.075   0.627  34.728  1.00  0.00     0.000 C 
BRANCH   7   8
ATOM      8  C   UNL     1      -8.083   1.040  33.640  1.00  0.00     0.000 C 
BRANCH   8   9
ATOM      9  C   UNL     1      -7.430   1.911  32.545  1.00  0.00     0.000 C 
BRANCH   9  10
ATOM     10  C   UNL     1      -8.200   3.211  32.256  1.00  0.00     0.000 C 
BRANCH  10  11
ATOM     11  C   UNL     1      -9.547   3.283  32.990  1.00  0.00     0.000 C 
BRANCH  11  12
ATOM     12  C   UNL     1     -10.061   4.729  33.050  1.00  0.00     0.006 C 
BRANCH  12  13
ATOM     13  C   UNL     1     -11.091   4.934  34.167  1.00  0.00     0.053 C 
BRANCH  13  14
ATOM     14  C   UNL     1     -12.357   4.173  33.911  1.00  0.00     0.041 C 
ATOM     15  O   UNL     1     -12.706   3.244  34.688  1.00  0.00    -0.550 OA
ATOM     16  O   UNL     1     -13.144   4.481  32.808  1.00  0.00    -0.550 OA
ENDBRANCH  13  14
ENDBRANCH  12  13
ENDBRANCH  11  12
ENDBRANCH  10  11
ENDBRANCH   9  10
ENDBRANCH   8   9
ENDBRANCH   7   8
ENDBRANCH   6   7
ENDBRANCH   5   6
ENDBRANCH   4   5
ENDBRANCH   3   4
ENDBRANCH   2   3
ENDBRANCH   1   2
BRANCH   1  17
ATOM     17  C   UNL     1      -3.884   0.292  38.155  1.00  0.00     0.000 C 
BRANCH  17  18
ATOM     18  C   UNL     1      -5.195  -0.504  38.260  1.00  0.00     0.000 C 
BRANCH  18  19
ATOM     19  C   UNL     1      -6.437   0.397  38.123  1.00  0.00     0.000 C 
BRANCH  19  20
ATOM     20  C   UNL     1      -7.105   0.745  39.467  1.00  0.00     0.000 C 
BRANCH  20  21
ATOM     21  C   UNL     1      -7.362   2.253  39.620  1.00  0.00     0.000 C 
BRANCH  21  22
ATOM     22  C   UNL     1      -6.102   3.066  39.288  1.00  0.00    -0.000 C 
BRANCH  22  23
ATOM     23  C   UNL     1      -6.356   4.185  38.261  1.00  0.00    -0.000 C 
BRANCH  23  24
ATOM     24  C   UNL     1      -6.461   3.722  36.795  1.00  0.00    -0.000 C 
BRANCH  24  25
ATOM     25  C   UNL     1      -7.829   4.030  36.159  1.00  0.00    -0.000 C 
BRANCH  25  26
ATOM     26  C   UNL     1      -8.844   4.571  37.178  1.00  0.00    -0.000 C 
BRANCH  26  27
ATOM     27  C   UNL     1     -10.035   3.625  37.399  1.00  0.00    -0.000 C 
BRANCH  27  28
ATOM     28  C   UNL     1      -9.833   2.307  36.634  1.00  0.00    -0.000 C 
BRANCH  28  29
ATOM     29  C   UNL     1     -10.621   1.141  37.249  1.00  0.00    -0.003 C 
ATOM     30  C   UNL     1      -9.905  -0.200  37.092  1.00  0.00     0.004 C 
ENDBRANCH  28  29
ENDBRANCH  27  28
ENDBRANCH  26  27
ENDBRANCH  25  26
ENDBRANCH  24  25
ENDBRANCH  23  24
ENDBRANCH  22  23
ENDBRANCH  21  22
ENDBRANCH  20  21
ENDBRANCH  19  20
ENDBRANCH  18  19
ENDBRANCH  17  18
ENDBRANCH   1  17
TORSDOF 26
ENDMDL
MODEL 9
REMARK VINA RESULT:    -3.701      1.723      4.046
REMARK INTER + INTRA:         -13.438
REMARK INTER:                  -8.531
REMARK INTRA:                  -4.907
REMARK UNBOUND:                -4.113
REMARK SMILES CCCCCCCCCCCCCCCCCCCCCCCCCCCC(=O)[O-]
REMARK SMILES IDX 15 1 16 2 17 3 18 4 19 5 20 6 21 7 22 8 23 9 24 10 25 11
REMARK SMILES IDX 26 12 27 13 28 14 29 15 30 16 14 17 13 18 12 19 11 20 10 21
REMARK SMILES IDX 9 22 8 23 7 24 6 25 5 26 4 27 3 28 2 29 1 30
REMARK H PARENT
REMARK Flexibility Score: inf
ROOT
ATOM      1  C   UNL     1      -6.448   3.339  39.662  1.00  0.00     0.000 C 
ENDROOT
BRANCH   1   2
ATOM      2  C   UNL     1      -5.236   3.511  38.727  1.00  0.00     0.000 C 
BRANCH   2   3
ATOM      3  C   UNL     1      -4.110   2.498  39.024  1.00  0.00     0.000 C 
BRANCH   3   4
ATOM      4  C   UNL     1      -3.627   1.719  37.784  1.00  0.00     0.000 C 
BRANCH   4   5
ATOM      5  C   UNL     1      -3.850   0.197  37.838  1.00  0.00     0.000 C 
BRANCH   5   6
ATOM      6  C   UNL     1      -5.117  -0.253  38.592  1.00  0.00     0.000 C 
BRANCH   6   7
ATOM      7  C   UNL     1      -6.313  -0.577  37.674  1.00  0.00     0.000 C 
BRANCH   7   8
ATOM      8  C   UNL     1      -7.338   0.571  37.610  1.00  0.00     0.000 C 
BRANCH   8   9
ATOM      9  C   UNL     1      -7.650   0.989  36.157  1.00  0.00     0.000 C 
BRANCH   9  10
ATOM     10  C   UNL     1      -6.688   2.055  35.607  1.00  0.00     0.000 C 
BRANCH  10  11
ATOM     11  C   UNL     1      -5.535   1.455  34.789  1.00  0.00     0.000 C 
BRANCH  11  12
ATOM     12  C   UNL     1      -5.976   0.162  34.089  1.00  0.00     0.006 C 
BRANCH  12  13
ATOM     13  C   UNL     1      -5.001  -0.996  34.339  1.00  0.00     0.053 C 
BRANCH  13  14
ATOM     14  C   UNL     1      -3.647  -0.727  33.756  1.00  0.00     0.041 C 
ATOM     15  O   UNL     1      -2.679  -0.439  34.509  1.00  0.00    -0.550 OA
ATOM     16  O   UNL     1      -3.458  -0.783  32.381  1.00  0.00    -0.550 OA
ENDBRANCH  13  14
ENDBRANCH  12  13
ENDBRANCH  11  12
ENDBRANCH  10  11
ENDBRANCH   9  10
ENDBRANCH   8   9
ENDBRANCH   7   8
ENDBRANCH   6   7
ENDBRANCH   5   6
ENDBRANCH   4   5
ENDBRANCH   3   4
ENDBRANCH   2   3
ENDBRANCH   1   2
BRANCH   1  17
ATOM     17  C   UNL     1      -7.533   4.404  39.435  1.00  0.00     0.000 C 
BRANCH  17  18
ATOM     18  C   UNL     1      -7.801   4.670  37.944  1.00  0.00     0.000 C 
BRANCH  18  19
ATOM     19  C   UNL     1      -9.180   4.149  37.498  1.00  0.00     0.000 C 
BRANCH  19  20
ATOM     20  C   UNL     1      -9.812   4.959  36.351  1.00  0.00     0.000 C 
BRANCH  20  21
ATOM     21  C   UNL     1      -9.397   4.436  34.967  1.00  0.00     0.000 C 
BRANCH  21  22
ATOM     22  C   UNL     1     -10.552   4.557  33.961  1.00  0.00    -0.000 C 
BRANCH  22  23
ATOM     23  C   UNL     1     -11.891   4.027  34.508  1.00  0.00    -0.000 C 
BRANCH  23  24
ATOM     24  C   UNL     1     -11.997   2.493  34.612  1.00  0.00    -0.000 C 
BRANCH  24  25
ATOM     25  C   UNL     1     -12.627   2.019  35.934  1.00  0.00    -0.000 C 
BRANCH  25  26
ATOM     26  C   UNL     1     -13.196   3.179  36.766  1.00  0.00    -0.000 C 
BRANCH  26  27
ATOM     27  C   UNL     1     -12.720   3.158  38.227  1.00  0.00    -0.000 C 
BRANCH  27  28
ATOM     28  C   UNL     1     -11.813   1.945  38.488  1.00  0.00    -0.000 C 
BRANCH  28  29
ATOM     29  C   UNL     1     -12.237   1.148  39.731  1.00  0.00    -0.003 C 
ATOM     30  C   UNL     1     -12.915  -0.176  39.378  1.00  0.00     0.004 C 
ENDBRANCH  28  29
ENDBRANCH  27  28
ENDBRANCH  26  27
ENDBRANCH  25  26
ENDBRANCH  24  25
ENDBRANCH  23  24
ENDBRANCH  22  23
ENDBRANCH  21  22
ENDBRANCH  20  21
ENDBRANCH  19  20
ENDBRANCH  18  19
ENDBRANCH  17  18
ENDBRANCH   1  17
TORSDOF 26
ENDMDL
