MODEL 1
REMARK VINA RESULT:    -4.064      0.000      0.000
REMARK INTER + INTRA:          -8.838
REMARK INTER:                  -7.391
REMARK INTRA:                  -1.448
REMARK UNBOUND:                -1.448
REMARK SMILES CCCCCCCCCCCCCCCC(=O)[O-]
REMARK SMILES IDX 9 1 10 2 11 3 12 4 13 5 14 6 15 7 16 8 17 9 18 10 8 11 7 12
REMARK SMILES IDX 6 13 5 14 4 15 3 16 2 17 1 18
REMARK H PARENT
REMARK Flexibility Score: inf
ROOT
ATOM      1  C   UNL     1      33.008  46.676  26.026  1.00  0.00     0.000 C 
ENDROOT
BRANCH   1   2
ATOM      2  C   UNL     1      32.839  45.230  25.525  1.00  0.00     0.000 C 
BRANCH   2   3
ATOM      3  C   UNL     1      33.941  44.254  25.983  1.00  0.00     0.000 C 
BRANCH   3   4
ATOM      4  C   UNL     1      35.072  44.885  26.822  1.00  0.00     0.000 C 
BRANCH   4   5
ATOM      5  C   UNL     1      36.497  44.573  26.332  1.00  0.00     0.000 C 
BRANCH   5   6
ATOM      6  C   UNL     1      36.917  43.119  26.608  1.00  0.00     0.006 C 
BRANCH   6   7
ATOM      7  C   UNL     1      37.927  42.603  25.575  1.00  0.00     0.053 C 
BRANCH   7   8
ATOM      8  C   UNL     1      37.276  41.728  24.549  1.00  0.00     0.041 C 
ATOM      9  O   UNL     1      37.963  40.909  23.884  1.00  0.00    -0.550 OA
ATOM     10  O   UNL     1      35.903  41.796  24.346  1.00  0.00    -0.550 OA
ENDBRANCH   7   8
ENDBRANCH   6   7
ENDBRANCH   5   6
ENDBRANCH   4   5
ENDBRANCH   3   4
ENDBRANCH   2   3
ENDBRANCH   1   2
BRANCH   1  11
ATOM     11  C   UNL     1      33.402  47.651  24.905  1.00  0.00     0.000 C 
BRANCH  11  12
ATOM     12  C   UNL     1      34.761  48.321  25.157  1.00  0.00    -0.000 C 
BRANCH  12  13
ATOM     13  C   UNL     1      34.829  49.023  26.525  1.00  0.00    -0.000 C 
BRANCH  13  14
ATOM     14  C   UNL     1      34.239  50.441  26.489  1.00  0.00    -0.000 C 
BRANCH  14  15
ATOM     15  C   UNL     1      32.796  50.492  27.016  1.00  0.00    -0.000 C 
BRANCH  15  16
ATOM     16  C   UNL     1      31.842  51.245  26.071  1.00  0.00    -0.000 C 
BRANCH  16  17
ATOM     17  C   UNL     1      30.933  50.313  25.241  1.00  0.00    -0.003 C 
ATOM     18  C   UNL     1      30.852  50.733  23.774  1.00  0.00     0.004 C 
ENDBRANCH  16  17
ENDBRANCH  15  16
ENDBRANCH  14  15
ENDBRANCH  13  14
ENDBRANCH  12  13
ENDBRANCH  11  12
ENDBRANCH   1  11
TORSDOF 14
ENDMDL
MODEL 2
REMARK VINA RESULT:    -3.832      1.387      1.963
REMARK INTER + INTRA:          -8.416
REMARK INTER:                  -7.471
REMARK INTRA:                  -0.945
REMARK UNBOUND:                -1.448
REMARK SMILES CCCCCCCCCCCCCCCC(=O)[O-]
REMARK SMILES IDX 9 1 10 2 11 3 12 4 13 5 14 6 15 7 16 8 17 9 18 10 8 11 7 12
REMARK SMILES IDX 6 13 5 14 4 15 3 16 2 17 1 18
REMARK H PARENT
REMARK Flexibility Score: inf
ROOT
ATOM      1  C   UNL     1      34.865  48.077  25.286  1.00  0.00     0.000 C 
ENDROOT
BRANCH   1   2
ATOM      2  C   UNL     1      34.996  46.954  26.331  1.00  0.00     0.000 C 
BRANCH   2   3
ATOM      3  C   UNL     1      36.430  46.709  26.842  1.00  0.00     0.000 C 
BRANCH   3   4
ATOM      4  C   UNL     1      36.908  45.243  26.780  1.00  0.00     0.000 C 
BRANCH   4   5
ATOM      5  C   UNL     1      35.822  44.221  26.400  1.00  0.00     0.000 C 
BRANCH   5   6
ATOM      6  C   UNL     1      36.369  42.788  26.279  1.00  0.00     0.006 C 
BRANCH   6   7
ATOM      7  C   UNL     1      37.007  42.527  24.909  1.00  0.00     0.053 C 
BRANCH   7   8
ATOM      8  C   UNL     1      37.382  41.088  24.734  1.00  0.00     0.041 C 
ATOM      9  O   UNL     1      37.389  40.308  25.722  1.00  0.00    -0.550 OA
ATOM     10  O   UNL     1      37.696  40.600  23.471  1.00  0.00    -0.550 OA
ENDBRANCH   7   8
ENDBRANCH   6   7
ENDBRANCH   5   6
ENDBRANCH   4   5
ENDBRANCH   3   4
ENDBRANCH   2   3
ENDBRANCH   1   2
BRANCH   1  11
ATOM     11  C   UNL     1      33.484  48.753  25.310  1.00  0.00     0.000 C 
BRANCH  11  12
ATOM     12  C   UNL     1      33.278  49.628  26.556  1.00  0.00    -0.000 C 
BRANCH  12  13
ATOM     13  C   UNL     1      34.210  50.852  26.578  1.00  0.00    -0.000 C 
BRANCH  13  14
ATOM     14  C   UNL     1      33.451  52.174  26.394  1.00  0.00    -0.000 C 
BRANCH  14  15
ATOM     15  C   UNL     1      31.926  51.979  26.358  1.00  0.00    -0.000 C 
BRANCH  15  16
ATOM     16  C   UNL     1      31.290  52.483  25.051  1.00  0.00    -0.000 C 
BRANCH  16  17
ATOM     17  C   UNL     1      30.705  51.355  24.175  1.00  0.00    -0.003 C 
ATOM     18  C   UNL     1      29.314  50.919  24.637  1.00  0.00     0.004 C 
ENDBRANCH  16  17
ENDBRANCH  15  16
ENDBRANCH  14  15
ENDBRANCH  13  14
ENDBRANCH  12  13
ENDBRANCH  11  12
ENDBRANCH   1  11
TORSDOF 14
ENDMDL
MODEL 3
REMARK VINA RESULT:    -3.795      3.744      8.252
REMARK INTER + INTRA:          -8.349
REMARK INTER:                  -7.156
REMARK INTRA:                  -1.193
REMARK UNBOUND:                -1.448
REMARK SMILES CCCCCCCCCCCCCCCC(=O)[O-]
REMARK SMILES IDX 9 1 10 2 11 3 12 4 13 5 14 6 15 7 16 8 17 9 18 10 8 11 7 12
REMARK SMILES IDX 6 13 5 14 4 15 3 16 2 17 1 18
REMARK H PARENT
REMARK Flexibility Score: inf
ROOT
ATOM      1  C   UNL     1      33.232  47.939  25.025  1.00  0.00     0.000 C 
ENDROOT
BRANCH   1   2
ATOM      2  C   UNL     1      34.694  48.359  25.259  1.00  0.00     0.000 C 
BRANCH   2   3
ATOM      3  C   UNL     1      34.969  49.015  26.627  1.00  0.00     0.000 C 
BRANCH   3   4
ATOM      4  C   UNL     1      33.890  50.008  27.107  1.00  0.00     0.000 C 
BRANCH   4   5
ATOM      5  C   UNL     1      34.009  51.429  26.527  1.00  0.00     0.000 C 
BRANCH   5   6
ATOM      6  C   UNL     1      32.659  52.165  26.472  1.00  0.00     0.006 C 
BRANCH   6   7
ATOM      7  C   UNL     1      31.506  51.228  26.090  1.00  0.00     0.053 C 
BRANCH   7   8
ATOM      8  C   UNL     1      31.076  51.425  24.669  1.00  0.00     0.041 C 
ATOM      9  O   UNL     1      30.856  52.582  24.226  1.00  0.00    -0.550 OA
ATOM     10  O   UNL     1      30.946  50.329  23.824  1.00  0.00    -0.550 OA
ENDBRANCH   7   8
ENDBRANCH   6   7
ENDBRANCH   5   6
ENDBRANCH   4   5
ENDBRANCH   3   4
ENDBRANCH   2   3
ENDBRANCH   1   2
BRANCH   1  11
ATOM     11  C   UNL     1      33.031  46.416  25.098  1.00  0.00     0.000 C 
BRANCH  11  12
ATOM     12  C   UNL     1      32.879  45.911  26.541  1.00  0.00    -0.000 C 
BRANCH  12  13
ATOM     13  C   UNL     1      33.702  44.639  26.810  1.00  0.00    -0.000 C 
BRANCH  13  14
ATOM     14  C   UNL     1      35.172  44.788  26.388  1.00  0.00    -0.000 C 
BRANCH  14  15
ATOM     15  C   UNL     1      35.974  43.491  26.581  1.00  0.00    -0.000 C 
BRANCH  15  16
ATOM     16  C   UNL     1      36.192  42.721  25.266  1.00  0.00    -0.000 C 
BRANCH  16  17
ATOM     17  C   UNL     1      37.481  41.873  25.254  1.00  0.00    -0.003 C 
ATOM     18  C   UNL     1      37.619  41.039  23.980  1.00  0.00     0.004 C 
ENDBRANCH  16  17
ENDBRANCH  15  16
ENDBRANCH  14  15
ENDBRANCH  13  14
ENDBRANCH  12  13
ENDBRANCH  11  12
ENDBRANCH   1  11
TORSDOF 14
ENDMDL
MODEL 4
REMARK VINA RESULT:    -3.758      3.658      8.045
REMARK INTER + INTRA:          -8.281
REMARK INTER:                  -6.885
REMARK INTRA:                  -1.396
REMARK UNBOUND:                -1.448
REMARK SMILES CCCCCCCCCCCCCCCC(=O)[O-]
REMARK SMILES IDX 9 1 10 2 11 3 12 4 13 5 14 6 15 7 16 8 17 9 18 10 8 11 7 12
REMARK SMILES IDX 6 13 5 14 4 15 3 16 2 17 1 18
REMARK H PARENT
REMARK Flexibility Score: inf
ROOT
ATOM      1  C   UNL     1      33.127  47.114  24.925  1.00  0.00     0.000 C 
ENDROOT
BRANCH   1   2
ATOM      2  C   UNL     1      34.148  48.265  24.879  1.00  0.00     0.000 C 
BRANCH   2   3
ATOM      3  C   UNL     1      34.946  48.473  26.182  1.00  0.00     0.000 C 
BRANCH   3   4
ATOM      4  C   UNL     1      34.576  49.738  26.984  1.00  0.00     0.000 C 
BRANCH   4   5
ATOM      5  C   UNL     1      33.485  50.617  26.346  1.00  0.00     0.000 C 
BRANCH   5   6
ATOM      6  C   UNL     1      32.122  50.474  27.044  1.00  0.00     0.006 C 
BRANCH   6   7
ATOM      7  C   UNL     1      31.034  49.964  26.090  1.00  0.00     0.053 C 
BRANCH   7   8
ATOM      8  C   UNL     1      30.943  50.800  24.851  1.00  0.00     0.041 C 
ATOM      9  O   UNL     1      31.264  50.318  23.734  1.00  0.00    -0.550 OA
ATOM     10  O   UNL     1      30.475  52.106  24.927  1.00  0.00    -0.550 OA
ENDBRANCH   7   8
ENDBRANCH   6   7
ENDBRANCH   5   6
ENDBRANCH   4   5
ENDBRANCH   3   4
ENDBRANCH   2   3
ENDBRANCH   1   2
BRANCH   1  11
ATOM     11  C   UNL     1      33.031  46.459  26.312  1.00  0.00     0.000 C 
BRANCH  11  12
ATOM     12  C   UNL     1      32.899  44.930  26.233  1.00  0.00    -0.000 C 
BRANCH  12  13
ATOM     13  C   UNL     1      34.229  44.241  25.882  1.00  0.00    -0.000 C 
BRANCH  13  14
ATOM     14  C   UNL     1      35.071  43.916  27.125  1.00  0.00    -0.000 C 
BRANCH  14  15
ATOM     15  C   UNL     1      36.347  43.130  26.784  1.00  0.00    -0.000 C 
BRANCH  15  16
ATOM     16  C   UNL     1      36.542  42.935  25.270  1.00  0.00    -0.000 C 
BRANCH  16  17
ATOM     17  C   UNL     1      36.501  41.457  24.827  1.00  0.00    -0.003 C 
ATOM     18  C   UNL     1      37.578  41.126  23.795  1.00  0.00     0.004 C 
ENDBRANCH  16  17
ENDBRANCH  15  16
ENDBRANCH  14  15
ENDBRANCH  13  14
ENDBRANCH  12  13
ENDBRANCH  11  12
ENDBRANCH   1  11
TORSDOF 14
ENDMDL
MODEL 5
REMARK VINA RESULT:    -3.756      1.380      2.004
REMARK INTER + INTRA:          -8.277
REMARK INTER:                  -7.303
REMARK INTRA:                  -0.974
REMARK UNBOUND:                -1.448
REMARK SMILES CCCCCCCCCCCCCCCC(=O)[O-]
REMARK SMILES IDX 9 1 10 2 11 3 12 4 13 5 14 6 15 7 16 8 17 9 18 10 8 11 7 12
REMARK SMILES IDX 6 13 5 14 4 15 3 16 2 17 1 18
REMARK H PARENT
REMARK Flexibility Score: inf
ROOT
ATOM      1  C   UNL     1      33.251  47.139  25.121  1.00  0.00     0.000 C 
ENDROOT
BRANCH   1   2
ATOM      2  C   UNL     1      33.592  45.841  25.874  1.00  0.00     0.000 C 
BRANCH   2   3
ATOM      3  C   UNL     1      34.755  45.963  26.880  1.00  0.00     0.000 C 
BRANCH   3   4
ATOM      4  C   UNL     1      36.028  45.173  26.512  1.00  0.00     0.000 C 
BRANCH   4   5
ATOM      5  C   UNL     1      35.815  43.666  26.284  1.00  0.00     0.000 C 
BRANCH   5   6
ATOM      6  C   UNL     1      36.893  43.041  25.382  1.00  0.00     0.006 C 
BRANCH   6   7
ATOM      7  C   UNL     1      37.532  41.801  26.019  1.00  0.00     0.053 C 
BRANCH   7   8
ATOM      8  C   UNL     1      37.533  40.632  25.082  1.00  0.00     0.041 C 
ATOM      9  O   UNL     1      37.719  40.806  23.849  1.00  0.00    -0.550 OA
ATOM     10  O   UNL     1      37.357  39.345  25.576  1.00  0.00    -0.550 OA
ENDBRANCH   7   8
ENDBRANCH   6   7
ENDBRANCH   5   6
ENDBRANCH   4   5
ENDBRANCH   3   4
ENDBRANCH   2   3
ENDBRANCH   1   2
BRANCH   1  11
ATOM     11  C   UNL     1      34.333  48.219  25.277  1.00  0.00     0.000 C 
BRANCH  11  12
ATOM     12  C   UNL     1      33.804  49.489  25.962  1.00  0.00    -0.000 C 
BRANCH  12  13
ATOM     13  C   UNL     1      32.424  49.278  26.609  1.00  0.00    -0.000 C 
BRANCH  13  14
ATOM     14  C   UNL     1      31.355  50.222  26.038  1.00  0.00    -0.000 C 
BRANCH  14  15
ATOM     15  C   UNL     1      31.329  50.223  24.501  1.00  0.00    -0.000 C 
BRANCH  15  16
ATOM     16  C   UNL     1      30.660  51.479  23.915  1.00  0.00    -0.000 C 
BRANCH  16  17
ATOM     17  C   UNL     1      30.471  52.614  24.943  1.00  0.00    -0.003 C 
ATOM     18  C   UNL     1      31.235  53.882  24.559  1.00  0.00     0.004 C 
ENDBRANCH  16  17
ENDBRANCH  15  16
ENDBRANCH  14  15
ENDBRANCH  13  14
ENDBRANCH  12  13
ENDBRANCH  11  12
ENDBRANCH   1  11
TORSDOF 14
ENDMDL
MODEL 6
REMARK VINA RESULT:    -3.706      5.185      8.445
REMARK INTER + INTRA:          -8.186
REMARK INTER:                  -6.606
REMARK INTRA:                  -1.580
REMARK UNBOUND:                -1.448
REMARK SMILES CCCCCCCCCCCCCCCC(=O)[O-]
REMARK SMILES IDX 9 1 10 2 11 3 12 4 13 5 14 6 15 7 16 8 17 9 18 10 8 11 7 12
REMARK SMILES IDX 6 13 5 14 4 15 3 16 2 17 1 18
REMARK H PARENT
REMARK Flexibility Score: inf
ROOT
ATOM      1  C   UNL     1      33.721  48.411  25.074  1.00  0.00     0.000 C 
ENDROOT
BRANCH   1   2
ATOM      2  C   UNL     1      33.178  49.368  26.150  1.00  0.00     0.000 C 
BRANCH   2   3
ATOM      3  C   UNL     1      31.728  49.089  26.592  1.00  0.00     0.000 C 
BRANCH   3   4
ATOM      4  C   UNL     1      30.700  50.166  26.191  1.00  0.00     0.000 C 
BRANCH   4   5
ATOM      5  C   UNL     1      30.689  50.531  24.696  1.00  0.00     0.000 C 
BRANCH   5   6
ATOM      6  C   UNL     1      31.138  51.979  24.433  1.00  0.00     0.006 C 
BRANCH   6   7
ATOM      7  C   UNL     1      31.553  52.698  25.722  1.00  0.00     0.053 C 
BRANCH   7   8
ATOM      8  C   UNL     1      30.946  54.064  25.818  1.00  0.00     0.041 C 
ATOM      9  O   UNL     1      30.203  54.495  24.898  1.00  0.00    -0.550 OA
ATOM     10  O   UNL     1      31.178  54.851  26.940  1.00  0.00    -0.550 OA
ENDBRANCH   7   8
ENDBRANCH   6   7
ENDBRANCH   5   6
ENDBRANCH   4   5
ENDBRANCH   3   4
ENDBRANCH   2   3
ENDBRANCH   1   2
BRANCH   1  11
ATOM     11  C   UNL     1      35.180  47.996  25.329  1.00  0.00     0.000 C 
BRANCH  11  12
ATOM     12  C   UNL     1      35.354  47.243  26.658  1.00  0.00    -0.000 C 
BRANCH  12  13
ATOM     13  C   UNL     1      36.575  46.307  26.650  1.00  0.00    -0.000 C 
BRANCH  13  14
ATOM     14  C   UNL     1      36.181  44.824  26.704  1.00  0.00    -0.000 C 
BRANCH  14  15
ATOM     15  C   UNL     1      34.673  44.622  26.926  1.00  0.00    -0.000 C 
BRANCH  15  16
ATOM     16  C   UNL     1      33.927  44.225  25.640  1.00  0.00    -0.000 C 
BRANCH  16  17
ATOM     17  C   UNL     1      32.601  44.988  25.435  1.00  0.00    -0.003 C 
ATOM     18  C   UNL     1      31.913  45.329  26.757  1.00  0.00     0.004 C 
ENDBRANCH  16  17
ENDBRANCH  15  16
ENDBRANCH  14  15
ENDBRANCH  13  14
ENDBRANCH  12  13
ENDBRANCH  11  12
ENDBRANCH   1  11
TORSDOF 14
ENDMDL
MODEL 7
REMARK VINA RESULT:    -3.564     18.214     19.569
REMARK INTER + INTRA:          -7.928
REMARK INTER:                  -5.873
REMARK INTRA:                  -2.055
REMARK UNBOUND:                -1.448
REMARK SMILES CCCCCCCCCCCCCCCC(=O)[O-]
REMARK SMILES IDX 9 1 10 2 11 3 12 4 13 5 14 6 15 7 16 8 17 9 18 10 8 11 7 12
REMARK SMILES IDX 6 13 5 14 4 15 3 16 2 17 1 18
REMARK H PARENT
REMARK Flexibility Score: inf
ROOT
ATOM      1  C   UNL     1      29.744  46.810   8.431  1.00  0.00     0.000 C 
ENDROOT
BRANCH   1   2
ATOM      2  C   UNL     1      31.248  47.128   8.354  1.00  0.00     0.000 C 
BRANCH   2   3
ATOM      3  C   UNL     1      31.624  48.239   7.353  1.00  0.00     0.000 C 
BRANCH   3   4
ATOM      4  C   UNL     1      31.699  49.661   7.947  1.00  0.00     0.000 C 
BRANCH   4   5
ATOM      5  C   UNL     1      30.861  50.720   7.208  1.00  0.00     0.000 C 
BRANCH   5   6
ATOM      6  C   UNL     1      30.598  51.973   8.061  1.00  0.00     0.006 C 
BRANCH   6   7
ATOM      7  C   UNL     1      29.502  51.740   9.108  1.00  0.00     0.053 C 
BRANCH   7   8
ATOM      8  C   UNL     1      28.212  52.394   8.719  1.00  0.00     0.041 C 
ATOM      9  O   UNL     1      27.741  53.332   9.413  1.00  0.00    -0.550 OA
ATOM     10  O   UNL     1      27.544  51.986   7.571  1.00  0.00    -0.550 OA
ENDBRANCH   7   8
ENDBRANCH   6   7
ENDBRANCH   5   6
ENDBRANCH   4   5
ENDBRANCH   3   4
ENDBRANCH   2   3
ENDBRANCH   1   2
BRANCH   1  11
ATOM     11  C   UNL     1      28.963  47.327   7.212  1.00  0.00     0.000 C 
BRANCH  11  12
ATOM     12  C   UNL     1      27.937  48.408   7.585  1.00  0.00    -0.000 C 
BRANCH  12  13
ATOM     13  C   UNL     1      27.693  48.492   9.102  1.00  0.00    -0.000 C 
BRANCH  13  14
ATOM     14  C   UNL     1      26.287  48.018   9.500  1.00  0.00    -0.000 C 
BRANCH  14  15
ATOM     15  C   UNL     1      26.158  46.486   9.495  1.00  0.00    -0.000 C 
BRANCH  15  16
ATOM     16  C   UNL     1      25.256  45.966   8.362  1.00  0.00    -0.000 C 
BRANCH  16  17
ATOM     17  C   UNL     1      25.585  44.523   7.924  1.00  0.00    -0.003 C 
ATOM     18  C   UNL     1      27.079  44.212   8.011  1.00  0.00     0.004 C 
ENDBRANCH  16  17
ENDBRANCH  15  16
ENDBRANCH  14  15
ENDBRANCH  13  14
ENDBRANCH  12  13
ENDBRANCH  11  12
ENDBRANCH   1  11
TORSDOF 14
ENDMDL
MODEL 8
REMARK VINA RESULT:    -3.506      1.633      2.160
REMARK INTER + INTRA:          -7.823
REMARK INTER:                  -7.031
REMARK INTRA:                  -0.792
REMARK UNBOUND:                -1.448
REMARK SMILES CCCCCCCCCCCCCCCC(=O)[O-]
REMARK SMILES IDX 9 1 10 2 11 3 12 4 13 5 14 6 15 7 16 8 17 9 18 10 8 11 7 12
REMARK SMILES IDX 6 13 5 14 4 15 3 16 2 17 1 18
REMARK H PARENT
REMARK Flexibility Score: inf
ROOT
ATOM      1  C   UNL     1      33.866  46.226  26.105  1.00  0.00     0.000 C 
ENDROOT
BRANCH   1   2
ATOM      2  C   UNL     1      34.246  44.749  26.313  1.00  0.00     0.000 C 
BRANCH   2   3
ATOM      3  C   UNL     1      35.673  44.518  26.847  1.00  0.00     0.000 C 
BRANCH   3   4
ATOM      4  C   UNL     1      36.241  43.102  26.612  1.00  0.00     0.000 C 
BRANCH   4   5
ATOM      5  C   UNL     1      36.351  42.682  25.135  1.00  0.00     0.000 C 
BRANCH   5   6
ATOM      6  C   UNL     1      37.557  41.766  24.865  1.00  0.00     0.006 C 
BRANCH   6   7
ATOM      7  C   UNL     1      37.178  40.280  24.923  1.00  0.00     0.053 C 
BRANCH   7   8
ATOM      8  C   UNL     1      37.693  39.623  26.166  1.00  0.00     0.041 C 
ATOM      9  O   UNL     1      37.258  38.494  26.514  1.00  0.00    -0.550 OA
ATOM     10  O   UNL     1      38.675  40.245  26.927  1.00  0.00    -0.550 OA
ENDBRANCH   7   8
ENDBRANCH   6   7
ENDBRANCH   5   6
ENDBRANCH   4   5
ENDBRANCH   3   4
ENDBRANCH   2   3
ENDBRANCH   1   2
BRANCH   1  11
ATOM     11  C   UNL     1      35.061  47.178  26.279  1.00  0.00     0.000 C 
BRANCH  11  12
ATOM     12  C   UNL     1      34.817  48.553  25.638  1.00  0.00    -0.000 C 
BRANCH  12  13
ATOM     13  C   UNL     1      34.474  49.635  26.676  1.00  0.00    -0.000 C 
BRANCH  13  14
ATOM     14  C   UNL     1      33.443  50.647  26.154  1.00  0.00    -0.000 C 
BRANCH  14  15
ATOM     15  C   UNL     1      32.074  50.004  25.875  1.00  0.00    -0.000 C 
BRANCH  15  16
ATOM     16  C   UNL     1      31.727  49.963  24.377  1.00  0.00    -0.000 C 
BRANCH  16  17
ATOM     17  C   UNL     1      30.491  50.811  24.007  1.00  0.00    -0.003 C 
ATOM     18  C   UNL     1      30.633  52.270  24.439  1.00  0.00     0.004 C 
ENDBRANCH  16  17
ENDBRANCH  15  16
ENDBRANCH  14  15
ENDBRANCH  13  14
ENDBRANCH  12  13
ENDBRANCH  11  12
ENDBRANCH   1  11
TORSDOF 14
ENDMDL
MODEL 9
REMARK VINA RESULT:    -3.489      4.861      9.216
REMARK INTER + INTRA:          -7.793
REMARK INTER:                  -7.061
REMARK INTRA:                  -0.732
REMARK UNBOUND:                -1.448
REMARK SMILES CCCCCCCCCCCCCCCC(=O)[O-]
REMARK SMILES IDX 9 1 10 2 11 3 12 4 13 5 14 6 15 7 16 8 17 9 18 10 8 11 7 12
REMARK SMILES IDX 6 13 5 14 4 15 3 16 2 17 1 18
REMARK H PARENT
REMARK Flexibility Score: inf
ROOT
ATOM      1  C   UNL     1      33.165  46.707  25.756  1.00  0.00     0.000 C 
ENDROOT
BRANCH   1   2
ATOM      2  C   UNL     1      32.429  47.652  26.721  1.00  0.00     0.000 C 
BRANCH   2   3
ATOM      3  C   UNL     1      32.514  49.147  26.354  1.00  0.00     0.000 C 
BRANCH   3   4
ATOM      4  C   UNL     1      31.212  49.762  25.798  1.00  0.00     0.000 C 
BRANCH   4   5
ATOM      5  C   UNL     1      31.267  50.170  24.315  1.00  0.00     0.000 C 
BRANCH   5   6
ATOM      6  C   UNL     1      30.696  51.576  24.062  1.00  0.00     0.006 C 
BRANCH   6   7
ATOM      7  C   UNL     1      31.359  52.637  24.949  1.00  0.00     0.053 C 
BRANCH   7   8
ATOM      8  C   UNL     1      30.349  53.532  25.598  1.00  0.00     0.041 C 
ATOM      9  O   UNL     1      29.490  53.055  26.385  1.00  0.00    -0.550 OA
ATOM     10  O   UNL     1      30.373  54.900  25.355  1.00  0.00    -0.550 OA
ENDBRANCH   7   8
ENDBRANCH   6   7
ENDBRANCH   5   6
ENDBRANCH   4   5
ENDBRANCH   3   4
ENDBRANCH   2   3
ENDBRANCH   1   2
BRANCH   1  11
ATOM     11  C   UNL     1      32.924  45.223  26.078  1.00  0.00     0.000 C 
BRANCH  11  12
ATOM     12  C   UNL     1      34.158  44.547  26.697  1.00  0.00    -0.000 C 
BRANCH  12  13
ATOM     13  C   UNL     1      35.401  45.453  26.673  1.00  0.00    -0.000 C 
BRANCH  13  14
ATOM     14  C   UNL     1      36.713  44.654  26.712  1.00  0.00    -0.000 C 
BRANCH  14  15
ATOM     15  C   UNL     1      36.489  43.143  26.542  1.00  0.00    -0.000 C 
BRANCH  15  16
ATOM     16  C   UNL     1      36.836  42.643  25.128  1.00  0.00    -0.000 C 
BRANCH  16  17
ATOM     17  C   UNL     1      37.043  41.116  25.047  1.00  0.00    -0.003 C 
ATOM     18  C   UNL     1      37.679  40.683  23.726  1.00  0.00     0.004 C 
ENDBRANCH  16  17
ENDBRANCH  15  16
ENDBRANCH  14  15
ENDBRANCH  13  14
ENDBRANCH  12  13
ENDBRANCH  11  12
ENDBRANCH   1  11
TORSDOF 14
ENDMDL
