MODEL 1
REMARK VINA RESULT:    -5.114      0.000      0.000
REMARK INTER + INTRA:          -6.284
REMARK INTER:                  -6.011
REMARK INTRA:                  -0.273
REMARK UNBOUND:                -0.273
REMARK SMILES O=C([O-])C=Cc1ccc(O)c(O)c1
REMARK SMILES IDX 6 1 13 2 7 3 11 4 8 5 9 6 5 7 4 8 2 9 1 10 3 11 12 12 10 14
REMARK H PARENT 12 13 10 15
REMARK Flexibility Score: inf
ROOT
ATOM      1  C   UNL     1     -22.973  82.524 -21.937  1.00  0.00    -0.022 A 
ATOM      2  C   UNL     1     -22.439  82.074 -20.718  1.00  0.00     0.058 A 
ATOM      3  C   UNL     1     -22.891  83.885 -22.262  1.00  0.00     0.012 A 
ATOM      4  C   UNL     1     -21.877  82.979 -19.811  1.00  0.00     0.157 A 
ATOM      5  C   UNL     1     -22.332  84.793 -21.359  1.00  0.00     0.051 A 
ATOM      6  C   UNL     1     -21.828  84.347 -20.129  1.00  0.00     0.157 A 
ENDROOT
BRANCH   1   7
ATOM      7  C   UNL     1     -23.521  81.575 -22.930  1.00  0.00     0.010 C 
ATOM      8  C   UNL     1     -22.825  81.007 -23.926  1.00  0.00     0.025 C 
BRANCH   8   9
ATOM      9  C   UNL     1     -21.360  81.075 -24.095  1.00  0.00     0.064 C 
ATOM     10  O   UNL     1     -20.881  81.760 -25.036  1.00  0.00    -0.545 OA
ATOM     11  O   UNL     1     -20.501  80.343 -23.284  1.00  0.00    -0.545 OA
ENDBRANCH   8   9
ENDBRANCH   1   7
BRANCH   4  12
ATOM     12  O   UNL     1     -21.371  82.502 -18.603  1.00  0.00    -0.504 OA
ATOM     13  H   UNL     1     -21.885  81.846 -18.026  1.00  0.00     0.293 HD
ENDBRANCH   4  12
BRANCH   6  14
ATOM     14  O   UNL     1     -21.274  85.256 -19.229  1.00  0.00    -0.504 OA
ATOM     15  H   UNL     1     -21.654  85.378 -18.297  1.00  0.00     0.293 HD
ENDBRANCH   6  14
TORSDOF 4
ENDMDL
MODEL 2
REMARK VINA RESULT:    -4.921      2.336      2.722
REMARK INTER + INTRA:          -6.057
REMARK INTER:                  -5.851
REMARK INTRA:                  -0.206
REMARK UNBOUND:                -0.273
REMARK SMILES O=C([O-])C=Cc1ccc(O)c(O)c1
REMARK SMILES IDX 6 1 13 2 7 3 11 4 8 5 9 6 5 7 4 8 2 9 1 10 3 11 12 12 10 14
REMARK H PARENT 12 13 10 15
REMARK Flexibility Score: inf
ROOT
ATOM      1  C   UNL     1     -22.566  82.785 -22.146  1.00  0.00    -0.022 A 
ATOM      2  C   UNL     1     -22.174  82.205 -20.927  1.00  0.00     0.058 A 
ATOM      3  C   UNL     1     -22.501  84.178 -22.294  1.00  0.00     0.012 A 
ATOM      4  C   UNL     1     -21.773  83.007 -19.854  1.00  0.00     0.157 A 
ATOM      5  C   UNL     1     -22.102  84.983 -21.225  1.00  0.00     0.051 A 
ATOM      6  C   UNL     1     -21.741  84.405 -20.000  1.00  0.00     0.157 A 
ENDROOT
BRANCH   1   7
ATOM      7  C   UNL     1     -22.941  81.951 -23.306  1.00  0.00     0.010 C 
ATOM      8  C   UNL     1     -24.195  81.726 -23.728  1.00  0.00     0.025 C 
BRANCH   8   9
ATOM      9  C   UNL     1     -25.401  82.417 -23.233  1.00  0.00     0.064 C 
ATOM     10  O   UNL     1     -26.197  81.801 -22.478  1.00  0.00    -0.545 OA
ATOM     11  O   UNL     1     -25.717  83.708 -23.640  1.00  0.00    -0.545 OA
ENDBRANCH   8   9
ENDBRANCH   1   7
BRANCH   4  12
ATOM     12  O   UNL     1     -21.406  82.399 -18.653  1.00  0.00    -0.504 OA
ATOM     13  H   UNL     1     -21.016  82.927 -17.880  1.00  0.00     0.293 HD
ENDBRANCH   4  12
BRANCH   6  14
ATOM     14  O   UNL     1     -21.346  85.211 -18.933  1.00  0.00    -0.504 OA
ATOM     15  H   UNL     1     -21.960  85.921 -18.550  1.00  0.00     0.293 HD
ENDBRANCH   6  14
TORSDOF 4
ENDMDL
MODEL 3
REMARK VINA RESULT:    -4.752     12.091     13.230
REMARK INTER + INTRA:          -5.858
REMARK INTER:                  -5.622
REMARK INTRA:                  -0.236
REMARK UNBOUND:                -0.273
REMARK SMILES O=C([O-])C=Cc1ccc(O)c(O)c1
REMARK SMILES IDX 6 1 13 2 7 3 11 4 8 5 9 6 5 7 4 8 2 9 1 10 3 11 12 12 10 14
REMARK H PARENT 12 13 10 15
REMARK Flexibility Score: inf
ROOT
ATOM      1  C   UNL     1     -34.686  82.291 -19.821  1.00  0.00    -0.022 A 
ATOM      2  C   UNL     1     -33.715  83.302 -19.921  1.00  0.00     0.058 A 
ATOM      3  C   UNL     1     -34.319  81.035 -19.317  1.00  0.00     0.012 A 
ATOM      4  C   UNL     1     -32.384  83.046 -19.572  1.00  0.00     0.157 A 
ATOM      5  C   UNL     1     -32.991  80.775 -18.968  1.00  0.00     0.051 A 
ATOM      6  C   UNL     1     -32.017  81.775 -19.098  1.00  0.00     0.157 A 
ENDROOT
BRANCH   1   7
ATOM      7  C   UNL     1     -36.105  82.559 -20.134  1.00  0.00     0.010 C 
ATOM      8  C   UNL     1     -37.032  82.960 -19.251  1.00  0.00     0.025 C 
BRANCH   8   9
ATOM      9  C   UNL     1     -36.764  83.388 -17.864  1.00  0.00     0.064 C 
ATOM     10  O   UNL     1     -36.802  84.613 -17.579  1.00  0.00    -0.545 OA
ATOM     11  O   UNL     1     -36.400  82.475 -16.880  1.00  0.00    -0.545 OA
ENDBRANCH   8   9
ENDBRANCH   1   7
BRANCH   4  12
ATOM     12  O   UNL     1     -31.442  84.067 -19.699  1.00  0.00    -0.504 OA
ATOM     13  H   UNL     1     -30.477  83.881 -19.945  1.00  0.00     0.293 HD
ENDBRANCH   4  12
BRANCH   6  14
ATOM     14  O   UNL     1     -30.693  81.512 -18.753  1.00  0.00    -0.504 OA
ATOM     15  H   UNL     1     -29.990  82.242 -18.753  1.00  0.00     0.293 HD
ENDBRANCH   6  14
TORSDOF 4
ENDMDL
MODEL 4
REMARK VINA RESULT:    -4.745     13.980     15.196
REMARK INTER + INTRA:          -5.851
REMARK INTER:                  -5.629
REMARK INTRA:                  -0.222
REMARK UNBOUND:                -0.273
REMARK SMILES O=C([O-])C=Cc1ccc(O)c(O)c1
REMARK SMILES IDX 6 1 13 2 7 3 11 4 8 5 9 6 5 7 4 8 2 9 1 10 3 11 12 12 10 14
REMARK H PARENT 12 13 10 15
REMARK Flexibility Score: inf
ROOT
ATOM      1  C   UNL     1     -24.297  94.856 -29.956  1.00  0.00    -0.022 A 
ATOM      2  C   UNL     1     -24.715  93.812 -29.113  1.00  0.00     0.058 A 
ATOM      3  C   UNL     1     -24.506  96.184 -29.558  1.00  0.00     0.012 A 
ATOM      4  C   UNL     1     -25.382  94.089 -27.915  1.00  0.00     0.157 A 
ATOM      5  C   UNL     1     -25.172  96.465 -28.362  1.00  0.00     0.051 A 
ATOM      6  C   UNL     1     -25.617  95.422 -27.538  1.00  0.00     0.157 A 
ENDROOT
BRANCH   1   7
ATOM      7  C   UNL     1     -23.544  94.583 -31.198  1.00  0.00     0.010 C 
ATOM      8  C   UNL     1     -24.069  94.549 -32.432  1.00  0.00     0.025 C 
BRANCH   8   9
ATOM      9  C   UNL     1     -25.440  94.963 -32.791  1.00  0.00     0.064 C 
ATOM     10  O   UNL     1     -25.617  96.063 -33.375  1.00  0.00    -0.545 OA
ATOM     11  O   UNL     1     -26.545  94.200 -32.434  1.00  0.00    -0.545 OA
ENDBRANCH   8   9
ENDBRANCH   1   7
BRANCH   4  12
ATOM     12  O   UNL     1     -25.799  93.028 -27.111  1.00  0.00    -0.504 OA
ATOM     13  H   UNL     1     -25.211  92.220 -26.938  1.00  0.00     0.293 HD
ENDBRANCH   4  12
BRANCH   6  14
ATOM     14  O   UNL     1     -26.284  95.706 -26.348  1.00  0.00    -0.504 OA
ATOM     15  H   UNL     1     -25.845  96.243 -25.609  1.00  0.00     0.293 HD
ENDBRANCH   6  14
TORSDOF 4
ENDMDL
MODEL 5
REMARK VINA RESULT:    -4.727      1.558      2.491
REMARK INTER + INTRA:          -5.829
REMARK INTER:                  -5.652
REMARK INTRA:                  -0.177
REMARK UNBOUND:                -0.273
REMARK SMILES O=C([O-])C=Cc1ccc(O)c(O)c1
REMARK SMILES IDX 6 1 13 2 7 3 11 4 8 5 9 6 5 7 4 8 2 9 1 10 3 11 12 12 10 14
REMARK H PARENT 12 13 10 15
REMARK Flexibility Score: inf
ROOT
ATOM      1  C   UNL     1     -23.583  82.552 -21.909  1.00  0.00    -0.022 A 
ATOM      2  C   UNL     1     -22.818  83.648 -22.342  1.00  0.00     0.058 A 
ATOM      3  C   UNL     1     -23.641  82.253 -20.541  1.00  0.00     0.012 A 
ATOM      4  C   UNL     1     -22.078  84.404 -21.426  1.00  0.00     0.157 A 
ATOM      5  C   UNL     1     -22.903  83.005 -19.623  1.00  0.00     0.051 A 
ATOM      6  C   UNL     1     -22.115  84.079 -20.059  1.00  0.00     0.157 A 
ENDROOT
BRANCH   1   7
ATOM      7  C   UNL     1     -24.412  81.776 -22.855  1.00  0.00     0.010 C 
ATOM      8  C   UNL     1     -24.152  80.528 -23.273  1.00  0.00     0.025 C 
BRANCH   8   9
ATOM      9  C   UNL     1     -23.106  79.642 -22.724  1.00  0.00     0.064 C 
ATOM     10  O   UNL     1     -23.425  78.764 -21.881  1.00  0.00    -0.545 OA
ATOM     11  O   UNL     1     -21.768  79.803 -23.062  1.00  0.00    -0.545 OA
ENDBRANCH   8   9
ENDBRANCH   1   7
BRANCH   4  12
ATOM     12  O   UNL     1     -21.316  85.476 -21.891  1.00  0.00    -0.504 OA
ATOM     13  H   UNL     1     -20.389  85.673 -21.531  1.00  0.00     0.293 HD
ENDBRANCH   4  12
BRANCH   6  14
ATOM     14  O   UNL     1     -21.377  84.825 -19.142  1.00  0.00    -0.504 OA
ATOM     15  H   UNL     1     -20.365  84.783 -19.116  1.00  0.00     0.293 HD
ENDBRANCH   6  14
TORSDOF 4
ENDMDL
MODEL 6
REMARK VINA RESULT:    -4.686     13.695     14.240
REMARK INTER + INTRA:          -5.780
REMARK INTER:                  -5.649
REMARK INTRA:                  -0.131
REMARK UNBOUND:                -0.273
REMARK SMILES O=C([O-])C=Cc1ccc(O)c(O)c1
REMARK SMILES IDX 6 1 13 2 7 3 11 4 8 5 9 6 5 7 4 8 2 9 1 10 3 11 12 12 10 14
REMARK H PARENT 12 13 10 15
REMARK Flexibility Score: inf
ROOT
ATOM      1  C   UNL     1     -36.313  82.762 -18.885  1.00  0.00    -0.022 A 
ATOM      2  C   UNL     1     -35.000  82.818 -19.383  1.00  0.00     0.058 A 
ATOM      3  C   UNL     1     -36.750  83.749 -17.990  1.00  0.00     0.012 A 
ATOM      4  C   UNL     1     -34.118  83.815 -18.951  1.00  0.00     0.157 A 
ATOM      5  C   UNL     1     -35.872  84.746 -17.555  1.00  0.00     0.051 A 
ATOM      6  C   UNL     1     -34.553  84.781 -18.028  1.00  0.00     0.157 A 
ENDROOT
BRANCH   1   7
ATOM      7  C   UNL     1     -37.274  81.750 -19.371  1.00  0.00     0.010 C 
ATOM      8  C   UNL     1     -37.817  81.721 -20.597  1.00  0.00     0.025 C 
BRANCH   8   9
ATOM      9  C   UNL     1     -37.414  82.573 -21.733  1.00  0.00     0.064 C 
ATOM     10  O   UNL     1     -36.683  82.089 -22.635  1.00  0.00    -0.545 OA
ATOM     11  O   UNL     1     -37.764  83.917 -21.791  1.00  0.00    -0.545 OA
ENDBRANCH   8   9
ENDBRANCH   1   7
BRANCH   4  12
ATOM     12  O   UNL     1     -32.816  83.831 -19.452  1.00  0.00    -0.504 OA
ATOM     13  H   UNL     1     -32.623  83.901 -20.445  1.00  0.00     0.293 HD
ENDBRANCH   4  12
BRANCH   6  14
ATOM     14  O   UNL     1     -33.679  85.775 -17.591  1.00  0.00    -0.504 OA
ATOM     15  H   UNL     1     -32.763  85.549 -17.219  1.00  0.00     0.293 HD
ENDBRANCH   6  14
TORSDOF 4
ENDMDL
MODEL 7
REMARK VINA RESULT:    -4.673     14.609     15.909
REMARK INTER + INTRA:          -5.766
REMARK INTER:                  -5.637
REMARK INTRA:                  -0.129
REMARK UNBOUND:                -0.273
REMARK SMILES O=C([O-])C=Cc1ccc(O)c(O)c1
REMARK SMILES IDX 6 1 13 2 7 3 11 4 8 5 9 6 5 7 4 8 2 9 1 10 3 11 12 12 10 14
REMARK H PARENT 12 13 10 15
REMARK Flexibility Score: inf
ROOT
ATOM      1  C   UNL     1     -23.905  95.141 -30.625  1.00  0.00    -0.022 A 
ATOM      2  C   UNL     1     -24.386  96.229 -29.878  1.00  0.00     0.058 A 
ATOM      3  C   UNL     1     -24.131  93.837 -30.162  1.00  0.00     0.012 A 
ATOM      4  C   UNL     1     -25.038  96.022 -28.658  1.00  0.00     0.157 A 
ATOM      5  C   UNL     1     -24.782  93.625 -28.944  1.00  0.00     0.051 A 
ATOM      6  C   UNL     1     -25.233  94.713 -28.184  1.00  0.00     0.157 A 
ENDROOT
BRANCH   1   7
ATOM      7  C   UNL     1     -23.262  95.339 -31.941  1.00  0.00     0.010 C 
ATOM      8  C   UNL     1     -23.910  95.493 -33.106  1.00  0.00     0.025 C 
BRANCH   8   9
ATOM      9  C   UNL     1     -25.366  95.682 -33.257  1.00  0.00     0.064 C 
ATOM     10  O   UNL     1     -25.799  96.758 -33.746  1.00  0.00    -0.545 OA
ATOM     11  O   UNL     1     -26.272  94.730 -32.806  1.00  0.00    -0.545 OA
ENDBRANCH   8   9
ENDBRANCH   1   7
BRANCH   4  12
ATOM     12  O   UNL     1     -25.488  97.125 -27.933  1.00  0.00    -0.504 OA
ATOM     13  H   UNL     1     -26.419  97.506 -28.056  1.00  0.00     0.293 HD
ENDBRANCH   4  12
BRANCH   6  14
ATOM     14  O   UNL     1     -25.878  94.498 -26.967  1.00  0.00    -0.504 OA
ATOM     15  H   UNL     1     -25.718  93.659 -26.422  1.00  0.00     0.293 HD
ENDBRANCH   6  14
TORSDOF 4
ENDMDL
MODEL 8
REMARK VINA RESULT:    -4.572     12.728     14.063
REMARK INTER + INTRA:          -5.647
REMARK INTER:                  -5.420
REMARK INTRA:                  -0.226
REMARK UNBOUND:                -0.273
REMARK SMILES O=C([O-])C=Cc1ccc(O)c(O)c1
REMARK SMILES IDX 6 1 13 2 7 3 11 4 8 5 9 6 5 7 4 8 2 9 1 10 3 11 12 12 10 14
REMARK H PARENT 12 13 10 15
REMARK Flexibility Score: inf
ROOT
ATOM      1  C   UNL     1     -24.364  93.379 -28.818  1.00  0.00    -0.022 A 
ATOM      2  C   UNL     1     -24.809  94.496 -28.092  1.00  0.00     0.058 A 
ATOM      3  C   UNL     1     -23.996  93.536 -30.162  1.00  0.00     0.012 A 
ATOM      4  C   UNL     1     -24.937  95.743 -28.713  1.00  0.00     0.157 A 
ATOM      5  C   UNL     1     -24.123  94.780 -30.787  1.00  0.00     0.051 A 
ATOM      6  C   UNL     1     -24.598  95.887 -30.069  1.00  0.00     0.157 A 
ENDROOT
BRANCH   1   7
ATOM      7  C   UNL     1     -24.171  92.067 -28.165  1.00  0.00     0.010 C 
ATOM      8  C   UNL     1     -25.156  91.253 -27.755  1.00  0.00     0.025 C 
BRANCH   8   9
ATOM      9  C   UNL     1     -26.591  91.428 -28.051  1.00  0.00     0.064 C 
ATOM     10  O   UNL     1     -27.363  91.827 -27.141  1.00  0.00    -0.545 OA
ATOM     11  O   UNL     1     -27.122  91.093 -29.291  1.00  0.00    -0.545 OA
ENDBRANCH   8   9
ENDBRANCH   1   7
BRANCH   4  12
ATOM     12  O   UNL     1     -25.398  96.828 -27.967  1.00  0.00    -0.504 OA
ATOM     13  H   UNL     1     -26.113  97.456 -28.316  1.00  0.00     0.293 HD
ENDBRANCH   4  12
BRANCH   6  14
ATOM     14  O   UNL     1     -24.726  97.125 -30.696  1.00  0.00    -0.504 OA
ATOM     15  H   UNL     1     -25.295  97.243 -31.526  1.00  0.00     0.293 HD
ENDBRANCH   6  14
TORSDOF 4
ENDMDL
MODEL 9
REMARK VINA RESULT:    -4.571      2.901      4.554
REMARK INTER + INTRA:          -5.645
REMARK INTER:                  -5.350
REMARK INTRA:                  -0.296
REMARK UNBOUND:                -0.273
REMARK SMILES O=C([O-])C=Cc1ccc(O)c(O)c1
REMARK SMILES IDX 6 1 13 2 7 3 11 4 8 5 9 6 5 7 4 8 2 9 1 10 3 11 12 12 10 14
REMARK H PARENT 12 13 10 15
REMARK Flexibility Score: inf
ROOT
ATOM      1  C   UNL     1     -22.350  83.911 -23.073  1.00  0.00    -0.022 A 
ATOM      2  C   UNL     1     -21.582  85.087 -23.130  1.00  0.00     0.058 A 
ATOM      3  C   UNL     1     -23.653  83.917 -23.591  1.00  0.00     0.012 A 
ATOM      4  C   UNL     1     -22.126  86.267 -23.648  1.00  0.00     0.157 A 
ATOM      5  C   UNL     1     -24.200  85.094 -24.109  1.00  0.00     0.051 A 
ATOM      6  C   UNL     1     -23.444  86.274 -24.136  1.00  0.00     0.157 A 
ENDROOT
BRANCH   1   7
ATOM      7  C   UNL     1     -21.774  82.643 -22.580  1.00  0.00     0.010 C 
ATOM      8  C   UNL     1     -21.770  82.239 -21.300  1.00  0.00     0.025 C 
BRANCH   8   9
ATOM      9  C   UNL     1     -22.501  82.888 -20.195  1.00  0.00     0.064 C 
ATOM     10  O   UNL     1     -23.687  82.543 -19.955  1.00  0.00    -0.545 OA
ATOM     11  O   UNL     1     -21.934  83.923 -19.459  1.00  0.00    -0.545 OA
ENDBRANCH   8   9
ENDBRANCH   1   7
BRANCH   4  12
ATOM     12  O   UNL     1     -21.342  87.420 -23.674  1.00  0.00    -0.504 OA
ATOM     13  H   UNL     1     -20.370  87.404 -23.962  1.00  0.00     0.293 HD
ENDBRANCH   4  12
BRANCH   6  14
ATOM     14  O   UNL     1     -23.994  87.447 -24.650  1.00  0.00    -0.504 OA
ATOM     15  H   UNL     1     -23.678  87.840 -25.529  1.00  0.00     0.293 HD
ENDBRANCH   6  14
TORSDOF 4
ENDMDL
