MODEL 1
REMARK VINA RESULT:    -4.146      0.000      0.000
REMARK INTER + INTRA:         -15.302
REMARK INTER:                 -10.447
REMARK INTRA:                  -4.856
REMARK UNBOUND:                -4.856
REMARK SMILES CCCCCCCCCCCCCCCCCCCCCCCCCCCC(=O)[O-]
REMARK SMILES IDX 15 1 16 2 17 3 18 4 19 5 20 6 21 7 22 8 23 9 24 10 25 11
REMARK SMILES IDX 26 12 27 13 28 14 29 15 30 16 14 17 13 18 12 19 11 20 10 21
REMARK SMILES IDX 9 22 8 23 7 24 6 25 5 26 4 27 3 28 2 29 1 30
REMARK H PARENT
REMARK Flexibility Score: inf
ROOT
ATOM      1  C   UNL     1       5.601  11.778  11.984  1.00  0.00     0.000 C 
ENDROOT
BRANCH   1   2
ATOM      2  C   UNL     1       6.025  13.222  12.308  1.00  0.00     0.000 C 
BRANCH   2   3
ATOM      3  C   UNL     1       4.850  14.217  12.200  1.00  0.00     0.000 C 
BRANCH   3   4
ATOM      4  C   UNL     1       3.788  13.821  11.154  1.00  0.00     0.000 C 
BRANCH   4   5
ATOM      5  C   UNL     1       2.377  14.380  11.409  1.00  0.00     0.000 C 
BRANCH   5   6
ATOM      6  C   UNL     1       1.840  15.207  10.227  1.00  0.00     0.000 C 
BRANCH   6   7
ATOM      7  C   UNL     1       1.389  14.334   9.042  1.00  0.00     0.000 C 
BRANCH   7   8
ATOM      8  C   UNL     1       2.304  14.399   7.806  1.00  0.00     0.000 C 
BRANCH   8   9
ATOM      9  C   UNL     1       2.624  13.009   7.223  1.00  0.00     0.000 C 
BRANCH   9  10
ATOM     10  C   UNL     1       3.717  12.275   8.032  1.00  0.00     0.000 C 
BRANCH  10  11
ATOM     11  C   UNL     1       3.408  10.787   8.289  1.00  0.00     0.000 C 
BRANCH  11  12
ATOM     12  C   UNL     1       3.064  10.440   9.747  1.00  0.00     0.006 C 
BRANCH  12  13
ATOM     13  C   UNL     1       1.609  10.769  10.109  1.00  0.00     0.053 C 
BRANCH  13  14
ATOM     14  C   UNL     1       1.364  10.547  11.569  1.00  0.00     0.041 C 
ATOM     15  O   UNL     1       2.333  10.400  12.359  1.00  0.00    -0.550 OA
ATOM     16  O   UNL     1       0.064  10.538  12.063  1.00  0.00    -0.550 OA
ENDBRANCH  13  14
ENDBRANCH  12  13
ENDBRANCH  11  12
ENDBRANCH  10  11
ENDBRANCH   9  10
ENDBRANCH   8   9
ENDBRANCH   7   8
ENDBRANCH   6   7
ENDBRANCH   5   6
ENDBRANCH   4   5
ENDBRANCH   3   4
ENDBRANCH   2   3
ENDBRANCH   1   2
BRANCH   1  17
ATOM     17  C   UNL     1       6.790  10.906  11.553  1.00  0.00     0.000 C 
BRANCH  17  18
ATOM     18  C   UNL     1       7.942  11.737  10.961  1.00  0.00     0.000 C 
BRANCH  18  19
ATOM     19  C   UNL     1       8.220  11.384   9.484  1.00  0.00     0.000 C 
BRANCH  19  20
ATOM     20  C   UNL     1       7.031  10.699   8.782  1.00  0.00     0.000 C 
BRANCH  20  21
ATOM     21  C   UNL     1       7.390   9.948   7.486  1.00  0.00     0.000 C 
BRANCH  21  22
ATOM     22  C   UNL     1       6.858   8.506   7.404  1.00  0.00    -0.000 C 
BRANCH  22  23
ATOM     23  C   UNL     1       6.331   7.983   8.749  1.00  0.00    -0.000 C 
BRANCH  23  24
ATOM     24  C   UNL     1       6.764   6.527   8.980  1.00  0.00    -0.000 C 
BRANCH  24  25
ATOM     25  C   UNL     1       8.111   6.418   9.712  1.00  0.00    -0.000 C 
BRANCH  25  26
ATOM     26  C   UNL     1       8.555   7.751  10.339  1.00  0.00    -0.000 C 
BRANCH  26  27
ATOM     27  C   UNL     1       9.965   8.172   9.876  1.00  0.00    -0.000 C 
BRANCH  27  28
ATOM     28  C   UNL     1      10.773   8.918  10.955  1.00  0.00    -0.000 C 
BRANCH  28  29
ATOM     29  C   UNL     1      11.508  10.173  10.452  1.00  0.00    -0.003 C 
ATOM     30  C   UNL     1      11.719  10.169   8.937  1.00  0.00     0.004 C 
ENDBRANCH  28  29
ENDBRANCH  27  28
ENDBRANCH  26  27
ENDBRANCH  25  26
ENDBRANCH  24  25
ENDBRANCH  23  24
ENDBRANCH  22  23
ENDBRANCH  21  22
ENDBRANCH  20  21
ENDBRANCH  19  20
ENDBRANCH  18  19
ENDBRANCH  17  18
ENDBRANCH   1  17
TORSDOF 26
ENDMDL
MODEL 2
REMARK VINA RESULT:    -4.136      2.813      5.652
REMARK INTER + INTRA:         -15.279
REMARK INTER:                 -10.466
REMARK INTRA:                  -4.813
REMARK UNBOUND:                -4.856
REMARK SMILES CCCCCCCCCCCCCCCCCCCCCCCCCCCC(=O)[O-]
REMARK SMILES IDX 15 1 16 2 17 3 18 4 19 5 20 6 21 7 22 8 23 9 24 10 25 11
REMARK SMILES IDX 26 12 27 13 28 14 29 15 30 16 14 17 13 18 12 19 11 20 10 21
REMARK SMILES IDX 9 22 8 23 7 24 6 25 5 26 4 27 3 28 2 29 1 30
REMARK H PARENT
REMARK Flexibility Score: inf
ROOT
ATOM      1  C   UNL     1       3.622  15.139  12.041  1.00  0.00     0.000 C 
ENDROOT
BRANCH   1   2
ATOM      2  C   UNL     1       3.592  14.684  13.511  1.00  0.00     0.000 C 
BRANCH   2   3
ATOM      3  C   UNL     1       2.211  14.136  13.928  1.00  0.00     0.000 C 
BRANCH   3   4
ATOM      4  C   UNL     1       2.200  12.620  14.215  1.00  0.00     0.000 C 
BRANCH   4   5
ATOM      5  C   UNL     1       2.166  11.718  12.970  1.00  0.00     0.000 C 
BRANCH   5   6
ATOM      6  C   UNL     1       0.881  11.892  12.141  1.00  0.00     0.000 C 
BRANCH   6   7
ATOM      7  C   UNL     1       0.586  10.685  11.232  1.00  0.00     0.000 C 
BRANCH   7   8
ATOM      8  C   UNL     1       1.770  10.229  10.359  1.00  0.00     0.000 C 
BRANCH   8   9
ATOM      9  C   UNL     1       1.346   9.846   8.929  1.00  0.00     0.000 C 
BRANCH   9  10
ATOM     10  C   UNL     1       2.505   9.215   8.126  1.00  0.00     0.000 C 
BRANCH  10  11
ATOM     11  C   UNL     1       3.066   7.924   8.752  1.00  0.00     0.000 C 
BRANCH  11  12
ATOM     12  C   UNL     1       4.341   7.382   8.084  1.00  0.00     0.006 C 
BRANCH  12  13
ATOM     13  C   UNL     1       5.497   8.393   8.101  1.00  0.00     0.053 C 
BRANCH  13  14
ATOM     14  C   UNL     1       6.778   7.725   8.494  1.00  0.00     0.041 C 
ATOM     15  O   UNL     1       7.399   7.010   7.665  1.00  0.00    -0.550 OA
ATOM     16  O   UNL     1       7.305   7.924   9.765  1.00  0.00    -0.550 OA
ENDBRANCH  13  14
ENDBRANCH  12  13
ENDBRANCH  11  12
ENDBRANCH  10  11
ENDBRANCH   9  10
ENDBRANCH   8   9
ENDBRANCH   7   8
ENDBRANCH   6   7
ENDBRANCH   5   6
ENDBRANCH   4   5
ENDBRANCH   3   4
ENDBRANCH   2   3
ENDBRANCH   1   2
BRANCH   1  17
ATOM     17  C   UNL     1       2.267  14.941  11.343  1.00  0.00     0.000 C 
BRANCH  17  18
ATOM     18  C   UNL     1       1.890  16.134  10.448  1.00  0.00     0.000 C 
BRANCH  18  19
ATOM     19  C   UNL     1       1.143  15.695   9.170  1.00  0.00     0.000 C 
BRANCH  19  20
ATOM     20  C   UNL     1       0.728  14.211   9.181  1.00  0.00     0.000 C 
BRANCH  20  21
ATOM     21  C   UNL     1       1.348  13.356   8.060  1.00  0.00     0.000 C 
BRANCH  21  22
ATOM     22  C   UNL     1       2.804  13.709   7.705  1.00  0.00    -0.000 C 
BRANCH  22  23
ATOM     23  C   UNL     1       3.804  12.618   8.120  1.00  0.00    -0.000 C 
BRANCH  23  24
ATOM     24  C   UNL     1       4.509  12.990   9.434  1.00  0.00    -0.000 C 
BRANCH  24  25
ATOM     25  C   UNL     1       4.780  11.769  10.327  1.00  0.00    -0.000 C 
BRANCH  25  26
ATOM     26  C   UNL     1       6.234  11.275  10.232  1.00  0.00    -0.000 C 
BRANCH  26  27
ATOM     27  C   UNL     1       6.939  11.270  11.604  1.00  0.00    -0.000 C 
BRANCH  27  28
ATOM     28  C   UNL     1       6.541  12.452  12.508  1.00  0.00    -0.000 C 
BRANCH  28  29
ATOM     29  C   UNL     1       6.007  12.048  13.893  1.00  0.00    -0.003 C 
ATOM     30  C   UNL     1       7.120  11.859  14.925  1.00  0.00     0.004 C 
ENDBRANCH  28  29
ENDBRANCH  27  28
ENDBRANCH  26  27
ENDBRANCH  25  26
ENDBRANCH  24  25
ENDBRANCH  23  24
ENDBRANCH  22  23
ENDBRANCH  21  22
ENDBRANCH  20  21
ENDBRANCH  19  20
ENDBRANCH  18  19
ENDBRANCH  17  18
ENDBRANCH   1  17
TORSDOF 26
ENDMDL
MODEL 3
REMARK VINA RESULT:    -4.124      1.700      4.432
REMARK INTER + INTRA:         -15.248
REMARK INTER:                 -10.389
REMARK INTRA:                  -4.859
REMARK UNBOUND:                -4.856
REMARK SMILES CCCCCCCCCCCCCCCCCCCCCCCCCCCC(=O)[O-]
REMARK SMILES IDX 15 1 16 2 17 3 18 4 19 5 20 6 21 7 22 8 23 9 24 10 25 11
REMARK SMILES IDX 26 12 27 13 28 14 29 15 30 16 14 17 13 18 12 19 11 20 10 21
REMARK SMILES IDX 9 22 8 23 7 24 6 25 5 26 4 27 3 28 2 29 1 30
REMARK H PARENT
REMARK Flexibility Score: inf
ROOT
ATOM      1  C   UNL     1       3.114  14.971  11.940  1.00  0.00     0.000 C 
ENDROOT
BRANCH   1   2
ATOM      2  C   UNL     1       2.172  14.166  11.025  1.00  0.00     0.000 C 
BRANCH   2   3
ATOM      3  C   UNL     1       1.835  14.920   9.721  1.00  0.00     0.000 C 
BRANCH   3   4
ATOM      4  C   UNL     1       1.654  14.000   8.496  1.00  0.00     0.000 C 
BRANCH   4   5
ATOM      5  C   UNL     1       2.907  13.823   7.620  1.00  0.00     0.000 C 
BRANCH   5   6
ATOM      6  C   UNL     1       3.763  12.615   8.041  1.00  0.00     0.000 C 
BRANCH   6   7
ATOM      7  C   UNL     1       2.918  11.396   8.452  1.00  0.00     0.000 C 
BRANCH   7   8
ATOM      8  C   UNL     1       3.347  10.727   9.771  1.00  0.00     0.000 C 
BRANCH   8   9
ATOM      9  C   UNL     1       2.152  10.316  10.651  1.00  0.00     0.000 C 
BRANCH   9  10
ATOM     10  C   UNL     1       2.384  10.649  12.142  1.00  0.00     0.000 C 
BRANCH  10  11
ATOM     11  C   UNL     1       1.124  11.159  12.868  1.00  0.00     0.000 C 
BRANCH  11  12
ATOM     12  C   UNL     1      -0.183  11.025  12.069  1.00  0.00     0.006 C 
BRANCH  12  13
ATOM     13  C   UNL     1      -0.906  12.367  11.883  1.00  0.00     0.053 C 
BRANCH  13  14
ATOM     14  C   UNL     1      -1.192  12.617  10.435  1.00  0.00     0.041 C 
ATOM     15  O   UNL     1      -0.689  11.874   9.552  1.00  0.00    -0.550 OA
ATOM     16  O   UNL     1      -2.045  13.651  10.063  1.00  0.00    -0.550 OA
ENDBRANCH  13  14
ENDBRANCH  12  13
ENDBRANCH  11  12
ENDBRANCH  10  11
ENDBRANCH   9  10
ENDBRANCH   8   9
ENDBRANCH   7   8
ENDBRANCH   6   7
ENDBRANCH   5   6
ENDBRANCH   4   5
ENDBRANCH   3   4
ENDBRANCH   2   3
ENDBRANCH   1   2
BRANCH   1  17
ATOM     17  C   UNL     1       4.385  14.185  12.300  1.00  0.00     0.000 C 
BRANCH  17  18
ATOM     18  C   UNL     1       5.257  13.885  11.069  1.00  0.00     0.000 C 
BRANCH  18  19
ATOM     19  C   UNL     1       5.992  12.532  11.187  1.00  0.00     0.000 C 
BRANCH  19  20
ATOM     20  C   UNL     1       7.508  12.677  11.423  1.00  0.00     0.000 C 
BRANCH  20  21
ATOM     21  C   UNL     1       8.021  12.054  12.735  1.00  0.00     0.000 C 
BRANCH  21  22
ATOM     22  C   UNL     1       9.431  11.440  12.655  1.00  0.00    -0.000 C 
BRANCH  22  23
ATOM     23  C   UNL     1      10.266  12.008  11.497  1.00  0.00    -0.000 C 
BRANCH  23  24
ATOM     24  C   UNL     1      10.776  10.882  10.584  1.00  0.00    -0.000 C 
BRANCH  24  25
ATOM     25  C   UNL     1       9.683  10.332   9.653  1.00  0.00    -0.000 C 
BRANCH  25  26
ATOM     26  C   UNL     1       9.345   8.859   9.940  1.00  0.00    -0.000 C 
BRANCH  26  27
ATOM     27  C   UNL     1       7.831   8.636  10.140  1.00  0.00    -0.000 C 
BRANCH  27  28
ATOM     28  C   UNL     1       6.951   9.619   9.344  1.00  0.00    -0.000 C 
BRANCH  28  29
ATOM     29  C   UNL     1       6.391   9.054   8.027  1.00  0.00    -0.003 C 
ATOM     30  C   UNL     1       5.267   8.040   8.248  1.00  0.00     0.004 C 
ENDBRANCH  28  29
ENDBRANCH  27  28
ENDBRANCH  26  27
ENDBRANCH  25  26
ENDBRANCH  24  25
ENDBRANCH  23  24
ENDBRANCH  22  23
ENDBRANCH  21  22
ENDBRANCH  20  21
ENDBRANCH  19  20
ENDBRANCH  18  19
ENDBRANCH  17  18
ENDBRANCH   1  17
TORSDOF 26
ENDMDL
MODEL 4
REMARK VINA RESULT:    -4.077      1.878      4.211
REMARK INTER + INTRA:         -15.131
REMARK INTER:                 -10.242
REMARK INTRA:                  -4.889
REMARK UNBOUND:                -4.856
REMARK SMILES CCCCCCCCCCCCCCCCCCCCCCCCCCCC(=O)[O-]
REMARK SMILES IDX 15 1 16 2 17 3 18 4 19 5 20 6 21 7 22 8 23 9 24 10 25 11
REMARK SMILES IDX 26 12 27 13 28 14 29 15 30 16 14 17 13 18 12 19 11 20 10 21
REMARK SMILES IDX 9 22 8 23 7 24 6 25 5 26 4 27 3 28 2 29 1 30
REMARK H PARENT
REMARK Flexibility Score: inf
ROOT
ATOM      1  C   UNL     1       3.836  13.285  12.274  1.00  0.00     0.000 C 
ENDROOT
BRANCH   1   2
ATOM      2  C   UNL     1       2.493  13.974  11.970  1.00  0.00     0.000 C 
BRANCH   2   3
ATOM      3  C   UNL     1       2.593  14.963  10.790  1.00  0.00     0.000 C 
BRANCH   3   4
ATOM      4  C   UNL     1       1.246  15.246  10.094  1.00  0.00     0.000 C 
BRANCH   4   5
ATOM      5  C   UNL     1       1.016  14.482   8.779  1.00  0.00     0.000 C 
BRANCH   5   6
ATOM      6  C   UNL     1       2.296  14.340   7.938  1.00  0.00     0.000 C 
BRANCH   6   7
ATOM      7  C   UNL     1       2.622  12.877   7.587  1.00  0.00     0.000 C 
BRANCH   7   8
ATOM      8  C   UNL     1       4.009  12.394   8.050  1.00  0.00     0.000 C 
BRANCH   8   9
ATOM      9  C   UNL     1       4.005  10.929   8.525  1.00  0.00     0.000 C 
BRANCH   9  10
ATOM     10  C   UNL     1       3.532  10.791   9.989  1.00  0.00     0.000 C 
BRANCH  10  11
ATOM     11  C   UNL     1       2.276   9.915  10.158  1.00  0.00     0.000 C 
BRANCH  11  12
ATOM     12  C   UNL     1       1.188  10.511  11.066  1.00  0.00     0.006 C 
BRANCH  12  13
ATOM     13  C   UNL     1       0.206  11.413  10.304  1.00  0.00     0.053 C 
BRANCH  13  14
ATOM     14  C   UNL     1      -0.663  12.173  11.256  1.00  0.00     0.041 C 
ATOM     15  O   UNL     1      -0.465  12.092  12.497  1.00  0.00    -0.550 OA
ATOM     16  O   UNL     1      -1.669  13.001  10.772  1.00  0.00    -0.550 OA
ENDBRANCH  13  14
ENDBRANCH  12  13
ENDBRANCH  11  12
ENDBRANCH  10  11
ENDBRANCH   9  10
ENDBRANCH   8   9
ENDBRANCH   7   8
ENDBRANCH   6   7
ENDBRANCH   5   6
ENDBRANCH   4   5
ENDBRANCH   3   4
ENDBRANCH   2   3
ENDBRANCH   1   2
BRANCH   1  17
ATOM     17  C   UNL     1       4.994  13.889  11.464  1.00  0.00     0.000 C 
BRANCH  17  18
ATOM     18  C   UNL     1       6.247  12.996  11.479  1.00  0.00     0.000 C 
BRANCH  18  19
ATOM     19  C   UNL     1       6.138  11.850  12.508  1.00  0.00     0.000 C 
BRANCH  19  20
ATOM     20  C   UNL     1       6.752  12.196  13.878  1.00  0.00     0.000 C 
BRANCH  20  21
ATOM     21  C   UNL     1       8.108  11.526  14.168  1.00  0.00     0.000 C 
BRANCH  21  22
ATOM     22  C   UNL     1       9.223  12.486  14.621  1.00  0.00    -0.000 C 
BRANCH  22  23
ATOM     23  C   UNL     1      10.632  11.905  14.422  1.00  0.00    -0.000 C 
BRANCH  23  24
ATOM     24  C   UNL     1      10.730  11.144  13.091  1.00  0.00    -0.000 C 
BRANCH  24  25
ATOM     25  C   UNL     1      10.886  12.081  11.882  1.00  0.00    -0.000 C 
BRANCH  25  26
ATOM     26  C   UNL     1       9.687  12.014  10.920  1.00  0.00    -0.000 C 
BRANCH  26  27
ATOM     27  C   UNL     1       9.632  10.679  10.149  1.00  0.00    -0.000 C 
BRANCH  27  28
ATOM     28  C   UNL     1       8.487   9.751  10.599  1.00  0.00    -0.000 C 
BRANCH  28  29
ATOM     29  C   UNL     1       7.291   9.696   9.634  1.00  0.00    -0.003 C 
ATOM     30  C   UNL     1       7.613  10.279   8.257  1.00  0.00     0.004 C 
ENDBRANCH  28  29
ENDBRANCH  27  28
ENDBRANCH  26  27
ENDBRANCH  25  26
ENDBRANCH  24  25
ENDBRANCH  23  24
ENDBRANCH  22  23
ENDBRANCH  21  22
ENDBRANCH  20  21
ENDBRANCH  19  20
ENDBRANCH  18  19
ENDBRANCH  17  18
ENDBRANCH   1  17
TORSDOF 26
ENDMDL
MODEL 5
REMARK VINA RESULT:    -4.023      3.233      6.406
REMARK INTER + INTRA:         -14.992
REMARK INTER:                 -11.356
REMARK INTRA:                  -3.636
REMARK UNBOUND:                -4.856
REMARK SMILES CCCCCCCCCCCCCCCCCCCCCCCCCCCC(=O)[O-]
REMARK SMILES IDX 15 1 16 2 17 3 18 4 19 5 20 6 21 7 22 8 23 9 24 10 25 11
REMARK SMILES IDX 26 12 27 13 28 14 29 15 30 16 14 17 13 18 12 19 11 20 10 21
REMARK SMILES IDX 9 22 8 23 7 24 6 25 5 26 4 27 3 28 2 29 1 30
REMARK H PARENT
REMARK Flexibility Score: inf
ROOT
ATOM      1  C   UNL     1       1.872  15.751  10.539  1.00  0.00     0.000 C 
ENDROOT
BRANCH   1   2
ATOM      2  C   UNL     1       2.387  14.489  11.254  1.00  0.00     0.000 C 
BRANCH   2   3
ATOM      3  C   UNL     1       3.730  14.729  11.976  1.00  0.00     0.000 C 
BRANCH   3   4
ATOM      4  C   UNL     1       4.891  13.865  11.443  1.00  0.00     0.000 C 
BRANCH   4   5
ATOM      5  C   UNL     1       5.715  13.139  12.520  1.00  0.00     0.000 C 
BRANCH   5   6
ATOM      6  C   UNL     1       5.781  11.618  12.296  1.00  0.00     0.000 C 
BRANCH   6   7
ATOM      7  C   UNL     1       7.120  11.159  11.690  1.00  0.00     0.000 C 
BRANCH   7   8
ATOM      8  C   UNL     1       7.970  12.285  11.074  1.00  0.00     0.000 C 
BRANCH   8   9
ATOM      9  C   UNL     1       9.483  12.013  11.167  1.00  0.00     0.000 C 
BRANCH   9  10
ATOM     10  C   UNL     1       9.818  10.930  12.217  1.00  0.00     0.000 C 
BRANCH  10  11
ATOM     11  C   UNL     1      10.614  11.460  13.425  1.00  0.00     0.000 C 
BRANCH  11  12
ATOM     12  C   UNL     1       9.801  12.317  14.410  1.00  0.00     0.006 C 
BRANCH  12  13
ATOM     13  C   UNL     1      10.614  12.737  15.644  1.00  0.00     0.053 C 
BRANCH  13  14
ATOM     14  C   UNL     1      10.255  11.891  16.825  1.00  0.00     0.041 C 
ATOM     15  O   UNL     1       9.235  11.155  16.791  1.00  0.00    -0.550 OA
ATOM     16  O   UNL     1      11.070  11.888  17.952  1.00  0.00    -0.550 OA
ENDBRANCH  13  14
ENDBRANCH  12  13
ENDBRANCH  11  12
ENDBRANCH  10  11
ENDBRANCH   9  10
ENDBRANCH   8   9
ENDBRANCH   7   8
ENDBRANCH   6   7
ENDBRANCH   5   6
ENDBRANCH   4   5
ENDBRANCH   3   4
ENDBRANCH   2   3
ENDBRANCH   1   2
BRANCH   1  17
ATOM     17  C   UNL     1       1.099  15.417   9.254  1.00  0.00     0.000 C 
BRANCH  17  18
ATOM     18  C   UNL     1       0.540  13.984   9.263  1.00  0.00     0.000 C 
BRANCH  18  19
ATOM     19  C   UNL     1       1.090  13.133   8.097  1.00  0.00     0.000 C 
BRANCH  19  20
ATOM     20  C   UNL     1       2.312  13.763   7.401  1.00  0.00     0.000 C 
BRANCH  20  21
ATOM     21  C   UNL     1       3.672  13.180   7.830  1.00  0.00     0.000 C 
BRANCH  21  22
ATOM     22  C   UNL     1       3.626  11.726   8.334  1.00  0.00    -0.000 C 
BRANCH  22  23
ATOM     23  C   UNL     1       4.996  11.208   8.796  1.00  0.00    -0.000 C 
BRANCH  23  24
ATOM     24  C   UNL     1       5.127   9.698   8.543  1.00  0.00    -0.000 C 
BRANCH  24  25
ATOM     25  C   UNL     1       6.536   9.295   8.079  1.00  0.00    -0.000 C 
BRANCH  25  26
ATOM     26  C   UNL     1       7.380   8.681   9.210  1.00  0.00    -0.000 C 
BRANCH  26  27
ATOM     27  C   UNL     1       8.852   8.480   8.795  1.00  0.00    -0.000 C 
BRANCH  27  28
ATOM     28  C   UNL     1       9.484   9.721   8.135  1.00  0.00    -0.000 C 
BRANCH  28  29
ATOM     29  C   UNL     1      10.946   9.985   8.536  1.00  0.00    -0.003 C 
ATOM     30  C   UNL     1      11.891  10.032   7.334  1.00  0.00     0.004 C 
ENDBRANCH  28  29
ENDBRANCH  27  28
ENDBRANCH  26  27
ENDBRANCH  25  26
ENDBRANCH  24  25
ENDBRANCH  23  24
ENDBRANCH  22  23
ENDBRANCH  21  22
ENDBRANCH  20  21
ENDBRANCH  19  20
ENDBRANCH  18  19
ENDBRANCH  17  18
ENDBRANCH   1  17
TORSDOF 26
ENDMDL
MODEL 6
REMARK VINA RESULT:    -4.011      2.111      3.856
REMARK INTER + INTRA:         -14.964
REMARK INTER:                 -10.375
REMARK INTRA:                  -4.589
REMARK UNBOUND:                -4.856
REMARK SMILES CCCCCCCCCCCCCCCCCCCCCCCCCCCC(=O)[O-]
REMARK SMILES IDX 15 1 16 2 17 3 18 4 19 5 20 6 21 7 22 8 23 9 24 10 25 11
REMARK SMILES IDX 26 12 27 13 28 14 29 15 30 16 14 17 13 18 12 19 11 20 10 21
REMARK SMILES IDX 9 22 8 23 7 24 6 25 5 26 4 27 3 28 2 29 1 30
REMARK H PARENT
REMARK Flexibility Score: inf
ROOT
ATOM      1  C   UNL     1       2.870  14.900  12.102  1.00  0.00     0.000 C 
ENDROOT
BRANCH   1   2
ATOM      2  C   UNL     1       1.973  14.178  11.080  1.00  0.00     0.000 C 
BRANCH   2   3
ATOM      3  C   UNL     1       2.087  14.786   9.666  1.00  0.00     0.000 C 
BRANCH   3   4
ATOM      4  C   UNL     1       0.982  14.323   8.695  1.00  0.00     0.000 C 
BRANCH   4   5
ATOM      5  C   UNL     1      -0.343  13.908   9.359  1.00  0.00     0.000 C 
BRANCH   5   6
ATOM      6  C   UNL     1      -0.849  12.537   8.878  1.00  0.00     0.000 C 
BRANCH   6   7
ATOM      7  C   UNL     1       0.178  11.793   8.005  1.00  0.00     0.000 C 
BRANCH   7   8
ATOM      8  C   UNL     1       0.831  10.571   8.675  1.00  0.00     0.000 C 
BRANCH   8   9
ATOM      9  C   UNL     1       0.731  10.605  10.211  1.00  0.00     0.000 C 
BRANCH   9  10
ATOM     10  C   UNL     1       2.026  10.109  10.892  1.00  0.00     0.000 C 
BRANCH  10  11
ATOM     11  C   UNL     1       2.174  10.565  12.356  1.00  0.00     0.000 C 
BRANCH  11  12
ATOM     12  C   UNL     1       0.856  10.942  13.053  1.00  0.00     0.006 C 
BRANCH  12  13
ATOM     13  C   UNL     1       0.991  12.180  13.951  1.00  0.00     0.053 C 
BRANCH  13  14
ATOM     14  C   UNL     1       0.687  11.837  15.375  1.00  0.00     0.041 C 
ATOM     15  O   UNL     1       0.678  10.635  15.748  1.00  0.00    -0.550 OA
ATOM     16  O   UNL     1       0.449  12.848  16.299  1.00  0.00    -0.550 OA
ENDBRANCH  13  14
ENDBRANCH  12  13
ENDBRANCH  11  12
ENDBRANCH  10  11
ENDBRANCH   9  10
ENDBRANCH   8   9
ENDBRANCH   7   8
ENDBRANCH   6   7
ENDBRANCH   5   6
ENDBRANCH   4   5
ENDBRANCH   3   4
ENDBRANCH   2   3
ENDBRANCH   1   2
BRANCH   1  17
ATOM     17  C   UNL     1       4.084  14.052  12.511  1.00  0.00     0.000 C 
BRANCH  17  18
ATOM     18  C   UNL     1       5.284  14.256  11.570  1.00  0.00     0.000 C 
BRANCH  18  19
ATOM     19  C   UNL     1       6.097  12.959  11.366  1.00  0.00     0.000 C 
BRANCH  19  20
ATOM     20  C   UNL     1       5.269  11.803  10.772  1.00  0.00     0.000 C 
BRANCH  20  21
ATOM     21  C   UNL     1       4.570  12.127   9.438  1.00  0.00     0.000 C 
BRANCH  21  22
ATOM     22  C   UNL     1       4.801  11.096   8.318  1.00  0.00    -0.000 C 
BRANCH  22  23
ATOM     23  C   UNL     1       5.875  10.056   8.671  1.00  0.00    -0.000 C 
BRANCH  23  24
ATOM     24  C   UNL     1       7.197  10.364   7.951  1.00  0.00    -0.000 C 
BRANCH  24  25
ATOM     25  C   UNL     1       8.352  10.642   8.926  1.00  0.00    -0.000 C 
BRANCH  25  26
ATOM     26  C   UNL     1       8.193   9.898  10.263  1.00  0.00    -0.000 C 
BRANCH  26  27
ATOM     27  C   UNL     1       9.381  10.147  11.215  1.00  0.00    -0.000 C 
BRANCH  27  28
ATOM     28  C   UNL     1       9.518  11.615  11.664  1.00  0.00    -0.000 C 
BRANCH  28  29
ATOM     29  C   UNL     1       9.047  11.891  13.102  1.00  0.00    -0.003 C 
ATOM     30  C   UNL     1      10.177  12.375  14.012  1.00  0.00     0.004 C 
ENDBRANCH  28  29
ENDBRANCH  27  28
ENDBRANCH  26  27
ENDBRANCH  25  26
ENDBRANCH  24  25
ENDBRANCH  23  24
ENDBRANCH  22  23
ENDBRANCH  21  22
ENDBRANCH  20  21
ENDBRANCH  19  20
ENDBRANCH  18  19
ENDBRANCH  17  18
ENDBRANCH   1  17
TORSDOF 26
ENDMDL
MODEL 7
REMARK VINA RESULT:    -3.957      2.123      5.218
REMARK INTER + INTRA:         -14.828
REMARK INTER:                 -10.198
REMARK INTRA:                  -4.630
REMARK UNBOUND:                -4.856
REMARK SMILES CCCCCCCCCCCCCCCCCCCCCCCCCCCC(=O)[O-]
REMARK SMILES IDX 15 1 16 2 17 3 18 4 19 5 20 6 21 7 22 8 23 9 24 10 25 11
REMARK SMILES IDX 26 12 27 13 28 14 29 15 30 16 14 17 13 18 12 19 11 20 10 21
REMARK SMILES IDX 9 22 8 23 7 24 6 25 5 26 4 27 3 28 2 29 1 30
REMARK H PARENT
REMARK Flexibility Score: inf
ROOT
ATOM      1  C   UNL     1       1.889  14.369  10.881  1.00  0.00     0.000 C 
ENDROOT
BRANCH   1   2
ATOM      2  C   UNL     1       1.739  14.933   9.457  1.00  0.00     0.000 C 
BRANCH   2   3
ATOM      3  C   UNL     1       1.658  13.820   8.391  1.00  0.00     0.000 C 
BRANCH   3   4
ATOM      4  C   UNL     1       2.980  13.582   7.632  1.00  0.00     0.000 C 
BRANCH   4   5
ATOM      5  C   UNL     1       3.966  12.621   8.320  1.00  0.00     0.000 C 
BRANCH   5   6
ATOM      6  C   UNL     1       3.322  11.277   8.700  1.00  0.00     0.000 C 
BRANCH   6   7
ATOM      7  C   UNL     1       3.335  11.015  10.218  1.00  0.00     0.000 C 
BRANCH   7   8
ATOM      8  C   UNL     1       2.165  10.159  10.736  1.00  0.00     0.000 C 
BRANCH   8   9
ATOM      9  C   UNL     1       0.795  10.836  10.541  1.00  0.00     0.000 C 
BRANCH   9  10
ATOM     10  C   UNL     1       0.077  11.097  11.884  1.00  0.00     0.000 C 
BRANCH  10  11
ATOM     11  C   UNL     1       1.035  11.328  13.067  1.00  0.00     0.000 C 
BRANCH  11  12
ATOM     12  C   UNL     1       0.566  12.381  14.085  1.00  0.00     0.006 C 
BRANCH  12  13
ATOM     13  C   UNL     1      -0.950  12.341  14.326  1.00  0.00     0.053 C 
BRANCH  13  14
ATOM     14  C   UNL     1      -1.252  11.909  15.726  1.00  0.00     0.041 C 
ATOM     15  O   UNL     1      -2.170  12.471  16.378  1.00  0.00    -0.550 OA
ATOM     16  O   UNL     1      -0.543  10.859  16.299  1.00  0.00    -0.550 OA
ENDBRANCH  13  14
ENDBRANCH  12  13
ENDBRANCH  11  12
ENDBRANCH  10  11
ENDBRANCH   9  10
ENDBRANCH   8   9
ENDBRANCH   7   8
ENDBRANCH   6   7
ENDBRANCH   5   6
ENDBRANCH   4   5
ENDBRANCH   3   4
ENDBRANCH   2   3
ENDBRANCH   1   2
BRANCH   1  17
ATOM     17  C   UNL     1       3.301  14.588  11.447  1.00  0.00     0.000 C 
BRANCH  17  18
ATOM     18  C   UNL     1       3.346  14.448  12.979  1.00  0.00     0.000 C 
BRANCH  18  19
ATOM     19  C   UNL     1       4.170  13.223  13.432  1.00  0.00     0.000 C 
BRANCH  19  20
ATOM     20  C   UNL     1       5.486  13.045  12.650  1.00  0.00     0.000 C 
BRANCH  20  21
ATOM     21  C   UNL     1       6.481  12.049  13.275  1.00  0.00     0.000 C 
BRANCH  21  22
ATOM     22  C   UNL     1       7.934  12.190  12.787  1.00  0.00    -0.000 C 
BRANCH  22  23
ATOM     23  C   UNL     1       8.045  12.294  11.258  1.00  0.00    -0.000 C 
BRANCH  23  24
ATOM     24  C   UNL     1       8.969  11.201  10.699  1.00  0.00    -0.000 C 
BRANCH  24  25
ATOM     25  C   UNL     1       8.226   9.887  10.411  1.00  0.00    -0.000 C 
BRANCH  25  26
ATOM     26  C   UNL     1       6.843  10.115   9.776  1.00  0.00    -0.000 C 
BRANCH  26  27
ATOM     27  C   UNL     1       6.872   9.954   8.241  1.00  0.00    -0.000 C 
BRANCH  27  28
ATOM     28  C   UNL     1       6.433   8.559   7.757  1.00  0.00    -0.000 C 
BRANCH  28  29
ATOM     29  C   UNL     1       5.104   8.063   8.352  1.00  0.00    -0.003 C 
ATOM     30  C   UNL     1       4.954   6.543   8.283  1.00  0.00     0.004 C 
ENDBRANCH  28  29
ENDBRANCH  27  28
ENDBRANCH  26  27
ENDBRANCH  25  26
ENDBRANCH  24  25
ENDBRANCH  23  24
ENDBRANCH  22  23
ENDBRANCH  21  22
ENDBRANCH  20  21
ENDBRANCH  19  20
ENDBRANCH  18  19
ENDBRANCH  17  18
ENDBRANCH   1  17
TORSDOF 26
ENDMDL
MODEL 8
REMARK VINA RESULT:    -3.951      2.694      7.285
REMARK INTER + INTRA:         -14.812
REMARK INTER:                 -10.313
REMARK INTRA:                  -4.499
REMARK UNBOUND:                -4.856
REMARK SMILES CCCCCCCCCCCCCCCCCCCCCCCCCCCC(=O)[O-]
REMARK SMILES IDX 15 1 16 2 17 3 18 4 19 5 20 6 21 7 22 8 23 9 24 10 25 11
REMARK SMILES IDX 26 12 27 13 28 14 29 15 30 16 14 17 13 18 12 19 11 20 10 21
REMARK SMILES IDX 9 22 8 23 7 24 6 25 5 26 4 27 3 28 2 29 1 30
REMARK H PARENT
REMARK Flexibility Score: inf
ROOT
ATOM      1  C   UNL     1       4.323  14.291  12.294  1.00  0.00     0.000 C 
ENDROOT
BRANCH   1   2
ATOM      2  C   UNL     1       5.637  13.838  11.632  1.00  0.00     0.000 C 
BRANCH   2   3
ATOM      3  C   UNL     1       5.797  12.303  11.636  1.00  0.00     0.000 C 
BRANCH   3   4
ATOM      4  C   UNL     1       6.746  11.775  12.731  1.00  0.00     0.000 C 
BRANCH   4   5
ATOM      5  C   UNL     1       8.233  12.114  12.529  1.00  0.00     0.000 C 
BRANCH   5   6
ATOM      6  C   UNL     1       8.587  12.394  11.058  1.00  0.00     0.000 C 
BRANCH   6   7
ATOM      7  C   UNL     1       9.786  11.565  10.562  1.00  0.00     0.000 C 
BRANCH   7   8
ATOM      8  C   UNL     1       9.447  10.520   9.483  1.00  0.00     0.000 C 
BRANCH   8   9
ATOM      9  C   UNL     1       7.950  10.496   9.121  1.00  0.00     0.000 C 
BRANCH   9  10
ATOM     10  C   UNL     1       7.203   9.328   9.803  1.00  0.00     0.000 C 
BRANCH  10  11
ATOM     11  C   UNL     1       8.116   8.151  10.197  1.00  0.00     0.000 C 
BRANCH  11  12
ATOM     12  C   UNL     1       7.780   6.815   9.514  1.00  0.00     0.006 C 
BRANCH  12  13
ATOM     13  C   UNL     1       8.845   6.383   8.495  1.00  0.00     0.053 C 
BRANCH  13  14
ATOM     14  C   UNL     1       8.875   7.323   7.331  1.00  0.00     0.041 C 
ATOM     15  O   UNL     1       7.830   7.536   6.662  1.00  0.00    -0.550 OA
ATOM     16  O   UNL     1      10.050   7.992   7.006  1.00  0.00    -0.550 OA
ENDBRANCH  13  14
ENDBRANCH  12  13
ENDBRANCH  11  12
ENDBRANCH  10  11
ENDBRANCH   9  10
ENDBRANCH   8   9
ENDBRANCH   7   8
ENDBRANCH   6   7
ENDBRANCH   5   6
ENDBRANCH   4   5
ENDBRANCH   3   4
ENDBRANCH   2   3
ENDBRANCH   1   2
BRANCH   1  17
ATOM     17  C   UNL     1       3.104  14.059  11.387  1.00  0.00     0.000 C 
BRANCH  17  18
ATOM     18  C   UNL     1       2.264  15.334  11.197  1.00  0.00     0.000 C 
BRANCH  18  19
ATOM     19  C   UNL     1       1.511  15.344   9.850  1.00  0.00     0.000 C 
BRANCH  19  20
ATOM     20  C   UNL     1       0.693  14.064   9.594  1.00  0.00     0.000 C 
BRANCH  20  21
ATOM     21  C   UNL     1       0.980  13.370   8.249  1.00  0.00     0.000 C 
BRANCH  21  22
ATOM     22  C   UNL     1       2.219  13.892   7.500  1.00  0.00    -0.000 C 
BRANCH  22  23
ATOM     23  C   UNL     1       3.215  12.780   7.141  1.00  0.00    -0.000 C 
BRANCH  23  24
ATOM     24  C   UNL     1       4.155  12.481   8.320  1.00  0.00    -0.000 C 
BRANCH  24  25
ATOM     25  C   UNL     1       4.223  10.983   8.658  1.00  0.00    -0.000 C 
BRANCH  25  26
ATOM     26  C   UNL     1       2.939  10.228   8.274  1.00  0.00    -0.000 C 
BRANCH  26  27
ATOM     27  C   UNL     1       2.244   9.598   9.499  1.00  0.00    -0.000 C 
BRANCH  27  28
ATOM     28  C   UNL     1       2.259  10.498  10.749  1.00  0.00    -0.000 C 
BRANCH  28  29
ATOM     29  C   UNL     1       0.874  10.766  11.363  1.00  0.00    -0.003 C 
ATOM     30  C   UNL     1       0.923  10.949  12.880  1.00  0.00     0.004 C 
ENDBRANCH  28  29
ENDBRANCH  27  28
ENDBRANCH  26  27
ENDBRANCH  25  26
ENDBRANCH  24  25
ENDBRANCH  23  24
ENDBRANCH  22  23
ENDBRANCH  21  22
ENDBRANCH  20  21
ENDBRANCH  19  20
ENDBRANCH  18  19
ENDBRANCH  17  18
ENDBRANCH   1  17
TORSDOF 26
ENDMDL
MODEL 9
REMARK VINA RESULT:    -3.941      2.922      7.619
REMARK INTER + INTRA:         -14.787
REMARK INTER:                 -10.233
REMARK INTRA:                  -4.554
REMARK UNBOUND:                -4.856
REMARK SMILES CCCCCCCCCCCCCCCCCCCCCCCCCCCC(=O)[O-]
REMARK SMILES IDX 15 1 16 2 17 3 18 4 19 5 20 6 21 7 22 8 23 9 24 10 25 11
REMARK SMILES IDX 26 12 27 13 28 14 29 15 30 16 14 17 13 18 12 19 11 20 10 21
REMARK SMILES IDX 9 22 8 23 7 24 6 25 5 26 4 27 3 28 2 29 1 30
REMARK H PARENT
REMARK Flexibility Score: inf
ROOT
ATOM      1  C   UNL     1       4.882  13.125  13.527  1.00  0.00     0.000 C 
ENDROOT
BRANCH   1   2
ATOM      2  C   UNL     1       6.011  12.314  12.865  1.00  0.00     0.000 C 
BRANCH   2   3
ATOM      3  C   UNL     1       6.503  12.957  11.552  1.00  0.00     0.000 C 
BRANCH   3   4
ATOM      4  C   UNL     1       7.900  12.479  11.106  1.00  0.00     0.000 C 
BRANCH   4   5
ATOM      5  C   UNL     1       8.355  11.136  11.705  1.00  0.00     0.000 C 
BRANCH   5   6
ATOM      6  C   UNL     1       8.947  10.183  10.653  1.00  0.00     0.000 C 
BRANCH   6   7
ATOM      7  C   UNL     1       8.929  10.774   9.231  1.00  0.00     0.000 C 
BRANCH   7   8
ATOM      8  C   UNL     1       8.025  10.029   8.232  1.00  0.00     0.000 C 
BRANCH   8   9
ATOM      9  C   UNL     1       6.683   9.593   8.848  1.00  0.00     0.000 C 
BRANCH   9  10
ATOM     10  C   UNL     1       6.436   8.076   8.697  1.00  0.00     0.000 C 
BRANCH  10  11
ATOM     11  C   UNL     1       7.160   7.219   9.753  1.00  0.00     0.000 C 
BRANCH  11  12
ATOM     12  C   UNL     1       8.207   6.244   9.188  1.00  0.00     0.006 C 
BRANCH  12  13
ATOM     13  C   UNL     1       9.639   6.790   9.282  1.00  0.00     0.053 C 
BRANCH  13  14
ATOM     14  C   UNL     1      10.263   6.417  10.590  1.00  0.00     0.041 C 
ATOM     15  O   UNL     1      11.198   7.112  11.067  1.00  0.00    -0.550 OA
ATOM     16  O   UNL     1       9.787   5.321  11.301  1.00  0.00    -0.550 OA
ENDBRANCH  13  14
ENDBRANCH  12  13
ENDBRANCH  11  12
ENDBRANCH  10  11
ENDBRANCH   9  10
ENDBRANCH   8   9
ENDBRANCH   7   8
ENDBRANCH   6   7
ENDBRANCH   5   6
ENDBRANCH   4   5
ENDBRANCH   3   4
ENDBRANCH   2   3
ENDBRANCH   1   2
BRANCH   1  17
ATOM     17  C   UNL     1       4.518  14.380  12.720  1.00  0.00     0.000 C 
BRANCH  17  18
ATOM     18  C   UNL     1       3.025  14.425  12.349  1.00  0.00     0.000 C 
BRANCH  18  19
ATOM     19  C   UNL     1       2.110  14.282  13.584  1.00  0.00     0.000 C 
BRANCH  19  20
ATOM     20  C   UNL     1       1.172  13.061  13.514  1.00  0.00     0.000 C 
BRANCH  20  21
ATOM     21  C   UNL     1       0.846  12.575  12.089  1.00  0.00     0.000 C 
BRANCH  21  22
ATOM     22  C   UNL     1       1.066  11.070  11.851  1.00  0.00    -0.000 C 
BRANCH  22  23
ATOM     23  C   UNL     1       2.548  10.669  11.874  1.00  0.00    -0.000 C 
BRANCH  23  24
ATOM     24  C   UNL     1       3.278  11.189  10.626  1.00  0.00    -0.000 C 
BRANCH  24  25
ATOM     25  C   UNL     1       2.620  10.723   9.317  1.00  0.00    -0.000 C 
BRANCH  25  26
ATOM     26  C   UNL     1       2.663  11.797   8.216  1.00  0.00    -0.000 C 
BRANCH  26  27
ATOM     27  C   UNL     1       3.057  13.183   8.767  1.00  0.00    -0.000 C 
BRANCH  27  28
ATOM     28  C   UNL     1       2.302  14.350   8.103  1.00  0.00    -0.000 C 
BRANCH  28  29
ATOM     29  C   UNL     1       1.344  15.108   9.039  1.00  0.00    -0.003 C 
ATOM     30  C   UNL     1       0.033  14.358   9.278  1.00  0.00     0.004 C 
ENDBRANCH  28  29
ENDBRANCH  27  28
ENDBRANCH  26  27
ENDBRANCH  25  26
ENDBRANCH  24  25
ENDBRANCH  23  24
ENDBRANCH  22  23
ENDBRANCH  21  22
ENDBRANCH  20  21
ENDBRANCH  19  20
ENDBRANCH  18  19
ENDBRANCH  17  18
ENDBRANCH   1  17
TORSDOF 26
ENDMDL
