MODEL 1
REMARK VINA RESULT:    -6.869      0.000      0.000
REMARK INTER + INTRA:          -8.369
REMARK INTER:                  -8.073
REMARK INTRA:                  -0.296
REMARK UNBOUND:                -0.296
REMARK SMILES O=c1cc(-c2ccc(O)c(O)c2)oc2cc(O)cc(O)c12
REMARK SMILES IDX 4 1 3 2 2 3 1 4 21 5 19 6 18 7 16 8 15 9 14 10 13 11 5 12
REMARK SMILES IDX 6 13 7 14 8 15 12 16 10 17 9 18 11 20 20 22 17 24
REMARK H PARENT 9 19 11 21 20 23 17 25
REMARK Flexibility Score: inf
ROOT
ATOM      1  C   UNL     1      19.499  -1.077 -18.635  1.00  0.00     0.138 A 
ATOM      2  C   UNL     1      19.058  -0.294 -17.556  1.00  0.00     0.100 A 
ATOM      3  C   UNL     1      18.362  -0.897 -16.508  1.00  0.00     0.197 A 
ATOM      4  O   UNL     1      17.969  -0.186 -15.544  1.00  0.00    -0.289 OA
ATOM      5  C   UNL     1      18.114  -2.285 -16.546  1.00  0.00     0.107 A 
ATOM      6  C   UNL     1      17.416  -2.975 -15.526  1.00  0.00     0.134 A 
ATOM      7  C   UNL     1      17.217  -4.360 -15.636  1.00  0.00     0.093 A 
ATOM      8  C   UNL     1      17.703  -5.064 -16.744  1.00  0.00     0.123 A 
ATOM      9  C   UNL     1      18.393  -4.386 -17.750  1.00  0.00     0.094 A 
ATOM     10  C   UNL     1      18.601  -3.007 -17.661  1.00  0.00     0.146 A 
ATOM     11  O   UNL     1      19.259  -2.387 -18.634  1.00  0.00    -0.456 OA
ENDROOT
BRANCH   1  12
ATOM     12  C   UNL     1      20.246  -0.488 -19.775  1.00  0.00     0.021 A 
ATOM     13  C   UNL     1      20.463  -1.259 -20.931  1.00  0.00     0.016 A 
ATOM     14  C   UNL     1      21.155  -0.727 -22.020  1.00  0.00     0.051 A 
ATOM     15  C   UNL     1      21.634   0.586 -21.982  1.00  0.00     0.157 A 
ATOM     16  C   UNL     1      20.718   0.838 -19.746  1.00  0.00     0.062 A 
ATOM     17  C   UNL     1      21.412   1.374 -20.841  1.00  0.00     0.158 A 
BRANCH  15  18
ATOM     18  O   UNL     1      22.323   1.089 -23.085  1.00  0.00    -0.504 OA
ATOM     19  H   UNL     1      23.295   1.368 -23.031  1.00  0.00     0.293 HD
ENDBRANCH  15  18
BRANCH  17  20
ATOM     20  O   UNL     1      21.877   2.687 -20.801  1.00  0.00    -0.504 OA
ATOM     21  H   UNL     1      22.070   3.156 -19.923  1.00  0.00     0.293 HD
ENDBRANCH  17  20
ENDBRANCH   1  12
BRANCH   6  22
ATOM     22  O   UNL     1      16.921  -2.298 -14.411  1.00  0.00    -0.507 OA
ATOM     23  H   UNL     1      17.276  -1.388 -14.139  1.00  0.00     0.293 HD
ENDBRANCH   6  22
BRANCH   8  24
ATOM     24  O   UNL     1      17.506  -6.439 -16.851  1.00  0.00    -0.508 OA
ATOM     25  H   UNL     1      17.524  -6.909 -17.749  1.00  0.00     0.293 HD
ENDBRANCH   8  24
TORSDOF 5
ENDMDL
MODEL 2
REMARK VINA RESULT:    -6.639     12.128     15.586
REMARK INTER + INTRA:          -8.100
REMARK INTER:                  -7.795
REMARK INTRA:                  -0.304
REMARK UNBOUND:                -0.296
REMARK SMILES O=c1cc(-c2ccc(O)c(O)c2)oc2cc(O)cc(O)c12
REMARK SMILES IDX 4 1 3 2 2 3 1 4 21 5 19 6 18 7 16 8 15 9 14 10 13 11 5 12
REMARK SMILES IDX 6 13 7 14 8 15 12 16 10 17 9 18 11 20 20 22 17 24
REMARK H PARENT 9 19 11 21 20 23 17 25
REMARK Flexibility Score: inf
ROOT
ATOM      1  C   UNL     1       9.149  -7.231  -9.363  1.00  0.00     0.138 A 
ATOM      2  C   UNL     1       8.088  -7.467 -10.252  1.00  0.00     0.100 A 
ATOM      3  C   UNL     1       8.355  -7.998 -11.515  1.00  0.00     0.197 A 
ATOM      4  O   UNL     1       7.396  -8.206 -12.306  1.00  0.00    -0.289 OA
ATOM      5  C   UNL     1       9.685  -8.293 -11.878  1.00  0.00     0.107 A 
ATOM      6  C   UNL     1      10.043  -8.831 -13.137  1.00  0.00     0.134 A 
ATOM      7  C   UNL     1      11.390  -9.103 -13.419  1.00  0.00     0.093 A 
ATOM      8  C   UNL     1      12.383  -8.847 -12.467  1.00  0.00     0.123 A 
ATOM      9  C   UNL     1      12.034  -8.317 -11.223  1.00  0.00     0.094 A 
ATOM     10  C   UNL     1      10.698  -8.038 -10.923  1.00  0.00     0.146 A 
ATOM     11  O   UNL     1      10.393  -7.531  -9.733  1.00  0.00    -0.456 OA
ENDROOT
BRANCH   1  12
ATOM     12  C   UNL     1       8.924  -6.671  -8.007  1.00  0.00     0.021 A 
ATOM     13  C   UNL     1       7.740  -6.987  -7.317  1.00  0.00     0.016 A 
ATOM     14  C   UNL     1       7.507  -6.479  -6.036  1.00  0.00     0.051 A 
ATOM     15  C   UNL     1       8.453  -5.657  -5.418  1.00  0.00     0.157 A 
ATOM     16  C   UNL     1       9.881  -5.853  -7.374  1.00  0.00     0.062 A 
ATOM     17  C   UNL     1       9.647  -5.344  -6.088  1.00  0.00     0.158 A 
BRANCH  15  18
ATOM     18  O   UNL     1       8.192  -5.164  -4.140  1.00  0.00    -0.504 OA
ATOM     19  H   UNL     1       8.078  -5.775  -3.340  1.00  0.00     0.293 HD
ENDBRANCH  15  18
BRANCH  17  20
ATOM     20  O   UNL     1      10.600  -4.534  -5.472  1.00  0.00    -0.504 OA
ATOM     21  H   UNL     1      10.512  -3.525  -5.461  1.00  0.00     0.293 HD
ENDBRANCH  17  20
ENDBRANCH   1  12
BRANCH   6  22
ATOM     22  O   UNL     1       9.073  -9.096 -14.106  1.00  0.00    -0.507 OA
ATOM     23  H   UNL     1       8.087  -8.941 -13.928  1.00  0.00     0.293 HD
ENDBRANCH   6  22
BRANCH   8  24
ATOM     24  O   UNL     1      13.720  -9.118 -12.746  1.00  0.00    -0.508 OA
ATOM     25  H   UNL     1      14.149  -9.998 -12.485  1.00  0.00     0.293 HD
ENDBRANCH   8  24
TORSDOF 5
ENDMDL
MODEL 3
REMARK VINA RESULT:    -6.528      1.208      2.753
REMARK INTER + INTRA:          -7.968
REMARK INTER:                  -7.652
REMARK INTRA:                  -0.317
REMARK UNBOUND:                -0.296
REMARK SMILES O=c1cc(-c2ccc(O)c(O)c2)oc2cc(O)cc(O)c12
REMARK SMILES IDX 4 1 3 2 2 3 1 4 21 5 19 6 18 7 16 8 15 9 14 10 13 11 5 12
REMARK SMILES IDX 6 13 7 14 8 15 12 16 10 17 9 18 11 20 20 22 17 24
REMARK H PARENT 9 19 11 21 20 23 17 25
REMARK Flexibility Score: inf
ROOT
ATOM      1  C   UNL     1      19.547  -1.250 -18.818  1.00  0.00     0.138 A 
ATOM      2  C   UNL     1      19.312  -2.635 -18.819  1.00  0.00     0.100 A 
ATOM      3  C   UNL     1      18.611  -3.213 -17.760  1.00  0.00     0.197 A 
ATOM      4  O   UNL     1      18.405  -4.457 -17.769  1.00  0.00    -0.289 OA
ATOM      5  C   UNL     1      18.145  -2.398 -16.707  1.00  0.00     0.107 A 
ATOM      6  C   UNL     1      17.427  -2.903 -15.597  1.00  0.00     0.134 A 
ATOM      7  C   UNL     1      16.992  -2.024 -14.594  1.00  0.00     0.093 A 
ATOM      8  C   UNL     1      17.262  -0.654 -14.681  1.00  0.00     0.123 A 
ATOM      9  C   UNL     1      17.968  -0.152 -15.776  1.00  0.00     0.094 A 
ATOM     10  C   UNL     1      18.412  -1.011 -16.785  1.00  0.00     0.146 A 
ATOM     11  O   UNL     1      19.084  -0.508 -17.815  1.00  0.00    -0.456 OA
ENDROOT
BRANCH   1  12
ATOM     12  C   UNL     1      20.286  -0.581 -19.920  1.00  0.00     0.021 A 
ATOM     13  C   UNL     1      20.558  -1.293 -21.101  1.00  0.00     0.016 A 
ATOM     14  C   UNL     1      21.244  -0.685 -22.155  1.00  0.00     0.051 A 
ATOM     15  C   UNL     1      21.661   0.645 -22.054  1.00  0.00     0.157 A 
ATOM     16  C   UNL     1      20.695   0.763 -19.828  1.00  0.00     0.062 A 
ATOM     17  C   UNL     1      21.382   1.375 -20.887  1.00  0.00     0.158 A 
BRANCH  15  18
ATOM     18  O   UNL     1      22.344   1.224 -23.122  1.00  0.00    -0.504 OA
ATOM     19  H   UNL     1      22.816   2.117 -23.039  1.00  0.00     0.293 HD
ENDBRANCH  15  18
BRANCH  17  20
ATOM     20  O   UNL     1      21.785   2.705 -20.784  1.00  0.00    -0.504 OA
ATOM     21  H   UNL     1      21.114   3.457 -20.684  1.00  0.00     0.293 HD
ENDBRANCH  17  20
ENDBRANCH   1  12
BRANCH   6  22
ATOM     22  O   UNL     1      17.145  -4.265 -15.485  1.00  0.00    -0.507 OA
ATOM     23  H   UNL     1      17.415  -4.926 -16.205  1.00  0.00     0.293 HD
ENDBRANCH   6  22
BRANCH   8  24
ATOM     24  O   UNL     1      16.829   0.219 -13.685  1.00  0.00    -0.508 OA
ATOM     25  H   UNL     1      17.481   0.780 -13.151  1.00  0.00     0.293 HD
ENDBRANCH   8  24
TORSDOF 5
ENDMDL
MODEL 4
REMARK VINA RESULT:    -6.455      1.484      2.037
REMARK INTER + INTRA:          -7.883
REMARK INTER:                  -7.618
REMARK INTRA:                  -0.265
REMARK UNBOUND:                -0.296
REMARK SMILES O=c1cc(-c2ccc(O)c(O)c2)oc2cc(O)cc(O)c12
REMARK SMILES IDX 4 1 3 2 2 3 1 4 21 5 19 6 18 7 16 8 15 9 14 10 13 11 5 12
REMARK SMILES IDX 6 13 7 14 8 15 12 16 10 17 9 18 11 20 20 22 17 24
REMARK H PARENT 9 19 11 21 20 23 17 25
REMARK Flexibility Score: inf
ROOT
ATOM      1  C   UNL     1      18.510  -1.646 -17.075  1.00  0.00     0.138 A 
ATOM      2  C   UNL     1      17.819  -0.884 -16.119  1.00  0.00     0.100 A 
ATOM      3  C   UNL     1      17.104  -1.532 -15.111  1.00  0.00     0.197 A 
ATOM      4  O   UNL     1      16.486  -0.840 -14.257  1.00  0.00    -0.289 OA
ATOM      5  C   UNL     1      17.089  -2.942 -15.065  1.00  0.00     0.107 A 
ATOM      6  C   UNL     1      16.390  -3.677 -14.078  1.00  0.00     0.134 A 
ATOM      7  C   UNL     1      16.430  -5.079 -14.098  1.00  0.00     0.093 A 
ATOM      8  C   UNL     1      17.156  -5.757 -15.084  1.00  0.00     0.123 A 
ATOM      9  C   UNL     1      17.848  -5.035 -16.058  1.00  0.00     0.094 A 
ATOM     10  C   UNL     1      17.819  -3.637 -16.057  1.00  0.00     0.146 A 
ATOM     11  O   UNL     1      18.485  -2.975 -16.997  1.00  0.00    -0.456 OA
ENDROOT
BRANCH   1  12
ATOM     12  C   UNL     1      19.289  -1.009 -18.168  1.00  0.00     0.021 A 
ATOM     13  C   UNL     1      18.806  -1.073 -19.487  1.00  0.00     0.016 A 
ATOM     14  C   UNL     1      19.515  -0.475 -20.532  1.00  0.00     0.051 A 
ATOM     15  C   UNL     1      20.710   0.203 -20.280  1.00  0.00     0.157 A 
ATOM     16  C   UNL     1      20.486  -0.312 -17.916  1.00  0.00     0.062 A 
ATOM     17  C   UNL     1      21.197   0.289 -18.965  1.00  0.00     0.158 A 
BRANCH  15  18
ATOM     18  O   UNL     1      21.396   0.789 -21.343  1.00  0.00    -0.504 OA
ATOM     19  H   UNL     1      20.991   0.864 -22.269  1.00  0.00     0.293 HD
ENDBRANCH  15  18
BRANCH  17  20
ATOM     20  O   UNL     1      22.383   0.975 -18.704  1.00  0.00    -0.504 OA
ATOM     21  H   UNL     1      22.954   1.351 -19.452  1.00  0.00     0.293 HD
ENDBRANCH  17  20
ENDBRANCH   1  12
BRANCH   6  22
ATOM     22  O   UNL     1      15.658  -3.026 -13.084  1.00  0.00    -0.507 OA
ATOM     23  H   UNL     1      15.763  -2.033 -12.908  1.00  0.00     0.293 HD
ENDBRANCH   6  22
BRANCH   8  24
ATOM     24  O   UNL     1      17.197  -7.149 -15.103  1.00  0.00    -0.508 OA
ATOM     25  H   UNL     1      17.700  -7.656 -15.822  1.00  0.00     0.293 HD
ENDBRANCH   8  24
TORSDOF 5
ENDMDL
MODEL 5
REMARK VINA RESULT:    -6.077      1.806      3.422
REMARK INTER + INTRA:          -7.439
REMARK INTER:                  -7.170
REMARK INTRA:                  -0.269
REMARK UNBOUND:                -0.296
REMARK SMILES O=c1cc(-c2ccc(O)c(O)c2)oc2cc(O)cc(O)c12
REMARK SMILES IDX 4 1 3 2 2 3 1 4 21 5 19 6 18 7 16 8 15 9 14 10 13 11 5 12
REMARK SMILES IDX 6 13 7 14 8 15 12 16 10 17 9 18 11 20 20 22 17 24
REMARK H PARENT 9 19 11 21 20 23 17 25
REMARK Flexibility Score: inf
ROOT
ATOM      1  C   UNL     1      18.542  -1.992 -17.190  1.00  0.00     0.138 A 
ATOM      2  C   UNL     1      18.474  -3.394 -17.255  1.00  0.00     0.100 A 
ATOM      3  C   UNL     1      17.772  -4.093 -16.273  1.00  0.00     0.197 A 
ATOM      4  O   UNL     1      17.717  -5.351 -16.339  1.00  0.00    -0.289 OA
ATOM      5  C   UNL     1      17.138  -3.384 -15.232  1.00  0.00     0.107 A 
ATOM      6  C   UNL     1      16.407  -4.015 -14.198  1.00  0.00     0.134 A 
ATOM      7  C   UNL     1      15.800  -3.236 -13.201  1.00  0.00     0.093 A 
ATOM      8  C   UNL     1      15.910  -1.841 -13.222  1.00  0.00     0.123 A 
ATOM      9  C   UNL     1      16.629  -1.215 -14.241  1.00  0.00     0.094 A 
ATOM     10  C   UNL     1      17.243  -1.973 -15.242  1.00  0.00     0.146 A 
ATOM     11  O   UNL     1      17.923  -1.352 -16.200  1.00  0.00    -0.456 OA
ENDROOT
BRANCH   1  12
ATOM     12  C   UNL     1      19.273  -1.197 -18.208  1.00  0.00     0.021 A 
ATOM     13  C   UNL     1      18.735  -1.067 -19.500  1.00  0.00     0.016 A 
ATOM     14  C   UNL     1      19.399  -0.317 -20.474  1.00  0.00     0.051 A 
ATOM     15  C   UNL     1      20.604   0.324 -20.175  1.00  0.00     0.157 A 
ATOM     16  C   UNL     1      20.481  -0.537 -17.906  1.00  0.00     0.062 A 
ATOM     17  C   UNL     1      21.147   0.217 -18.884  1.00  0.00     0.158 A 
BRANCH  15  18
ATOM     18  O   UNL     1      21.243   1.065 -21.168  1.00  0.00    -0.504 OA
ATOM     19  H   UNL     1      20.981   2.020 -21.380  1.00  0.00     0.293 HD
ENDBRANCH  15  18
BRANCH  17  20
ATOM     20  O   UNL     1      22.342   0.863 -18.575  1.00  0.00    -0.504 OA
ATOM     21  H   UNL     1      23.152   0.353 -18.242  1.00  0.00     0.293 HD
ENDBRANCH  17  20
ENDBRANCH   1  12
BRANCH   6  22
ATOM     22  O   UNL     1      16.282  -5.404 -14.153  1.00  0.00    -0.507 OA
ATOM     23  H   UNL     1      15.447  -5.875 -14.485  1.00  0.00     0.293 HD
ENDBRANCH   6  22
BRANCH   8  24
ATOM     24  O   UNL     1      15.305  -1.068 -12.233  1.00  0.00    -0.508 OA
ATOM     25  H   UNL     1      15.621  -0.127 -12.028  1.00  0.00     0.293 HD
ENDBRANCH   8  24
TORSDOF 5
ENDMDL
MODEL 6
REMARK VINA RESULT:    -6.029      8.806     14.206
REMARK INTER + INTRA:          -7.383
REMARK INTER:                  -7.075
REMARK INTRA:                  -0.307
REMARK UNBOUND:                -0.296
REMARK SMILES O=c1cc(-c2ccc(O)c(O)c2)oc2cc(O)cc(O)c12
REMARK SMILES IDX 4 1 3 2 2 3 1 4 21 5 19 6 18 7 16 8 15 9 14 10 13 11 5 12
REMARK SMILES IDX 6 13 7 14 8 15 12 16 10 17 9 18 11 20 20 22 17 24
REMARK H PARENT 9 19 11 21 20 23 17 25
REMARK Flexibility Score: inf
ROOT
ATOM      1  C   UNL     1      11.583  -6.847  -9.702  1.00  0.00     0.138 A 
ATOM      2  C   UNL     1      11.673  -7.790 -10.738  1.00  0.00     0.100 A 
ATOM      3  C   UNL     1      12.669  -7.654 -11.707  1.00  0.00     0.197 A 
ATOM      4  O   UNL     1      12.741  -8.506 -12.634  1.00  0.00    -0.289 OA
ATOM      5  C   UNL     1      13.572  -6.574 -11.629  1.00  0.00     0.107 A 
ATOM      6  C   UNL     1      14.608  -6.362 -12.568  1.00  0.00     0.134 A 
ATOM      7  C   UNL     1      15.470  -5.265 -12.416  1.00  0.00     0.093 A 
ATOM      8  C   UNL     1      15.314  -4.380 -11.343  1.00  0.00     0.123 A 
ATOM      9  C   UNL     1      14.293  -4.587 -10.414  1.00  0.00     0.094 A 
ATOM     10  C   UNL     1      13.423  -5.672 -10.548  1.00  0.00     0.146 A 
ATOM     11  O   UNL     1      12.458  -5.845  -9.651  1.00  0.00    -0.456 OA
ENDROOT
BRANCH   1  12
ATOM     12  C   UNL     1      10.546  -6.944  -8.644  1.00  0.00     0.021 A 
ATOM     13  C   UNL     1      10.040  -8.206  -8.286  1.00  0.00     0.016 A 
ATOM     14  C   UNL     1       9.070  -8.325  -7.288  1.00  0.00     0.051 A 
ATOM     15  C   UNL     1       8.595  -7.191  -6.623  1.00  0.00     0.157 A 
ATOM     16  C   UNL     1      10.075  -5.805  -7.961  1.00  0.00     0.062 A 
ATOM     17  C   UNL     1       9.102  -5.925  -6.958  1.00  0.00     0.158 A 
BRANCH  15  18
ATOM     18  O   UNL     1       7.626  -7.342  -5.632  1.00  0.00    -0.504 OA
ATOM     19  H   UNL     1       6.765  -6.807  -5.635  1.00  0.00     0.293 HD
ENDBRANCH  15  18
BRANCH  17  20
ATOM     20  O   UNL     1       8.642  -4.791  -6.291  1.00  0.00    -0.504 OA
ATOM     21  H   UNL     1       9.280  -4.106  -5.904  1.00  0.00     0.293 HD
ENDBRANCH  17  20
ENDBRANCH   1  12
BRANCH   6  22
ATOM     22  O   UNL     1      14.786  -7.228 -13.648  1.00  0.00    -0.507 OA
ATOM     23  H   UNL     1      15.702  -7.398 -14.049  1.00  0.00     0.293 HD
ENDBRANCH   6  22
BRANCH   8  24
ATOM     24  O   UNL     1      16.170  -3.291 -11.192  1.00  0.00    -0.508 OA
ATOM     25  H   UNL     1      15.837  -2.398 -10.849  1.00  0.00     0.293 HD
ENDBRANCH   8  24
TORSDOF 5
ENDMDL
MODEL 7
REMARK VINA RESULT:    -5.908      8.784     12.435
REMARK INTER + INTRA:          -7.241
REMARK INTER:                  -6.959
REMARK INTRA:                  -0.281
REMARK UNBOUND:                -0.296
REMARK SMILES O=c1cc(-c2ccc(O)c(O)c2)oc2cc(O)cc(O)c12
REMARK SMILES IDX 4 1 3 2 2 3 1 4 21 5 19 6 18 7 16 8 15 9 14 10 13 11 5 12
REMARK SMILES IDX 6 13 7 14 8 15 12 16 10 17 9 18 11 20 20 22 17 24
REMARK H PARENT 9 19 11 21 20 23 17 25
REMARK Flexibility Score: inf
ROOT
ATOM      1  C   UNL     1      11.524  -5.750 -10.572  1.00  0.00     0.138 A 
ATOM      2  C   UNL     1      11.264  -6.087  -9.233  1.00  0.00     0.100 A 
ATOM      3  C   UNL     1      10.133  -6.841  -8.922  1.00  0.00     0.197 A 
ATOM      4  O   UNL     1       9.908  -7.139  -7.717  1.00  0.00    -0.289 OA
ATOM      5  C   UNL     1       9.268  -7.257  -9.955  1.00  0.00     0.107 A 
ATOM      6  C   UNL     1       8.101  -8.023  -9.726  1.00  0.00     0.134 A 
ATOM      7  C   UNL     1       7.296  -8.403 -10.811  1.00  0.00     0.093 A 
ATOM      8  C   UNL     1       7.638  -8.032 -12.117  1.00  0.00     0.123 A 
ATOM      9  C   UNL     1       8.790  -7.277 -12.346  1.00  0.00     0.094 A 
ATOM     10  C   UNL     1       9.604  -6.888 -11.279  1.00  0.00     0.146 A 
ATOM     11  O   UNL     1      10.694  -6.168 -11.525  1.00  0.00    -0.456 OA
ENDROOT
BRANCH   1  12
ATOM     12  C   UNL     1      12.714  -4.951 -10.961  1.00  0.00     0.021 A 
ATOM     13  C   UNL     1      12.589  -3.965 -11.955  1.00  0.00     0.016 A 
ATOM     14  C   UNL     1      13.691  -3.195 -12.334  1.00  0.00     0.051 A 
ATOM     15  C   UNL     1      14.932  -3.386 -11.722  1.00  0.00     0.157 A 
ATOM     16  C   UNL     1      13.963  -5.131 -10.337  1.00  0.00     0.062 A 
ATOM     17  C   UNL     1      15.070  -4.356 -10.716  1.00  0.00     0.158 A 
BRANCH  15  18
ATOM     18  O   UNL     1      16.014  -2.602 -12.122  1.00  0.00    -0.504 OA
ATOM     19  H   UNL     1      16.389  -1.864 -11.538  1.00  0.00     0.293 HD
ENDBRANCH  15  18
BRANCH  17  20
ATOM     20  O   UNL     1      16.302  -4.544 -10.093  1.00  0.00    -0.504 OA
ATOM     21  H   UNL     1      16.626  -3.927  -9.357  1.00  0.00     0.293 HD
ENDBRANCH  17  20
ENDBRANCH   1  12
BRANCH   6  22
ATOM     22  O   UNL     1       7.736  -8.407  -8.435  1.00  0.00    -0.507 OA
ATOM     23  H   UNL     1       8.173  -8.000  -7.615  1.00  0.00     0.293 HD
ENDBRANCH   6  22
BRANCH   8  24
ATOM     24  O   UNL     1       6.839  -8.410 -13.193  1.00  0.00    -0.508 OA
ATOM     25  H   UNL     1       6.597  -7.758 -13.930  1.00  0.00     0.293 HD
ENDBRANCH   8  24
TORSDOF 5
ENDMDL
MODEL 8
REMARK VINA RESULT:    -5.791     16.715     18.720
REMARK INTER + INTRA:          -7.102
REMARK INTER:                  -6.824
REMARK INTRA:                  -0.278
REMARK UNBOUND:                -0.296
REMARK SMILES O=c1cc(-c2ccc(O)c(O)c2)oc2cc(O)cc(O)c12
REMARK SMILES IDX 4 1 3 2 2 3 1 4 21 5 19 6 18 7 16 8 15 9 14 10 13 11 5 12
REMARK SMILES IDX 6 13 7 14 8 15 12 16 10 17 9 18 11 20 20 22 17 24
REMARK H PARENT 9 19 11 21 20 23 17 25
REMARK Flexibility Score: inf
ROOT
ATOM      1  C   UNL     1       5.070   5.657 -10.402  1.00  0.00     0.138 A 
ATOM      2  C   UNL     1       4.984   7.052 -10.268  1.00  0.00     0.100 A 
ATOM      3  C   UNL     1       4.723   7.835 -11.392  1.00  0.00     0.197 A 
ATOM      4  O   UNL     1       4.649   9.087 -11.262  1.00  0.00    -0.289 OA
ATOM      5  C   UNL     1       4.545   7.215 -12.646  1.00  0.00     0.107 A 
ATOM      6  C   UNL     1       4.277   7.934 -13.835  1.00  0.00     0.134 A 
ATOM      7  C   UNL     1       4.106   7.241 -15.043  1.00  0.00     0.093 A 
ATOM      8  C   UNL     1       4.197   5.845 -15.082  1.00  0.00     0.123 A 
ATOM      9  C   UNL     1       4.459   5.132 -13.910  1.00  0.00     0.094 A 
ATOM     10  C   UNL     1       4.635   5.804 -12.698  1.00  0.00     0.146 A 
ATOM     11  O   UNL     1       4.886   5.101 -11.598  1.00  0.00    -0.456 OA
ENDROOT
BRANCH   1  12
ATOM     12  C   UNL     1       5.343   4.774  -9.239  1.00  0.00     0.021 A 
ATOM     13  C   UNL     1       4.459   4.777  -8.146  1.00  0.00     0.016 A 
ATOM     14  C   UNL     1       4.689   3.951  -7.044  1.00  0.00     0.051 A 
ATOM     15  C   UNL     1       5.797   3.100  -7.016  1.00  0.00     0.157 A 
ATOM     16  C   UNL     1       6.451   3.905  -9.213  1.00  0.00     0.062 A 
ATOM     17  C   UNL     1       6.682   3.074  -8.107  1.00  0.00     0.158 A 
BRANCH  15  18
ATOM     18  O   UNL     1       6.001   2.287  -5.902  1.00  0.00    -0.504 OA
ATOM     19  H   UNL     1       5.594   2.499  -4.999  1.00  0.00     0.293 HD
ENDBRANCH  15  18
BRANCH  17  20
ATOM     20  O   UNL     1       7.783   2.219  -8.091  1.00  0.00    -0.504 OA
ATOM     21  H   UNL     1       8.078   1.749  -7.243  1.00  0.00     0.293 HD
ENDBRANCH  17  20
ENDBRANCH   1  12
BRANCH   6  22
ATOM     22  O   UNL     1       4.182   9.327 -13.825  1.00  0.00    -0.507 OA
ATOM     23  H   UNL     1       3.954   9.851 -14.662  1.00  0.00     0.293 HD
ENDBRANCH   6  22
BRANCH   8  24
ATOM     24  O   UNL     1       4.026   5.157 -16.281  1.00  0.00    -0.508 OA
ATOM     25  H   UNL     1       4.102   4.148 -16.329  1.00  0.00     0.293 HD
ENDBRANCH   8  24
TORSDOF 5
ENDMDL
MODEL 9
REMARK VINA RESULT:    -5.674      5.496      9.190
REMARK INTER + INTRA:          -6.965
REMARK INTER:                  -6.678
REMARK INTRA:                  -0.287
REMARK UNBOUND:                -0.296
REMARK SMILES O=c1cc(-c2ccc(O)c(O)c2)oc2cc(O)cc(O)c12
REMARK SMILES IDX 4 1 3 2 2 3 1 4 21 5 19 6 18 7 16 8 15 9 14 10 13 11 5 12
REMARK SMILES IDX 6 13 7 14 8 15 12 16 10 17 9 18 11 20 20 22 17 24
REMARK H PARENT 9 19 11 21 20 23 17 25
REMARK Flexibility Score: inf
ROOT
ATOM      1  C   UNL     1      16.746  -3.934 -11.790  1.00  0.00     0.138 A 
ATOM      2  C   UNL     1      15.817  -4.975 -11.631  1.00  0.00     0.100 A 
ATOM      3  C   UNL     1      15.513  -5.796 -12.718  1.00  0.00     0.197 A 
ATOM      4  O   UNL     1      14.677  -6.728 -12.565  1.00  0.00    -0.289 OA
ATOM      5  C   UNL     1      16.145  -5.571 -13.958  1.00  0.00     0.107 A 
ATOM      6  C   UNL     1      15.894  -6.355 -15.109  1.00  0.00     0.134 A 
ATOM      7  C   UNL     1      16.570  -6.070 -16.305  1.00  0.00     0.093 A 
ATOM      8  C   UNL     1      17.491  -5.018 -16.369  1.00  0.00     0.123 A 
ATOM      9  C   UNL     1      17.742  -4.243 -15.235  1.00  0.00     0.094 A 
ATOM     10  C   UNL     1      17.078  -4.509 -14.035  1.00  0.00     0.146 A 
ATOM     11  O   UNL     1      17.334  -3.755 -12.971  1.00  0.00    -0.456 OA
ENDROOT
BRANCH   1  12
ATOM     12  C   UNL     1      17.109  -3.031 -10.668  1.00  0.00     0.021 A 
ATOM     13  C   UNL     1      17.444  -1.692 -10.939  1.00  0.00     0.016 A 
ATOM     14  C   UNL     1      17.781  -0.821  -9.901  1.00  0.00     0.051 A 
ATOM     15  C   UNL     1      17.780  -1.264  -8.576  1.00  0.00     0.157 A 
ATOM     16  C   UNL     1      17.096  -3.470  -9.330  1.00  0.00     0.062 A 
ATOM     17  C   UNL     1      17.433  -2.594  -8.287  1.00  0.00     0.158 A 
BRANCH  15  18
ATOM     18  O   UNL     1      18.122  -0.371  -7.562  1.00  0.00    -0.504 OA
ATOM     19  H   UNL     1      18.833   0.340  -7.687  1.00  0.00     0.293 HD
ENDBRANCH  15  18
BRANCH  17  20
ATOM     20  O   UNL     1      17.419  -3.040  -6.967  1.00  0.00    -0.504 OA
ATOM     21  H   UNL     1      18.011  -3.801  -6.657  1.00  0.00     0.293 HD
ENDBRANCH  17  20
ENDBRANCH   1  12
BRANCH   6  22
ATOM     22  O   UNL     1      14.981  -7.410 -15.072  1.00  0.00    -0.507 OA
ATOM     23  H   UNL     1      14.226  -7.484 -15.745  1.00  0.00     0.293 HD
ENDBRANCH   6  22
BRANCH   8  24
ATOM     24  O   UNL     1      18.163  -4.736 -17.556  1.00  0.00    -0.508 OA
ATOM     25  H   UNL     1      19.033  -5.197 -17.796  1.00  0.00     0.293 HD
ENDBRANCH   8  24
TORSDOF 5
ENDMDL
