MODEL 1
REMARK VINA RESULT:    -5.548      0.000      0.000
REMARK INTER + INTRA:         -11.446
REMARK INTER:                 -10.089
REMARK INTRA:                  -1.357
REMARK UNBOUND:                -1.357
REMARK SMILES CCCCCCCCCCCCCCCC(=O)[O-]
REMARK SMILES IDX 9 1 10 2 11 3 12 4 13 5 14 6 15 7 16 8 17 9 18 10 8 11 7 12
REMARK SMILES IDX 6 13 5 14 4 15 3 16 2 17 1 18
REMARK H PARENT
REMARK Flexibility Score: inf
ROOT
ATOM      1  C   UNL     1      10.143 -12.263  23.787  1.00  0.00     0.000 C 
ENDROOT
BRANCH   1   2
ATOM      2  C   UNL     1      11.641 -12.604  23.885  1.00  0.00     0.000 C 
BRANCH   2   3
ATOM      3  C   UNL     1      12.124 -12.728  25.339  1.00  0.00     0.000 C 
BRANCH   3   4
ATOM      4  C   UNL     1      13.534 -13.333  25.451  1.00  0.00     0.000 C 
BRANCH   4   5
ATOM      5  C   UNL     1      14.047 -13.346  26.906  1.00  0.00     0.000 C 
BRANCH   5   6
ATOM      6  C   UNL     1      14.814 -14.628  27.276  1.00  0.00     0.006 C 
BRANCH   6   7
ATOM      7  C   UNL     1      16.328 -14.408  27.374  1.00  0.00     0.053 C 
BRANCH   7   8
ATOM      8  C   UNL     1      16.955 -14.475  26.018  1.00  0.00     0.041 C 
ATOM      9  O   UNL     1      17.325 -13.421  25.438  1.00  0.00    -0.550 OA
ATOM     10  O   UNL     1      17.175 -15.706  25.413  1.00  0.00    -0.550 OA
ENDBRANCH   7   8
ENDBRANCH   6   7
ENDBRANCH   5   6
ENDBRANCH   4   5
ENDBRANCH   3   4
ENDBRANCH   2   3
ENDBRANCH   1   2
BRANCH   1  11
ATOM     11  C   UNL     1       9.731 -11.134  24.745  1.00  0.00     0.000 C 
BRANCH  11  12
ATOM     12  C   UNL     1       8.555 -11.533  25.654  1.00  0.00    -0.000 C 
BRANCH  12  13
ATOM     13  C   UNL     1       8.510 -13.044  25.933  1.00  0.00    -0.000 C 
BRANCH  13  14
ATOM     14  C   UNL     1       7.994 -13.371  27.344  1.00  0.00    -0.000 C 
BRANCH  14  15
ATOM     15  C   UNL     1       8.754 -12.613  28.448  1.00  0.00    -0.000 C 
BRANCH  15  16
ATOM     16  C   UNL     1      10.251 -12.962  28.576  1.00  0.00    -0.000 C 
BRANCH  16  17
ATOM     17  C   UNL     1      10.710 -13.349  29.994  1.00  0.00    -0.003 C 
ATOM     18  C   UNL     1      12.199 -13.682  30.066  1.00  0.00     0.004 C 
ENDBRANCH  16  17
ENDBRANCH  15  16
ENDBRANCH  14  15
ENDBRANCH  13  14
ENDBRANCH  12  13
ENDBRANCH  11  12
ENDBRANCH   1  11
TORSDOF 14
ENDMDL
MODEL 2
REMARK VINA RESULT:    -5.264      2.261      3.354
REMARK INTER + INTRA:         -10.929
REMARK INTER:                  -9.811
REMARK INTRA:                  -1.118
REMARK UNBOUND:                -1.357
REMARK SMILES CCCCCCCCCCCCCCCC(=O)[O-]
REMARK SMILES IDX 9 1 10 2 11 3 12 4 13 5 14 6 15 7 16 8 17 9 18 10 8 11 7 12
REMARK SMILES IDX 6 13 5 14 4 15 3 16 2 17 1 18
REMARK H PARENT
REMARK Flexibility Score: inf
ROOT
ATOM      1  C   UNL     1      12.497 -12.015  24.759  1.00  0.00     0.000 C 
ENDROOT
BRANCH   1   2
ATOM      2  C   UNL     1      12.782 -12.902  25.984  1.00  0.00     0.000 C 
BRANCH   2   3
ATOM      3  C   UNL     1      14.283 -13.172  26.181  1.00  0.00     0.000 C 
BRANCH   3   4
ATOM      4  C   UNL     1      14.576 -14.052  27.408  1.00  0.00     0.000 C 
BRANCH   4   5
ATOM      5  C   UNL     1      14.642 -13.229  28.711  1.00  0.00     0.000 C 
BRANCH   5   6
ATOM      6  C   UNL     1      16.056 -12.727  29.051  1.00  0.00     0.006 C 
BRANCH   6   7
ATOM      7  C   UNL     1      16.063 -11.300  29.613  1.00  0.00     0.053 C 
BRANCH   7   8
ATOM      8  C   UNL     1      16.524 -10.331  28.572  1.00  0.00     0.041 C 
ATOM      9  O   UNL     1      16.510 -10.652  27.355  1.00  0.00    -0.550 OA
ATOM     10  O   UNL     1      16.923  -9.052  28.941  1.00  0.00    -0.550 OA
ENDBRANCH   7   8
ENDBRANCH   6   7
ENDBRANCH   5   6
ENDBRANCH   4   5
ENDBRANCH   3   4
ENDBRANCH   2   3
ENDBRANCH   1   2
BRANCH   1  11
ATOM     11  C   UNL     1      11.694 -12.750  23.673  1.00  0.00     0.000 C 
BRANCH  11  12
ATOM     12  C   UNL     1      10.174 -12.645  23.892  1.00  0.00    -0.000 C 
BRANCH  12  13
ATOM     13  C   UNL     1       9.762 -11.319  24.552  1.00  0.00    -0.000 C 
BRANCH  13  14
ATOM     14  C   UNL     1       8.865 -11.524  25.784  1.00  0.00    -0.000 C 
BRANCH  14  15
ATOM     15  C   UNL     1       8.712 -13.007  26.171  1.00  0.00    -0.000 C 
BRANCH  15  16
ATOM     16  C   UNL     1       8.290 -13.265  27.632  1.00  0.00    -0.000 C 
BRANCH  16  17
ATOM     17  C   UNL     1       9.145 -12.549  28.693  1.00  0.00    -0.003 C 
ATOM     18  C   UNL     1       8.344 -12.150  29.932  1.00  0.00     0.004 C 
ENDBRANCH  16  17
ENDBRANCH  15  16
ENDBRANCH  14  15
ENDBRANCH  13  14
ENDBRANCH  12  13
ENDBRANCH  11  12
ENDBRANCH   1  11
TORSDOF 14
ENDMDL
MODEL 3
REMARK VINA RESULT:    -5.235      3.372      6.417
REMARK INTER + INTRA:         -10.877
REMARK INTER:                  -8.492
REMARK INTRA:                  -2.385
REMARK UNBOUND:                -1.357
REMARK SMILES CCCCCCCCCCCCCCCC(=O)[O-]
REMARK SMILES IDX 9 1 10 2 11 3 12 4 13 5 14 6 15 7 16 8 17 9 18 10 8 11 7 12
REMARK SMILES IDX 6 13 5 14 4 15 3 16 2 17 1 18
REMARK H PARENT
REMARK Flexibility Score: inf
ROOT
ATOM      1  C   UNL     1      15.503 -13.769  23.635  1.00  0.00     0.000 C 
ENDROOT
BRANCH   1   2
ATOM      2  C   UNL     1      14.040 -13.348  23.408  1.00  0.00     0.000 C 
BRANCH   2   3
ATOM      3  C   UNL     1      13.757 -11.915  23.886  1.00  0.00     0.000 C 
BRANCH   3   4
ATOM      4  C   UNL     1      12.750 -11.861  25.049  1.00  0.00     0.000 C 
BRANCH   4   5
ATOM      5  C   UNL     1      11.531 -12.774  24.804  1.00  0.00     0.000 C 
BRANCH   5   6
ATOM      6  C   UNL     1      10.327 -12.041  24.186  1.00  0.00     0.006 C 
BRANCH   6   7
ATOM      7  C   UNL     1       9.462 -11.329  25.233  1.00  0.00     0.053 C 
BRANCH   7   8
ATOM      8  C   UNL     1       8.969 -12.304  26.254  1.00  0.00     0.041 C 
ATOM      9  O   UNL     1       8.126 -13.184  25.935  1.00  0.00    -0.550 OA
ATOM     10  O   UNL     1       9.477 -12.275  27.547  1.00  0.00    -0.550 OA
ENDBRANCH   7   8
ENDBRANCH   6   7
ENDBRANCH   5   6
ENDBRANCH   4   5
ENDBRANCH   3   4
ENDBRANCH   2   3
ENDBRANCH   1   2
BRANCH   1  11
ATOM     11  C   UNL     1      15.627 -15.014  24.527  1.00  0.00     0.000 C 
BRANCH  11  12
ATOM     12  C   UNL     1      14.341 -15.297  25.325  1.00  0.00    -0.000 C 
BRANCH  12  13
ATOM     13  C   UNL     1      14.581 -15.322  26.843  1.00  0.00    -0.000 C 
BRANCH  13  14
ATOM     14  C   UNL     1      14.300 -13.964  27.509  1.00  0.00    -0.000 C 
BRANCH  14  15
ATOM     15  C   UNL     1      15.581 -13.259  27.991  1.00  0.00    -0.000 C 
BRANCH  15  16
ATOM     16  C   UNL     1      15.691 -11.766  27.620  1.00  0.00    -0.000 C 
BRANCH  16  17
ATOM     17  C   UNL     1      16.515 -11.469  26.354  1.00  0.00    -0.003 C 
ATOM     18  C   UNL     1      17.753 -12.355  26.229  1.00  0.00     0.004 C 
ENDBRANCH  16  17
ENDBRANCH  15  16
ENDBRANCH  14  15
ENDBRANCH  13  14
ENDBRANCH  12  13
ENDBRANCH  11  12
ENDBRANCH   1  11
TORSDOF 14
ENDMDL
MODEL 4
REMARK VINA RESULT:    -5.234      4.187      5.891
REMARK INTER + INTRA:         -10.874
REMARK INTER:                  -9.707
REMARK INTRA:                  -1.167
REMARK UNBOUND:                -1.357
REMARK SMILES CCCCCCCCCCCCCCCC(=O)[O-]
REMARK SMILES IDX 9 1 10 2 11 3 12 4 13 5 14 6 15 7 16 8 17 9 18 10 8 11 7 12
REMARK SMILES IDX 6 13 5 14 4 15 3 16 2 17 1 18
REMARK H PARENT
REMARK Flexibility Score: inf
ROOT
ATOM      1  C   UNL     1      13.246 -11.856  24.595  1.00  0.00     0.000 C 
ENDROOT
BRANCH   1   2
ATOM      2  C   UNL     1      13.950 -12.610  23.453  1.00  0.00     0.000 C 
BRANCH   2   3
ATOM      3  C   UNL     1      14.615 -11.663  22.441  1.00  0.00     0.000 C 
BRANCH   3   4
ATOM      4  C   UNL     1      13.994 -11.758  21.036  1.00  0.00     0.000 C 
BRANCH   4   5
ATOM      5  C   UNL     1      12.927 -12.868  20.947  1.00  0.00     0.000 C 
BRANCH   5   6
ATOM      6  C   UNL     1      11.709 -12.483  20.089  1.00  0.00     0.006 C 
BRANCH   6   7
ATOM      7  C   UNL     1      10.388 -12.554  20.865  1.00  0.00     0.053 C 
BRANCH   7   8
ATOM      8  C   UNL     1       9.243 -12.169  19.982  1.00  0.00     0.041 C 
ATOM      9  O   UNL     1       9.398 -11.297  19.087  1.00  0.00    -0.550 OA
ATOM     10  O   UNL     1       8.017 -12.809  20.115  1.00  0.00    -0.550 OA
ENDBRANCH   7   8
ENDBRANCH   6   7
ENDBRANCH   5   6
ENDBRANCH   4   5
ENDBRANCH   3   4
ENDBRANCH   2   3
ENDBRANCH   1   2
BRANCH   1  11
ATOM     11  C   UNL     1      12.212 -12.726  25.327  1.00  0.00     0.000 C 
BRANCH  11  12
ATOM     12  C   UNL     1      11.031 -13.123  24.424  1.00  0.00    -0.000 C 
BRANCH  12  13
ATOM     13  C   UNL     1       9.846 -12.149  24.538  1.00  0.00    -0.000 C 
BRANCH  13  14
ATOM     14  C   UNL     1       8.780 -12.628  25.538  1.00  0.00    -0.000 C 
BRANCH  14  15
ATOM     15  C   UNL     1       8.999 -12.072  26.957  1.00  0.00    -0.000 C 
BRANCH  15  16
ATOM     16  C   UNL     1       8.638 -13.037  28.106  1.00  0.00    -0.000 C 
BRANCH  16  17
ATOM     17  C   UNL     1       9.115 -12.594  29.501  1.00  0.00    -0.003 C 
ATOM     18  C   UNL     1       8.033 -11.864  30.295  1.00  0.00     0.004 C 
ENDBRANCH  16  17
ENDBRANCH  15  16
ENDBRANCH  14  15
ENDBRANCH  13  14
ENDBRANCH  12  13
ENDBRANCH  11  12
ENDBRANCH   1  11
TORSDOF 14
ENDMDL
MODEL 5
REMARK VINA RESULT:    -5.225      3.352      6.228
REMARK INTER + INTRA:         -10.858
REMARK INTER:                  -9.631
REMARK INTRA:                  -1.227
REMARK UNBOUND:                -1.357
REMARK SMILES CCCCCCCCCCCCCCCC(=O)[O-]
REMARK SMILES IDX 9 1 10 2 11 3 12 4 13 5 14 6 15 7 16 8 17 9 18 10 8 11 7 12
REMARK SMILES IDX 6 13 5 14 4 15 3 16 2 17 1 18
REMARK H PARENT
REMARK Flexibility Score: inf
ROOT
ATOM      1  C   UNL     1      12.504 -12.524  23.705  1.00  0.00     0.000 C 
ENDROOT
BRANCH   1   2
ATOM      2  C   UNL     1      11.128 -13.187  23.891  1.00  0.00     0.000 C 
BRANCH   2   3
ATOM      3  C   UNL     1       9.972 -12.292  23.416  1.00  0.00     0.000 C 
BRANCH   3   4
ATOM      4  C   UNL     1       9.354 -11.461  24.554  1.00  0.00     0.000 C 
BRANCH   4   5
ATOM      5  C   UNL     1       8.702 -12.350  25.634  1.00  0.00     0.000 C 
BRANCH   5   6
ATOM      6  C   UNL     1       9.366 -12.226  27.016  1.00  0.00     0.006 C 
BRANCH   6   7
ATOM      7  C   UNL     1       8.583 -12.944  28.121  1.00  0.00     0.053 C 
BRANCH   7   8
ATOM      8  C   UNL     1       9.234 -12.727  29.449  1.00  0.00     0.041 C 
ATOM      9  O   UNL     1      10.433 -13.068  29.631  1.00  0.00    -0.550 OA
ATOM     10  O   UNL     1       8.534 -12.103  30.474  1.00  0.00    -0.550 OA
ENDBRANCH   7   8
ENDBRANCH   6   7
ENDBRANCH   5   6
ENDBRANCH   4   5
ENDBRANCH   3   4
ENDBRANCH   2   3
ENDBRANCH   1   2
BRANCH   1  11
ATOM     11  C   UNL     1      13.104 -12.027  25.031  1.00  0.00     0.000 C 
BRANCH  11  12
ATOM     12  C   UNL     1      14.643 -12.030  25.018  1.00  0.00    -0.000 C 
BRANCH  12  13
ATOM     13  C   UNL     1      15.231 -13.446  24.909  1.00  0.00    -0.000 C 
BRANCH  13  14
ATOM     14  C   UNL     1      14.659 -14.407  25.965  1.00  0.00    -0.000 C 
BRANCH  14  15
ATOM     15  C   UNL     1      15.736 -14.956  26.919  1.00  0.00    -0.000 C 
BRANCH  15  16
ATOM     16  C   UNL     1      16.343 -13.922  27.890  1.00  0.00    -0.000 C 
BRANCH  16  17
ATOM     17  C   UNL     1      15.317 -13.051  28.638  1.00  0.00    -0.003 C 
ATOM     18  C   UNL     1      15.970 -12.028  29.566  1.00  0.00     0.004 C 
ENDBRANCH  16  17
ENDBRANCH  15  16
ENDBRANCH  14  15
ENDBRANCH  13  14
ENDBRANCH  12  13
ENDBRANCH  11  12
ENDBRANCH   1  11
TORSDOF 14
ENDMDL
MODEL 6
REMARK VINA RESULT:    -5.153      1.479      2.739
REMARK INTER + INTRA:         -10.727
REMARK INTER:                  -9.552
REMARK INTRA:                  -1.175
REMARK UNBOUND:                -1.357
REMARK SMILES CCCCCCCCCCCCCCCC(=O)[O-]
REMARK SMILES IDX 9 1 10 2 11 3 12 4 13 5 14 6 15 7 16 8 17 9 18 10 8 11 7 12
REMARK SMILES IDX 6 13 5 14 4 15 3 16 2 17 1 18
REMARK H PARENT
REMARK Flexibility Score: inf
ROOT
ATOM      1  C   UNL     1      12.788 -13.966  24.633  1.00  0.00     0.000 C 
ENDROOT
BRANCH   1   2
ATOM      2  C   UNL     1      13.660 -13.016  25.473  1.00  0.00     0.000 C 
BRANCH   2   3
ATOM      3  C   UNL     1      13.754 -13.449  26.945  1.00  0.00     0.000 C 
BRANCH   3   4
ATOM      4  C   UNL     1      14.711 -14.636  27.159  1.00  0.00     0.000 C 
BRANCH   4   5
ATOM      5  C   UNL     1      16.102 -14.180  27.645  1.00  0.00     0.000 C 
BRANCH   5   6
ATOM      6  C   UNL     1      16.063 -12.924  28.533  1.00  0.00     0.006 C 
BRANCH   6   7
ATOM      7  C   UNL     1      17.352 -12.098  28.453  1.00  0.00     0.053 C 
BRANCH   7   8
ATOM      8  C   UNL     1      17.575 -11.612  27.056  1.00  0.00     0.041 C 
ATOM      9  O   UNL     1      18.693 -11.770  26.500  1.00  0.00    -0.550 OA
ATOM     10  O   UNL     1      16.531 -11.028  26.349  1.00  0.00    -0.550 OA
ENDBRANCH   7   8
ENDBRANCH   6   7
ENDBRANCH   5   6
ENDBRANCH   4   5
ENDBRANCH   3   4
ENDBRANCH   2   3
ENDBRANCH   1   2
BRANCH   1  11
ATOM     11  C   UNL     1      11.664 -13.228  23.886  1.00  0.00     0.000 C 
BRANCH  11  12
ATOM     12  C   UNL     1      11.198 -11.962  24.626  1.00  0.00    -0.000 C 
BRANCH  12  13
ATOM     13  C   UNL     1       9.675 -11.765  24.558  1.00  0.00    -0.000 C 
BRANCH  13  14
ATOM     14  C   UNL     1       9.020 -11.726  25.949  1.00  0.00    -0.000 C 
BRANCH  14  15
ATOM     15  C   UNL     1       8.211 -12.997  26.265  1.00  0.00    -0.000 C 
BRANCH  15  16
ATOM     16  C   UNL     1       8.190 -13.412  27.750  1.00  0.00    -0.000 C 
BRANCH  16  17
ATOM     17  C   UNL     1       8.971 -12.483  28.697  1.00  0.00    -0.003 C 
ATOM     18  C   UNL     1      10.300 -13.082  29.155  1.00  0.00     0.004 C 
ENDBRANCH  16  17
ENDBRANCH  15  16
ENDBRANCH  14  15
ENDBRANCH  13  14
ENDBRANCH  12  13
ENDBRANCH  11  12
ENDBRANCH   1  11
TORSDOF 14
ENDMDL
MODEL 7
REMARK VINA RESULT:    -5.104      1.841      2.788
REMARK INTER + INTRA:         -10.638
REMARK INTER:                  -9.315
REMARK INTRA:                  -1.323
REMARK UNBOUND:                -1.357
REMARK SMILES CCCCCCCCCCCCCCCC(=O)[O-]
REMARK SMILES IDX 9 1 10 2 11 3 12 4 13 5 14 6 15 7 16 8 17 9 18 10 8 11 7 12
REMARK SMILES IDX 6 13 5 14 4 15 3 16 2 17 1 18
REMARK H PARENT
REMARK Flexibility Score: inf
ROOT
ATOM      1  C   UNL     1      13.507 -11.917  24.773  1.00  0.00     0.000 C 
ENDROOT
BRANCH   1   2
ATOM      2  C   UNL     1      14.677 -11.912  23.773  1.00  0.00     0.000 C 
BRANCH   2   3
ATOM      3  C   UNL     1      15.052 -13.324  23.296  1.00  0.00     0.000 C 
BRANCH   3   4
ATOM      4  C   UNL     1      16.091 -14.006  24.204  1.00  0.00     0.000 C 
BRANCH   4   5
ATOM      5  C   UNL     1      15.604 -15.378  24.715  1.00  0.00     0.000 C 
BRANCH   5   6
ATOM      6  C   UNL     1      14.926 -15.315  26.095  1.00  0.00     0.006 C 
BRANCH   6   7
ATOM      7  C   UNL     1      15.813 -14.668  27.165  1.00  0.00     0.053 C 
BRANCH   7   8
ATOM      8  C   UNL     1      15.177 -13.419  27.686  1.00  0.00     0.041 C 
ATOM      9  O   UNL     1      14.035 -13.461  28.213  1.00  0.00    -0.550 OA
ATOM     10  O   UNL     1      15.867 -12.214  27.634  1.00  0.00    -0.550 OA
ENDBRANCH   7   8
ENDBRANCH   6   7
ENDBRANCH   5   6
ENDBRANCH   4   5
ENDBRANCH   3   4
ENDBRANCH   2   3
ENDBRANCH   1   2
BRANCH   1  11
ATOM     11  C   UNL     1      12.208 -12.464  24.159  1.00  0.00     0.000 C 
BRANCH  11  12
ATOM     12  C   UNL     1      11.058 -12.532  25.179  1.00  0.00    -0.000 C 
BRANCH  12  13
ATOM     13  C   UNL     1       9.942 -11.517  24.880  1.00  0.00    -0.000 C 
BRANCH  13  14
ATOM     14  C   UNL     1       8.765 -11.625  25.864  1.00  0.00    -0.000 C 
BRANCH  14  15
ATOM     15  C   UNL     1       9.029 -12.623  27.006  1.00  0.00    -0.000 C 
BRANCH  15  16
ATOM     16  C   UNL     1       8.624 -12.137  28.413  1.00  0.00    -0.000 C 
BRANCH  16  17
ATOM     17  C   UNL     1       9.236 -12.935  29.578  1.00  0.00    -0.003 C 
ATOM     18  C   UNL     1      10.660 -13.409  29.292  1.00  0.00     0.004 C 
ENDBRANCH  16  17
ENDBRANCH  15  16
ENDBRANCH  14  15
ENDBRANCH  13  14
ENDBRANCH  12  13
ENDBRANCH  11  12
ENDBRANCH   1  11
TORSDOF 14
ENDMDL
MODEL 8
REMARK VINA RESULT:    -5.058      8.150     10.168
REMARK INTER + INTRA:         -10.555
REMARK INTER:                  -9.560
REMARK INTRA:                  -0.995
REMARK UNBOUND:                -1.357
REMARK SMILES CCCCCCCCCCCCCCCC(=O)[O-]
REMARK SMILES IDX 9 1 10 2 11 3 12 4 13 5 14 6 15 7 16 8 17 9 18 10 8 11 7 12
REMARK SMILES IDX 6 13 5 14 4 15 3 16 2 17 1 18
REMARK H PARENT
REMARK Flexibility Score: inf
ROOT
ATOM      1  C   UNL     1      21.633 -13.011  23.726  1.00  0.00     0.000 C 
ENDROOT
BRANCH   1   2
ATOM      2  C   UNL     1      22.836 -12.636  24.609  1.00  0.00     0.000 C 
BRANCH   2   3
ATOM      3  C   UNL     1      22.531 -12.768  26.110  1.00  0.00     0.000 C 
BRANCH   3   4
ATOM      4  C   UNL     1      22.887 -11.501  26.907  1.00  0.00     0.000 C 
BRANCH   4   5
ATOM      5  C   UNL     1      22.544 -11.640  28.404  1.00  0.00     0.000 C 
BRANCH   5   6
ATOM      6  C   UNL     1      21.149 -11.102  28.769  1.00  0.00     0.006 C 
BRANCH   6   7
ATOM      7  C   UNL     1      20.865  -9.723  28.162  1.00  0.00     0.053 C 
BRANCH   7   8
ATOM      8  C   UNL     1      19.665  -9.783  27.271  1.00  0.00     0.041 C 
ATOM      9  O   UNL     1      18.968  -8.753  27.076  1.00  0.00    -0.550 OA
ATOM     10  O   UNL     1      19.343 -10.965  26.616  1.00  0.00    -0.550 OA
ENDBRANCH   7   8
ENDBRANCH   6   7
ENDBRANCH   5   6
ENDBRANCH   4   5
ENDBRANCH   3   4
ENDBRANCH   2   3
ENDBRANCH   1   2
BRANCH   1  11
ATOM     11  C   UNL     1      20.491 -13.657  24.527  1.00  0.00     0.000 C 
BRANCH  11  12
ATOM     12  C   UNL     1      19.585 -14.541  23.652  1.00  0.00    -0.000 C 
BRANCH  12  13
ATOM     13  C   UNL     1      19.189 -15.853  24.350  1.00  0.00    -0.000 C 
BRANCH  13  14
ATOM     14  C   UNL     1      19.445 -17.091  23.473  1.00  0.00    -0.000 C 
BRANCH  14  15
ATOM     15  C   UNL     1      19.337 -16.789  21.967  1.00  0.00    -0.000 C 
BRANCH  15  16
ATOM     16  C   UNL     1      18.734 -17.921  21.110  1.00  0.00    -0.000 C 
BRANCH  16  17
ATOM     17  C   UNL     1      17.579 -17.493  20.187  1.00  0.00    -0.003 C 
ATOM     18  C   UNL     1      16.680 -16.427  20.813  1.00  0.00     0.004 C 
ENDBRANCH  16  17
ENDBRANCH  15  16
ENDBRANCH  14  15
ENDBRANCH  13  14
ENDBRANCH  12  13
ENDBRANCH  11  12
ENDBRANCH   1  11
TORSDOF 14
ENDMDL
MODEL 9
REMARK VINA RESULT:    -5.054      1.525      2.718
REMARK INTER + INTRA:         -10.547
REMARK INTER:                  -9.606
REMARK INTRA:                  -0.941
REMARK UNBOUND:                -1.357
REMARK SMILES CCCCCCCCCCCCCCCC(=O)[O-]
REMARK SMILES IDX 9 1 10 2 11 3 12 4 13 5 14 6 15 7 16 8 17 9 18 10 8 11 7 12
REMARK SMILES IDX 6 13 5 14 4 15 3 16 2 17 1 18
REMARK H PARENT
REMARK Flexibility Score: inf
ROOT
ATOM      1  C   UNL     1      12.691 -12.203  24.568  1.00  0.00     0.000 C 
ENDROOT
BRANCH   1   2
ATOM      2  C   UNL     1      13.248 -13.059  25.720  1.00  0.00     0.000 C 
BRANCH   2   3
ATOM      3  C   UNL     1      14.409 -13.963  25.275  1.00  0.00     0.000 C 
BRANCH   3   4
ATOM      4  C   UNL     1      14.929 -14.867  26.406  1.00  0.00     0.000 C 
BRANCH   4   5
ATOM      5  C   UNL     1      16.464 -14.800  26.545  1.00  0.00     0.000 C 
BRANCH   5   6
ATOM      6  C   UNL     1      17.217 -15.525  25.416  1.00  0.00     0.006 C 
BRANCH   6   7
ATOM      7  C   UNL     1      18.247 -14.631  24.717  1.00  0.00     0.053 C 
BRANCH   7   8
ATOM      8  C   UNL     1      18.397 -15.029  23.283  1.00  0.00     0.041 C 
ATOM      9  O   UNL     1      19.368 -14.604  22.605  1.00  0.00    -0.550 OA
ATOM     10  O   UNL     1      17.491 -15.912  22.709  1.00  0.00    -0.550 OA
ENDBRANCH   7   8
ENDBRANCH   6   7
ENDBRANCH   5   6
ENDBRANCH   4   5
ENDBRANCH   3   4
ENDBRANCH   2   3
ENDBRANCH   1   2
BRANCH   1  11
ATOM     11  C   UNL     1      11.717 -12.983  23.670  1.00  0.00     0.000 C 
BRANCH  11  12
ATOM     12  C   UNL     1      10.255 -12.850  24.132  1.00  0.00    -0.000 C 
BRANCH  12  13
ATOM     13  C   UNL     1       9.957 -11.479  24.761  1.00  0.00    -0.000 C 
BRANCH  13  14
ATOM     14  C   UNL     1       8.974 -11.570  25.941  1.00  0.00    -0.000 C 
BRANCH  14  15
ATOM     15  C   UNL     1       8.511 -13.011  26.223  1.00  0.00    -0.000 C 
BRANCH  15  16
ATOM     16  C   UNL     1       8.215 -13.330  27.703  1.00  0.00    -0.000 C 
BRANCH  16  17
ATOM     17  C   UNL     1       8.987 -12.470  28.720  1.00  0.00    -0.003 C 
ATOM     18  C   UNL     1      10.265 -13.142  29.218  1.00  0.00     0.004 C 
ENDBRANCH  16  17
ENDBRANCH  15  16
ENDBRANCH  14  15
ENDBRANCH  13  14
ENDBRANCH  12  13
ENDBRANCH  11  12
ENDBRANCH   1  11
TORSDOF 14
ENDMDL
