MODEL 1
REMARK VINA RESULT:    -7.641      0.000      0.000
REMARK INTER + INTRA:          -9.362
REMARK INTER:                  -9.204
REMARK INTRA:                  -0.158
REMARK UNBOUND:                -0.158
REMARK SMILES O=c1c(O)c(-c2ccc(O)cc2O)oc2cc(O)cc(O)c12
REMARK SMILES IDX 5 1 3 2 2 3 1 4 22 5 20 6 19 7 17 8 16 9 15 10 14 11 6 12
REMARK SMILES IDX 8 13 7 14 9 15 11 16 12 17 10 18 13 20 4 22 21 24 18 26
REMARK H PARENT 10 19 13 21 4 23 21 25 18 27
REMARK Flexibility Score: inf
ROOT
ATOM      1  C   UNL     1       6.321  -2.373  -6.744  1.00  0.00     0.184 A 
ATOM      2  C   UNL     1       7.601  -2.635  -6.231  1.00  0.00     0.208 A 
ATOM      3  C   UNL     1       8.258  -1.634  -5.497  1.00  0.00     0.238 A 
ATOM      4  O   UNL     1       9.379  -1.895  -4.988  1.00  0.00    -0.285 OA
ATOM      5  C   UNL     1       7.637  -0.375  -5.311  1.00  0.00     0.111 A 
ATOM      6  C   UNL     1       8.225   0.726  -4.619  1.00  0.00     0.134 A 
ATOM      7  C   UNL     1       7.470   1.882  -4.390  1.00  0.00     0.093 A 
ATOM      8  C   UNL     1       6.172   2.003  -4.883  1.00  0.00     0.123 A 
ATOM      9  C   UNL     1       5.606   0.956  -5.612  1.00  0.00     0.094 A 
ATOM     10  C   UNL     1       6.321  -0.225  -5.825  1.00  0.00     0.146 A 
ATOM     11  O   UNL     1       5.741  -1.202  -6.511  1.00  0.00    -0.451 OA
ENDROOT
BRANCH   1  12
ATOM     12  C   UNL     1       5.593  -3.380  -7.543  1.00  0.00     0.063 A 
ATOM     13  C   UNL     1       4.840  -5.679  -7.814  1.00  0.00     0.047 A 
ATOM     14  C   UNL     1       5.474  -4.693  -7.056  1.00  0.00     0.020 A 
ATOM     15  C   UNL     1       4.320  -5.368  -9.075  1.00  0.00     0.119 A 
ATOM     16  C   UNL     1       4.434  -4.067  -9.571  1.00  0.00     0.093 A 
ATOM     17  C   UNL     1       5.058  -3.067  -8.815  1.00  0.00     0.130 A 
BRANCH  15  18
ATOM     18  O   UNL     1       3.690  -6.344  -9.844  1.00  0.00    -0.508 OA
ATOM     19  H   UNL     1       4.188  -6.852 -10.567  1.00  0.00     0.293 HD
ENDBRANCH  15  18
BRANCH  17  20
ATOM     20  O   UNL     1       5.111  -1.775  -9.344  1.00  0.00    -0.507 OA
ATOM     21  H   UNL     1       4.964  -0.943  -8.788  1.00  0.00     0.293 HD
ENDBRANCH  17  20
ENDBRANCH   1  12
BRANCH   2  22
ATOM     22  O   UNL     1       8.192  -3.884  -6.433  1.00  0.00    -0.502 OA
ATOM     23  H   UNL     1       8.846  -4.061  -7.186  1.00  0.00     0.293 HD
ENDBRANCH   2  22
BRANCH   6  24
ATOM     24  O   UNL     1       9.547   0.745  -4.162  1.00  0.00    -0.507 OA
ATOM     25  H   UNL     1      10.168   1.536  -4.231  1.00  0.00     0.293 HD
ENDBRANCH   6  24
BRANCH   8  26
ATOM     26  O   UNL     1       5.454   3.175  -4.650  1.00  0.00    -0.508 OA
ATOM     27  H   UNL     1       4.994   3.347  -3.763  1.00  0.00     0.293 HD
ENDBRANCH   8  26
TORSDOF 6
ENDMDL
MODEL 2
REMARK VINA RESULT:    -7.560     13.072     15.501
REMARK INTER + INTRA:          -9.265
REMARK INTER:                  -9.083
REMARK INTRA:                  -0.182
REMARK UNBOUND:                -0.158
REMARK SMILES O=c1c(O)c(-c2ccc(O)cc2O)oc2cc(O)cc(O)c12
REMARK SMILES IDX 5 1 3 2 2 3 1 4 22 5 20 6 19 7 17 8 16 9 15 10 14 11 6 12
REMARK SMILES IDX 8 13 7 14 9 15 11 16 12 17 10 18 13 20 4 22 21 24 18 26
REMARK H PARENT 10 19 13 21 4 23 21 25 18 27
REMARK Flexibility Score: inf
ROOT
ATOM      1  C   UNL     1      -7.781  -7.599  -5.012  1.00  0.00     0.184 A 
ATOM      2  C   UNL     1      -7.573  -7.800  -6.385  1.00  0.00     0.208 A 
ATOM      3  C   UNL     1      -7.033  -6.754  -7.151  1.00  0.00     0.238 A 
ATOM      4  O   UNL     1      -6.793  -6.960  -8.370  1.00  0.00    -0.285 OA
ATOM      5  C   UNL     1      -6.734  -5.514  -6.538  1.00  0.00     0.111 A 
ATOM      6  C   UNL     1      -6.221  -4.372  -7.224  1.00  0.00     0.134 A 
ATOM      7  C   UNL     1      -5.846  -3.238  -6.494  1.00  0.00     0.093 A 
ATOM      8  C   UNL     1      -6.027  -3.178  -5.113  1.00  0.00     0.123 A 
ATOM      9  C   UNL     1      -6.583  -4.266  -4.439  1.00  0.00     0.094 A 
ATOM     10  C   UNL     1      -6.932  -5.426  -5.134  1.00  0.00     0.146 A 
ATOM     11  O   UNL     1      -7.444  -6.444  -4.453  1.00  0.00    -0.451 OA
ENDROOT
BRANCH   1  12
ATOM     12  C   UNL     1      -8.367  -8.655  -4.161  1.00  0.00     0.063 A 
ATOM     13  C   UNL     1      -8.387 -10.980  -3.439  1.00  0.00     0.047 A 
ATOM     14  C   UNL     1      -7.818  -9.949  -4.189  1.00  0.00     0.020 A 
ATOM     15  C   UNL     1      -9.518 -10.734  -2.652  1.00  0.00     0.119 A 
ATOM     16  C   UNL     1     -10.074  -9.453  -2.619  1.00  0.00     0.093 A 
ATOM     17  C   UNL     1      -9.506  -8.408  -3.358  1.00  0.00     0.130 A 
BRANCH  15  18
ATOM     18  O   UNL     1     -10.098 -11.756  -1.904  1.00  0.00    -0.508 OA
ATOM     19  H   UNL     1      -9.577 -12.248  -1.187  1.00  0.00     0.293 HD
ENDBRANCH  15  18
BRANCH  17  20
ATOM     20  O   UNL     1     -10.082  -7.140  -3.258  1.00  0.00    -0.507 OA
ATOM     21  H   UNL     1      -9.625  -6.298  -3.584  1.00  0.00     0.293 HD
ENDBRANCH  17  20
ENDBRANCH   1  12
BRANCH   2  22
ATOM     22  O   UNL     1      -7.881  -9.033  -6.965  1.00  0.00    -0.502 OA
ATOM     23  H   UNL     1      -7.231  -9.809  -6.968  1.00  0.00     0.293 HD
ENDBRANCH   2  22
BRANCH   6  24
ATOM     24  O   UNL     1      -6.084  -4.292  -8.614  1.00  0.00    -0.507 OA
ATOM     25  H   UNL     1      -5.350  -3.793  -9.091  1.00  0.00     0.293 HD
ENDBRANCH   6  24
BRANCH   8  26
ATOM     26  O   UNL     1      -5.658  -2.026  -4.421  1.00  0.00    -0.508 OA
ATOM     27  H   UNL     1      -5.643  -1.999  -3.408  1.00  0.00     0.293 HD
ENDBRANCH   8  26
TORSDOF 6
ENDMDL
MODEL 3
REMARK VINA RESULT:    -7.508     12.929     15.342
REMARK INTER + INTRA:          -9.203
REMARK INTER:                  -9.032
REMARK INTRA:                  -0.171
REMARK UNBOUND:                -0.158
REMARK SMILES O=c1c(O)c(-c2ccc(O)cc2O)oc2cc(O)cc(O)c12
REMARK SMILES IDX 5 1 3 2 2 3 1 4 22 5 20 6 19 7 17 8 16 9 15 10 14 11 6 12
REMARK SMILES IDX 8 13 7 14 9 15 11 16 12 17 10 18 13 20 4 22 21 24 18 26
REMARK H PARENT 10 19 13 21 4 23 21 25 18 27
REMARK Flexibility Score: inf
ROOT
ATOM      1  C   UNL     1       5.701   2.586   7.360  1.00  0.00     0.184 A 
ATOM      2  C   UNL     1       4.949   2.255   8.499  1.00  0.00     0.208 A 
ATOM      3  C   UNL     1       4.070   3.210   9.034  1.00  0.00     0.238 A 
ATOM      4  O   UNL     1       3.354   2.887  10.018  1.00  0.00    -0.285 OA
ATOM      5  C   UNL     1       3.976   4.492   8.441  1.00  0.00     0.111 A 
ATOM      6  C   UNL     1       3.149   5.550   8.922  1.00  0.00     0.134 A 
ATOM      7  C   UNL     1       3.042   6.735   8.184  1.00  0.00     0.093 A 
ATOM      8  C   UNL     1       3.782   6.926   7.018  1.00  0.00     0.123 A 
ATOM      9  C   UNL     1       4.639   5.921   6.569  1.00  0.00     0.094 A 
ATOM     10  C   UNL     1       4.739   4.713   7.263  1.00  0.00     0.146 A 
ATOM     11  O   UNL     1       5.555   3.777   6.794  1.00  0.00    -0.451 OA
ENDROOT
BRANCH   1  12
ATOM     12  C   UNL     1       6.658   1.630   6.767  1.00  0.00     0.063 A 
ATOM     13  C   UNL     1       7.136  -0.623   5.978  1.00  0.00     0.047 A 
ATOM     14  C   UNL     1       6.239   0.318   6.486  1.00  0.00     0.020 A 
ATOM     15  C   UNL     1       8.470  -0.267   5.748  1.00  0.00     0.119 A 
ATOM     16  C   UNL     1       8.899   1.033   6.026  1.00  0.00     0.093 A 
ATOM     17  C   UNL     1       8.006   1.989   6.525  1.00  0.00     0.130 A 
BRANCH  15  18
ATOM     18  O   UNL     1       9.377  -1.198   5.247  1.00  0.00    -0.508 OA
ATOM     19  H   UNL     1      10.107  -1.594   5.829  1.00  0.00     0.293 HD
ENDBRANCH  15  18
BRANCH  17  20
ATOM     20  O   UNL     1       8.480   3.283   6.750  1.00  0.00    -0.507 OA
ATOM     21  H   UNL     1       8.771   3.615   7.660  1.00  0.00     0.293 HD
ENDBRANCH  17  20
ENDBRANCH   1  12
BRANCH   2  22
ATOM     22  O   UNL     1       5.065   0.984   9.066  1.00  0.00    -0.502 OA
ATOM     23  H   UNL     1       5.936   0.637   9.448  1.00  0.00     0.293 HD
ENDBRANCH   2  22
BRANCH   6  24
ATOM     24  O   UNL     1       2.436   5.500  10.125  1.00  0.00    -0.507 OA
ATOM     25  H   UNL     1       2.122   4.653  10.572  1.00  0.00     0.293 HD
ENDBRANCH   6  24
BRANCH   8  26
ATOM     26  O   UNL     1       3.664   8.125   6.317  1.00  0.00    -0.508 OA
ATOM     27  H   UNL     1       4.460   8.735   6.173  1.00  0.00     0.293 HD
ENDBRANCH   8  26
TORSDOF 6
ENDMDL
MODEL 4
REMARK VINA RESULT:    -7.479      4.165      4.953
REMARK INTER + INTRA:          -9.167
REMARK INTER:                  -8.750
REMARK INTRA:                  -0.417
REMARK UNBOUND:                -0.158
REMARK SMILES O=c1c(O)c(-c2ccc(O)cc2O)oc2cc(O)cc(O)c12
REMARK SMILES IDX 5 1 3 2 2 3 1 4 22 5 20 6 19 7 17 8 16 9 15 10 14 11 6 12
REMARK SMILES IDX 8 13 7 14 9 15 11 16 12 17 10 18 13 20 4 22 21 24 18 26
REMARK H PARENT 10 19 13 21 4 23 21 25 18 27
REMARK Flexibility Score: inf
ROOT
ATOM      1  C   UNL     1       5.136  -2.123  -3.139  1.00  0.00     0.184 A 
ATOM      2  C   UNL     1       6.364  -2.797  -3.232  1.00  0.00     0.208 A 
ATOM      3  C   UNL     1       7.460  -2.136  -3.808  1.00  0.00     0.238 A 
ATOM      4  O   UNL     1       8.573  -2.723  -3.834  1.00  0.00    -0.285 OA
ATOM      5  C   UNL     1       7.305  -0.821  -4.310  1.00  0.00     0.111 A 
ATOM      6  C   UNL     1       8.337  -0.070  -4.950  1.00  0.00     0.134 A 
ATOM      7  C   UNL     1       8.106   1.266  -5.295  1.00  0.00     0.093 A 
ATOM      8  C   UNL     1       6.862   1.860  -5.085  1.00  0.00     0.123 A 
ATOM      9  C   UNL     1       5.827   1.118  -4.513  1.00  0.00     0.094 A 
ATOM     10  C   UNL     1       6.039  -0.207  -4.123  1.00  0.00     0.146 A 
ATOM     11  O   UNL     1       5.032  -0.873  -3.570  1.00  0.00    -0.451 OA
ENDROOT
BRANCH   1  12
ATOM     12  C   UNL     1       3.942  -2.777  -2.563  1.00  0.00     0.063 A 
ATOM     13  C   UNL     1       1.887  -4.035  -2.903  1.00  0.00     0.047 A 
ATOM     14  C   UNL     1       3.051  -3.457  -3.411  1.00  0.00     0.020 A 
ATOM     15  C   UNL     1       1.591  -3.937  -1.539  1.00  0.00     0.119 A 
ATOM     16  C   UNL     1       2.468  -3.260  -0.687  1.00  0.00     0.093 A 
ATOM     17  C   UNL     1       3.645  -2.686  -1.182  1.00  0.00     0.130 A 
BRANCH  15  18
ATOM     18  O   UNL     1       0.429  -4.504  -1.021  1.00  0.00    -0.508 OA
ATOM     19  H   UNL     1      -0.293  -3.936  -0.593  1.00  0.00     0.293 HD
ENDBRANCH  15  18
BRANCH  17  20
ATOM     20  O   UNL     1       4.502  -2.053  -0.279  1.00  0.00    -0.507 OA
ATOM     21  H   UNL     1       5.003  -1.202  -0.496  1.00  0.00     0.293 HD
ENDBRANCH  17  20
ENDBRANCH   1  12
BRANCH   2  22
ATOM     22  O   UNL     1       6.487  -4.096  -2.732  1.00  0.00    -0.502 OA
ATOM     23  H   UNL     1       7.268  -4.696  -2.966  1.00  0.00     0.293 HD
ENDBRANCH   2  22
BRANCH   6  24
ATOM     24  O   UNL     1       9.589  -0.594  -5.289  1.00  0.00    -0.507 OA
ATOM     25  H   UNL     1      10.330  -0.072  -5.730  1.00  0.00     0.293 HD
ENDBRANCH   6  24
BRANCH   8  26
ATOM     26  O   UNL     1       6.662   3.188  -5.457  1.00  0.00    -0.508 OA
ATOM     27  H   UNL     1       6.753   3.945  -4.788  1.00  0.00     0.293 HD
ENDBRANCH   8  26
TORSDOF 6
ENDMDL
MODEL 5
REMARK VINA RESULT:    -7.449     11.043     13.081
REMARK INTER + INTRA:          -9.132
REMARK INTER:                  -8.722
REMARK INTRA:                  -0.410
REMARK UNBOUND:                -0.158
REMARK SMILES O=c1c(O)c(-c2ccc(O)cc2O)oc2cc(O)cc(O)c12
REMARK SMILES IDX 5 1 3 2 2 3 1 4 22 5 20 6 19 7 17 8 16 9 15 10 14 11 6 12
REMARK SMILES IDX 8 13 7 14 9 15 11 16 12 17 10 18 13 20 4 22 21 24 18 26
REMARK H PARENT 10 19 13 21 4 23 21 25 18 27
REMARK Flexibility Score: inf
ROOT
ATOM      1  C   UNL     1      -4.135  -7.368  -4.338  1.00  0.00     0.184 A 
ATOM      2  C   UNL     1      -4.546  -8.090  -5.469  1.00  0.00     0.208 A 
ATOM      3  C   UNL     1      -5.334  -7.447  -6.438  1.00  0.00     0.238 A 
ATOM      4  O   UNL     1      -5.648  -8.081  -7.479  1.00  0.00    -0.285 OA
ATOM      5  C   UNL     1      -5.724  -6.099  -6.246  1.00  0.00     0.111 A 
ATOM      6  C   UNL     1      -6.554  -5.360  -7.142  1.00  0.00     0.134 A 
ATOM      7  C   UNL     1      -6.774  -3.997  -6.914  1.00  0.00     0.093 A 
ATOM      8  C   UNL     1      -6.250  -3.361  -5.790  1.00  0.00     0.123 A 
ATOM      9  C   UNL     1      -5.485  -4.087  -4.876  1.00  0.00     0.094 A 
ATOM     10  C   UNL     1      -5.217  -5.440  -5.096  1.00  0.00     0.146 A 
ATOM     11  O   UNL     1      -4.473  -6.091  -4.209  1.00  0.00    -0.451 OA
ENDROOT
BRANCH   1  12
ATOM     12  C   UNL     1      -3.325  -7.998  -3.276  1.00  0.00     0.063 A 
ATOM     13  C   UNL     1      -3.233  -9.219  -1.171  1.00  0.00     0.047 A 
ATOM     14  C   UNL     1      -3.970  -8.663  -2.218  1.00  0.00     0.020 A 
ATOM     15  C   UNL     1      -1.837  -9.114  -1.163  1.00  0.00     0.119 A 
ATOM     16  C   UNL     1      -1.186  -8.454  -2.208  1.00  0.00     0.093 A 
ATOM     17  C   UNL     1      -1.913  -7.901  -3.268  1.00  0.00     0.130 A 
BRANCH  15  18
ATOM     18  O   UNL     1      -1.090  -9.660  -0.122  1.00  0.00    -0.508 OA
ATOM     19  H   UNL     1      -1.338  -9.500   0.848  1.00  0.00     0.293 HD
ENDBRANCH  15  18
BRANCH  17  20
ATOM     20  O   UNL     1      -1.207  -7.285  -4.304  1.00  0.00    -0.507 OA
ATOM     21  H   UNL     1      -0.482  -7.751  -4.833  1.00  0.00     0.293 HD
ENDBRANCH  17  20
ENDBRANCH   1  12
BRANCH   2  22
ATOM     22  O   UNL     1      -4.150  -9.420  -5.630  1.00  0.00    -0.502 OA
ATOM     23  H   UNL     1      -3.571  -9.900  -4.952  1.00  0.00     0.293 HD
ENDBRANCH   2  22
BRANCH   6  24
ATOM     24  O   UNL     1      -7.203  -5.920  -8.248  1.00  0.00    -0.507 OA
ATOM     25  H   UNL     1      -8.111  -6.355  -8.222  1.00  0.00     0.293 HD
ENDBRANCH   6  24
BRANCH   8  26
ATOM     26  O   UNL     1      -6.503  -2.005  -5.586  1.00  0.00    -0.508 OA
ATOM     27  H   UNL     1      -5.837  -1.408  -5.110  1.00  0.00     0.293 HD
ENDBRANCH   8  26
TORSDOF 6
ENDMDL
MODEL 6
REMARK VINA RESULT:    -7.223     13.175     15.084
REMARK INTER + INTRA:          -8.859
REMARK INTER:                  -9.295
REMARK INTRA:                   0.436
REMARK UNBOUND:                -0.158
REMARK SMILES O=c1c(O)c(-c2ccc(O)cc2O)oc2cc(O)cc(O)c12
REMARK SMILES IDX 5 1 3 2 2 3 1 4 22 5 20 6 19 7 17 8 16 9 15 10 14 11 6 12
REMARK SMILES IDX 8 13 7 14 9 15 11 16 12 17 10 18 13 20 4 22 21 24 18 26
REMARK H PARENT 10 19 13 21 4 23 21 25 18 27
REMARK Flexibility Score: inf
ROOT
ATOM      1  C   UNL     1       5.154   2.653   6.601  1.00  0.00     0.184 A 
ATOM      2  C   UNL     1       4.201   1.635   6.766  1.00  0.00     0.208 A 
ATOM      3  C   UNL     1       4.618   0.296   6.702  1.00  0.00     0.238 A 
ATOM      4  O   UNL     1       3.770  -0.611   6.911  1.00  0.00    -0.285 OA
ATOM      5  C   UNL     1       5.977  -0.007   6.444  1.00  0.00     0.111 A 
ATOM      6  C   UNL     1       6.504  -1.327   6.318  1.00  0.00     0.134 A 
ATOM      7  C   UNL     1       7.885  -1.510   6.185  1.00  0.00     0.093 A 
ATOM      8  C   UNL     1       8.752  -0.421   6.108  1.00  0.00     0.123 A 
ATOM      9  C   UNL     1       8.242   0.877   6.171  1.00  0.00     0.094 A 
ATOM     10  C   UNL     1       6.872   1.091   6.342  1.00  0.00     0.146 A 
ATOM     11  O   UNL     1       6.430   2.341   6.411  1.00  0.00    -0.451 OA
ENDROOT
BRANCH   1  12
ATOM     12  C   UNL     1       4.770   4.079   6.636  1.00  0.00     0.063 A 
ATOM     13  C   UNL     1       3.027   5.773   6.488  1.00  0.00     0.047 A 
ATOM     14  C   UNL     1       3.414   4.431   6.514  1.00  0.00     0.020 A 
ATOM     15  C   UNL     1       3.992   6.783   6.576  1.00  0.00     0.119 A 
ATOM     16  C   UNL     1       5.342   6.444   6.694  1.00  0.00     0.093 A 
ATOM     17  C   UNL     1       5.741   5.103   6.733  1.00  0.00     0.130 A 
BRANCH  15  18
ATOM     18  O   UNL     1       3.619   8.125   6.544  1.00  0.00    -0.508 OA
ATOM     19  H   UNL     1       4.295   8.859   6.363  1.00  0.00     0.293 HD
ENDBRANCH  15  18
BRANCH  17  20
ATOM     20  O   UNL     1       7.101   4.823   6.889  1.00  0.00    -0.507 OA
ATOM     21  H   UNL     1       7.605   4.992   7.749  1.00  0.00     0.293 HD
ENDBRANCH  17  20
ENDBRANCH   1  12
BRANCH   2  22
ATOM     22  O   UNL     1       2.866   1.963   7.015  1.00  0.00    -0.502 OA
ATOM     23  H   UNL     1       2.110   1.305   6.873  1.00  0.00     0.293 HD
ENDBRANCH   2  22
BRANCH   6  24
ATOM     24  O   UNL     1       5.717  -2.483   6.291  1.00  0.00    -0.507 OA
ATOM     25  H   UNL     1       5.387  -2.973   7.107  1.00  0.00     0.293 HD
ENDBRANCH   6  24
BRANCH   8  26
ATOM     26  O   UNL     1      10.120  -0.640   5.959  1.00  0.00    -0.508 OA
ATOM     27  H   UNL     1      10.493  -1.142   5.162  1.00  0.00     0.293 HD
ENDBRANCH   8  26
TORSDOF 6
ENDMDL
MODEL 7
REMARK VINA RESULT:    -7.153      1.854      6.794
REMARK INTER + INTRA:          -8.774
REMARK INTER:                  -8.788
REMARK INTRA:                   0.013
REMARK UNBOUND:                -0.158
REMARK SMILES O=c1c(O)c(-c2ccc(O)cc2O)oc2cc(O)cc(O)c12
REMARK SMILES IDX 5 1 3 2 2 3 1 4 22 5 20 6 19 7 17 8 16 9 15 10 14 11 6 12
REMARK SMILES IDX 8 13 7 14 9 15 11 16 12 17 10 18 13 20 4 22 21 24 18 26
REMARK H PARENT 10 19 13 21 4 23 21 25 18 27
REMARK Flexibility Score: inf
ROOT
ATOM      1  C   UNL     1       5.661  -2.236  -6.764  1.00  0.00     0.184 A 
ATOM      2  C   UNL     1       5.325  -2.630  -8.069  1.00  0.00     0.208 A 
ATOM      3  C   UNL     1       5.104  -3.992  -8.333  1.00  0.00     0.238 A 
ATOM      4  O   UNL     1       4.743  -4.331  -9.490  1.00  0.00    -0.285 OA
ATOM      5  C   UNL     1       5.251  -4.943  -7.294  1.00  0.00     0.111 A 
ATOM      6  C   UNL     1       5.091  -6.352  -7.456  1.00  0.00     0.134 A 
ATOM      7  C   UNL     1       5.139  -7.186  -6.334  1.00  0.00     0.093 A 
ATOM      8  C   UNL     1       5.406  -6.673  -5.065  1.00  0.00     0.123 A 
ATOM      9  C   UNL     1       5.622  -5.304  -4.903  1.00  0.00     0.094 A 
ATOM     10  C   UNL     1       5.544  -4.440  -5.999  1.00  0.00     0.146 A 
ATOM     11  O   UNL     1       5.742  -3.143  -5.799  1.00  0.00    -0.451 OA
ENDROOT
BRANCH   1  12
ATOM     12  C   UNL     1       5.927  -0.821  -6.433  1.00  0.00     0.063 A 
ATOM     13  C   UNL     1       5.406   1.533  -6.772  1.00  0.00     0.047 A 
ATOM     14  C   UNL     1       5.141   0.185  -7.022  1.00  0.00     0.020 A 
ATOM     15  C   UNL     1       6.466   1.896  -5.933  1.00  0.00     0.119 A 
ATOM     16  C   UNL     1       7.255   0.904  -5.344  1.00  0.00     0.093 A 
ATOM     17  C   UNL     1       6.993  -0.451  -5.579  1.00  0.00     0.130 A 
BRANCH  15  18
ATOM     18  O   UNL     1       6.744   3.237  -5.679  1.00  0.00    -0.508 OA
ATOM     19  H   UNL     1       7.521   3.710  -6.126  1.00  0.00     0.293 HD
ENDBRANCH  15  18
BRANCH  17  20
ATOM     20  O   UNL     1       7.791  -1.399  -4.936  1.00  0.00    -0.507 OA
ATOM     21  H   UNL     1       8.800  -1.339  -4.899  1.00  0.00     0.293 HD
ENDBRANCH  17  20
ENDBRANCH   1  12
BRANCH   2  22
ATOM     22  O   UNL     1       5.190  -1.670  -9.075  1.00  0.00    -0.502 OA
ATOM     23  H   UNL     1       5.185  -0.677  -8.881  1.00  0.00     0.293 HD
ENDBRANCH   2  22
BRANCH   6  24
ATOM     24  O   UNL     1       4.909  -6.981  -8.693  1.00  0.00    -0.507 OA
ATOM     25  H   UNL     1       5.571  -6.958  -9.452  1.00  0.00     0.293 HD
ENDBRANCH   6  24
BRANCH   8  26
ATOM     26  O   UNL     1       5.463  -7.535  -3.972  1.00  0.00    -0.508 OA
ATOM     27  H   UNL     1       6.320  -8.011  -3.716  1.00  0.00     0.293 HD
ENDBRANCH   8  26
TORSDOF 6
ENDMDL
MODEL 8
REMARK VINA RESULT:    -7.152      1.931      6.510
REMARK INTER + INTRA:          -8.773
REMARK INTER:                  -8.955
REMARK INTRA:                   0.182
REMARK UNBOUND:                -0.158
REMARK SMILES O=c1c(O)c(-c2ccc(O)cc2O)oc2cc(O)cc(O)c12
REMARK SMILES IDX 5 1 3 2 2 3 1 4 22 5 20 6 19 7 17 8 16 9 15 10 14 11 6 12
REMARK SMILES IDX 8 13 7 14 9 15 11 16 12 17 10 18 13 20 4 22 21 24 18 26
REMARK H PARENT 10 19 13 21 4 23 21 25 18 27
REMARK Flexibility Score: inf
ROOT
ATOM      1  C   UNL     1       5.575  -2.368  -5.950  1.00  0.00     0.184 A 
ATOM      2  C   UNL     1       6.139  -3.262  -5.027  1.00  0.00     0.208 A 
ATOM      3  C   UNL     1       6.032  -4.642  -5.263  1.00  0.00     0.238 A 
ATOM      4  O   UNL     1       6.592  -5.437  -4.463  1.00  0.00    -0.285 OA
ATOM      5  C   UNL     1       5.339  -5.109  -6.406  1.00  0.00     0.111 A 
ATOM      6  C   UNL     1       5.135  -6.485  -6.725  1.00  0.00     0.134 A 
ATOM      7  C   UNL     1       4.542  -6.831  -7.945  1.00  0.00     0.093 A 
ATOM      8  C   UNL     1       4.086  -5.853  -8.827  1.00  0.00     0.123 A 
ATOM      9  C   UNL     1       4.227  -4.503  -8.499  1.00  0.00     0.094 A 
ATOM     10  C   UNL     1       4.849  -4.126  -7.306  1.00  0.00     0.146 A 
ATOM     11  O   UNL     1       4.976  -2.832  -7.039  1.00  0.00    -0.451 OA
ENDROOT
BRANCH   1  12
ATOM     12  C   UNL     1       5.636  -0.907  -5.742  1.00  0.00     0.063 A 
ATOM     13  C   UNL     1       5.703   0.978  -4.203  1.00  0.00     0.047 A 
ATOM     14  C   UNL     1       5.701  -0.399  -4.432  1.00  0.00     0.020 A 
ATOM     15  C   UNL     1       5.634   1.870  -5.279  1.00  0.00     0.119 A 
ATOM     16  C   UNL     1       5.566   1.376  -6.584  1.00  0.00     0.093 A 
ATOM     17  C   UNL     1       5.575  -0.003  -6.829  1.00  0.00     0.130 A 
BRANCH  15  18
ATOM     18  O   UNL     1       5.629   3.245  -5.063  1.00  0.00    -0.508 OA
ATOM     19  H   UNL     1       5.399   3.639  -4.157  1.00  0.00     0.293 HD
ENDBRANCH  15  18
BRANCH  17  20
ATOM     20  O   UNL     1       5.542  -0.439  -8.155  1.00  0.00    -0.507 OA
ATOM     21  H   UNL     1       5.390  -1.404  -8.416  1.00  0.00     0.293 HD
ENDBRANCH  17  20
ENDBRANCH   1  12
BRANCH   2  22
ATOM     22  O   UNL     1       6.814  -2.773  -3.905  1.00  0.00    -0.502 OA
ATOM     23  H   UNL     1       7.534  -3.304  -3.430  1.00  0.00     0.293 HD
ENDBRANCH   2  22
BRANCH   6  24
ATOM     24  O   UNL     1       5.471  -7.543  -5.873  1.00  0.00    -0.507 OA
ATOM     25  H   UNL     1       4.808  -8.171  -5.448  1.00  0.00     0.293 HD
ENDBRANCH   6  24
BRANCH   8  26
ATOM     26  O   UNL     1       3.485  -6.233 -10.025  1.00  0.00    -0.508 OA
ATOM     27  H   UNL     1       3.223  -7.196 -10.205  1.00  0.00     0.293 HD
ENDBRANCH   8  26
TORSDOF 6
ENDMDL
MODEL 9
REMARK VINA RESULT:    -6.865     12.911     14.651
REMARK INTER + INTRA:          -8.427
REMARK INTER:                  -8.021
REMARK INTRA:                  -0.406
REMARK UNBOUND:                -0.158
REMARK SMILES O=c1c(O)c(-c2ccc(O)cc2O)oc2cc(O)cc(O)c12
REMARK SMILES IDX 5 1 3 2 2 3 1 4 22 5 20 6 19 7 17 8 16 9 15 10 14 11 6 12
REMARK SMILES IDX 8 13 7 14 9 15 11 16 12 17 10 18 13 20 4 22 21 24 18 26
REMARK H PARENT 10 19 13 21 4 23 21 25 18 27
REMARK Flexibility Score: inf
ROOT
ATOM      1  C   UNL     1       5.435   1.534   6.859  1.00  0.00     0.184 A 
ATOM      2  C   UNL     1       5.328   2.202   8.090  1.00  0.00     0.208 A 
ATOM      3  C   UNL     1       4.148   2.905   8.382  1.00  0.00     0.238 A 
ATOM      4  O   UNL     1       4.034   3.450   9.511  1.00  0.00    -0.285 OA
ATOM      5  C   UNL     1       3.103   2.954   7.428  1.00  0.00     0.111 A 
ATOM      6  C   UNL     1       1.880   3.669   7.601  1.00  0.00     0.134 A 
ATOM      7  C   UNL     1       0.866   3.546   6.643  1.00  0.00     0.093 A 
ATOM      8  C   UNL     1       1.055   2.789   5.488  1.00  0.00     0.123 A 
ATOM      9  C   UNL     1       2.269   2.133   5.280  1.00  0.00     0.094 A 
ATOM     10  C   UNL     1       3.286   2.205   6.235  1.00  0.00     0.146 A 
ATOM     11  O   UNL     1       4.420   1.554   6.005  1.00  0.00    -0.451 OA
ENDROOT
BRANCH   1  12
ATOM     12  C   UNL     1       6.661   0.798   6.488  1.00  0.00     0.063 A 
ATOM     13  C   UNL     1       8.938   0.841   5.630  1.00  0.00     0.047 A 
ATOM     14  C   UNL     1       7.786   1.513   6.041  1.00  0.00     0.020 A 
ATOM     15  C   UNL     1       8.982  -0.557   5.654  1.00  0.00     0.119 A 
ATOM     16  C   UNL     1       7.868  -1.278   6.094  1.00  0.00     0.093 A 
ATOM     17  C   UNL     1       6.711  -0.615   6.519  1.00  0.00     0.130 A 
BRANCH  15  18
ATOM     18  O   UNL     1      10.124  -1.240   5.241  1.00  0.00    -0.508 OA
ATOM     19  H   UNL     1      10.575  -1.031   4.357  1.00  0.00     0.293 HD
ENDBRANCH  15  18
BRANCH  17  20
ATOM     20  O   UNL     1       5.642  -1.385   6.983  1.00  0.00    -0.507 OA
ATOM     21  H   UNL     1       4.714  -1.011   7.130  1.00  0.00     0.293 HD
ENDBRANCH  17  20
ENDBRANCH   1  12
BRANCH   2  22
ATOM     22  O   UNL     1       6.376   2.140   9.011  1.00  0.00    -0.502 OA
ATOM     23  H   UNL     1       7.269   2.589   8.848  1.00  0.00     0.293 HD
ENDBRANCH   2  22
BRANCH   6  24
ATOM     24  O   UNL     1       1.621   4.527   8.675  1.00  0.00    -0.507 OA
ATOM     25  H   UNL     1       1.416   5.510   8.588  1.00  0.00     0.293 HD
ENDBRANCH   6  24
BRANCH   8  26
ATOM     26  O   UNL     1       0.031   2.702   4.547  1.00  0.00    -0.508 OA
ATOM     27  H   UNL     1      -0.548   3.502   4.318  1.00  0.00     0.293 HD
ENDBRANCH   8  26
TORSDOF 6
ENDMDL
