MODEL 1
REMARK VINA RESULT:    -5.126      0.000      0.000
REMARK INTER + INTRA:         -11.992
REMARK INTER:                  -9.920
REMARK INTRA:                  -2.072
REMARK UNBOUND:                -2.072
REMARK SMILES CCCCCCCCCCCCCCCCCC(=O)[O-]
REMARK SMILES IDX 10 1 11 2 12 3 13 4 14 5 15 6 16 7 17 8 18 9 19 10 20 11
REMARK SMILES IDX 9 12 8 13 7 14 6 15 5 16 4 17 3 18 2 19 1 20
REMARK H PARENT
REMARK Flexibility Score: inf
ROOT
ATOM      1  C   UNL     1      -2.660  11.872  24.092  1.00  0.00     0.000 C 
ENDROOT
BRANCH   1   2
ATOM      2  C   UNL     1      -2.862  11.507  25.571  1.00  0.00     0.000 C 
BRANCH   2   3
ATOM      3  C   UNL     1      -2.246  12.541  26.529  1.00  0.00     0.000 C 
BRANCH   3   4
ATOM      4  C   UNL     1      -1.014  12.011  27.294  1.00  0.00     0.000 C 
BRANCH   4   5
ATOM      5  C   UNL     1       0.300  12.626  26.777  1.00  0.00     0.000 C 
BRANCH   5   6
ATOM      6  C   UNL     1       0.066  13.799  25.813  1.00  0.00     0.000 C 
BRANCH   6   7
ATOM      7  C   UNL     1       1.286  14.725  25.702  1.00  0.00     0.006 C 
BRANCH   7   8
ATOM      8  C   UNL     1       1.432  15.271  24.278  1.00  0.00     0.053 C 
BRANCH   8   9
ATOM      9  C   UNL     1       2.865  15.253  23.852  1.00  0.00     0.041 C 
ATOM     10  O   UNL     1       3.479  16.334  23.644  1.00  0.00    -0.550 OA
ATOM     11  O   UNL     1       3.540  14.045  23.729  1.00  0.00    -0.550 OA
ENDBRANCH   8   9
ENDBRANCH   7   8
ENDBRANCH   6   7
ENDBRANCH   5   6
ENDBRANCH   4   5
ENDBRANCH   3   4
ENDBRANCH   2   3
ENDBRANCH   1   2
BRANCH   1  12
ATOM     12  C   UNL     1      -3.915  11.619  23.239  1.00  0.00     0.000 C 
BRANCH  12  13
ATOM     13  C   UNL     1      -3.636  11.299  21.756  1.00  0.00    -0.000 C 
BRANCH  13  14
ATOM     14  C   UNL     1      -3.894   9.837  21.340  1.00  0.00    -0.000 C 
BRANCH  14  15
ATOM     15  C   UNL     1      -2.726   9.149  20.609  1.00  0.00    -0.000 C 
BRANCH  15  16
ATOM     16  C   UNL     1      -1.831   8.329  21.555  1.00  0.00    -0.000 C 
BRANCH  16  17
ATOM     17  C   UNL     1      -2.495   8.072  22.917  1.00  0.00    -0.000 C 
BRANCH  17  18
ATOM     18  C   UNL     1      -1.567   8.400  24.100  1.00  0.00    -0.000 C 
BRANCH  18  19
ATOM     19  C   UNL     1      -0.299   9.150  23.662  1.00  0.00    -0.003 C 
ATOM     20  C   UNL     1       0.605   9.516  24.838  1.00  0.00     0.004 C 
ENDBRANCH  18  19
ENDBRANCH  17  18
ENDBRANCH  16  17
ENDBRANCH  15  16
ENDBRANCH  14  15
ENDBRANCH  13  14
ENDBRANCH  12  13
ENDBRANCH   1  12
TORSDOF 16
ENDMDL
MODEL 2
REMARK VINA RESULT:    -4.876      2.812      4.078
REMARK INTER + INTRA:         -11.509
REMARK INTER:                  -9.115
REMARK INTRA:                  -2.394
REMARK UNBOUND:                -2.072
REMARK SMILES CCCCCCCCCCCCCCCCCC(=O)[O-]
REMARK SMILES IDX 10 1 11 2 12 3 13 4 14 5 15 6 16 7 17 8 18 9 19 10 20 11
REMARK SMILES IDX 9 12 8 13 7 14 6 15 5 16 4 17 3 18 2 19 1 20
REMARK H PARENT
REMARK Flexibility Score: inf
ROOT
ATOM      1  C   UNL     1      -2.124   9.240  27.676  1.00  0.00     0.000 C 
ENDROOT
BRANCH   1   2
ATOM      2  C   UNL     1      -2.948  10.201  28.548  1.00  0.00     0.000 C 
BRANCH   2   3
ATOM      3  C   UNL     1      -2.176  11.480  28.917  1.00  0.00     0.000 C 
BRANCH   3   4
ATOM      4  C   UNL     1      -2.675  12.735  28.169  1.00  0.00     0.000 C 
BRANCH   4   5
ATOM      5  C   UNL     1      -1.838  13.031  26.911  1.00  0.00     0.000 C 
BRANCH   5   6
ATOM      6  C   UNL     1      -0.399  12.506  27.018  1.00  0.00     0.000 C 
BRANCH   6   7
ATOM      7  C   UNL     1       0.055  11.763  25.753  1.00  0.00     0.006 C 
BRANCH   7   8
ATOM      8  C   UNL     1       1.481  11.227  25.914  1.00  0.00     0.053 C 
BRANCH   8   9
ATOM      9  C   UNL     1       1.598   9.857  25.326  1.00  0.00     0.041 C 
ATOM     10  O   UNL     1       2.547   9.101  25.666  1.00  0.00    -0.550 OA
ATOM     11  O   UNL     1       0.634   9.395  24.438  1.00  0.00    -0.550 OA
ENDBRANCH   8   9
ENDBRANCH   7   8
ENDBRANCH   6   7
ENDBRANCH   5   6
ENDBRANCH   4   5
ENDBRANCH   3   4
ENDBRANCH   2   3
ENDBRANCH   1   2
BRANCH   1  12
ATOM     12  C   UNL     1      -2.561   9.251  26.201  1.00  0.00     0.000 C 
BRANCH  12  13
ATOM     13  C   UNL     1      -3.897   9.971  25.925  1.00  0.00    -0.000 C 
BRANCH  13  14
ATOM     14  C   UNL     1      -4.670   9.470  24.689  1.00  0.00    -0.000 C 
BRANCH  14  15
ATOM     15  C   UNL     1      -4.872  10.514  23.576  1.00  0.00    -0.000 C 
BRANCH  15  16
ATOM     16  C   UNL     1      -3.652  11.433  23.393  1.00  0.00    -0.000 C 
BRANCH  16  17
ATOM     17  C   UNL     1      -2.954  11.221  22.040  1.00  0.00    -0.000 C 
BRANCH  17  18
ATOM     18  C   UNL     1      -3.561  10.056  21.237  1.00  0.00    -0.000 C 
BRANCH  18  19
ATOM     19  C   UNL     1      -2.539   8.945  20.950  1.00  0.00    -0.003 C 
ATOM     20  C   UNL     1      -2.078   8.226  22.217  1.00  0.00     0.004 C 
ENDBRANCH  18  19
ENDBRANCH  17  18
ENDBRANCH  16  17
ENDBRANCH  15  16
ENDBRANCH  14  15
ENDBRANCH  13  14
ENDBRANCH  12  13
ENDBRANCH   1  12
TORSDOF 16
ENDMDL
MODEL 3
REMARK VINA RESULT:    -4.859      1.284      2.906
REMARK INTER + INTRA:         -11.477
REMARK INTER:                  -9.296
REMARK INTRA:                  -2.181
REMARK UNBOUND:                -2.072
REMARK SMILES CCCCCCCCCCCCCCCCCC(=O)[O-]
REMARK SMILES IDX 10 1 11 2 12 3 13 4 14 5 15 6 16 7 17 8 18 9 19 10 20 11
REMARK SMILES IDX 9 12 8 13 7 14 6 15 5 16 4 17 3 18 2 19 1 20
REMARK H PARENT
REMARK Flexibility Score: inf
ROOT
ATOM      1  C   UNL     1      -0.260  10.308  25.191  1.00  0.00     0.000 C 
ENDROOT
BRANCH   1   2
ATOM      2  C   UNL     1      -1.412  10.436  26.199  1.00  0.00     0.000 C 
BRANCH   2   3
ATOM      3  C   UNL     1      -1.624  11.881  26.681  1.00  0.00     0.000 C 
BRANCH   3   4
ATOM      4  C   UNL     1      -0.856  12.926  25.842  1.00  0.00     0.000 C 
BRANCH   4   5
ATOM      5  C   UNL     1       0.418  13.420  26.553  1.00  0.00     0.000 C 
BRANCH   5   6
ATOM      6  C   UNL     1       1.508  13.870  25.569  1.00  0.00     0.000 C 
BRANCH   6   7
ATOM      7  C   UNL     1       1.075  15.071  24.716  1.00  0.00     0.006 C 
BRANCH   7   8
ATOM      8  C   UNL     1       2.283  15.726  24.038  1.00  0.00     0.053 C 
BRANCH   8   9
ATOM      9  C   UNL     1       2.181  17.217  24.107  1.00  0.00     0.041 C 
ATOM     10  O   UNL     1       1.228  17.814  23.540  1.00  0.00    -0.550 OA
ATOM     11  O   UNL     1       3.111  17.946  24.838  1.00  0.00    -0.550 OA
ENDBRANCH   8   9
ENDBRANCH   7   8
ENDBRANCH   6   7
ENDBRANCH   5   6
ENDBRANCH   4   5
ENDBRANCH   3   4
ENDBRANCH   2   3
ENDBRANCH   1   2
BRANCH   1  12
ATOM     12  C   UNL     1      -0.573   9.326  24.049  1.00  0.00     0.000 C 
BRANCH  12  13
ATOM     13  C   UNL     1      -1.733   8.350  24.333  1.00  0.00    -0.000 C 
BRANCH  13  14
ATOM     14  C   UNL     1      -2.538   7.907  23.094  1.00  0.00    -0.000 C 
BRANCH  14  15
ATOM     15  C   UNL     1      -2.067   8.511  21.758  1.00  0.00    -0.000 C 
BRANCH  15  16
ATOM     16  C   UNL     1      -3.235   8.953  20.860  1.00  0.00    -0.000 C 
BRANCH  16  17
ATOM     17  C   UNL     1      -4.008  10.145  21.445  1.00  0.00    -0.000 C 
BRANCH  17  18
ATOM     18  C   UNL     1      -3.091  11.328  21.804  1.00  0.00    -0.000 C 
BRANCH  18  19
ATOM     19  C   UNL     1      -3.325  11.841  23.233  1.00  0.00    -0.003 C 
ATOM     20  C   UNL     1      -4.358  11.012  23.996  1.00  0.00     0.004 C 
ENDBRANCH  18  19
ENDBRANCH  17  18
ENDBRANCH  16  17
ENDBRANCH  15  16
ENDBRANCH  14  15
ENDBRANCH  13  14
ENDBRANCH  12  13
ENDBRANCH   1  12
TORSDOF 16
ENDMDL
MODEL 4
REMARK VINA RESULT:    -4.846      2.841      6.585
REMARK INTER + INTRA:         -11.452
REMARK INTER:                  -9.338
REMARK INTRA:                  -2.114
REMARK UNBOUND:                -2.072
REMARK SMILES CCCCCCCCCCCCCCCCCC(=O)[O-]
REMARK SMILES IDX 10 1 11 2 12 3 13 4 14 5 15 6 16 7 17 8 18 9 19 10 20 11
REMARK SMILES IDX 9 12 8 13 7 14 6 15 5 16 4 17 3 18 2 19 1 20
REMARK H PARENT
REMARK Flexibility Score: inf
ROOT
ATOM      1  C   UNL     1       0.434   9.523  25.597  1.00  0.00     0.000 C 
ENDROOT
BRANCH   1   2
ATOM      2  C   UNL     1      -0.670   9.630  24.534  1.00  0.00     0.000 C 
BRANCH   2   3
ATOM      3  C   UNL     1      -1.796   8.601  24.738  1.00  0.00     0.000 C 
BRANCH   3   4
ATOM      4  C   UNL     1      -2.448   8.135  23.419  1.00  0.00     0.000 C 
BRANCH   4   5
ATOM      5  C   UNL     1      -1.600   8.506  22.188  1.00  0.00     0.000 C 
BRANCH   5   6
ATOM      6  C   UNL     1      -2.450   8.744  20.931  1.00  0.00     0.000 C 
BRANCH   6   7
ATOM      7  C   UNL     1      -3.691   9.605  21.211  1.00  0.00     0.006 C 
BRANCH   7   8
ATOM      8  C   UNL     1      -3.357  11.097  21.115  1.00  0.00     0.053 C 
BRANCH   8   9
ATOM      9  C   UNL     1      -3.913  11.836  22.290  1.00  0.00     0.041 C 
ATOM     10  O   UNL     1      -4.913  12.589  22.150  1.00  0.00    -0.550 OA
ATOM     11  O   UNL     1      -3.356  11.660  23.551  1.00  0.00    -0.550 OA
ENDBRANCH   8   9
ENDBRANCH   7   8
ENDBRANCH   6   7
ENDBRANCH   5   6
ENDBRANCH   4   5
ENDBRANCH   3   4
ENDBRANCH   2   3
ENDBRANCH   1   2
BRANCH   1  12
ATOM     12  C   UNL     1       1.357  10.753  25.624  1.00  0.00     0.000 C 
BRANCH  12  13
ATOM     13  C   UNL     1       0.916  11.874  26.587  1.00  0.00    -0.000 C 
BRANCH  13  14
ATOM     14  C   UNL     1       0.810  13.277  25.958  1.00  0.00    -0.000 C 
BRANCH  14  15
ATOM     15  C   UNL     1      -0.625  13.790  25.742  1.00  0.00    -0.000 C 
BRANCH  15  16
ATOM     16  C   UNL     1      -1.691  12.841  26.317  1.00  0.00    -0.000 C 
BRANCH  16  17
ATOM     17  C   UNL     1      -2.379  13.417  27.565  1.00  0.00    -0.000 C 
BRANCH  17  18
ATOM     18  C   UNL     1      -3.056  12.332  28.422  1.00  0.00    -0.000 C 
BRANCH  18  19
ATOM     19  C   UNL     1      -2.097  11.188  28.787  1.00  0.00    -0.003 C 
ATOM     20  C   UNL     1      -2.523   9.849  28.187  1.00  0.00     0.004 C 
ENDBRANCH  18  19
ENDBRANCH  17  18
ENDBRANCH  16  17
ENDBRANCH  15  16
ENDBRANCH  14  15
ENDBRANCH  13  14
ENDBRANCH  12  13
ENDBRANCH   1  12
TORSDOF 16
ENDMDL
MODEL 5
REMARK VINA RESULT:    -4.828      1.379      3.145
REMARK INTER + INTRA:         -11.417
REMARK INTER:                  -8.659
REMARK INTRA:                  -2.758
REMARK UNBOUND:                -2.072
REMARK SMILES CCCCCCCCCCCCCCCCCC(=O)[O-]
REMARK SMILES IDX 10 1 11 2 12 3 13 4 14 5 15 6 16 7 17 8 18 9 19 10 20 11
REMARK SMILES IDX 9 12 8 13 7 14 6 15 5 16 4 17 3 18 2 19 1 20
REMARK H PARENT
REMARK Flexibility Score: inf
ROOT
ATOM      1  C   UNL     1      -0.913   9.187  23.268  1.00  0.00     0.000 C 
ENDROOT
BRANCH   1   2
ATOM      2  C   UNL     1      -1.281   8.460  24.571  1.00  0.00     0.000 C 
BRANCH   2   3
ATOM      3  C   UNL     1      -0.802   9.208  25.826  1.00  0.00     0.000 C 
BRANCH   3   4
ATOM      4  C   UNL     1       0.005  10.485  25.509  1.00  0.00     0.000 C 
BRANCH   4   5
ATOM      5  C   UNL     1       0.109  11.425  26.724  1.00  0.00     0.000 C 
BRANCH   5   6
ATOM      6  C   UNL     1      -0.891  12.588  26.662  1.00  0.00     0.000 C 
BRANCH   6   7
ATOM      7  C   UNL     1      -0.489  13.659  25.638  1.00  0.00     0.006 C 
BRANCH   7   8
ATOM      8  C   UNL     1       0.807  14.360  26.056  1.00  0.00     0.053 C 
BRANCH   8   9
ATOM      9  C   UNL     1       1.827  14.277  24.965  1.00  0.00     0.041 C 
ATOM     10  O   UNL     1       1.872  15.163  24.071  1.00  0.00    -0.550 OA
ATOM     11  O   UNL     1       2.759  13.247  24.959  1.00  0.00    -0.550 OA
ENDBRANCH   8   9
ENDBRANCH   7   8
ENDBRANCH   6   7
ENDBRANCH   5   6
ENDBRANCH   4   5
ENDBRANCH   3   4
ENDBRANCH   2   3
ENDBRANCH   1   2
BRANCH   1  12
ATOM     12  C   UNL     1      -1.493   8.502  22.018  1.00  0.00     0.000 C 
BRANCH  12  13
ATOM     13  C   UNL     1      -3.030   8.553  21.905  1.00  0.00    -0.000 C 
BRANCH  13  14
ATOM     14  C   UNL     1      -3.581   9.584  20.899  1.00  0.00    -0.000 C 
BRANCH  14  15
ATOM     15  C   UNL     1      -3.234  11.051  21.210  1.00  0.00    -0.000 C 
BRANCH  15  16
ATOM     16  C   UNL     1      -4.067  11.628  22.367  1.00  0.00    -0.000 C 
BRANCH  16  17
ATOM     17  C   UNL     1      -3.230  11.858  23.636  1.00  0.00    -0.000 C 
BRANCH  17  18
ATOM     18  C   UNL     1      -3.779  11.094  24.854  1.00  0.00    -0.000 C 
BRANCH  18  19
ATOM     19  C   UNL     1      -5.046  10.290  24.522  1.00  0.00    -0.003 C 
ATOM     20  C   UNL     1      -4.979   8.848  25.023  1.00  0.00     0.004 C 
ENDBRANCH  18  19
ENDBRANCH  17  18
ENDBRANCH  16  17
ENDBRANCH  15  16
ENDBRANCH  14  15
ENDBRANCH  13  14
ENDBRANCH  12  13
ENDBRANCH   1  12
TORSDOF 16
ENDMDL
MODEL 6
REMARK VINA RESULT:    -4.772      3.481      5.453
REMARK INTER + INTRA:         -11.309
REMARK INTER:                  -8.860
REMARK INTRA:                  -2.449
REMARK UNBOUND:                -2.072
REMARK SMILES CCCCCCCCCCCCCCCCCC(=O)[O-]
REMARK SMILES IDX 10 1 11 2 12 3 13 4 14 5 15 6 16 7 17 8 18 9 19 10 20 11
REMARK SMILES IDX 9 12 8 13 7 14 6 15 5 16 4 17 3 18 2 19 1 20
REMARK H PARENT
REMARK Flexibility Score: inf
ROOT
ATOM      1  C   UNL     1       0.902   9.275  23.941  1.00  0.00     0.000 C 
ENDROOT
BRANCH   1   2
ATOM      2  C   UNL     1       1.019   9.553  25.447  1.00  0.00     0.000 C 
BRANCH   2   3
ATOM      3  C   UNL     1       1.781  10.854  25.755  1.00  0.00     0.000 C 
BRANCH   3   4
ATOM      4  C   UNL     1       0.890  12.114  25.702  1.00  0.00     0.000 C 
BRANCH   4   5
ATOM      5  C   UNL     1       0.099  12.321  27.007  1.00  0.00     0.000 C 
BRANCH   5   6
ATOM      6  C   UNL     1      -1.185  13.138  26.800  1.00  0.00     0.000 C 
BRANCH   6   7
ATOM      7  C   UNL     1      -2.344  12.652  27.681  1.00  0.00     0.006 C 
BRANCH   7   8
ATOM      8  C   UNL     1      -2.160  11.182  28.068  1.00  0.00     0.053 C 
BRANCH   8   9
ATOM      9  C   UNL     1      -2.684  10.931  29.447  1.00  0.00     0.041 C 
ATOM     10  O   UNL     1      -3.783  10.337  29.608  1.00  0.00    -0.550 OA
ATOM     11  O   UNL     1      -1.939  11.311  30.555  1.00  0.00    -0.550 OA
ENDBRANCH   8   9
ENDBRANCH   7   8
ENDBRANCH   6   7
ENDBRANCH   5   6
ENDBRANCH   4   5
ENDBRANCH   3   4
ENDBRANCH   2   3
ENDBRANCH   1   2
BRANCH   1  12
ATOM     12  C   UNL     1      -0.558   9.217  23.458  1.00  0.00     0.000 C 
BRANCH  12  13
ATOM     13  C   UNL     1      -1.557   8.639  24.480  1.00  0.00    -0.000 C 
BRANCH  13  14
ATOM     14  C   UNL     1      -2.662   9.610  24.942  1.00  0.00    -0.000 C 
BRANCH  14  15
ATOM     15  C   UNL     1      -2.721  10.945  24.176  1.00  0.00    -0.000 C 
BRANCH  15  16
ATOM     16  C   UNL     1      -4.148  11.320  23.741  1.00  0.00    -0.000 C 
BRANCH  16  17
ATOM     17  C   UNL     1      -4.472  10.840  22.317  1.00  0.00    -0.000 C 
BRANCH  17  18
ATOM     18  C   UNL     1      -3.233  10.815  21.403  1.00  0.00    -0.000 C 
BRANCH  18  19
ATOM     19  C   UNL     1      -3.054   9.464  20.693  1.00  0.00    -0.003 C 
ATOM     20  C   UNL     1      -4.351   8.658  20.623  1.00  0.00     0.004 C 
ENDBRANCH  18  19
ENDBRANCH  17  18
ENDBRANCH  16  17
ENDBRANCH  15  16
ENDBRANCH  14  15
ENDBRANCH  13  14
ENDBRANCH  12  13
ENDBRANCH   1  12
TORSDOF 16
ENDMDL
MODEL 7
REMARK VINA RESULT:    -4.762      3.266      5.450
REMARK INTER + INTRA:         -11.289
REMARK INTER:                  -8.855
REMARK INTRA:                  -2.434
REMARK UNBOUND:                -2.072
REMARK SMILES CCCCCCCCCCCCCCCCCC(=O)[O-]
REMARK SMILES IDX 10 1 11 2 12 3 13 4 14 5 15 6 16 7 17 8 18 9 19 10 20 11
REMARK SMILES IDX 9 12 8 13 7 14 6 15 5 16 4 17 3 18 2 19 1 20
REMARK H PARENT
REMARK Flexibility Score: inf
ROOT
ATOM      1  C   UNL     1       1.339  11.032  25.632  1.00  0.00     0.000 C 
ENDROOT
BRANCH   1   2
ATOM      2  C   UNL     1       0.449  11.807  26.617  1.00  0.00     0.000 C 
BRANCH   2   3
ATOM      3  C   UNL     1      -0.233  13.026  25.972  1.00  0.00     0.000 C 
BRANCH   3   4
ATOM      4  C   UNL     1      -1.774  12.941  25.979  1.00  0.00     0.000 C 
BRANCH   4   5
ATOM      5  C   UNL     1      -2.291  11.685  25.253  1.00  0.00     0.000 C 
BRANCH   5   6
ATOM      6  C   UNL     1      -3.779  11.415  25.521  1.00  0.00     0.000 C 
BRANCH   6   7
ATOM      7  C   UNL     1      -4.015  10.103  26.283  1.00  0.00     0.006 C 
BRANCH   7   8
ATOM      8  C   UNL     1      -3.981  10.334  27.797  1.00  0.00     0.053 C 
BRANCH   8   9
ATOM      9  C   UNL     1      -2.615  10.063  28.340  1.00  0.00     0.041 C 
ATOM     10  O   UNL     1      -2.210  10.669  29.368  1.00  0.00    -0.550 OA
ATOM     11  O   UNL     1      -1.803   9.107  27.741  1.00  0.00    -0.550 OA
ENDBRANCH   8   9
ENDBRANCH   7   8
ENDBRANCH   6   7
ENDBRANCH   5   6
ENDBRANCH   4   5
ENDBRANCH   3   4
ENDBRANCH   2   3
ENDBRANCH   1   2
BRANCH   1  12
ATOM     12  C   UNL     1       0.745   9.669  25.237  1.00  0.00     0.000 C 
BRANCH  12  13
ATOM     13  C   UNL     1       0.947   9.277  23.760  1.00  0.00    -0.000 C 
BRANCH  13  14
ATOM     14  C   UNL     1      -0.342   8.927  22.990  1.00  0.00    -0.000 C 
BRANCH  14  15
ATOM     15  C   UNL     1      -1.546   8.543  23.870  1.00  0.00    -0.000 C 
BRANCH  15  16
ATOM     16  C   UNL     1      -2.877   8.555  23.098  1.00  0.00    -0.000 C 
BRANCH  16  17
ATOM     17  C   UNL     1      -2.690   8.890  21.610  1.00  0.00    -0.000 C 
BRANCH  17  18
ATOM     18  C   UNL     1      -3.597  10.044  21.144  1.00  0.00    -0.000 C 
BRANCH  18  19
ATOM     19  C   UNL     1      -3.155  11.403  21.709  1.00  0.00    -0.003 C 
ATOM     20  C   UNL     1      -4.336  12.296  22.086  1.00  0.00     0.004 C 
ENDBRANCH  18  19
ENDBRANCH  17  18
ENDBRANCH  16  17
ENDBRANCH  15  16
ENDBRANCH  14  15
ENDBRANCH  13  14
ENDBRANCH  12  13
ENDBRANCH   1  12
TORSDOF 16
ENDMDL
MODEL 8
REMARK VINA RESULT:    -4.716      3.737      5.922
REMARK INTER + INTRA:         -11.200
REMARK INTER:                  -8.856
REMARK INTRA:                  -2.344
REMARK UNBOUND:                -2.072
REMARK SMILES CCCCCCCCCCCCCCCCCC(=O)[O-]
REMARK SMILES IDX 10 1 11 2 12 3 13 4 14 5 15 6 16 7 17 8 18 9 19 10 20 11
REMARK SMILES IDX 9 12 8 13 7 14 6 15 5 16 4 17 3 18 2 19 1 20
REMARK H PARENT
REMARK Flexibility Score: inf
ROOT
ATOM      1  C   UNL     1       1.229  11.831  25.763  1.00  0.00     0.000 C 
ENDROOT
BRANCH   1   2
ATOM      2  C   UNL     1       0.224  12.575  26.657  1.00  0.00     0.000 C 
BRANCH   2   3
ATOM      3  C   UNL     1      -1.128  12.813  25.963  1.00  0.00     0.000 C 
BRANCH   3   4
ATOM      4  C   UNL     1      -2.331  12.259  26.755  1.00  0.00     0.000 C 
BRANCH   4   5
ATOM      5  C   UNL     1      -1.913  11.168  27.759  1.00  0.00     0.000 C 
BRANCH   5   6
ATOM      6  C   UNL     1      -3.080  10.255  28.163  1.00  0.00     0.000 C 
BRANCH   6   7
ATOM      7  C   UNL     1      -3.670  10.620  29.532  1.00  0.00     0.006 C 
BRANCH   7   8
ATOM      8  C   UNL     1      -2.607  11.250  30.438  1.00  0.00     0.053 C 
BRANCH   8   9
ATOM      9  C   UNL     1      -3.098  12.544  31.004  1.00  0.00     0.041 C 
ATOM     10  O   UNL     1      -3.619  12.576  32.151  1.00  0.00    -0.550 OA
ATOM     11  O   UNL     1      -2.940  13.723  30.288  1.00  0.00    -0.550 OA
ENDBRANCH   8   9
ENDBRANCH   7   8
ENDBRANCH   6   7
ENDBRANCH   5   6
ENDBRANCH   4   5
ENDBRANCH   3   4
ENDBRANCH   2   3
ENDBRANCH   1   2
BRANCH   1  12
ATOM     12  C   UNL     1       1.074  10.302  25.836  1.00  0.00     0.000 C 
BRANCH  12  13
ATOM     13  C   UNL     1       1.193   9.573  24.482  1.00  0.00    -0.000 C 
BRANCH  13  14
ATOM     14  C   UNL     1      -0.146   9.200  23.817  1.00  0.00    -0.000 C 
BRANCH  14  15
ATOM     15  C   UNL     1      -1.294   8.877  24.791  1.00  0.00    -0.000 C 
BRANCH  15  16
ATOM     16  C   UNL     1      -2.648   9.439  24.324  1.00  0.00    -0.000 C 
BRANCH  16  17
ATOM     17  C   UNL     1      -2.491  10.626  23.360  1.00  0.00    -0.000 C 
BRANCH  17  18
ATOM     18  C   UNL     1      -3.631  10.705  22.328  1.00  0.00    -0.000 C 
BRANCH  18  19
ATOM     19  C   UNL     1      -3.242  10.087  20.975  1.00  0.00    -0.003 C 
ATOM     20  C   UNL     1      -3.791   8.673  20.792  1.00  0.00     0.004 C 
ENDBRANCH  18  19
ENDBRANCH  17  18
ENDBRANCH  16  17
ENDBRANCH  15  16
ENDBRANCH  14  15
ENDBRANCH  13  14
ENDBRANCH  12  13
ENDBRANCH   1  12
TORSDOF 16
ENDMDL
MODEL 9
REMARK VINA RESULT:    -4.704      1.383      3.284
REMARK INTER + INTRA:         -11.177
REMARK INTER:                  -8.774
REMARK INTRA:                  -2.404
REMARK UNBOUND:                -2.072
REMARK SMILES CCCCCCCCCCCCCCCCCC(=O)[O-]
REMARK SMILES IDX 10 1 11 2 12 3 13 4 14 5 15 6 16 7 17 8 18 9 19 10 20 11
REMARK SMILES IDX 9 12 8 13 7 14 6 15 5 16 4 17 3 18 2 19 1 20
REMARK H PARENT
REMARK Flexibility Score: inf
ROOT
ATOM      1  C   UNL     1      -1.122   8.674  24.060  1.00  0.00     0.000 C 
ENDROOT
BRANCH   1   2
ATOM      2  C   UNL     1       0.257   9.353  24.044  1.00  0.00     0.000 C 
BRANCH   2   3
ATOM      3  C   UNL     1       0.750   9.730  25.451  1.00  0.00     0.000 C 
BRANCH   3   4
ATOM      4  C   UNL     1       1.197  11.203  25.570  1.00  0.00     0.000 C 
BRANCH   4   5
ATOM      5  C   UNL     1       0.465  11.943  26.705  1.00  0.00     0.000 C 
BRANCH   5   6
ATOM      6  C   UNL     1       0.478  13.468  26.525  1.00  0.00     0.000 C 
BRANCH   6   7
ATOM      7  C   UNL     1       1.510  13.932  25.486  1.00  0.00     0.006 C 
BRANCH   7   8
ATOM      8  C   UNL     1       1.592  15.461  25.439  1.00  0.00     0.053 C 
BRANCH   8   9
ATOM      9  C   UNL     1       1.906  15.928  24.053  1.00  0.00     0.041 C 
ATOM     10  O   UNL     1       1.041  16.552  23.383  1.00  0.00    -0.550 OA
ATOM     11  O   UNL     1       3.170  15.717  23.517  1.00  0.00    -0.550 OA
ENDBRANCH   8   9
ENDBRANCH   7   8
ENDBRANCH   6   7
ENDBRANCH   5   6
ENDBRANCH   4   5
ENDBRANCH   3   4
ENDBRANCH   2   3
ENDBRANCH   1   2
BRANCH   1  12
ATOM     12  C   UNL     1      -1.651   8.366  22.648  1.00  0.00     0.000 C 
BRANCH  12  13
ATOM     13  C   UNL     1      -2.640   9.407  22.085  1.00  0.00    -0.000 C 
BRANCH  13  14
ATOM     14  C   UNL     1      -3.408  10.224  23.144  1.00  0.00    -0.000 C 
BRANCH  14  15
ATOM     15  C   UNL     1      -2.943  11.682  23.308  1.00  0.00    -0.000 C 
BRANCH  15  16
ATOM     16  C   UNL     1      -2.566  12.028  24.759  1.00  0.00    -0.000 C 
BRANCH  16  17
ATOM     17  C   UNL     1      -3.189  11.058  25.775  1.00  0.00    -0.000 C 
BRANCH  17  18
ATOM     18  C   UNL     1      -3.149  11.602  27.215  1.00  0.00    -0.000 C 
BRANCH  18  19
ATOM     19  C   UNL     1      -2.618  10.568  28.220  1.00  0.00    -0.003 C 
ATOM     20  C   UNL     1      -2.175   9.268  27.550  1.00  0.00     0.004 C 
ENDBRANCH  18  19
ENDBRANCH  17  18
ENDBRANCH  16  17
ENDBRANCH  15  16
ENDBRANCH  14  15
ENDBRANCH  13  14
ENDBRANCH  12  13
ENDBRANCH   1  12
TORSDOF 16
ENDMDL
