MODEL 1
REMARK VINA RESULT:    -5.402      0.000      0.000
REMARK INTER + INTRA:         -11.305
REMARK INTER:                  -9.823
REMARK INTRA:                  -1.481
REMARK UNBOUND:                -1.481
REMARK SMILES CCCCCCCCCCCCCCCC(=O)[O-]
REMARK SMILES IDX 9 1 10 2 11 3 12 4 13 5 14 6 15 7 16 8 17 9 18 10 8 11 7 12
REMARK SMILES IDX 6 13 5 14 4 15 3 16 2 17 1 18
REMARK H PARENT
REMARK Flexibility Score: inf
ROOT
ATOM      1  C   UNL     1      41.318  40.859  15.345  1.00  0.00     0.000 C 
ENDROOT
BRANCH   1   2
ATOM      2  C   UNL     1      40.644  40.631  16.706  1.00  0.00     0.000 C 
BRANCH   2   3
ATOM      3  C   UNL     1      41.629  40.762  17.883  1.00  0.00     0.000 C 
BRANCH   3   4
ATOM      4  C   UNL     1      41.659  42.195  18.457  1.00  0.00     0.000 C 
BRANCH   4   5
ATOM      5  C   UNL     1      43.019  42.896  18.291  1.00  0.00     0.000 C 
BRANCH   5   6
ATOM      6  C   UNL     1      43.034  43.902  17.130  1.00  0.00     0.006 C 
BRANCH   6   7
ATOM      7  C   UNL     1      41.619  44.332  16.718  1.00  0.00     0.053 C 
BRANCH   7   8
ATOM      8  C   UNL     1      41.609  45.701  16.108  1.00  0.00     0.041 C 
ATOM      9  O   UNL     1      40.667  46.051  15.351  1.00  0.00    -0.550 OA
ATOM     10  O   UNL     1      42.628  46.599  16.402  1.00  0.00    -0.550 OA
ENDBRANCH   7   8
ENDBRANCH   6   7
ENDBRANCH   5   6
ENDBRANCH   4   5
ENDBRANCH   3   4
ENDBRANCH   2   3
ENDBRANCH   1   2
BRANCH   1  11
ATOM     11  C   UNL     1      42.835  40.606  15.386  1.00  0.00     0.000 C 
BRANCH  11  12
ATOM     12  C   UNL     1      43.205  39.136  15.123  1.00  0.00    -0.000 C 
BRANCH  12  13
ATOM     13  C   UNL     1      42.864  38.617  13.713  1.00  0.00    -0.000 C 
BRANCH  13  14
ATOM     14  C   UNL     1      42.387  37.154  13.711  1.00  0.00    -0.000 C 
BRANCH  14  15
ATOM     15  C   UNL     1      40.907  37.006  13.313  1.00  0.00    -0.000 C 
BRANCH  15  16
ATOM     16  C   UNL     1      40.057  38.281  13.459  1.00  0.00    -0.000 C 
BRANCH  16  17
ATOM     17  C   UNL     1      39.444  38.750  12.132  1.00  0.00    -0.003 C 
ATOM     18  C   UNL     1      38.331  37.810  11.677  1.00  0.00     0.004 C 
ENDBRANCH  16  17
ENDBRANCH  15  16
ENDBRANCH  14  15
ENDBRANCH  13  14
ENDBRANCH  12  13
ENDBRANCH  11  12
ENDBRANCH   1  11
TORSDOF 14
ENDMDL
MODEL 2
REMARK VINA RESULT:    -5.391      2.385      3.138
REMARK INTER + INTRA:         -11.284
REMARK INTER:                  -9.643
REMARK INTRA:                  -1.641
REMARK UNBOUND:                -1.481
REMARK SMILES CCCCCCCCCCCCCCCC(=O)[O-]
REMARK SMILES IDX 9 1 10 2 11 3 12 4 13 5 14 6 15 7 16 8 17 9 18 10 8 11 7 12
REMARK SMILES IDX 6 13 5 14 4 15 3 16 2 17 1 18
REMARK H PARENT
REMARK Flexibility Score: inf
ROOT
ATOM      1  C   UNL     1      40.760  40.919  15.769  1.00  0.00     0.000 C 
ENDROOT
BRANCH   1   2
ATOM      2  C   UNL     1      41.033  42.376  15.367  1.00  0.00     0.000 C 
BRANCH   2   3
ATOM      3  C   UNL     1      41.087  43.324  16.579  1.00  0.00     0.000 C 
BRANCH   3   4
ATOM      4  C   UNL     1      42.357  44.201  16.575  1.00  0.00     0.000 C 
BRANCH   4   5
ATOM      5  C   UNL     1      43.244  44.005  17.817  1.00  0.00     0.000 C 
BRANCH   5   6
ATOM      6  C   UNL     1      43.317  42.539  18.273  1.00  0.00     0.006 C 
BRANCH   6   7
ATOM      7  C   UNL     1      43.202  42.400  19.797  1.00  0.00     0.053 C 
BRANCH   7   8
ATOM      8  C   UNL     1      41.876  41.836  20.206  1.00  0.00     0.041 C 
ATOM      9  O   UNL     1      41.522  40.695  19.809  1.00  0.00    -0.550 OA
ATOM     10  O   UNL     1      41.042  42.561  21.050  1.00  0.00    -0.550 OA
ENDBRANCH   7   8
ENDBRANCH   6   7
ENDBRANCH   5   6
ENDBRANCH   4   5
ENDBRANCH   3   4
ENDBRANCH   2   3
ENDBRANCH   1   2
BRANCH   1  11
ATOM     11  C   UNL     1      42.045  40.153  16.128  1.00  0.00     0.000 C 
BRANCH  11  12
ATOM     12  C   UNL     1      43.159  40.328  15.081  1.00  0.00    -0.000 C 
BRANCH  12  13
ATOM     13  C   UNL     1      43.798  39.019  14.579  1.00  0.00    -0.000 C 
BRANCH  13  14
ATOM     14  C   UNL     1      43.022  38.382  13.413  1.00  0.00    -0.000 C 
BRANCH  14  15
ATOM     15  C   UNL     1      42.193  37.157  13.843  1.00  0.00    -0.000 C 
BRANCH  15  16
ATOM     16  C   UNL     1      40.715  37.182  13.414  1.00  0.00    -0.000 C 
BRANCH  16  17
ATOM     17  C   UNL     1      40.195  38.600  13.132  1.00  0.00    -0.003 C 
ATOM     18  C   UNL     1      39.099  38.582  12.071  1.00  0.00     0.004 C 
ENDBRANCH  16  17
ENDBRANCH  15  16
ENDBRANCH  14  15
ENDBRANCH  13  14
ENDBRANCH  12  13
ENDBRANCH  11  12
ENDBRANCH   1  11
TORSDOF 14
ENDMDL
MODEL 3
REMARK VINA RESULT:    -5.380      1.205      1.832
REMARK INTER + INTRA:         -11.265
REMARK INTER:                  -9.601
REMARK INTRA:                  -1.665
REMARK UNBOUND:                -1.481
REMARK SMILES CCCCCCCCCCCCCCCC(=O)[O-]
REMARK SMILES IDX 9 1 10 2 11 3 12 4 13 5 14 6 15 7 16 8 17 9 18 10 8 11 7 12
REMARK SMILES IDX 6 13 5 14 4 15 3 16 2 17 1 18
REMARK H PARENT
REMARK Flexibility Score: inf
ROOT
ATOM      1  C   UNL     1      42.076  40.036  15.985  1.00  0.00     0.000 C 
ENDROOT
BRANCH   1   2
ATOM      2  C   UNL     1      40.735  40.768  16.143  1.00  0.00     0.000 C 
BRANCH   2   3
ATOM      3  C   UNL     1      40.429  41.130  17.609  1.00  0.00     0.000 C 
BRANCH   3   4
ATOM      4  C   UNL     1      41.373  40.408  18.594  1.00  0.00     0.000 C 
BRANCH   4   5
ATOM      5  C   UNL     1      42.042  41.353  19.608  1.00  0.00     0.000 C 
BRANCH   5   6
ATOM      6  C   UNL     1      42.100  42.809  19.120  1.00  0.00     0.006 C 
BRANCH   6   7
ATOM      7  C   UNL     1      43.245  43.042  18.125  1.00  0.00     0.053 C 
BRANCH   7   8
ATOM      8  C   UNL     1      42.847  43.978  17.026  1.00  0.00     0.041 C 
ATOM      9  O   UNL     1      43.722  44.490  16.280  1.00  0.00    -0.550 OA
ATOM     10  O   UNL     1      41.504  44.263  16.809  1.00  0.00    -0.550 OA
ENDBRANCH   7   8
ENDBRANCH   6   7
ENDBRANCH   5   6
ENDBRANCH   4   5
ENDBRANCH   3   4
ENDBRANCH   2   3
ENDBRANCH   1   2
BRANCH   1  11
ATOM     11  C   UNL     1      43.102  40.850  15.177  1.00  0.00     0.000 C 
BRANCH  11  12
ATOM     12  C   UNL     1      44.203  39.975  14.551  1.00  0.00    -0.000 C 
BRANCH  12  13
ATOM     13  C   UNL     1      43.870  38.474  14.456  1.00  0.00    -0.000 C 
BRANCH  13  14
ATOM     14  C   UNL     1      42.975  38.134  13.251  1.00  0.00    -0.000 C 
BRANCH  14  15
ATOM     15  C   UNL     1      42.083  36.902  13.496  1.00  0.00    -0.000 C 
BRANCH  15  16
ATOM     16  C   UNL     1      40.570  37.184  13.525  1.00  0.00    -0.000 C 
BRANCH  16  17
ATOM     17  C   UNL     1      40.218  38.620  13.109  1.00  0.00    -0.003 C 
ATOM     18  C   UNL     1      39.105  38.633  12.065  1.00  0.00     0.004 C 
ENDBRANCH  16  17
ENDBRANCH  15  16
ENDBRANCH  14  15
ENDBRANCH  13  14
ENDBRANCH  12  13
ENDBRANCH  11  12
ENDBRANCH   1  11
TORSDOF 14
ENDMDL
MODEL 4
REMARK VINA RESULT:    -5.371      2.653      3.385
REMARK INTER + INTRA:         -11.248
REMARK INTER:                  -9.957
REMARK INTRA:                  -1.291
REMARK UNBOUND:                -1.481
REMARK SMILES CCCCCCCCCCCCCCCC(=O)[O-]
REMARK SMILES IDX 9 1 10 2 11 3 12 4 13 5 14 6 15 7 16 8 17 9 18 10 8 11 7 12
REMARK SMILES IDX 6 13 5 14 4 15 3 16 2 17 1 18
REMARK H PARENT
REMARK Flexibility Score: inf
ROOT
ATOM      1  C   UNL     1      43.089  41.482  14.739  1.00  0.00     0.000 C 
ENDROOT
BRANCH   1   2
ATOM      2  C   UNL     1      41.672  41.858  15.196  1.00  0.00     0.000 C 
BRANCH   2   3
ATOM      3  C   UNL     1      40.898  40.658  15.774  1.00  0.00     0.000 C 
BRANCH   3   4
ATOM      4  C   UNL     1      40.415  40.919  17.216  1.00  0.00     0.000 C 
BRANCH   4   5
ATOM      5  C   UNL     1      41.541  41.341  18.176  1.00  0.00     0.000 C 
BRANCH   5   6
ATOM      6  C   UNL     1      42.007  40.196  19.090  1.00  0.00     0.006 C 
BRANCH   6   7
ATOM      7  C   UNL     1      41.853  40.543  20.577  1.00  0.00     0.053 C 
BRANCH   7   8
ATOM      8  C   UNL     1      42.037  42.009  20.828  1.00  0.00     0.041 C 
ATOM      9  O   UNL     1      43.170  42.539  20.689  1.00  0.00    -0.550 OA
ATOM     10  O   UNL     1      40.948  42.794  21.189  1.00  0.00    -0.550 OA
ENDBRANCH   7   8
ENDBRANCH   6   7
ENDBRANCH   5   6
ENDBRANCH   4   5
ENDBRANCH   3   4
ENDBRANCH   2   3
ENDBRANCH   1   2
BRANCH   1  11
ATOM     11  C   UNL     1      43.437  40.014  15.041  1.00  0.00     0.000 C 
BRANCH  11  12
ATOM     12  C   UNL     1      44.485  39.434  14.074  1.00  0.00    -0.000 C 
BRANCH  12  13
ATOM     13  C   UNL     1      44.171  38.025  13.537  1.00  0.00    -0.000 C 
BRANCH  13  14
ATOM     14  C   UNL     1      42.993  37.354  14.265  1.00  0.00    -0.000 C 
BRANCH  14  15
ATOM     15  C   UNL     1      41.951  36.760  13.299  1.00  0.00    -0.000 C 
BRANCH  15  16
ATOM     16  C   UNL     1      40.502  37.228  13.527  1.00  0.00    -0.000 C 
BRANCH  16  17
ATOM     17  C   UNL     1      40.244  38.653  13.016  1.00  0.00    -0.003 C 
ATOM     18  C   UNL     1      39.089  38.678  12.018  1.00  0.00     0.004 C 
ENDBRANCH  16  17
ENDBRANCH  15  16
ENDBRANCH  14  15
ENDBRANCH  13  14
ENDBRANCH  12  13
ENDBRANCH  11  12
ENDBRANCH   1  11
TORSDOF 14
ENDMDL
MODEL 5
REMARK VINA RESULT:    -5.289      1.000      1.971
REMARK INTER + INTRA:         -11.099
REMARK INTER:                  -9.194
REMARK INTRA:                  -1.905
REMARK UNBOUND:                -1.481
REMARK SMILES CCCCCCCCCCCCCCCC(=O)[O-]
REMARK SMILES IDX 9 1 10 2 11 3 12 4 13 5 14 6 15 7 16 8 17 9 18 10 8 11 7 12
REMARK SMILES IDX 6 13 5 14 4 15 3 16 2 17 1 18
REMARK H PARENT
REMARK Flexibility Score: inf
ROOT
ATOM      1  C   UNL     1      40.622  41.375  17.284  1.00  0.00     0.000 C 
ENDROOT
BRANCH   1   2
ATOM      2  C   UNL     1      41.284  40.626  18.451  1.00  0.00     0.000 C 
BRANCH   2   3
ATOM      3  C   UNL     1      42.304  41.497  19.209  1.00  0.00     0.000 C 
BRANCH   3   4
ATOM      4  C   UNL     1      43.359  42.110  18.264  1.00  0.00     0.000 C 
BRANCH   4   5
ATOM      5  C   UNL     1      43.249  43.638  18.126  1.00  0.00     0.000 C 
BRANCH   5   6
ATOM      6  C   UNL     1      43.229  44.106  16.662  1.00  0.00     0.006 C 
BRANCH   6   7
ATOM      7  C   UNL     1      42.793  45.571  16.527  1.00  0.00     0.053 C 
BRANCH   7   8
ATOM      8  C   UNL     1      41.392  45.689  16.012  1.00  0.00     0.041 C 
ATOM      9  O   UNL     1      40.914  46.818  15.726  1.00  0.00    -0.550 OA
ATOM     10  O   UNL     1      40.623  44.547  15.822  1.00  0.00    -0.550 OA
ENDBRANCH   7   8
ENDBRANCH   6   7
ENDBRANCH   5   6
ENDBRANCH   4   5
ENDBRANCH   3   4
ENDBRANCH   2   3
ENDBRANCH   1   2
BRANCH   1  11
ATOM     11  C   UNL     1      40.776  40.636  15.944  1.00  0.00     0.000 C 
BRANCH  11  12
ATOM     12  C   UNL     1      41.801  41.300  15.008  1.00  0.00    -0.000 C 
BRANCH  12  13
ATOM     13  C   UNL     1      43.129  40.536  14.843  1.00  0.00    -0.000 C 
BRANCH  13  14
ATOM     14  C   UNL     1      42.970  39.015  15.013  1.00  0.00    -0.000 C 
BRANCH  14  15
ATOM     15  C   UNL     1      43.133  38.243  13.690  1.00  0.00    -0.000 C 
BRANCH  15  16
ATOM     16  C   UNL     1      42.021  37.225  13.381  1.00  0.00    -0.000 C 
BRANCH  16  17
ATOM     17  C   UNL     1      40.630  37.704  13.822  1.00  0.00    -0.003 C 
ATOM     18  C   UNL     1      39.962  38.533  12.729  1.00  0.00     0.004 C 
ENDBRANCH  16  17
ENDBRANCH  15  16
ENDBRANCH  14  15
ENDBRANCH  13  14
ENDBRANCH  12  13
ENDBRANCH  11  12
ENDBRANCH   1  11
TORSDOF 14
ENDMDL
MODEL 6
REMARK VINA RESULT:    -5.006      3.068      6.949
REMARK INTER + INTRA:         -10.585
REMARK INTER:                  -9.152
REMARK INTRA:                  -1.433
REMARK UNBOUND:                -1.481
REMARK SMILES CCCCCCCCCCCCCCCC(=O)[O-]
REMARK SMILES IDX 9 1 10 2 11 3 12 4 13 5 14 6 15 7 16 8 17 9 18 10 8 11 7 12
REMARK SMILES IDX 6 13 5 14 4 15 3 16 2 17 1 18
REMARK H PARENT
REMARK Flexibility Score: inf
ROOT
ATOM      1  C   UNL     1      42.251  41.161  14.890  1.00  0.00     0.000 C 
ENDROOT
BRANCH   1   2
ATOM      2  C   UNL     1      42.771  39.896  15.590  1.00  0.00     0.000 C 
BRANCH   2   3
ATOM      3  C   UNL     1      43.868  39.181  14.779  1.00  0.00     0.000 C 
BRANCH   3   4
ATOM      4  C   UNL     1      43.306  38.503  13.512  1.00  0.00     0.000 C 
BRANCH   4   5
ATOM      5  C   UNL     1      42.772  37.081  13.760  1.00  0.00     0.000 C 
BRANCH   5   6
ATOM      6  C   UNL     1      41.276  36.940  13.435  1.00  0.00     0.006 C 
BRANCH   6   7
ATOM      7  C   UNL     1      40.554  38.294  13.433  1.00  0.00     0.053 C 
BRANCH   7   8
ATOM      8  C   UNL     1      39.408  38.312  12.468  1.00  0.00     0.041 C 
ATOM      9  O   UNL     1      39.125  39.365  11.839  1.00  0.00    -0.550 OA
ATOM     10  O   UNL     1      38.671  37.155  12.243  1.00  0.00    -0.550 OA
ENDBRANCH   7   8
ENDBRANCH   6   7
ENDBRANCH   5   6
ENDBRANCH   4   5
ENDBRANCH   3   4
ENDBRANCH   2   3
ENDBRANCH   1   2
BRANCH   1  11
ATOM     11  C   UNL     1      41.034  41.774  15.604  1.00  0.00     0.000 C 
BRANCH  11  12
ATOM     12  C   UNL     1      41.133  43.302  15.753  1.00  0.00    -0.000 C 
BRANCH  12  13
ATOM     13  C   UNL     1      42.553  43.844  16.012  1.00  0.00    -0.000 C 
BRANCH  13  14
ATOM     14  C   UNL     1      42.893  43.942  17.509  1.00  0.00    -0.000 C 
BRANCH  14  15
ATOM     15  C   UNL     1      43.253  42.581  18.133  1.00  0.00    -0.000 C 
BRANCH  15  16
ATOM     16  C   UNL     1      42.366  42.144  19.313  1.00  0.00    -0.000 C 
BRANCH  16  17
ATOM     17  C   UNL     1      41.659  40.803  19.069  1.00  0.00    -0.003 C 
ATOM     18  C   UNL     1      41.903  39.835  20.223  1.00  0.00     0.004 C 
ENDBRANCH  16  17
ENDBRANCH  15  16
ENDBRANCH  14  15
ENDBRANCH  13  14
ENDBRANCH  12  13
ENDBRANCH  11  12
ENDBRANCH   1  11
TORSDOF 14
ENDMDL
MODEL 7
REMARK VINA RESULT:    -4.989      2.881      6.648
REMARK INTER + INTRA:         -10.554
REMARK INTER:                  -8.622
REMARK INTRA:                  -1.933
REMARK UNBOUND:                -1.481
REMARK SMILES CCCCCCCCCCCCCCCC(=O)[O-]
REMARK SMILES IDX 9 1 10 2 11 3 12 4 13 5 14 6 15 7 16 8 17 9 18 10 8 11 7 12
REMARK SMILES IDX 6 13 5 14 4 15 3 16 2 17 1 18
REMARK H PARENT
REMARK Flexibility Score: inf
ROOT
ATOM      1  C   UNL     1      41.104  40.915  15.874  1.00  0.00     0.000 C 
ENDROOT
BRANCH   1   2
ATOM      2  C   UNL     1      42.293  39.943  15.857  1.00  0.00     0.000 C 
BRANCH   2   3
ATOM      3  C   UNL     1      43.272  40.228  14.702  1.00  0.00     0.000 C 
BRANCH   3   4
ATOM      4  C   UNL     1      44.098  38.981  14.321  1.00  0.00     0.000 C 
BRANCH   4   5
ATOM      5  C   UNL     1      43.270  37.685  14.273  1.00  0.00     0.000 C 
BRANCH   5   6
ATOM      6  C   UNL     1      42.277  37.654  13.101  1.00  0.00     0.006 C 
BRANCH   6   7
ATOM      7  C   UNL     1      40.882  37.184  13.535  1.00  0.00     0.053 C 
BRANCH   7   8
ATOM      8  C   UNL     1      39.798  38.018  12.924  1.00  0.00     0.041 C 
ATOM      9  O   UNL     1      38.905  37.481  12.219  1.00  0.00    -0.550 OA
ATOM     10  O   UNL     1      39.761  39.388  13.157  1.00  0.00    -0.550 OA
ENDBRANCH   7   8
ENDBRANCH   6   7
ENDBRANCH   5   6
ENDBRANCH   4   5
ENDBRANCH   3   4
ENDBRANCH   2   3
ENDBRANCH   1   2
BRANCH   1  11
ATOM     11  C   UNL     1      40.492  41.077  17.276  1.00  0.00     0.000 C 
BRANCH  11  12
ATOM     12  C   UNL     1      41.468  40.698  18.403  1.00  0.00    -0.000 C 
BRANCH  12  13
ATOM     13  C   UNL     1      42.113  41.889  19.139  1.00  0.00    -0.000 C 
BRANCH  13  14
ATOM     14  C   UNL     1      43.328  42.468  18.393  1.00  0.00    -0.000 C 
BRANCH  14  15
ATOM     15  C   UNL     1      42.997  43.756  17.616  1.00  0.00    -0.000 C 
BRANCH  15  16
ATOM     16  C   UNL     1      43.262  43.696  16.101  1.00  0.00    -0.000 C 
BRANCH  16  17
ATOM     17  C   UNL     1      42.290  44.562  15.287  1.00  0.00    -0.003 C 
ATOM     18  C   UNL     1      40.899  44.569  15.916  1.00  0.00     0.004 C 
ENDBRANCH  16  17
ENDBRANCH  15  16
ENDBRANCH  14  15
ENDBRANCH  13  14
ENDBRANCH  12  13
ENDBRANCH  11  12
ENDBRANCH   1  11
TORSDOF 14
ENDMDL
MODEL 8
REMARK VINA RESULT:    -4.976      1.548      2.552
REMARK INTER + INTRA:         -10.530
REMARK INTER:                  -8.823
REMARK INTRA:                  -1.708
REMARK UNBOUND:                -1.481
REMARK SMILES CCCCCCCCCCCCCCCC(=O)[O-]
REMARK SMILES IDX 9 1 10 2 11 3 12 4 13 5 14 6 15 7 16 8 17 9 18 10 8 11 7 12
REMARK SMILES IDX 6 13 5 14 4 15 3 16 2 17 1 18
REMARK H PARENT
REMARK Flexibility Score: inf
ROOT
ATOM      1  C   UNL     1      41.318  40.581  18.355  1.00  0.00     0.000 C 
ENDROOT
BRANCH   1   2
ATOM      2  C   UNL     1      41.358  41.686  19.421  1.00  0.00     0.000 C 
BRANCH   2   3
ATOM      3  C   UNL     1      42.771  41.904  19.994  1.00  0.00     0.000 C 
BRANCH   3   4
ATOM      4  C   UNL     1      43.484  43.106  19.339  1.00  0.00     0.000 C 
BRANCH   4   5
ATOM      5  C   UNL     1      43.443  43.082  17.801  1.00  0.00     0.000 C 
BRANCH   5   6
ATOM      6  C   UNL     1      42.948  44.406  17.196  1.00  0.00     0.006 C 
BRANCH   6   7
ATOM      7  C   UNL     1      42.246  44.200  15.847  1.00  0.00     0.053 C 
BRANCH   7   8
ATOM      8  C   UNL     1      43.228  44.061  14.724  1.00  0.00     0.041 C 
ATOM      9  O   UNL     1      43.073  43.166  13.853  1.00  0.00    -0.550 OA
ATOM     10  O   UNL     1      44.299  44.941  14.626  1.00  0.00    -0.550 OA
ENDBRANCH   7   8
ENDBRANCH   6   7
ENDBRANCH   5   6
ENDBRANCH   4   5
ENDBRANCH   3   4
ENDBRANCH   2   3
ENDBRANCH   1   2
BRANCH   1  11
ATOM     11  C   UNL     1      40.454  40.963  17.140  1.00  0.00     0.000 C 
BRANCH  11  12
ATOM     12  C   UNL     1      41.113  40.599  15.798  1.00  0.00    -0.000 C 
BRANCH  12  13
ATOM     13  C   UNL     1      42.552  40.058  15.900  1.00  0.00    -0.000 C 
BRANCH  13  14
ATOM     14  C   UNL     1      43.082  39.507  14.564  1.00  0.00    -0.000 C 
BRANCH  14  15
ATOM     15  C   UNL     1      43.068  37.968  14.502  1.00  0.00    -0.000 C 
BRANCH  15  16
ATOM     16  C   UNL     1      42.281  37.366  13.325  1.00  0.00    -0.000 C 
BRANCH  16  17
ATOM     17  C   UNL     1      40.765  37.338  13.567  1.00  0.00    -0.003 C 
ATOM     18  C   UNL     1      40.067  38.465  12.811  1.00  0.00     0.004 C 
ENDBRANCH  16  17
ENDBRANCH  15  16
ENDBRANCH  14  15
ENDBRANCH  13  14
ENDBRANCH  12  13
ENDBRANCH  11  12
ENDBRANCH   1  11
TORSDOF 14
ENDMDL
MODEL 9
REMARK VINA RESULT:    -4.928      1.598      2.000
REMARK INTER + INTRA:         -10.444
REMARK INTER:                  -8.803
REMARK INTRA:                  -1.641
REMARK UNBOUND:                -1.481
REMARK SMILES CCCCCCCCCCCCCCCC(=O)[O-]
REMARK SMILES IDX 9 1 10 2 11 3 12 4 13 5 14 6 15 7 16 8 17 9 18 10 8 11 7 12
REMARK SMILES IDX 6 13 5 14 4 15 3 16 2 17 1 18
REMARK H PARENT
REMARK Flexibility Score: inf
ROOT
ATOM      1  C   UNL     1      41.396  40.243  16.013  1.00  0.00     0.000 C 
ENDROOT
BRANCH   1   2
ATOM      2  C   UNL     1      40.716  41.226  16.979  1.00  0.00     0.000 C 
BRANCH   2   3
ATOM      3  C   UNL     1      41.713  41.886  17.949  1.00  0.00     0.000 C 
BRANCH   3   4
ATOM      4  C   UNL     1      41.754  43.420  17.785  1.00  0.00     0.000 C 
BRANCH   4   5
ATOM      5  C   UNL     1      40.929  43.934  16.592  1.00  0.00     0.000 C 
BRANCH   5   6
ATOM      6  C   UNL     1      41.803  44.520  15.471  1.00  0.00     0.006 C 
BRANCH   6   7
ATOM      7  C   UNL     1      43.288  44.560  15.855  1.00  0.00     0.053 C 
BRANCH   7   8
ATOM      8  C   UNL     1      44.171  44.669  14.650  1.00  0.00     0.041 C 
ATOM      9  O   UNL     1      44.141  43.781  13.759  1.00  0.00    -0.550 OA
ATOM     10  O   UNL     1      45.008  45.768  14.499  1.00  0.00    -0.550 OA
ENDBRANCH   7   8
ENDBRANCH   6   7
ENDBRANCH   5   6
ENDBRANCH   4   5
ENDBRANCH   3   4
ENDBRANCH   2   3
ENDBRANCH   1   2
BRANCH   1  11
ATOM     11  C   UNL     1      42.433  40.927  15.106  1.00  0.00     0.000 C 
BRANCH  11  12
ATOM     12  C   UNL     1      43.770  40.167  15.044  1.00  0.00    -0.000 C 
BRANCH  12  13
ATOM     13  C   UNL     1      43.654  38.662  14.733  1.00  0.00    -0.000 C 
BRANCH  13  14
ATOM     14  C   UNL     1      42.827  38.374  13.467  1.00  0.00    -0.000 C 
BRANCH  14  15
ATOM     15  C   UNL     1      42.078  37.029  13.533  1.00  0.00    -0.000 C 
BRANCH  15  16
ATOM     16  C   UNL     1      40.543  37.131  13.499  1.00  0.00    -0.000 C 
BRANCH  16  17
ATOM     17  C   UNL     1      40.041  38.565  13.276  1.00  0.00    -0.003 C 
ATOM     18  C   UNL     1      39.203  38.663  12.004  1.00  0.00     0.004 C 
ENDBRANCH  16  17
ENDBRANCH  15  16
ENDBRANCH  14  15
ENDBRANCH  13  14
ENDBRANCH  12  13
ENDBRANCH  11  12
ENDBRANCH   1  11
TORSDOF 14
ENDMDL
