MODEL 1
REMARK VINA RESULT:   -10.271      0.000      0.000
REMARK INTER + INTRA:         -15.990
REMARK INTER:                 -14.174
REMARK INTRA:                  -1.816
REMARK UNBOUND:                -1.816
REMARK SMILES C[C@H]1O[C@@H](OC[C@H]2O[C@H](Oc3c(-c4ccc(O)c(O)c4)oc4cc(O)cc(O)c4c3=O)[C@H](O)[C@@H](O)[C@@H]2O)[C@@H](O)[C@@H](O)[C@H]1O
REMARK SMILES IDX 7 1 36 2 34 3 32 4 9 5 8 6 6 7 5 8 4 9 1 10 2 11 42 12 3 13
REMARK SMILES IDX 40 14 38 15 43 16 41 18 39 20 37 22 35 24 10 26 11 27 12 28
REMARK SMILES IDX 30 29 21 30 29 31 31 32 22 33 27 34 23 35 26 36 24 37 13 38
REMARK SMILES IDX 20 39 14 40 18 41 15 42 16 43 19 44 17 46 28 48 25 50 33 52
REMARK H PARENT 43 17 41 19 39 21 37 23 35 25 19 45 17 47 28 49 25 51 33 53
REMARK Flexibility Score: inf
ROOT
ATOM      1  C   UNL     1      12.566  35.154   6.823  1.00  0.00     0.180 C 
ATOM      2  C   UNL     1      12.857  36.758   7.170  1.00  0.00     0.177 C 
ATOM      3  C   UNL     1      14.516  36.895   7.414  1.00  0.00     0.180 C 
ATOM      4  C   UNL     1      15.360  35.897   8.347  1.00  0.00     0.214 C 
ATOM      5  C   UNL     1      15.305  34.416   7.941  1.00  0.00     0.339 C 
ATOM      6  O   UNL     1      13.667  34.241   7.642  1.00  0.00    -0.332 OA
ENDROOT
BRANCH   1   7
ATOM      7  C   UNL     1      11.308  34.955   5.282  1.00  0.00     0.198 C 
BRANCH   7   8
ATOM      8  O   UNL     1      10.144  34.703   4.260  1.00  0.00    -0.347 OA
BRANCH   8   9
ATOM      9  C   UNL     1       9.747  33.131   3.798  1.00  0.00     0.281 C 
ATOM     10  C   UNL     1       6.961  28.907   4.134  1.00  0.00     0.041 C 
ATOM     11  C   UNL     1       7.860  30.759   3.949  1.00  0.00     0.150 C 
ATOM     12  C   UNL     1       7.652  31.449   2.463  1.00  0.00     0.174 C 
ATOM     13  O   UNL     1       9.317  31.534   4.386  1.00  0.00    -0.344 OA
ATOM     14  C   UNL     1       9.096  31.645   1.815  1.00  0.00     0.179 C 
ATOM     15  C   UNL     1       9.870  33.054   2.235  1.00  0.00     0.202 C 
BRANCH  12  16
ATOM     16  O   UNL     1       6.824  30.781   1.523  1.00  0.00    -0.388 OA
ATOM     17  H   UNL     1       6.077  30.348   2.050  1.00  0.00     0.211 HD
ENDBRANCH  12  16
BRANCH  14  18
ATOM     18  O   UNL     1       9.857  30.442   2.071  1.00  0.00    -0.387 OA
ATOM     19  H   UNL     1      10.185  29.906   1.180  1.00  0.00     0.211 HD
ENDBRANCH  14  18
BRANCH  15  20
ATOM     20  O   UNL     1      11.272  32.752   2.350  1.00  0.00    -0.385 OA
ATOM     21  H   UNL     1      11.409  31.830   1.839  1.00  0.00     0.211 HD
ENDBRANCH  15  20
ENDBRANCH   8   9
ENDBRANCH   7   8
ENDBRANCH   1   7
BRANCH   2  22
ATOM     22  O   UNL     1      11.968  37.328   8.146  1.00  0.00    -0.387 OA
ATOM     23  H   UNL     1      11.150  37.530   7.598  1.00  0.00     0.211 HD
ENDBRANCH   2  22
BRANCH   3  24
ATOM     24  O   UNL     1      15.128  36.848   6.137  1.00  0.00    -0.387 OA
ATOM     25  H   UNL     1      15.868  37.566   5.941  1.00  0.00     0.211 HD
ENDBRANCH   3  24
BRANCH   5  26
ATOM     26  O   UNL     1      16.409  33.520   9.022  1.00  0.00    -0.454 OA
BRANCH  26  27
ATOM     27  C   UNL     1      16.159  32.562  10.095  1.00  0.00     0.214 A 
ATOM     28  C   UNL     1      17.137  31.462  10.232  1.00  0.00     0.180 A 
ATOM     29  C   UNL     1      16.178  33.339  11.364  1.00  0.00     0.239 A 
ATOM     30  O   UNL     1      18.360  31.954  10.425  1.00  0.00    -0.452 OA
ATOM     31  C   UNL     1      17.457  33.776  11.743  1.00  0.00     0.111 A 
ATOM     32  O   UNL     1      15.217  33.984  11.909  1.00  0.00    -0.285 OA
ATOM     33  C   UNL     1      18.535  33.174  10.868  1.00  0.00     0.146 A 
ATOM     34  C   UNL     1      17.561  35.207  11.986  1.00  0.00     0.134 A 
ATOM     35  C   UNL     1      19.430  33.997  10.142  1.00  0.00     0.094 A 
ATOM     36  C   UNL     1      18.532  35.925  11.230  1.00  0.00     0.093 A 
ATOM     37  C   UNL     1      18.965  35.285  10.020  1.00  0.00     0.123 A 
BRANCH  28  38
ATOM     38  C   UNL     1      16.805  29.956  10.099  1.00  0.00     0.025 A 
ATOM     39  C   UNL     1      16.379  29.244  11.213  1.00  0.00     0.062 A 
ATOM     40  C   UNL     1      16.669  29.236   8.885  1.00  0.00     0.016 A 
ATOM     41  C   UNL     1      15.095  28.742  10.970  1.00  0.00     0.158 A 
ATOM     42  C   UNL     1      15.818  28.076   8.889  1.00  0.00     0.051 A 
ATOM     43  C   UNL     1      14.955  27.858   9.961  1.00  0.00     0.157 A 
BRANCH  41  44
ATOM     44  O   UNL     1      13.991  29.454  11.406  1.00  0.00    -0.504 OA
ATOM     45  H   UNL     1      13.185  29.560  10.803  1.00  0.00     0.293 HD
ENDBRANCH  41  44
BRANCH  43  46
ATOM     46  O   UNL     1      13.970  26.817  10.093  1.00  0.00    -0.504 OA
ATOM     47  H   UNL     1      13.009  27.000  10.254  1.00  0.00     0.293 HD
ENDBRANCH  43  46
ENDBRANCH  28  38
BRANCH  34  48
ATOM     48  O   UNL     1      16.580  35.900  12.757  1.00  0.00    -0.507 OA
ATOM     49  H   UNL     1      15.791  36.092  11.997  1.00  0.00     0.293 HD
ENDBRANCH  34  48
BRANCH  37  50
ATOM     50  O   UNL     1      18.532  35.727   8.726  1.00  0.00    -0.508 OA
ATOM     51  H   UNL     1      18.929  35.296   7.878  1.00  0.00     0.293 HD
ENDBRANCH  37  50
ENDBRANCH  26  27
ENDBRANCH   5  26
BRANCH   4  52
ATOM     52  O   UNL     1      14.834  35.854   9.662  1.00  0.00    -0.384 OA
ATOM     53  H   UNL     1      13.880  35.599   9.687  1.00  0.00     0.211 HD
ENDBRANCH   4  52
TORSDOF 16
ENDMDL
MODEL 2
REMARK VINA RESULT:   -10.079      2.302      4.785
REMARK INTER + INTRA:         -15.724
REMARK INTER:                 -14.084
REMARK INTRA:                  -1.640
REMARK UNBOUND:                -1.816
REMARK SMILES C[C@H]1O[C@@H](OC[C@H]2O[C@H](Oc3c(-c4ccc(O)c(O)c4)oc4cc(O)cc(O)c4c3=O)[C@H](O)[C@@H](O)[C@@H]2O)[C@@H](O)[C@@H](O)[C@H]1O
REMARK SMILES IDX 7 1 36 2 34 3 32 4 9 5 8 6 6 7 5 8 4 9 1 10 2 11 42 12 3 13
REMARK SMILES IDX 40 14 38 15 43 16 41 18 39 20 37 22 35 24 10 26 11 27 12 28
REMARK SMILES IDX 30 29 21 30 29 31 31 32 22 33 27 34 23 35 26 36 24 37 13 38
REMARK SMILES IDX 20 39 14 40 18 41 15 42 16 43 19 44 17 46 28 48 25 50 33 52
REMARK H PARENT 43 17 41 19 39 21 37 23 35 25 19 45 17 47 28 49 25 51 33 53
REMARK Flexibility Score: inf
ROOT
ATOM      1  C   UNL     1      12.934  35.486   6.156  1.00  0.00     0.180 C 
ATOM      2  C   UNL     1      14.168  35.650   5.049  1.00  0.00     0.177 C 
ATOM      3  C   UNL     1      15.457  34.747   5.640  1.00  0.00     0.180 C 
ATOM      4  C   UNL     1      15.973  34.828   7.159  1.00  0.00     0.214 C 
ATOM      5  C   UNL     1      14.929  34.471   8.227  1.00  0.00     0.339 C 
ATOM      6  O   UNL     1      13.603  35.319   7.653  1.00  0.00    -0.332 OA
ENDROOT
BRANCH   1   7
ATOM      7  C   UNL     1      11.181  35.151   5.255  1.00  0.00     0.198 C 
BRANCH   7   8
ATOM      8  O   UNL     1       9.956  34.835   4.326  1.00  0.00    -0.347 OA
BRANCH   8   9
ATOM      9  C   UNL     1       9.637  33.247   3.858  1.00  0.00     0.281 C 
ATOM     10  C   UNL     1       6.968  28.940   4.073  1.00  0.00     0.041 C 
ATOM     11  C   UNL     1       7.818  30.819   3.922  1.00  0.00     0.150 C 
ATOM     12  C   UNL     1       7.675  31.489   2.420  1.00  0.00     0.174 C 
ATOM     13  O   UNL     1       9.222  31.642   4.435  1.00  0.00    -0.344 OA
ATOM     14  C   UNL     1       9.148  31.725   1.855  1.00  0.00     0.179 C 
ATOM     15  C   UNL     1       9.852  33.162   2.305  1.00  0.00     0.202 C 
BRANCH  12  16
ATOM     16  O   UNL     1       6.924  30.788   1.441  1.00  0.00    -0.388 OA
ATOM     17  H   UNL     1       6.859  29.829   1.756  1.00  0.00     0.211 HD
ENDBRANCH  12  16
BRANCH  14  18
ATOM     18  O   UNL     1       9.930  30.550   2.166  1.00  0.00    -0.387 OA
ATOM     19  H   UNL     1       9.461  29.601   1.902  1.00  0.00     0.211 HD
ENDBRANCH  14  18
BRANCH  15  20
ATOM     20  O   UNL     1      11.253  32.905   2.504  1.00  0.00    -0.385 OA
ATOM     21  H   UNL     1      11.754  33.786   2.183  1.00  0.00     0.211 HD
ENDBRANCH  15  20
ENDBRANCH   8   9
ENDBRANCH   7   8
ENDBRANCH   1   7
BRANCH   2  22
ATOM     22  O   UNL     1      14.413  37.002   4.624  1.00  0.00    -0.387 OA
ATOM     23  H   UNL     1      15.343  36.942   4.245  1.00  0.00     0.211 HD
ENDBRANCH   2  22
BRANCH   3  24
ATOM     24  O   UNL     1      15.150  33.383   5.404  1.00  0.00    -0.387 OA
ATOM     25  H   UNL     1      15.434  32.700   6.149  1.00  0.00     0.211 HD
ENDBRANCH   3  24
BRANCH   5  26
ATOM     26  O   UNL     1      15.749  34.499   9.814  1.00  0.00    -0.454 OA
BRANCH  26  27
ATOM     27  C   UNL     1      16.020  35.582  10.753  1.00  0.00     0.214 A 
ATOM     28  C   UNL     1      15.840  35.266  12.186  1.00  0.00     0.180 A 
ATOM     29  C   UNL     1      17.445  35.963  10.554  1.00  0.00     0.239 A 
ATOM     30  O   UNL     1      16.619  34.244  12.534  1.00  0.00    -0.452 OA
ATOM     31  C   UNL     1      18.359  35.013  11.034  1.00  0.00     0.111 A 
ATOM     32  O   UNL     1      17.931  36.778   9.696  1.00  0.00    -0.285 OA
ATOM     33  C   UNL     1      17.668  33.920  11.821  1.00  0.00     0.146 A 
ATOM     34  C   UNL     1      19.340  34.568  10.055  1.00  0.00     0.134 A 
ATOM     35  C   UNL     1      17.794  32.560  11.447  1.00  0.00     0.094 A 
ATOM     36  C   UNL     1      19.409  33.169   9.794  1.00  0.00     0.093 A 
ATOM     37  C   UNL     1      18.239  32.417  10.154  1.00  0.00     0.123 A 
BRANCH  28  38
ATOM     38  C   UNL     1      14.839  35.973  13.132  1.00  0.00     0.025 A 
ATOM     39  C   UNL     1      14.687  35.521  14.437  1.00  0.00     0.062 A 
ATOM     40  C   UNL     1      14.189  37.210  12.886  1.00  0.00     0.016 A 
ATOM     41  C   UNL     1      15.034  36.550  15.319  1.00  0.00     0.158 A 
ATOM     42  C   UNL     1      13.791  37.993  14.026  1.00  0.00     0.051 A 
ATOM     43  C   UNL     1      14.287  37.673  15.288  1.00  0.00     0.157 A 
BRANCH  41  44
ATOM     44  O   UNL     1      16.319  36.605  15.832  1.00  0.00    -0.504 OA
ATOM     45  H   UNL     1      16.575  37.336  16.483  1.00  0.00     0.293 HD
ENDBRANCH  41  44
BRANCH  43  46
ATOM     46  O   UNL     1      14.080  38.393  16.517  1.00  0.00    -0.504 OA
ATOM     47  H   UNL     1      13.707  39.311  16.549  1.00  0.00     0.293 HD
ENDBRANCH  43  46
ENDBRANCH  28  38
BRANCH  34  48
ATOM     48  O   UNL     1      20.025  35.498   9.218  1.00  0.00    -0.507 OA
ATOM     49  H   UNL     1      21.046  35.058   9.180  1.00  0.00     0.293 HD
ENDBRANCH  34  48
BRANCH  37  50
ATOM     50  O   UNL     1      17.315  31.929   9.171  1.00  0.00    -0.508 OA
ATOM     51  H   UNL     1      17.544  31.083   8.629  1.00  0.00     0.293 HD
ENDBRANCH  37  50
ENDBRANCH  26  27
ENDBRANCH   5  26
BRANCH   4  52
ATOM     52  O   UNL     1      16.309  36.157   7.517  1.00  0.00    -0.384 OA
ATOM     53  H   UNL     1      16.823  36.209   8.359  1.00  0.00     0.211 HD
ENDBRANCH   4  52
TORSDOF 16
ENDMDL
MODEL 3
REMARK VINA RESULT:   -10.049      3.874      6.268
REMARK INTER + INTRA:         -15.683
REMARK INTER:                 -13.501
REMARK INTRA:                  -2.183
REMARK UNBOUND:                -1.816
REMARK SMILES C[C@H]1O[C@@H](OC[C@H]2O[C@H](Oc3c(-c4ccc(O)c(O)c4)oc4cc(O)cc(O)c4c3=O)[C@H](O)[C@@H](O)[C@@H]2O)[C@@H](O)[C@@H](O)[C@H]1O
REMARK SMILES IDX 7 1 36 2 34 3 32 4 9 5 8 6 6 7 5 8 4 9 1 10 2 11 42 12 3 13
REMARK SMILES IDX 40 14 38 15 43 16 41 18 39 20 37 22 35 24 10 26 11 27 12 28
REMARK SMILES IDX 30 29 21 30 29 31 31 32 22 33 27 34 23 35 26 36 24 37 13 38
REMARK SMILES IDX 20 39 14 40 18 41 15 42 16 43 19 44 17 46 28 48 25 50 33 52
REMARK H PARENT 43 17 41 19 39 21 37 23 35 25 19 45 17 47 28 49 25 51 33 53
REMARK Flexibility Score: inf
ROOT
ATOM      1  C   UNL     1      13.075  35.688   7.851  1.00  0.00     0.180 C 
ATOM      2  C   UNL     1      13.649  36.969   6.954  1.00  0.00     0.177 C 
ATOM      3  C   UNL     1      14.888  37.661   7.857  1.00  0.00     0.180 C 
ATOM      4  C   UNL     1      14.758  38.008   9.420  1.00  0.00     0.214 C 
ATOM      5  C   UNL     1      14.441  36.815  10.333  1.00  0.00     0.339 C 
ATOM      6  O   UNL     1      13.234  36.064   9.447  1.00  0.00    -0.332 OA
ENDROOT
BRANCH   1   7
ATOM      7  C   UNL     1      12.797  34.065   6.716  1.00  0.00     0.198 C 
BRANCH   7   8
ATOM      8  O   UNL     1      12.842  32.737   5.882  1.00  0.00    -0.347 OA
BRANCH   8   9
ATOM      9  C   UNL     1      11.605  32.377   4.795  1.00  0.00     0.281 C 
ATOM     10  C   UNL     1       6.780  32.555   3.244  1.00  0.00     0.041 C 
ATOM     11  C   UNL     1       8.738  32.757   3.879  1.00  0.00     0.150 C 
ATOM     12  C   UNL     1       9.698  33.568   2.808  1.00  0.00     0.174 C 
ATOM     13  O   UNL     1       9.945  31.829   4.649  1.00  0.00    -0.344 OA
ATOM     14  C   UNL     1      10.859  32.574   2.352  1.00  0.00     0.179 C 
ATOM     15  C   UNL     1      12.189  32.541   3.346  1.00  0.00     0.202 C 
BRANCH  12  16
ATOM     16  O   UNL     1       9.094  34.118   1.647  1.00  0.00    -0.388 OA
ATOM     17  H   UNL     1       9.838  34.285   0.983  1.00  0.00     0.211 HD
ENDBRANCH  12  16
BRANCH  14  18
ATOM     18  O   UNL     1      10.258  31.281   2.110  1.00  0.00    -0.387 OA
ATOM     19  H   UNL     1       9.866  31.136   1.103  1.00  0.00     0.211 HD
ENDBRANCH  14  18
BRANCH  15  20
ATOM     20  O   UNL     1      12.667  31.185   3.375  1.00  0.00    -0.385 OA
ATOM     21  H   UNL     1      13.572  31.212   3.932  1.00  0.00     0.211 HD
ENDBRANCH  15  20
ENDBRANCH   8   9
ENDBRANCH   7   8
ENDBRANCH   1   7
BRANCH   2  22
ATOM     22  O   UNL     1      12.628  37.827   6.416  1.00  0.00    -0.387 OA
ATOM     23  H   UNL     1      11.798  37.272   6.534  1.00  0.00     0.211 HD
ENDBRANCH   2  22
BRANCH   3  24
ATOM     24  O   UNL     1      16.013  36.807   7.739  1.00  0.00    -0.387 OA
ATOM     25  H   UNL     1      16.275  36.251   8.590  1.00  0.00     0.211 HD
ENDBRANCH   3  24
BRANCH   5  26
ATOM     26  O   UNL     1      14.475  37.402  12.020  1.00  0.00    -0.454 OA
BRANCH  26  27
ATOM     27  C   UNL     1      13.469  38.070  12.840  1.00  0.00     0.214 A 
ATOM     28  C   UNL     1      12.152  37.404  12.933  1.00  0.00     0.180 A 
ATOM     29  C   UNL     1      14.033  38.143  14.216  1.00  0.00     0.239 A 
ATOM     30  O   UNL     1      12.293  36.170  13.415  1.00  0.00    -0.452 OA
ATOM     31  C   UNL     1      14.080  36.906  14.877  1.00  0.00     0.111 A 
ATOM     32  O   UNL     1      14.813  39.032  14.702  1.00  0.00    -0.285 OA
ATOM     33  C   UNL     1      13.357  35.828  14.098  1.00  0.00     0.146 A 
ATOM     34  C   UNL     1      15.391  36.545  15.393  1.00  0.00     0.134 A 
ATOM     35  C   UNL     1      14.024  34.646  13.696  1.00  0.00     0.094 A 
ATOM     36  C   UNL     1      15.944  35.307  14.956  1.00  0.00     0.093 A 
ATOM     37  C   UNL     1      15.392  34.784  13.738  1.00  0.00     0.123 A 
BRANCH  28  38
ATOM     38  C   UNL     1      10.811  38.022  12.472  1.00  0.00     0.025 A 
ATOM     39  C   UNL     1      10.813  39.082  11.573  1.00  0.00     0.062 A 
ATOM     40  C   UNL     1       9.520  37.477  12.695  1.00  0.00     0.016 A 
ATOM     41  C   UNL     1      10.130  38.698  10.414  1.00  0.00     0.158 A 
ATOM     42  C   UNL     1       8.484  37.807  11.753  1.00  0.00     0.051 A 
ATOM     43  C   UNL     1       8.822  38.394  10.535  1.00  0.00     0.157 A 
BRANCH  41  44
ATOM     44  O   UNL     1      10.843  38.204   9.334  1.00  0.00    -0.504 OA
ATOM     45  H   UNL     1      11.488  38.804   8.834  1.00  0.00     0.293 HD
ENDBRANCH  41  44
BRANCH  43  46
ATOM     46  O   UNL     1       7.942  38.702   9.439  1.00  0.00    -0.504 OA
ATOM     47  H   UNL     1       7.045  39.106   9.564  1.00  0.00     0.293 HD
ENDBRANCH  43  46
ENDBRANCH  28  38
BRANCH  34  48
ATOM     48  O   UNL     1      16.193  37.489  16.104  1.00  0.00    -0.507 OA
ATOM     49  H   UNL     1      16.301  38.303  15.354  1.00  0.00     0.293 HD
ENDBRANCH  34  48
BRANCH  37  50
ATOM     50  O   UNL     1      16.104  34.835  12.493  1.00  0.00    -0.508 OA
ATOM     51  H   UNL     1      15.583  34.929  11.609  1.00  0.00     0.293 HD
ENDBRANCH  37  50
ENDBRANCH  26  27
ENDBRANCH   5  26
BRANCH   4  52
ATOM     52  O   UNL     1      13.654  38.861   9.666  1.00  0.00    -0.384 OA
ATOM     53  H   UNL     1      12.785  38.398   9.582  1.00  0.00     0.211 HD
ENDBRANCH   4  52
TORSDOF 16
ENDMDL
MODEL 4
REMARK VINA RESULT:   -10.004      2.234      4.467
REMARK INTER + INTRA:         -15.622
REMARK INTER:                 -13.952
REMARK INTRA:                  -1.670
REMARK UNBOUND:                -1.816
REMARK SMILES C[C@H]1O[C@@H](OC[C@H]2O[C@H](Oc3c(-c4ccc(O)c(O)c4)oc4cc(O)cc(O)c4c3=O)[C@H](O)[C@@H](O)[C@@H]2O)[C@@H](O)[C@@H](O)[C@H]1O
REMARK SMILES IDX 7 1 36 2 34 3 32 4 9 5 8 6 6 7 5 8 4 9 1 10 2 11 42 12 3 13
REMARK SMILES IDX 40 14 38 15 43 16 41 18 39 20 37 22 35 24 10 26 11 27 12 28
REMARK SMILES IDX 30 29 21 30 29 31 31 32 22 33 27 34 23 35 26 36 24 37 13 38
REMARK SMILES IDX 20 39 14 40 18 41 15 42 16 43 19 44 17 46 28 48 25 50 33 52
REMARK H PARENT 43 17 41 19 39 21 37 23 35 25 19 45 17 47 28 49 25 51 33 53
REMARK Flexibility Score: inf
ROOT
ATOM      1  C   UNL     1      13.095  35.244   6.353  1.00  0.00     0.180 C 
ATOM      2  C   UNL     1      14.389  35.458   5.325  1.00  0.00     0.177 C 
ATOM      3  C   UNL     1      15.656  34.558   5.968  1.00  0.00     0.180 C 
ATOM      4  C   UNL     1      16.080  34.604   7.516  1.00  0.00     0.214 C 
ATOM      5  C   UNL     1      14.980  34.202   8.510  1.00  0.00     0.339 C 
ATOM      6  O   UNL     1      13.677  35.045   7.881  1.00  0.00    -0.332 OA
ENDROOT
BRANCH   1   7
ATOM      7  C   UNL     1      11.403  34.908   5.340  1.00  0.00     0.198 C 
BRANCH   7   8
ATOM      8  O   UNL     1      10.221  34.720   4.326  1.00  0.00    -0.347 OA
BRANCH   8   9
ATOM      9  C   UNL     1       9.778  33.175   3.818  1.00  0.00     0.281 C 
ATOM     10  C   UNL     1       6.911  29.000   4.078  1.00  0.00     0.041 C 
ATOM     11  C   UNL     1       7.844  30.839   3.935  1.00  0.00     0.150 C 
ATOM     12  C   UNL     1       7.609  31.588   2.482  1.00  0.00     0.174 C 
ATOM     13  O   UNL     1       9.329  31.567   4.358  1.00  0.00    -0.344 OA
ATOM     14  C   UNL     1       9.039  31.778   1.801  1.00  0.00     0.179 C 
ATOM     15  C   UNL     1       9.855  33.154   2.250  1.00  0.00     0.202 C 
BRANCH  12  16
ATOM     16  O   UNL     1       6.741  30.973   1.543  1.00  0.00    -0.388 OA
ATOM     17  H   UNL     1       6.679  31.598   0.751  1.00  0.00     0.211 HD
ENDBRANCH  12  16
BRANCH  14  18
ATOM     18  O   UNL     1       9.781  30.551   1.990  1.00  0.00    -0.387 OA
ATOM     19  H   UNL     1      10.273  30.455   2.958  1.00  0.00     0.211 HD
ENDBRANCH  14  18
BRANCH  15  20
ATOM     20  O   UNL     1      11.252  32.819   2.314  1.00  0.00    -0.385 OA
ATOM     21  H   UNL     1      11.398  32.058   1.585  1.00  0.00     0.211 HD
ENDBRANCH  15  20
ENDBRANCH   8   9
ENDBRANCH   7   8
ENDBRANCH   1   7
BRANCH   2  22
ATOM     22  O   UNL     1      14.636  36.825   4.953  1.00  0.00    -0.387 OA
ATOM     23  H   UNL     1      13.770  37.085   4.511  1.00  0.00     0.211 HD
ENDBRANCH   2  22
BRANCH   3  24
ATOM     24  O   UNL     1      15.386  33.197   5.677  1.00  0.00    -0.387 OA
ATOM     25  H   UNL     1      14.684  32.714   6.290  1.00  0.00     0.211 HD
ENDBRANCH   3  24
BRANCH   5  26
ATOM     26  O   UNL     1      15.704  34.197  10.143  1.00  0.00    -0.454 OA
BRANCH  26  27
ATOM     27  C   UNL     1      16.859  33.497  10.696  1.00  0.00     0.214 A 
ATOM     28  C   UNL     1      17.936  34.345  11.250  1.00  0.00     0.180 A 
ATOM     29  C   UNL     1      16.343  32.648  11.805  1.00  0.00     0.239 A 
ATOM     30  O   UNL     1      17.456  35.129  12.214  1.00  0.00    -0.452 OA
ATOM     31  C   UNL     1      15.952  33.373  12.941  1.00  0.00     0.111 A 
ATOM     32  O   UNL     1      15.846  31.471  11.731  1.00  0.00    -0.285 OA
ATOM     33  C   UNL     1      16.341  34.832  12.834  1.00  0.00     0.146 A 
ATOM     34  C   UNL     1      14.594  33.109  13.390  1.00  0.00     0.134 A 
ATOM     35  C   UNL     1      15.367  35.855  12.927  1.00  0.00     0.094 A 
ATOM     36  C   UNL     1      13.714  34.225  13.491  1.00  0.00     0.093 A 
ATOM     37  C   UNL     1      14.094  35.378  12.724  1.00  0.00     0.123 A 
BRANCH  28  38
ATOM     38  C   UNL     1      19.396  34.374  10.737  1.00  0.00     0.025 A 
ATOM     39  C   UNL     1      19.750  33.624   9.622  1.00  0.00     0.062 A 
ATOM     40  C   UNL     1      20.409  35.276  11.152  1.00  0.00     0.016 A 
ATOM     41  C   UNL     1      20.213  34.485   8.621  1.00  0.00     0.158 A 
ATOM     42  C   UNL     1      21.466  35.567  10.220  1.00  0.00     0.051 A 
ATOM     43  C   UNL     1      21.327  35.199   8.884  1.00  0.00     0.157 A 
BRANCH  41  44
ATOM     44  O   UNL     1      19.338  34.928   7.643  1.00  0.00    -0.504 OA
ATOM     45  H   UNL     1      18.865  34.261   7.047  1.00  0.00     0.293 HD
ENDBRANCH  41  44
BRANCH  43  46
ATOM     46  O   UNL     1      22.226  35.491   7.799  1.00  0.00    -0.504 OA
ATOM     47  H   UNL     1      21.928  35.571   6.857  1.00  0.00     0.293 HD
ENDBRANCH  43  46
ENDBRANCH  28  38
BRANCH  34  48
ATOM     48  O   UNL     1      14.092  31.776  13.487  1.00  0.00    -0.507 OA
ATOM     49  H   UNL     1      14.772  31.228  12.797  1.00  0.00     0.293 HD
ENDBRANCH  34  48
BRANCH  37  50
ATOM     50  O   UNL     1      13.421  35.742  11.510  1.00  0.00    -0.508 OA
ATOM     51  H   UNL     1      13.115  35.008  10.855  1.00  0.00     0.293 HD
ENDBRANCH  37  50
ENDBRANCH  26  27
ENDBRANCH   5  26
BRANCH   4  52
ATOM     52  O   UNL     1      16.372  35.927   7.930  1.00  0.00    -0.384 OA
ATOM     53  H   UNL     1      17.321  36.053   8.172  1.00  0.00     0.211 HD
ENDBRANCH   4  52
TORSDOF 16
ENDMDL
MODEL 5
REMARK VINA RESULT:    -9.943      3.629      5.192
REMARK INTER + INTRA:         -15.536
REMARK INTER:                 -13.853
REMARK INTRA:                  -1.684
REMARK UNBOUND:                -1.816
REMARK SMILES C[C@H]1O[C@@H](OC[C@H]2O[C@H](Oc3c(-c4ccc(O)c(O)c4)oc4cc(O)cc(O)c4c3=O)[C@H](O)[C@@H](O)[C@@H]2O)[C@@H](O)[C@@H](O)[C@H]1O
REMARK SMILES IDX 7 1 36 2 34 3 32 4 9 5 8 6 6 7 5 8 4 9 1 10 2 11 42 12 3 13
REMARK SMILES IDX 40 14 38 15 43 16 41 18 39 20 37 22 35 24 10 26 11 27 12 28
REMARK SMILES IDX 30 29 21 30 29 31 31 32 22 33 27 34 23 35 26 36 24 37 13 38
REMARK SMILES IDX 20 39 14 40 18 41 15 42 16 43 19 44 17 46 28 48 25 50 33 52
REMARK H PARENT 43 17 41 19 39 21 37 23 35 25 19 45 17 47 28 49 25 51 33 53
REMARK Flexibility Score: inf
ROOT
ATOM      1  C   UNL     1      15.478  35.416   8.058  1.00  0.00     0.180 C 
ATOM      2  C   UNL     1      16.186  35.438   6.550  1.00  0.00     0.177 C 
ATOM      3  C   UNL     1      16.275  33.836   6.046  1.00  0.00     0.180 C 
ATOM      4  C   UNL     1      16.827  32.645   6.972  1.00  0.00     0.214 C 
ATOM      5  C   UNL     1      16.068  32.434   8.290  1.00  0.00     0.339 C 
ATOM      6  O   UNL     1      15.915  34.018   8.812  1.00  0.00    -0.332 OA
ENDROOT
BRANCH   1   7
ATOM      7  C   UNL     1      14.084  36.839   8.233  1.00  0.00     0.198 C 
BRANCH   7   8
ATOM      8  O   UNL     1      13.183  38.123   8.273  1.00  0.00    -0.347 OA
BRANCH   8   9
ATOM      9  C   UNL     1      11.777  38.200   7.346  1.00  0.00     0.281 C 
ATOM     10  C   UNL     1       7.712  36.111   5.148  1.00  0.00     0.041 C 
ATOM     11  C   UNL     1       9.271  36.861   6.280  1.00  0.00     0.150 C 
ATOM     12  C   UNL     1       8.790  37.933   7.440  1.00  0.00     0.174 C 
ATOM     13  O   UNL     1      10.867  37.424   6.061  1.00  0.00    -0.344 OA
ATOM     14  C   UNL     1       9.489  39.331   7.123  1.00  0.00     0.179 C 
ATOM     15  C   UNL     1      11.017  39.512   7.751  1.00  0.00     0.202 C 
BRANCH  12  16
ATOM     16  O   UNL     1       7.399  38.154   7.612  1.00  0.00    -0.388 OA
ATOM     17  H   UNL     1       7.048  37.384   8.165  1.00  0.00     0.211 HD
ENDBRANCH  12  16
BRANCH  14  18
ATOM     18  O   UNL     1       9.395  39.555   5.697  1.00  0.00    -0.387 OA
ATOM     19  H   UNL     1      10.092  38.974   5.093  1.00  0.00     0.211 HD
ENDBRANCH  14  18
BRANCH  15  20
ATOM     20  O   UNL     1      11.784  40.264   6.795  1.00  0.00    -0.385 OA
ATOM     21  H   UNL     1      12.779  39.899   6.876  1.00  0.00     0.211 HD
ENDBRANCH  15  20
ENDBRANCH   8   9
ENDBRANCH   7   8
ENDBRANCH   1   7
BRANCH   2  22
ATOM     22  O   UNL     1      17.366  36.256   6.456  1.00  0.00    -0.387 OA
ATOM     23  H   UNL     1      17.789  35.922   5.606  1.00  0.00     0.211 HD
ENDBRANCH   2  22
BRANCH   3  24
ATOM     24  O   UNL     1      14.968  33.452   5.653  1.00  0.00    -0.387 OA
ATOM     25  H   UNL     1      14.895  32.782   4.849  1.00  0.00     0.211 HD
ENDBRANCH   3  24
BRANCH   5  26
ATOM     26  O   UNL     1      16.760  30.992   9.086  1.00  0.00    -0.454 OA
BRANCH  26  27
ATOM     27  C   UNL     1      16.153  29.751   9.555  1.00  0.00     0.214 A 
ATOM     28  C   UNL     1      16.834  28.499   9.164  1.00  0.00     0.180 A 
ATOM     29  C   UNL     1      16.159  29.818  11.042  1.00  0.00     0.239 A 
ATOM     30  O   UNL     1      18.094  28.505   9.597  1.00  0.00    -0.452 OA
ATOM     31  C   UNL     1      17.433  29.677  11.612  1.00  0.00     0.111 A 
ATOM     32  O   UNL     1      15.294  30.365  11.811  1.00  0.00    -0.285 OA
ATOM     33  C   UNL     1      18.468  29.288  10.578  1.00  0.00     0.146 A 
ATOM     34  C   UNL     1      17.814  30.749  12.519  1.00  0.00     0.134 A 
ATOM     35  C   UNL     1      19.618  30.085  10.360  1.00  0.00     0.094 A 
ATOM     36  C   UNL     1      19.018  31.452  12.226  1.00  0.00     0.093 A 
ATOM     37  C   UNL     1      19.471  31.355  10.866  1.00  0.00     0.123 A 
BRANCH  28  38
ATOM     38  C   UNL     1      16.201  27.372   8.312  1.00  0.00     0.025 A 
ATOM     39  C   UNL     1      16.074  26.095   8.844  1.00  0.00     0.062 A 
ATOM     40  C   UNL     1      15.511  27.542   7.085  1.00  0.00     0.016 A 
ATOM     41  C   UNL     1      14.718  25.750   8.882  1.00  0.00     0.158 A 
ATOM     42  C   UNL     1      14.516  26.562   6.738  1.00  0.00     0.051 A 
ATOM     43  C   UNL     1      14.065  25.665   7.705  1.00  0.00     0.157 A 
BRANCH  41  44
ATOM     44  O   UNL     1      13.994  25.956  10.045  1.00  0.00    -0.504 OA
ATOM     45  H   UNL     1      14.092  25.316  10.823  1.00  0.00     0.293 HD
ENDBRANCH  41  44
BRANCH  43  46
ATOM     46  O   UNL     1      13.016  24.690   7.571  1.00  0.00    -0.504 OA
ATOM     47  H   UNL     1      12.750  24.079   8.305  1.00  0.00     0.293 HD
ENDBRANCH  43  46
ENDBRANCH  28  38
BRANCH  34  48
ATOM     48  O   UNL     1      16.908  31.239  13.508  1.00  0.00    -0.507 OA
ATOM     49  H   UNL     1      16.902  30.402  14.242  1.00  0.00     0.293 HD
ENDBRANCH  34  48
BRANCH  37  50
ATOM     50  O   UNL     1      19.338  32.441   9.939  1.00  0.00    -0.508 OA
ATOM     51  H   UNL     1      18.654  32.377   9.170  1.00  0.00     0.293 HD
ENDBRANCH  37  50
ENDBRANCH  26  27
ENDBRANCH   5  26
BRANCH   4  52
ATOM     52  O   UNL     1      18.138  32.919   7.434  1.00  0.00    -0.384 OA
ATOM     53  H   UNL     1      18.280  33.875   7.641  1.00  0.00     0.211 HD
ENDBRANCH   4  52
TORSDOF 16
ENDMDL
MODEL 6
REMARK VINA RESULT:    -9.913      2.267      5.539
REMARK INTER + INTRA:         -15.495
REMARK INTER:                 -13.267
REMARK INTRA:                  -2.228
REMARK UNBOUND:                -1.816
REMARK SMILES C[C@H]1O[C@@H](OC[C@H]2O[C@H](Oc3c(-c4ccc(O)c(O)c4)oc4cc(O)cc(O)c4c3=O)[C@H](O)[C@@H](O)[C@@H]2O)[C@@H](O)[C@@H](O)[C@H]1O
REMARK SMILES IDX 7 1 36 2 34 3 32 4 9 5 8 6 6 7 5 8 4 9 1 10 2 11 42 12 3 13
REMARK SMILES IDX 40 14 38 15 43 16 41 18 39 20 37 22 35 24 10 26 11 27 12 28
REMARK SMILES IDX 30 29 21 30 29 31 31 32 22 33 27 34 23 35 26 36 24 37 13 38
REMARK SMILES IDX 20 39 14 40 18 41 15 42 16 43 19 44 17 46 28 48 25 50 33 52
REMARK H PARENT 43 17 41 19 39 21 37 23 35 25 19 45 17 47 28 49 25 51 33 53
REMARK Flexibility Score: inf
ROOT
ATOM      1  C   UNL     1      14.635  32.520   6.621  1.00  0.00     0.180 C 
ATOM      2  C   UNL     1      15.842  33.086   5.623  1.00  0.00     0.177 C 
ATOM      3  C   UNL     1      16.915  31.808   5.406  1.00  0.00     0.180 C 
ATOM      4  C   UNL     1      17.478  30.910   6.612  1.00  0.00     0.214 C 
ATOM      5  C   UNL     1      16.411  30.181   7.442  1.00  0.00     0.339 C 
ATOM      6  O   UNL     1      15.292  31.410   7.647  1.00  0.00    -0.332 OA
ENDROOT
BRANCH   1   7
ATOM      7  C   UNL     1      12.826  33.064   5.965  1.00  0.00     0.198 C 
BRANCH   7   8
ATOM      8  O   UNL     1      11.533  33.532   5.209  1.00  0.00    -0.347 OA
BRANCH   8   9
ATOM      9  C   UNL     1      10.594  32.416   4.364  1.00  0.00     0.281 C 
ATOM     10  C   UNL     1       6.328  29.782   3.600  1.00  0.00     0.041 C 
ATOM     11  C   UNL     1       7.910  31.080   3.895  1.00  0.00     0.150 C 
ATOM     12  C   UNL     1       8.166  32.108   2.628  1.00  0.00     0.174 C 
ATOM     13  O   UNL     1       9.495  31.058   4.528  1.00  0.00    -0.344 OA
ATOM     14  C   UNL     1       9.631  31.822   2.065  1.00  0.00     0.179 C 
ATOM     15  C   UNL     1      10.853  32.647   2.832  1.00  0.00     0.202 C 
BRANCH  12  16
ATOM     16  O   UNL     1       7.253  32.075   1.542  1.00  0.00    -0.388 OA
ATOM     17  H   UNL     1       7.589  32.739   0.858  1.00  0.00     0.211 HD
ENDBRANCH  12  16
BRANCH  14  18
ATOM     18  O   UNL     1       9.811  30.388   2.018  1.00  0.00    -0.387 OA
ATOM     19  H   UNL     1      10.849  30.055   1.994  1.00  0.00     0.211 HD
ENDBRANCH  14  18
BRANCH  15  20
ATOM     20  O   UNL     1      11.992  31.771   2.883  1.00  0.00    -0.385 OA
ATOM     21  H   UNL     1      12.241  31.683   3.912  1.00  0.00     0.211 HD
ENDBRANCH  15  20
ENDBRANCH   8   9
ENDBRANCH   7   8
ENDBRANCH   1   7
BRANCH   2  22
ATOM     22  O   UNL     1      16.370  34.371   5.995  1.00  0.00    -0.387 OA
ATOM     23  H   UNL     1      16.000  34.495   6.922  1.00  0.00     0.211 HD
ENDBRANCH   2  22
BRANCH   3  24
ATOM     24  O   UNL     1      16.305  30.906   4.499  1.00  0.00    -0.387 OA
ATOM     25  H   UNL     1      16.931  30.193   4.050  1.00  0.00     0.211 HD
ENDBRANCH   3  24
BRANCH   5  26
ATOM     26  O   UNL     1      17.261  29.150   8.628  1.00  0.00    -0.454 OA
BRANCH  26  27
ATOM     27  C   UNL     1      17.833  29.439   9.939  1.00  0.00     0.214 A 
ATOM     28  C   UNL     1      16.923  30.054  10.929  1.00  0.00     0.180 A 
ATOM     29  C   UNL     1      18.286  28.135  10.495  1.00  0.00     0.239 A 
ATOM     30  O   UNL     1      15.864  29.272  11.129  1.00  0.00    -0.452 OA
ATOM     31  C   UNL     1      17.236  27.289  10.887  1.00  0.00     0.111 A 
ATOM     32  O   UNL     1      19.400  27.538  10.299  1.00  0.00    -0.285 OA
ATOM     33  C   UNL     1      15.899  27.997  10.833  1.00  0.00     0.146 A 
ATOM     34  C   UNL     1      17.276  25.960  10.296  1.00  0.00     0.134 A 
ATOM     35  C   UNL     1      14.839  27.493  10.042  1.00  0.00     0.094 A 
ATOM     36  C   UNL     1      16.131  25.541   9.560  1.00  0.00     0.093 A 
ATOM     37  C   UNL     1      15.279  26.600   9.093  1.00  0.00     0.123 A 
BRANCH  28  38
ATOM     38  C   UNL     1      17.133  31.439  11.587  1.00  0.00     0.025 A 
ATOM     39  C   UNL     1      17.956  32.375  10.975  1.00  0.00     0.062 A 
ATOM     40  C   UNL     1      16.387  31.969  12.671  1.00  0.00     0.016 A 
ATOM     41  C   UNL     1      17.202  33.513  10.666  1.00  0.00     0.158 A 
ATOM     42  C   UNL     1      16.285  33.401  12.774  1.00  0.00     0.051 A 
ATOM     43  C   UNL     1      16.661  34.197  11.694  1.00  0.00     0.157 A 
BRANCH  41  44
ATOM     44  O   UNL     1      16.654  33.645   9.401  1.00  0.00    -0.504 OA
ATOM     45  H   UNL     1      16.528  34.565   8.996  1.00  0.00     0.293 HD
ENDBRANCH  41  44
BRANCH  43  46
ATOM     46  O   UNL     1      16.539  35.626  11.578  1.00  0.00    -0.504 OA
ATOM     47  H   UNL     1      16.071  36.185  12.250  1.00  0.00     0.293 HD
ENDBRANCH  43  46
ENDBRANCH  28  38
BRANCH  34  48
ATOM     48  O   UNL     1      18.490  25.210  10.243  1.00  0.00    -0.507 OA
ATOM     49  H   UNL     1      19.176  25.849  10.841  1.00  0.00     0.293 HD
ENDBRANCH  34  48
BRANCH  37  50
ATOM     50  O   UNL     1      15.251  27.005   7.718  1.00  0.00    -0.508 OA
ATOM     51  H   UNL     1      14.578  27.722   7.409  1.00  0.00     0.293 HD
ENDBRANCH  37  50
ENDBRANCH  26  27
ENDBRANCH   5  26
BRANCH   4  52
ATOM     52  O   UNL     1      18.112  31.709   7.596  1.00  0.00    -0.384 OA
ATOM     53  H   UNL     1      18.273  32.635   7.292  1.00  0.00     0.211 HD
ENDBRANCH   4  52
TORSDOF 16
ENDMDL
MODEL 7
REMARK VINA RESULT:    -9.907      2.368      3.558
REMARK INTER + INTRA:         -15.488
REMARK INTER:                 -13.708
REMARK INTRA:                  -1.780
REMARK UNBOUND:                -1.816
REMARK SMILES C[C@H]1O[C@@H](OC[C@H]2O[C@H](Oc3c(-c4ccc(O)c(O)c4)oc4cc(O)cc(O)c4c3=O)[C@H](O)[C@@H](O)[C@@H]2O)[C@@H](O)[C@@H](O)[C@H]1O
REMARK SMILES IDX 7 1 36 2 34 3 32 4 9 5 8 6 6 7 5 8 4 9 1 10 2 11 42 12 3 13
REMARK SMILES IDX 40 14 38 15 43 16 41 18 39 20 37 22 35 24 10 26 11 27 12 28
REMARK SMILES IDX 30 29 21 30 29 31 31 32 22 33 27 34 23 35 26 36 24 37 13 38
REMARK SMILES IDX 20 39 14 40 18 41 15 42 16 43 19 44 17 46 28 48 25 50 33 52
REMARK H PARENT 43 17 41 19 39 21 37 23 35 25 19 45 17 47 28 49 25 51 33 53
REMARK Flexibility Score: inf
ROOT
ATOM      1  C   UNL     1      14.233  33.247   6.597  1.00  0.00     0.180 C 
ATOM      2  C   UNL     1      15.463  33.580   5.524  1.00  0.00     0.177 C 
ATOM      3  C   UNL     1      16.521  32.274   5.598  1.00  0.00     0.180 C 
ATOM      4  C   UNL     1      17.053  31.641   6.974  1.00  0.00     0.214 C 
ATOM      5  C   UNL     1      15.963  31.113   7.918  1.00  0.00     0.339 C 
ATOM      6  O   UNL     1      14.858  32.369   7.843  1.00  0.00    -0.332 OA
ENDROOT
BRANCH   1   7
ATOM      7  C   UNL     1      12.442  33.662   5.809  1.00  0.00     0.198 C 
BRANCH   7   8
ATOM      8  O   UNL     1      11.151  33.912   4.952  1.00  0.00    -0.347 OA
BRANCH   8   9
ATOM      9  C   UNL     1      10.356  32.618   4.222  1.00  0.00     0.281 C 
ATOM     10  C   UNL     1       6.523  29.318   3.852  1.00  0.00     0.041 C 
ATOM     11  C   UNL     1       7.894  30.860   3.985  1.00  0.00     0.150 C 
ATOM     12  C   UNL     1       7.916  31.840   2.657  1.00  0.00     0.174 C 
ATOM     13  O   UNL     1       9.494  31.118   4.518  1.00  0.00    -0.344 OA
ATOM     14  C   UNL     1       9.375  31.753   2.018  1.00  0.00     0.179 C 
ATOM     15  C   UNL     1      10.491  32.799   2.668  1.00  0.00     0.202 C 
BRANCH  12  16
ATOM     16  O   UNL     1       6.961  31.605   1.634  1.00  0.00    -0.388 OA
ATOM     17  H   UNL     1       7.262  32.136   0.827  1.00  0.00     0.211 HD
ENDBRANCH  12  16
BRANCH  14  18
ATOM     18  O   UNL     1       9.776  30.364   2.028  1.00  0.00    -0.387 OA
ATOM     19  H   UNL     1       9.561  29.816   1.110  1.00  0.00     0.211 HD
ENDBRANCH  14  18
BRANCH  15  20
ATOM     20  O   UNL     1      11.755  32.113   2.688  1.00  0.00    -0.385 OA
ATOM     21  H   UNL     1      12.448  32.804   3.104  1.00  0.00     0.211 HD
ENDBRANCH  15  20
ENDBRANCH   8   9
ENDBRANCH   7   8
ENDBRANCH   1   7
BRANCH   2  22
ATOM     22  O   UNL     1      16.003  34.909   5.629  1.00  0.00    -0.387 OA
ATOM     23  H   UNL     1      15.449  35.307   6.368  1.00  0.00     0.211 HD
ENDBRANCH   2  22
BRANCH   3  24
ATOM     24  O   UNL     1      15.912  31.209   4.887  1.00  0.00    -0.387 OA
ATOM     25  H   UNL     1      16.512  30.703   4.190  1.00  0.00     0.211 HD
ENDBRANCH   3  24
BRANCH   5  26
ATOM     26  O   UNL     1      16.779  30.342   9.308  1.00  0.00    -0.454 OA
BRANCH  26  27
ATOM     27  C   UNL     1      16.590  29.048   9.956  1.00  0.00     0.214 A 
ATOM     28  C   UNL     1      17.816  28.352  10.400  1.00  0.00     0.180 A 
ATOM     29  C   UNL     1      15.757  29.303  11.163  1.00  0.00     0.239 A 
ATOM     30  O   UNL     1      18.499  29.118  11.249  1.00  0.00    -0.452 OA
ATOM     31  C   UNL     1      16.437  29.974  12.191  1.00  0.00     0.111 A 
ATOM     32  O   UNL     1      14.482  29.369  11.243  1.00  0.00    -0.285 OA
ATOM     33  C   UNL     1      17.917  30.097  11.895  1.00  0.00     0.146 A 
ATOM     34  C   UNL     1      15.781  31.185  12.662  1.00  0.00     0.134 A 
ATOM     35  C   UNL     1      18.549  31.363  11.845  1.00  0.00     0.094 A 
ATOM     36  C   UNL     1      16.532  32.394  12.609  1.00  0.00     0.093 A 
ATOM     37  C   UNL     1      17.644  32.388  11.698  1.00  0.00     0.123 A 
BRANCH  28  38
ATOM     38  C   UNL     1      18.280  26.964   9.898  1.00  0.00     0.025 A 
ATOM     39  C   UNL     1      17.743  25.813  10.461  1.00  0.00     0.062 A 
ATOM     40  C   UNL     1      19.057  26.713   8.738  1.00  0.00     0.016 A 
ATOM     41  C   UNL     1      17.088  25.080   9.464  1.00  0.00     0.158 A 
ATOM     42  C   UNL     1      18.907  25.433   8.098  1.00  0.00     0.051 A 
ATOM     43  C   UNL     1      17.838  24.610   8.445  1.00  0.00     0.157 A 
BRANCH  41  44
ATOM     44  O   UNL     1      15.724  25.239   9.285  1.00  0.00    -0.504 OA
ATOM     45  H   UNL     1      15.100  25.194  10.079  1.00  0.00     0.293 HD
ENDBRANCH  41  44
BRANCH  43  46
ATOM     46  O   UNL     1      17.473  23.352   7.850  1.00  0.00    -0.504 OA
ATOM     47  H   UNL     1      17.082  22.602   8.368  1.00  0.00     0.293 HD
ENDBRANCH  43  46
ENDBRANCH  28  38
BRANCH  34  48
ATOM     48  O   UNL     1      14.380  31.210  12.931  1.00  0.00    -0.507 OA
ATOM     49  H   UNL     1      14.275  32.167  13.490  1.00  0.00     0.293 HD
ENDBRANCH  34  48
BRANCH  37  50
ATOM     50  O   UNL     1      17.604  33.081  10.443  1.00  0.00    -0.508 OA
ATOM     51  H   UNL     1      16.696  33.301  10.009  1.00  0.00     0.293 HD
ENDBRANCH  37  50
ENDBRANCH  26  27
ENDBRANCH   5  26
BRANCH   4  52
ATOM     52  O   UNL     1      17.682  32.621   7.781  1.00  0.00    -0.384 OA
ATOM     53  H   UNL     1      18.433  32.258   8.310  1.00  0.00     0.211 HD
ENDBRANCH   4  52
TORSDOF 16
ENDMDL
MODEL 8
REMARK VINA RESULT:    -9.894      1.978      4.692
REMARK INTER + INTRA:         -15.470
REMARK INTER:                 -13.998
REMARK INTRA:                  -1.472
REMARK UNBOUND:                -1.816
REMARK SMILES C[C@H]1O[C@@H](OC[C@H]2O[C@H](Oc3c(-c4ccc(O)c(O)c4)oc4cc(O)cc(O)c4c3=O)[C@H](O)[C@@H](O)[C@@H]2O)[C@@H](O)[C@@H](O)[C@H]1O
REMARK SMILES IDX 7 1 36 2 34 3 32 4 9 5 8 6 6 7 5 8 4 9 1 10 2 11 42 12 3 13
REMARK SMILES IDX 40 14 38 15 43 16 41 18 39 20 37 22 35 24 10 26 11 27 12 28
REMARK SMILES IDX 30 29 21 30 29 31 31 32 22 33 27 34 23 35 26 36 24 37 13 38
REMARK SMILES IDX 20 39 14 40 18 41 15 42 16 43 19 44 17 46 28 48 25 50 33 52
REMARK H PARENT 43 17 41 19 39 21 37 23 35 25 19 45 17 47 28 49 25 51 33 53
REMARK Flexibility Score: inf
ROOT
ATOM      1  C   UNL     1      13.746  34.419   6.671  1.00  0.00     0.180 C 
ATOM      2  C   UNL     1      15.005  34.992   5.744  1.00  0.00     0.177 C 
ATOM      3  C   UNL     1      16.284  33.922   5.968  1.00  0.00     0.180 C 
ATOM      4  C   UNL     1      16.762  33.403   7.410  1.00  0.00     0.214 C 
ATOM      5  C   UNL     1      15.693  32.666   8.231  1.00  0.00     0.339 C 
ATOM      6  O   UNL     1      14.379  33.678   8.000  1.00  0.00    -0.332 OA
ENDROOT
BRANCH   1   7
ATOM      7  C   UNL     1      12.016  34.471   5.669  1.00  0.00     0.198 C 
BRANCH   7   8
ATOM      8  O   UNL     1      10.813  34.462   4.662  1.00  0.00    -0.347 OA
BRANCH   8   9
ATOM      9  C   UNL     1      10.226  33.003   4.057  1.00  0.00     0.281 C 
ATOM     10  C   UNL     1       7.133  28.985   4.201  1.00  0.00     0.041 C 
ATOM     11  C   UNL     1       8.166  30.776   4.142  1.00  0.00     0.150 C 
ATOM     12  C   UNL     1       7.845  31.679   2.797  1.00  0.00     0.174 C 
ATOM     13  O   UNL     1       9.727  31.375   4.484  1.00  0.00    -0.344 OA
ATOM     14  C   UNL     1       9.215  31.858   1.999  1.00  0.00     0.179 C 
ATOM     15  C   UNL     1      10.156  33.135   2.494  1.00  0.00     0.202 C 
BRANCH  12  16
ATOM     16  O   UNL     1       6.856  31.210   1.895  1.00  0.00    -0.388 OA
ATOM     17  H   UNL     1       6.039  31.791   2.029  1.00  0.00     0.211 HD
ENDBRANCH  12  16
BRANCH  14  18
ATOM     18  O   UNL     1       9.890  30.579   1.997  1.00  0.00    -0.387 OA
ATOM     19  H   UNL     1       9.902  30.066   1.035  1.00  0.00     0.211 HD
ENDBRANCH  14  18
BRANCH  15  20
ATOM     20  O   UNL     1      11.528  32.719   2.387  1.00  0.00    -0.385 OA
ATOM     21  H   UNL     1      11.612  32.252   1.436  1.00  0.00     0.211 HD
ENDBRANCH  15  20
ENDBRANCH   8   9
ENDBRANCH   7   8
ENDBRANCH   1   7
BRANCH   2  22
ATOM     22  O   UNL     1      15.256  36.402   5.884  1.00  0.00    -0.387 OA
ATOM     23  H   UNL     1      14.437  36.716   6.377  1.00  0.00     0.211 HD
ENDBRANCH   2  22
BRANCH   3  24
ATOM     24  O   UNL     1      15.987  32.760   5.213  1.00  0.00    -0.387 OA
ATOM     25  H   UNL     1      16.210  31.836   5.661  1.00  0.00     0.211 HD
ENDBRANCH   3  24
BRANCH   5  26
ATOM     26  O   UNL     1      16.474  32.069   9.722  1.00  0.00    -0.454 OA
BRANCH  26  27
ATOM     27  C   UNL     1      16.793  32.725  10.987  1.00  0.00     0.214 A 
ATOM     28  C   UNL     1      15.689  32.832  11.965  1.00  0.00     0.180 A 
ATOM     29  C   UNL     1      17.873  31.919  11.617  1.00  0.00     0.239 A 
ATOM     30  O   UNL     1      15.216  31.623  12.261  1.00  0.00    -0.452 OA
ATOM     31  C   UNL     1      17.442  30.677  12.108  1.00  0.00     0.111 A 
ATOM     32  O   UNL     1      19.135  32.000  11.421  1.00  0.00    -0.285 OA
ATOM     33  C   UNL     1      15.935  30.547  12.055  1.00  0.00     0.146 A 
ATOM     34  C   UNL     1      18.196  29.535  11.612  1.00  0.00     0.134 A 
ATOM     35  C   UNL     1      15.318  29.491  11.342  1.00  0.00     0.094 A 
ATOM     36  C   UNL     1      17.461  28.508  10.952  1.00  0.00     0.093 A 
ATOM     37  C   UNL     1      16.176  28.901  10.444  1.00  0.00     0.123 A 
BRANCH  28  38
ATOM     38  C   UNL     1      15.115  34.161  12.514  1.00  0.00     0.025 A 
ATOM     39  C   UNL     1      14.010  34.138  13.355  1.00  0.00     0.062 A 
ATOM     40  C   UNL     1      15.735  35.434  12.433  1.00  0.00     0.016 A 
ATOM     41  C   UNL     1      14.364  34.696  14.589  1.00  0.00     0.158 A 
ATOM     42  C   UNL     1      15.407  36.401  13.447  1.00  0.00     0.051 A 
ATOM     43  C   UNL     1      14.740  35.992  14.599  1.00  0.00     0.157 A 
BRANCH  41  44
ATOM     44  O   UNL     1      14.763  33.866  15.623  1.00  0.00    -0.504 OA
ATOM     45  H   UNL     1      14.218  33.820  16.475  1.00  0.00     0.293 HD
ENDBRANCH  41  44
BRANCH  43  46
ATOM     46  O   UNL     1      14.418  36.789  15.753  1.00  0.00    -0.504 OA
ATOM     47  H   UNL     1      15.028  36.889  16.528  1.00  0.00     0.293 HD
ENDBRANCH  43  46
ENDBRANCH  28  38
BRANCH  34  48
ATOM     48  O   UNL     1      19.622  29.552  11.566  1.00  0.00    -0.507 OA
ATOM     49  H   UNL     1      19.879  29.786  12.623  1.00  0.00     0.293 HD
ENDBRANCH  34  48
BRANCH  37  50
ATOM     50  O   UNL     1      15.942  29.115   9.045  1.00  0.00    -0.508 OA
ATOM     51  H   UNL     1      15.008  29.406   8.721  1.00  0.00     0.293 HD
ENDBRANCH  37  50
ENDBRANCH  26  27
ENDBRANCH   5  26
BRANCH   4  52
ATOM     52  O   UNL     1      17.085  34.486   8.265  1.00  0.00    -0.384 OA
ATOM     53  H   UNL     1      17.407  34.193   9.152  1.00  0.00     0.211 HD
ENDBRANCH   4  52
TORSDOF 16
ENDMDL
MODEL 9
REMARK VINA RESULT:    -9.790      3.050      4.594
REMARK INTER + INTRA:         -15.327
REMARK INTER:                 -13.479
REMARK INTRA:                  -1.847
REMARK UNBOUND:                -1.816
REMARK SMILES C[C@H]1O[C@@H](OC[C@H]2O[C@H](Oc3c(-c4ccc(O)c(O)c4)oc4cc(O)cc(O)c4c3=O)[C@H](O)[C@@H](O)[C@@H]2O)[C@@H](O)[C@@H](O)[C@H]1O
REMARK SMILES IDX 7 1 36 2 34 3 32 4 9 5 8 6 6 7 5 8 4 9 1 10 2 11 42 12 3 13
REMARK SMILES IDX 40 14 38 15 43 16 41 18 39 20 37 22 35 24 10 26 11 27 12 28
REMARK SMILES IDX 30 29 21 30 29 31 31 32 22 33 27 34 23 35 26 36 24 37 13 38
REMARK SMILES IDX 20 39 14 40 18 41 15 42 16 43 19 44 17 46 28 48 25 50 33 52
REMARK H PARENT 43 17 41 19 39 21 37 23 35 25 19 45 17 47 28 49 25 51 33 53
REMARK Flexibility Score: inf
ROOT
ATOM      1  C   UNL     1       9.702  34.905   7.057  1.00  0.00     0.180 C 
ATOM      2  C   UNL     1       9.858  35.934   5.756  1.00  0.00     0.177 C 
ATOM      3  C   UNL     1      11.462  35.831   5.261  1.00  0.00     0.180 C 
ATOM      4  C   UNL     1      12.708  35.915   6.271  1.00  0.00     0.214 C 
ATOM      5  C   UNL     1      12.734  34.845   7.372  1.00  0.00     0.339 C 
ATOM      6  O   UNL     1      11.135  34.880   7.869  1.00  0.00    -0.332 OA
ENDROOT
BRANCH   1   7
ATOM      7  C   UNL     1       8.037  33.805   6.925  1.00  0.00     0.198 C 
BRANCH   7   8
ATOM      8  O   UNL     1       6.755  32.982   6.551  1.00  0.00    -0.347 OA
BRANCH   8   9
ATOM      9  C   UNL     1       6.720  32.064   5.138  1.00  0.00     0.281 C 
ATOM     10  C   UNL     1       7.989  31.187   0.306  1.00  0.00     0.041 C 
ATOM     11  C   UNL     1       7.742  31.554   2.326  1.00  0.00     0.150 C 
ATOM     12  C   UNL     1       8.386  30.381   3.294  1.00  0.00     0.174 C 
ATOM     13  O   UNL     1       6.542  32.133   3.393  1.00  0.00    -0.344 OA
ATOM     14  C   UNL     1       7.193  29.750   4.145  1.00  0.00     0.179 C 
ATOM     15  C   UNL     1       6.830  30.554   5.553  1.00  0.00     0.202 C 
BRANCH  12  16
ATOM     16  O   UNL     1       9.108  29.326   2.679  1.00  0.00    -0.388 OA
ATOM     17  H   UNL     1      10.069  29.416   2.982  1.00  0.00     0.211 HD
ENDBRANCH  12  16
BRANCH  14  18
ATOM     18  O   UNL     1       6.070  29.564   3.253  1.00  0.00    -0.387 OA
ATOM     19  H   UNL     1       6.187  28.759   2.527  1.00  0.00     0.211 HD
ENDBRANCH  14  18
BRANCH  15  20
ATOM     20  O   UNL     1       5.404  30.487   5.726  1.00  0.00    -0.385 OA
ATOM     21  H   UNL     1       5.195  31.061   6.596  1.00  0.00     0.211 HD
ENDBRANCH  15  20
ENDBRANCH   8   9
ENDBRANCH   7   8
ENDBRANCH   1   7
BRANCH   2  22
ATOM     22  O   UNL     1       9.281  37.237   5.954  1.00  0.00    -0.387 OA
ATOM     23  H   UNL     1       9.511  37.429   6.914  1.00  0.00     0.211 HD
ENDBRANCH   2  22
BRANCH   3  24
ATOM     24  O   UNL     1      11.603  34.603   4.568  1.00  0.00    -0.387 OA
ATOM     25  H   UNL     1      12.488  34.065   4.737  1.00  0.00     0.211 HD
ENDBRANCH   3  24
BRANCH   5  26
ATOM     26  O   UNL     1      14.257  35.046   8.283  1.00  0.00    -0.454 OA
BRANCH  26  27
ATOM     27  C   UNL     1      14.545  35.649   9.581  1.00  0.00     0.214 A 
ATOM     28  C   UNL     1      15.670  35.062  10.340  1.00  0.00     0.180 A 
ATOM     29  C   UNL     1      14.880  37.075   9.314  1.00  0.00     0.239 A 
ATOM     30  O   UNL     1      16.791  35.122   9.624  1.00  0.00    -0.452 OA
ATOM     31  C   UNL     1      16.127  37.260   8.696  1.00  0.00     0.111 A 
ATOM     32  O   UNL     1      14.078  38.064   9.193  1.00  0.00    -0.285 OA
ATOM     33  C   UNL     1      16.916  35.970   8.634  1.00  0.00     0.146 A 
ATOM     34  C   UNL     1      16.084  38.039   7.468  1.00  0.00     0.134 A 
ATOM     35  C   UNL     1      17.366  35.448   7.396  1.00  0.00     0.094 A 
ATOM     36  C   UNL     1      16.609  37.428   6.292  1.00  0.00     0.093 A 
ATOM     37  C   UNL     1      16.692  35.994   6.329  1.00  0.00     0.123 A 
BRANCH  28  38
ATOM     38  C   UNL     1      15.551  34.407  11.737  1.00  0.00     0.025 A 
ATOM     39  C   UNL     1      15.187  35.181  12.832  1.00  0.00     0.062 A 
ATOM     40  C   UNL     1      15.559  33.015  12.010  1.00  0.00     0.016 A 
ATOM     41  C   UNL     1      13.993  34.682  13.366  1.00  0.00     0.158 A 
ATOM     42  C   UNL     1      14.875  32.563  13.192  1.00  0.00     0.051 A 
ATOM     43  C   UNL     1      14.011  33.427  13.862  1.00  0.00     0.157 A 
BRANCH  41  44
ATOM     44  O   UNL     1      12.787  35.240  12.979  1.00  0.00    -0.504 OA
ATOM     45  H   UNL     1      11.924  34.730  13.118  1.00  0.00     0.293 HD
ENDBRANCH  41  44
BRANCH  43  46
ATOM     46  O   UNL     1      13.174  33.124  14.992  1.00  0.00    -0.504 OA
ATOM     47  H   UNL     1      12.616  33.804  15.449  1.00  0.00     0.293 HD
ENDBRANCH  43  46
ENDBRANCH  28  38
BRANCH  34  48
ATOM     48  O   UNL     1      15.334  39.250   7.385  1.00  0.00    -0.507 OA
ATOM     49  H   UNL     1      16.046  39.921   6.856  1.00  0.00     0.293 HD
ENDBRANCH  34  48
BRANCH  37  50
ATOM     50  O   UNL     1      15.775  35.159   5.609  1.00  0.00    -0.508 OA
ATOM     51  H   UNL     1      15.345  34.348   6.078  1.00  0.00     0.293 HD
ENDBRANCH  37  50
ENDBRANCH  26  27
ENDBRANCH   5  26
BRANCH   4  52
ATOM     52  O   UNL     1      12.674  37.110   7.031  1.00  0.00    -0.384 OA
ATOM     53  H   UNL     1      12.680  37.923   6.469  1.00  0.00     0.211 HD
ENDBRANCH   4  52
TORSDOF 16
ENDMDL
