MODEL 1
REMARK VINA RESULT:    -7.170      0.000      0.000
REMARK INTER + INTRA:          -8.616
REMARK INTER:                  -8.428
REMARK INTRA:                  -0.188
REMARK UNBOUND:                -0.188
REMARK SMILES O=c1c(O)c(-c2ccc(O)cc2)oc2cc(O)cc(O)c12
REMARK SMILES IDX 5 1 3 2 2 3 1 4 21 5 19 6 18 7 16 8 15 9 14 10 13 11 6 12
REMARK SMILES IDX 7 13 8 14 9 15 12 16 11 17 10 18 4 20 20 22 17 24
REMARK H PARENT 10 19 4 21 20 23 17 25
REMARK Flexibility Score: inf
ROOT
ATOM      1  C   UNL     1      23.423  30.248  18.146  1.00  0.00     0.180 A 
ATOM      2  C   UNL     1      22.592  30.734  17.121  1.00  0.00     0.208 A 
ATOM      3  C   UNL     1      21.767  31.840  17.381  1.00  0.00     0.238 A 
ATOM      4  O   UNL     1      20.986  32.237  16.477  1.00  0.00    -0.285 OA
ATOM      5  C   UNL     1      21.793  32.456  18.655  1.00  0.00     0.111 A 
ATOM      6  C   UNL     1      21.030  33.606  19.015  1.00  0.00     0.134 A 
ATOM      7  C   UNL     1      21.036  34.051  20.343  1.00  0.00     0.093 A 
ATOM      8  C   UNL     1      21.828  33.429  21.307  1.00  0.00     0.123 A 
ATOM      9  C   UNL     1      22.625  32.341  20.952  1.00  0.00     0.094 A 
ATOM     10  C   UNL     1      22.613  31.850  19.644  1.00  0.00     0.146 A 
ATOM     11  O   UNL     1      23.378  30.806  19.350  1.00  0.00    -0.452 OA
ENDROOT
BRANCH   1  12
ATOM     12  C   UNL     1      24.338  29.103  17.942  1.00  0.00     0.021 A 
ATOM     13  C   UNL     1      24.080  27.846  18.521  1.00  0.00     0.016 A 
ATOM     14  C   UNL     1      24.947  26.772  18.294  1.00  0.00     0.047 A 
ATOM     15  C   UNL     1      26.071  26.934  17.479  1.00  0.00     0.115 A 
ATOM     16  C   UNL     1      25.458  29.251  17.106  1.00  0.00     0.016 A 
ATOM     17  C   UNL     1      26.323  28.176  16.883  1.00  0.00     0.047 A 
BRANCH  15  18
ATOM     18  O   UNL     1      26.926  25.855  17.263  1.00  0.00    -0.508 OA
ATOM     19  H   UNL     1      27.794  25.757  17.776  1.00  0.00     0.293 HD
ENDBRANCH  15  18
ENDBRANCH   1  12
BRANCH   2  20
ATOM     20  O   UNL     1      22.565  30.098  15.876  1.00  0.00    -0.502 OA
ATOM     21  H   UNL     1      23.028  29.213  15.708  1.00  0.00     0.293 HD
ENDBRANCH   2  20
BRANCH   6  22
ATOM     22  O   UNL     1      20.276  34.358  18.109  1.00  0.00    -0.507 OA
ATOM     23  H   UNL     1      19.299  34.584  18.223  1.00  0.00     0.293 HD
ENDBRANCH   6  22
BRANCH   8  24
ATOM     24  O   UNL     1      21.822  33.909  22.615  1.00  0.00    -0.508 OA
ATOM     25  H   UNL     1      22.628  34.379  23.011  1.00  0.00     0.293 HD
ENDBRANCH   8  24
TORSDOF 5
ENDMDL
MODEL 2
REMARK VINA RESULT:    -6.646     10.191     12.627
REMARK INTER + INTRA:          -8.000
REMARK INTER:                  -8.119
REMARK INTRA:                   0.120
REMARK UNBOUND:                -0.188
REMARK SMILES O=c1c(O)c(-c2ccc(O)cc2)oc2cc(O)cc(O)c12
REMARK SMILES IDX 5 1 3 2 2 3 1 4 21 5 19 6 18 7 16 8 15 9 14 10 13 11 6 12
REMARK SMILES IDX 7 13 8 14 9 15 12 16 11 17 10 18 4 20 20 22 17 24
REMARK H PARENT 10 19 4 21 20 23 17 25
REMARK Flexibility Score: inf
ROOT
ATOM      1  C   UNL     1      18.152  21.143  21.000  1.00  0.00     0.180 A 
ATOM      2  C   UNL     1      17.968  22.322  20.258  1.00  0.00     0.208 A 
ATOM      3  C   UNL     1      18.098  22.275  18.861  1.00  0.00     0.238 A 
ATOM      4  O   UNL     1      17.986  23.344  18.207  1.00  0.00    -0.285 OA
ATOM      5  C   UNL     1      18.394  21.047  18.222  1.00  0.00     0.111 A 
ATOM      6  C   UNL     1      18.508  20.875  16.810  1.00  0.00     0.134 A 
ATOM      7  C   UNL     1      18.933  19.643  16.296  1.00  0.00     0.093 A 
ATOM      8  C   UNL     1      19.183  18.560  17.137  1.00  0.00     0.123 A 
ATOM      9  C   UNL     1      19.017  18.700  18.515  1.00  0.00     0.094 A 
ATOM     10  C   UNL     1      18.630  19.926  19.061  1.00  0.00     0.146 A 
ATOM     11  O   UNL     1      18.493  20.020  20.379  1.00  0.00    -0.452 OA
ENDROOT
BRANCH   1  12
ATOM     12  C   UNL     1      18.007  21.108  22.473  1.00  0.00     0.021 A 
ATOM     13  C   UNL     1      18.973  20.490  23.290  1.00  0.00     0.016 A 
ATOM     14  C   UNL     1      18.828  20.490  24.681  1.00  0.00     0.047 A 
ATOM     15  C   UNL     1      17.728  21.116  25.274  1.00  0.00     0.115 A 
ATOM     16  C   UNL     1      16.916  21.754  23.078  1.00  0.00     0.016 A 
ATOM     17  C   UNL     1      16.773  21.751  24.469  1.00  0.00     0.047 A 
BRANCH  15  18
ATOM     18  O   UNL     1      17.595  21.108  26.660  1.00  0.00    -0.508 OA
ATOM     19  H   UNL     1      18.154  21.714  27.250  1.00  0.00     0.293 HD
ENDBRANCH  15  18
ENDBRANCH   1  12
BRANCH   2  20
ATOM     20  O   UNL     1      17.698  23.529  20.911  1.00  0.00    -0.502 OA
ATOM     21  H   UNL     1      16.966  23.620  21.605  1.00  0.00     0.293 HD
ENDBRANCH   2  20
BRANCH   6  22
ATOM     22  O   UNL     1      18.192  21.865  15.875  1.00  0.00    -0.507 OA
ATOM     23  H   UNL     1      18.298  22.857  16.030  1.00  0.00     0.293 HD
ENDBRANCH   6  22
BRANCH   8  24
ATOM     24  O   UNL     1      19.590  17.345  16.590  1.00  0.00    -0.508 OA
ATOM     25  H   UNL     1      19.004  16.519  16.641  1.00  0.00     0.293 HD
ENDBRANCH   8  24
TORSDOF 5
ENDMDL
MODEL 3
REMARK VINA RESULT:    -6.421     10.092     12.394
REMARK INTER + INTRA:          -7.735
REMARK INTER:                  -7.695
REMARK INTRA:                  -0.040
REMARK UNBOUND:                -0.188
REMARK SMILES O=c1c(O)c(-c2ccc(O)cc2)oc2cc(O)cc(O)c12
REMARK SMILES IDX 5 1 3 2 2 3 1 4 21 5 19 6 18 7 16 8 15 9 14 10 13 11 6 12
REMARK SMILES IDX 7 13 8 14 9 15 12 16 11 17 10 18 4 20 20 22 17 24
REMARK H PARENT 10 19 4 21 20 23 17 25
REMARK Flexibility Score: inf
ROOT
ATOM      1  C   UNL     1      18.021  20.806  20.933  1.00  0.00     0.180 A 
ATOM      2  C   UNL     1      18.066  19.566  20.274  1.00  0.00     0.208 A 
ATOM      3  C   UNL     1      18.086  19.541  18.870  1.00  0.00     0.238 A 
ATOM      4  O   UNL     1      18.071  18.427  18.285  1.00  0.00    -0.285 OA
ATOM      5  C   UNL     1      18.077  20.756  18.144  1.00  0.00     0.111 A 
ATOM      6  C   UNL     1      18.136  20.850  16.721  1.00  0.00     0.134 A 
ATOM      7  C   UNL     1      17.988  22.099  16.104  1.00  0.00     0.093 A 
ATOM      8  C   UNL     1      17.851  23.263  16.860  1.00  0.00     0.123 A 
ATOM      9  C   UNL     1      17.853  23.189  18.253  1.00  0.00     0.094 A 
ATOM     10  C   UNL     1      17.961  21.954  18.897  1.00  0.00     0.146 A 
ATOM     11  O   UNL     1      17.948  21.927  20.224  1.00  0.00    -0.452 OA
ENDROOT
BRANCH   1  12
ATOM     12  C   UNL     1      18.023  20.915  22.410  1.00  0.00     0.021 A 
ATOM     13  C   UNL     1      16.968  21.542  23.100  1.00  0.00     0.016 A 
ATOM     14  C   UNL     1      16.980  21.611  24.496  1.00  0.00     0.047 A 
ATOM     15  C   UNL     1      18.033  21.046  25.221  1.00  0.00     0.115 A 
ATOM     16  C   UNL     1      19.067  20.330  23.146  1.00  0.00     0.016 A 
ATOM     17  C   UNL     1      19.076  20.403  24.543  1.00  0.00     0.047 A 
BRANCH  15  18
ATOM     18  O   UNL     1      18.032  21.123  26.612  1.00  0.00    -0.508 OA
ATOM     19  H   UNL     1      18.393  20.370  27.185  1.00  0.00     0.293 HD
ENDBRANCH  15  18
ENDBRANCH   1  12
BRANCH   2  20
ATOM     20  O   UNL     1      18.052  18.377  21.010  1.00  0.00    -0.502 OA
ATOM     21  H   UNL     1      17.276  18.114  21.604  1.00  0.00     0.293 HD
ENDBRANCH   2  20
BRANCH   6  22
ATOM     22  O   UNL     1      18.362  19.760  15.876  1.00  0.00    -0.507 OA
ATOM     23  H   UNL     1      19.238  19.562  15.415  1.00  0.00     0.293 HD
ENDBRANCH   6  22
BRANCH   8  24
ATOM     24  O   UNL     1      17.723  24.490  16.213  1.00  0.00    -0.508 OA
ATOM     25  H   UNL     1      16.819  24.836  15.908  1.00  0.00     0.293 HD
ENDBRANCH   8  24
TORSDOF 5
ENDMDL
MODEL 4
REMARK VINA RESULT:    -6.220     18.074     19.597
REMARK INTER + INTRA:          -7.498
REMARK INTER:                  -7.676
REMARK INTRA:                   0.178
REMARK UNBOUND:                -0.188
REMARK SMILES O=c1c(O)c(-c2ccc(O)cc2)oc2cc(O)cc(O)c12
REMARK SMILES IDX 5 1 3 2 2 3 1 4 21 5 19 6 18 7 16 8 15 9 14 10 13 11 6 12
REMARK SMILES IDX 7 13 8 14 9 15 12 16 11 17 10 18 4 20 20 22 17 24
REMARK H PARENT 10 19 4 21 20 23 17 25
REMARK Flexibility Score: inf
ROOT
ATOM      1  C   UNL     1      29.688  26.198  35.289  1.00  0.00     0.180 A 
ATOM      2  C   UNL     1      29.769  27.533  34.858  1.00  0.00     0.208 A 
ATOM      3  C   UNL     1      31.034  28.124  34.704  1.00  0.00     0.238 A 
ATOM      4  O   UNL     1      31.098  29.335  34.369  1.00  0.00    -0.285 OA
ATOM      5  C   UNL     1      32.201  27.368  34.968  1.00  0.00     0.111 A 
ATOM      6  C   UNL     1      33.533  27.853  34.807  1.00  0.00     0.134 A 
ATOM      7  C   UNL     1      34.612  27.061  35.223  1.00  0.00     0.093 A 
ATOM      8  C   UNL     1      34.409  25.779  35.732  1.00  0.00     0.123 A 
ATOM      9  C   UNL     1      33.113  25.272  35.838  1.00  0.00     0.094 A 
ATOM     10  C   UNL     1      32.015  26.052  35.466  1.00  0.00     0.146 A 
ATOM     11  O   UNL     1      30.799  25.536  35.592  1.00  0.00    -0.452 OA
ENDROOT
BRANCH   1  12
ATOM     12  C   UNL     1      28.393  25.499  35.451  1.00  0.00     0.021 A 
ATOM     13  C   UNL     1      27.274  26.149  36.004  1.00  0.00     0.016 A 
ATOM     14  C   UNL     1      26.054  25.476  36.125  1.00  0.00     0.047 A 
ATOM     15  C   UNL     1      25.932  24.154  35.685  1.00  0.00     0.115 A 
ATOM     16  C   UNL     1      28.257  24.179  34.991  1.00  0.00     0.016 A 
ATOM     17  C   UNL     1      27.036  23.508  35.115  1.00  0.00     0.047 A 
BRANCH  15  18
ATOM     18  O   UNL     1      24.711  23.496  35.813  1.00  0.00    -0.508 OA
ATOM     19  H   UNL     1      24.203  23.488  36.689  1.00  0.00     0.293 HD
ENDBRANCH  15  18
ENDBRANCH   1  12
BRANCH   2  20
ATOM     20  O   UNL     1      28.603  28.268  34.623  1.00  0.00    -0.502 OA
ATOM     21  H   UNL     1      28.292  28.512  33.691  1.00  0.00     0.293 HD
ENDBRANCH   2  20
BRANCH   6  22
ATOM     22  O   UNL     1      33.852  29.083  34.223  1.00  0.00    -0.507 OA
ATOM     23  H   UNL     1      33.366  29.489  33.437  1.00  0.00     0.293 HD
ENDBRANCH   6  22
BRANCH   8  24
ATOM     24  O   UNL     1      35.506  25.014  36.121  1.00  0.00    -0.508 OA
ATOM     25  H   UNL     1      35.918  24.324  35.502  1.00  0.00     0.293 HD
ENDBRANCH   8  24
TORSDOF 5
ENDMDL
MODEL 5
REMARK VINA RESULT:    -6.119      9.490     11.204
REMARK INTER + INTRA:          -7.379
REMARK INTER:                  -7.097
REMARK INTRA:                  -0.283
REMARK UNBOUND:                -0.188
REMARK SMILES O=c1c(O)c(-c2ccc(O)cc2)oc2cc(O)cc(O)c12
REMARK SMILES IDX 5 1 3 2 2 3 1 4 21 5 19 6 18 7 16 8 15 9 14 10 13 11 6 12
REMARK SMILES IDX 7 13 8 14 9 15 12 16 11 17 10 18 4 20 20 22 17 24
REMARK H PARENT 10 19 4 21 20 23 17 25
REMARK Flexibility Score: inf
ROOT
ATOM      1  C   UNL     1      31.862  34.905  20.891  1.00  0.00     0.180 A 
ATOM      2  C   UNL     1      33.061  34.481  20.292  1.00  0.00     0.208 A 
ATOM      3  C   UNL     1      33.172  34.514  18.893  1.00  0.00     0.238 A 
ATOM      4  O   UNL     1      34.228  34.082  18.360  1.00  0.00    -0.285 OA
ATOM      5  C   UNL     1      32.090  34.984  18.111  1.00  0.00     0.111 A 
ATOM      6  C   UNL     1      32.108  35.099  16.689  1.00  0.00     0.134 A 
ATOM      7  C   UNL     1      30.936  35.453  16.009  1.00  0.00     0.093 A 
ATOM      8  C   UNL     1      29.766  35.760  16.704  1.00  0.00     0.123 A 
ATOM      9  C   UNL     1      29.755  35.710  18.098  1.00  0.00     0.094 A 
ATOM     10  C   UNL     1      30.898  35.324  18.802  1.00  0.00     0.146 A 
ATOM     11  O   UNL     1      30.842  35.279  20.128  1.00  0.00    -0.452 OA
ENDROOT
BRANCH   1  12
ATOM     12  C   UNL     1      31.678  34.922  22.360  1.00  0.00     0.021 A 
ATOM     13  C   UNL     1      31.264  33.774  23.060  1.00  0.00     0.016 A 
ATOM     14  C   UNL     1      31.120  33.808  24.451  1.00  0.00     0.047 A 
ATOM     15  C   UNL     1      31.399  34.980  25.160  1.00  0.00     0.115 A 
ATOM     16  C   UNL     1      31.978  36.090  23.081  1.00  0.00     0.016 A 
ATOM     17  C   UNL     1      31.831  36.121  24.472  1.00  0.00     0.047 A 
BRANCH  15  18
ATOM     18  O   UNL     1      31.250  35.000  26.544  1.00  0.00    -0.508 OA
ATOM     19  H   UNL     1      31.642  35.745  27.109  1.00  0.00     0.293 HD
ENDBRANCH  15  18
ENDBRANCH   1  12
BRANCH   2  20
ATOM     20  O   UNL     1      34.110  33.999  21.082  1.00  0.00    -0.502 OA
ATOM     21  H   UNL     1      34.857  33.429  20.705  1.00  0.00     0.293 HD
ENDBRANCH   2  20
BRANCH   6  22
ATOM     22  O   UNL     1      33.249  34.904  15.904  1.00  0.00    -0.507 OA
ATOM     23  H   UNL     1      33.995  35.575  15.797  1.00  0.00     0.293 HD
ENDBRANCH   6  22
BRANCH   8  24
ATOM     24  O   UNL     1      28.623  36.124  15.996  1.00  0.00    -0.508 OA
ATOM     25  H   UNL     1      28.645  36.852  15.291  1.00  0.00     0.293 HD
ENDBRANCH   8  24
TORSDOF 5
ENDMDL
MODEL 6
REMARK VINA RESULT:    -5.826     17.944     19.207
REMARK INTER + INTRA:          -7.035
REMARK INTER:                  -7.095
REMARK INTRA:                   0.060
REMARK UNBOUND:                -0.188
REMARK SMILES O=c1c(O)c(-c2ccc(O)cc2)oc2cc(O)cc(O)c12
REMARK SMILES IDX 5 1 3 2 2 3 1 4 21 5 19 6 18 7 16 8 15 9 14 10 13 11 6 12
REMARK SMILES IDX 7 13 8 14 9 15 12 16 11 17 10 18 4 20 20 22 17 24
REMARK H PARENT 10 19 4 21 20 23 17 25
REMARK Flexibility Score: inf
ROOT
ATOM      1  C   UNL     1      28.534  25.285  35.364  1.00  0.00     0.180 A 
ATOM      2  C   UNL     1      29.670  24.498  35.617  1.00  0.00     0.208 A 
ATOM      3  C   UNL     1      30.937  25.102  35.589  1.00  0.00     0.238 A 
ATOM      4  O   UNL     1      31.954  24.381  35.763  1.00  0.00    -0.285 OA
ATOM      5  C   UNL     1      31.051  26.488  35.323  1.00  0.00     0.111 A 
ATOM      6  C   UNL     1      32.281  27.211  35.309  1.00  0.00     0.134 A 
ATOM      7  C   UNL     1      32.289  28.552  34.905  1.00  0.00     0.093 A 
ATOM      8  C   UNL     1      31.105  29.213  34.579  1.00  0.00     0.123 A 
ATOM      9  C   UNL     1      29.890  28.531  34.647  1.00  0.00     0.094 A 
ATOM     10  C   UNL     1      29.854  27.183  35.011  1.00  0.00     0.146 A 
ATOM     11  O   UNL     1      28.677  26.568  35.053  1.00  0.00    -0.452 OA
ENDROOT
BRANCH   1  12
ATOM     12  C   UNL     1      27.163  24.726  35.401  1.00  0.00     0.021 A 
ATOM     13  C   UNL     1      26.134  25.357  36.125  1.00  0.00     0.016 A 
ATOM     14  C   UNL     1      24.841  24.824  36.125  1.00  0.00     0.047 A 
ATOM     15  C   UNL     1      24.556  23.666  35.395  1.00  0.00     0.115 A 
ATOM     16  C   UNL     1      26.863  23.576  34.651  1.00  0.00     0.016 A 
ATOM     17  C   UNL     1      25.570  23.045  34.655  1.00  0.00     0.047 A 
BRANCH  15  18
ATOM     18  O   UNL     1      23.263  23.146  35.405  1.00  0.00    -0.508 OA
ATOM     19  H   UNL     1      22.830  22.788  34.562  1.00  0.00     0.293 HD
ENDBRANCH  15  18
ENDBRANCH   1  12
BRANCH   2  20
ATOM     20  O   UNL     1      29.536  23.127  35.856  1.00  0.00    -0.502 OA
ATOM     21  H   UNL     1      30.333  22.520  36.005  1.00  0.00     0.293 HD
ENDBRANCH   2  20
BRANCH   6  22
ATOM     22  O   UNL     1      33.509  26.672  35.706  1.00  0.00    -0.507 OA
ATOM     23  H   UNL     1      34.018  26.948  36.532  1.00  0.00     0.293 HD
ENDBRANCH   6  22
BRANCH   8  24
ATOM     24  O   UNL     1      31.149  30.551  34.196  1.00  0.00    -0.508 OA
ATOM     25  H   UNL     1      30.670  31.270  34.728  1.00  0.00     0.293 HD
ENDBRANCH   8  24
TORSDOF 5
ENDMDL
MODEL 7
REMARK VINA RESULT:    -5.816     10.716     14.592
REMARK INTER + INTRA:          -7.023
REMARK INTER:                  -6.739
REMARK INTRA:                  -0.285
REMARK UNBOUND:                -0.188
REMARK SMILES O=c1c(O)c(-c2ccc(O)cc2)oc2cc(O)cc(O)c12
REMARK SMILES IDX 5 1 3 2 2 3 1 4 21 5 19 6 18 7 16 8 15 9 14 10 13 11 6 12
REMARK SMILES IDX 7 13 8 14 9 15 12 16 11 17 10 18 4 20 20 22 17 24
REMARK H PARENT 10 19 4 21 20 23 17 25
REMARK Flexibility Score: inf
ROOT
ATOM      1  C   UNL     1      20.683  33.684  31.089  1.00  0.00     0.180 A 
ATOM      2  C   UNL     1      20.171  32.440  31.497  1.00  0.00     0.208 A 
ATOM      3  C   UNL     1      20.378  32.019  32.820  1.00  0.00     0.238 A 
ATOM      4  O   UNL     1      19.964  30.881  33.164  1.00  0.00    -0.285 OA
ATOM      5  C   UNL     1      21.079  32.853  33.724  1.00  0.00     0.111 A 
ATOM      6  C   UNL     1      21.310  32.545  35.097  1.00  0.00     0.134 A 
ATOM      7  C   UNL     1      22.130  33.383  35.865  1.00  0.00     0.093 A 
ATOM      8  C   UNL     1      22.670  34.551  35.327  1.00  0.00     0.123 A 
ATOM      9  C   UNL     1      22.400  34.892  34.002  1.00  0.00     0.094 A 
ATOM     10  C   UNL     1      21.617  34.058  33.200  1.00  0.00     0.146 A 
ATOM     11  O   UNL     1      21.393  34.415  31.941  1.00  0.00    -0.452 OA
ENDROOT
BRANCH   1  12
ATOM     12  C   UNL     1      20.485  34.208  29.719  1.00  0.00     0.021 A 
ATOM     13  C   UNL     1      19.434  35.094  29.417  1.00  0.00     0.016 A 
ATOM     14  C   UNL     1      19.281  35.594  28.121  1.00  0.00     0.047 A 
ATOM     15  C   UNL     1      20.180  35.230  27.114  1.00  0.00     0.115 A 
ATOM     16  C   UNL     1      21.397  33.863  28.707  1.00  0.00     0.016 A 
ATOM     17  C   UNL     1      21.241  34.365  27.411  1.00  0.00     0.047 A 
BRANCH  15  18
ATOM     18  O   UNL     1      20.015  35.735  25.827  1.00  0.00    -0.508 OA
ATOM     19  H   UNL     1      20.745  36.270  25.370  1.00  0.00     0.293 HD
ENDBRANCH  15  18
ENDBRANCH   1  12
BRANCH   2  20
ATOM     20  O   UNL     1      19.500  31.623  30.582  1.00  0.00    -0.502 OA
ATOM     21  H   UNL     1      19.984  30.966  29.983  1.00  0.00     0.293 HD
ENDBRANCH   2  20
BRANCH   6  22
ATOM     22  O   UNL     1      20.743  31.452  35.759  1.00  0.00    -0.507 OA
ATOM     23  H   UNL     1      20.649  31.371  36.760  1.00  0.00     0.293 HD
ENDBRANCH   6  22
BRANCH   8  24
ATOM     24  O   UNL     1      23.467  35.368  36.124  1.00  0.00    -0.508 OA
ATOM     25  H   UNL     1      23.149  35.700  37.029  1.00  0.00     0.293 HD
ENDBRANCH   8  24
TORSDOF 5
ENDMDL
MODEL 8
REMARK VINA RESULT:    -5.778      9.757     11.711
REMARK INTER + INTRA:          -6.979
REMARK INTER:                  -6.700
REMARK INTRA:                  -0.279
REMARK UNBOUND:                -0.188
REMARK SMILES O=c1c(O)c(-c2ccc(O)cc2)oc2cc(O)cc(O)c12
REMARK SMILES IDX 5 1 3 2 2 3 1 4 21 5 19 6 18 7 16 8 15 9 14 10 13 11 6 12
REMARK SMILES IDX 7 13 8 14 9 15 12 16 11 17 10 18 4 20 20 22 17 24
REMARK H PARENT 10 19 4 21 20 23 17 25
REMARK Flexibility Score: inf
ROOT
ATOM      1  C   UNL     1      31.917  34.975  21.050  1.00  0.00     0.180 A 
ATOM      2  C   UNL     1      30.954  35.505  20.174  1.00  0.00     0.208 A 
ATOM      3  C   UNL     1      31.191  35.454  18.791  1.00  0.00     0.238 A 
ATOM      4  O   UNL     1      30.350  35.978  18.014  1.00  0.00    -0.285 OA
ATOM      5  C   UNL     1      32.378  34.860  18.300  1.00  0.00     0.111 A 
ATOM      6  C   UNL     1      32.701  34.718  16.918  1.00  0.00     0.134 A 
ATOM      7  C   UNL     1      33.963  34.233  16.550  1.00  0.00     0.093 A 
ATOM      8  C   UNL     1      34.886  33.824  17.512  1.00  0.00     0.123 A 
ATOM      9  C   UNL     1      34.556  33.903  18.865  1.00  0.00     0.094 A 
ATOM     10  C   UNL     1      33.320  34.416  19.265  1.00  0.00     0.146 A 
ATOM     11  O   UNL     1      33.051  34.484  20.563  1.00  0.00    -0.452 OA
ENDROOT
BRANCH   1  12
ATOM     12  C   UNL     1      31.729  34.970  22.518  1.00  0.00     0.021 A 
ATOM     13  C   UNL     1      31.240  33.834  23.191  1.00  0.00     0.016 A 
ATOM     14  C   UNL     1      31.094  33.844  24.581  1.00  0.00     0.047 A 
ATOM     15  C   UNL     1      31.444  34.979  25.318  1.00  0.00     0.115 A 
ATOM     16  C   UNL     1      32.100  36.099  23.269  1.00  0.00     0.016 A 
ATOM     17  C   UNL     1      31.950  36.106  24.659  1.00  0.00     0.047 A 
BRANCH  15  18
ATOM     18  O   UNL     1      31.292  34.974  26.703  1.00  0.00    -0.508 OA
ATOM     19  H   UNL     1      31.862  34.383  27.297  1.00  0.00     0.293 HD
ENDBRANCH  15  18
ENDBRANCH   1  12
BRANCH   2  20
ATOM     20  O   UNL     1      29.798  36.107  20.681  1.00  0.00    -0.502 OA
ATOM     21  H   UNL     1      29.733  36.443  21.634  1.00  0.00     0.293 HD
ENDBRANCH   2  20
BRANCH   6  22
ATOM     22  O   UNL     1      31.817  35.011  15.875  1.00  0.00    -0.507 OA
ATOM     23  H   UNL     1      31.228  34.333  15.414  1.00  0.00     0.293 HD
ENDBRANCH   6  22
BRANCH   8  24
ATOM     24  O   UNL     1      36.125  33.332  17.109  1.00  0.00    -0.508 OA
ATOM     25  H   UNL     1      36.930  33.355  17.725  1.00  0.00     0.293 HD
ENDBRANCH   8  24
TORSDOF 5
ENDMDL
MODEL 9
REMARK VINA RESULT:    -5.740      1.722      3.481
REMARK INTER + INTRA:          -6.934
REMARK INTER:                  -7.281
REMARK INTRA:                   0.347
REMARK UNBOUND:                -0.188
REMARK SMILES O=c1c(O)c(-c2ccc(O)cc2)oc2cc(O)cc(O)c12
REMARK SMILES IDX 5 1 3 2 2 3 1 4 21 5 19 6 18 7 16 8 15 9 14 10 13 11 6 12
REMARK SMILES IDX 7 13 8 14 9 15 12 16 11 17 10 18 4 20 20 22 17 24
REMARK H PARENT 10 19 4 21 20 23 17 25
REMARK Flexibility Score: inf
ROOT
ATOM      1  C   UNL     1      22.374  31.719  18.558  1.00  0.00     0.180 A 
ATOM      2  C   UNL     1      22.364  32.103  19.910  1.00  0.00     0.208 A 
ATOM      3  C   UNL     1      21.624  33.234  20.290  1.00  0.00     0.238 A 
ATOM      4  O   UNL     1      21.662  33.604  21.493  1.00  0.00    -0.285 OA
ATOM      5  C   UNL     1      20.893  33.958  19.319  1.00  0.00     0.111 A 
ATOM      6  C   UNL     1      20.077  35.095  19.599  1.00  0.00     0.134 A 
ATOM      7  C   UNL     1      19.504  35.812  18.541  1.00  0.00     0.093 A 
ATOM      8  C   UNL     1      19.661  35.394  17.220  1.00  0.00     0.123 A 
ATOM      9  C   UNL     1      20.406  34.249  16.940  1.00  0.00     0.094 A 
ATOM     10  C   UNL     1      21.022  33.534  17.970  1.00  0.00     0.146 A 
ATOM     11  O   UNL     1      21.731  32.456  17.659  1.00  0.00    -0.452 OA
ENDROOT
BRANCH   1  12
ATOM     12  C   UNL     1      23.109  30.525  18.083  1.00  0.00     0.021 A 
ATOM     13  C   UNL     1      23.409  29.456  18.949  1.00  0.00     0.016 A 
ATOM     14  C   UNL     1      24.082  28.327  18.472  1.00  0.00     0.047 A 
ATOM     15  C   UNL     1      24.453  28.244  17.127  1.00  0.00     0.115 A 
ATOM     16  C   UNL     1      23.466  30.424  16.728  1.00  0.00     0.016 A 
ATOM     17  C   UNL     1      24.141  29.295  16.255  1.00  0.00     0.047 A 
BRANCH  15  18
ATOM     18  O   UNL     1      25.125  27.114  16.666  1.00  0.00    -0.508 OA
ATOM     19  H   UNL     1      25.596  26.481  17.302  1.00  0.00     0.293 HD
ENDBRANCH  15  18
ENDBRANCH   1  12
BRANCH   2  20
ATOM     20  O   UNL     1      23.111  31.386  20.850  1.00  0.00    -0.502 OA
ATOM     21  H   UNL     1      22.930  30.413  21.060  1.00  0.00     0.293 HD
ENDBRANCH   2  20
BRANCH   6  22
ATOM     22  O   UNL     1      19.780  35.543  20.890  1.00  0.00    -0.507 OA
ATOM     23  H   UNL     1      20.244  35.228  21.729  1.00  0.00     0.293 HD
ENDBRANCH   6  22
BRANCH   8  24
ATOM     24  O   UNL     1      19.063  36.122  16.194  1.00  0.00    -0.508 OA
ATOM     25  H   UNL     1      18.350  36.819  16.384  1.00  0.00     0.293 HD
ENDBRANCH   8  24
TORSDOF 5
ENDMDL
