MODEL 1
REMARK VINA RESULT:    -7.288      0.000      0.000
REMARK INTER + INTRA:          -8.862
REMARK INTER:                  -8.566
REMARK INTRA:                  -0.297
REMARK UNBOUND:                -0.297
REMARK SMILES O=c1cc(-c2ccc(O)c(O)c2)oc2cc(O)cc(O)c12
REMARK SMILES IDX 4 1 3 2 2 3 1 4 21 5 19 6 18 7 16 8 15 9 14 10 13 11 5 12
REMARK SMILES IDX 6 13 7 14 8 15 12 16 10 17 9 18 11 20 20 22 17 24
REMARK H PARENT 9 19 11 21 20 23 17 25
REMARK Flexibility Score: inf
ROOT
ATOM      1  C   UNL     1      11.730   9.018  11.139  1.00  0.00     0.138 A 
ATOM      2  C   UNL     1      12.367   9.614  10.042  1.00  0.00     0.100 A 
ATOM      3  C   UNL     1      12.497  11.002   9.989  1.00  0.00     0.197 A 
ATOM      4  O   UNL     1      13.127  11.504   9.024  1.00  0.00    -0.289 OA
ATOM      5  C   UNL     1      11.957  11.799  11.028  1.00  0.00     0.107 A 
ATOM      6  C   UNL     1      11.994  13.224  11.061  1.00  0.00     0.134 A 
ATOM      7  C   UNL     1      11.531  13.900  12.197  1.00  0.00     0.093 A 
ATOM      8  C   UNL     1      10.977  13.204  13.274  1.00  0.00     0.123 A 
ATOM      9  C   UNL     1      10.887  11.815  13.228  1.00  0.00     0.094 A 
ATOM     10  C   UNL     1      11.372  11.109  12.124  1.00  0.00     0.146 A 
ATOM     11  O   UNL     1      11.280   9.784  12.126  1.00  0.00    -0.456 OA
ENDROOT
BRANCH   1  12
ATOM     12  C   UNL     1      11.564   7.545  11.244  1.00  0.00     0.021 A 
ATOM     13  C   UNL     1      10.876   7.004  12.343  1.00  0.00     0.016 A 
ATOM     14  C   UNL     1      10.699   5.623  12.462  1.00  0.00     0.051 A 
ATOM     15  C   UNL     1      11.200   4.761  11.479  1.00  0.00     0.157 A 
ATOM     16  C   UNL     1      12.053   6.672  10.252  1.00  0.00     0.062 A 
ATOM     17  C   UNL     1      11.874   5.287  10.370  1.00  0.00     0.158 A 
BRANCH  15  18
ATOM     18  O   UNL     1      11.027   3.383  11.594  1.00  0.00    -0.504 OA
ATOM     19  H   UNL     1      11.761   2.734  11.340  1.00  0.00     0.293 HD
ENDBRANCH  15  18
BRANCH  17  20
ATOM     20  O   UNL     1      12.361   4.426   9.388  1.00  0.00    -0.504 OA
ATOM     21  H   UNL     1      11.738   3.906   8.781  1.00  0.00     0.293 HD
ENDBRANCH  17  20
ENDBRANCH   1  12
BRANCH   6  22
ATOM     22  O   UNL     1      12.447  14.018  10.004  1.00  0.00    -0.507 OA
ATOM     23  H   UNL     1      12.684  14.996  10.078  1.00  0.00     0.293 HD
ENDBRANCH   6  22
BRANCH   8  24
ATOM     24  O   UNL     1      10.504  13.886  14.394  1.00  0.00    -0.508 OA
ATOM     25  H   UNL     1       9.514  14.043  14.540  1.00  0.00     0.293 HD
ENDBRANCH   8  24
TORSDOF 5
ENDMDL
MODEL 2
REMARK VINA RESULT:    -7.281      1.574      7.443
REMARK INTER + INTRA:          -8.855
REMARK INTER:                  -8.537
REMARK INTRA:                  -0.318
REMARK UNBOUND:                -0.297
REMARK SMILES O=c1cc(-c2ccc(O)c(O)c2)oc2cc(O)cc(O)c12
REMARK SMILES IDX 4 1 3 2 2 3 1 4 21 5 19 6 18 7 16 8 15 9 14 10 13 11 5 12
REMARK SMILES IDX 6 13 7 14 8 15 12 16 10 17 9 18 11 20 20 22 17 24
REMARK H PARENT 9 19 11 21 20 23 17 25
REMARK Flexibility Score: inf
ROOT
ATOM      1  C   UNL     1      11.349   8.158  11.711  1.00  0.00     0.138 A 
ATOM      2  C   UNL     1      10.597   7.794  12.837  1.00  0.00     0.100 A 
ATOM      3  C   UNL     1      10.390   6.444  13.121  1.00  0.00     0.197 A 
ATOM      4  O   UNL     1       9.765   6.147  14.171  1.00  0.00    -0.289 OA
ATOM      5  C   UNL     1      10.915   5.454  12.255  1.00  0.00     0.107 A 
ATOM      6  C   UNL     1      10.732   4.049  12.423  1.00  0.00     0.134 A 
ATOM      7  C   UNL     1      11.396   3.161  11.567  1.00  0.00     0.093 A 
ATOM      8  C   UNL     1      12.186   3.629  10.513  1.00  0.00     0.123 A 
ATOM      9  C   UNL     1      12.326   4.999  10.309  1.00  0.00     0.094 A 
ATOM     10  C   UNL     1      11.705   5.911  11.167  1.00  0.00     0.146 A 
ATOM     11  O   UNL     1      11.876   7.210  10.945  1.00  0.00    -0.456 OA
ENDROOT
BRANCH   1  12
ATOM     12  C   UNL     1      11.599   9.580  11.361  1.00  0.00     0.021 A 
ATOM     13  C   UNL     1      11.057  10.596  12.168  1.00  0.00     0.016 A 
ATOM     14  C   UNL     1      11.283  11.941  11.866  1.00  0.00     0.051 A 
ATOM     15  C   UNL     1      12.062  12.294  10.757  1.00  0.00     0.157 A 
ATOM     16  C   UNL     1      12.393   9.942  10.255  1.00  0.00     0.062 A 
ATOM     17  C   UNL     1      12.621  11.292   9.953  1.00  0.00     0.158 A 
BRANCH  15  18
ATOM     18  O   UNL     1      12.289  13.634  10.451  1.00  0.00    -0.504 OA
ATOM     19  H   UNL     1      12.242  14.355  11.161  1.00  0.00     0.293 HD
ENDBRANCH  15  18
BRANCH  17  20
ATOM     20  O   UNL     1      13.405  11.647   8.856  1.00  0.00    -0.504 OA
ATOM     21  H   UNL     1      14.242  11.130   8.613  1.00  0.00     0.293 HD
ENDBRANCH  17  20
ENDBRANCH   1  12
BRANCH   6  22
ATOM     22  O   UNL     1       9.898   3.479  13.389  1.00  0.00    -0.507 OA
ATOM     23  H   UNL     1       9.733   2.491  13.497  1.00  0.00     0.293 HD
ENDBRANCH   6  22
BRANCH   8  24
ATOM     24  O   UNL     1      12.830   2.737   9.658  1.00  0.00    -0.508 OA
ATOM     25  H   UNL     1      13.004   1.776   9.928  1.00  0.00     0.293 HD
ENDBRANCH   8  24
TORSDOF 5
ENDMDL
MODEL 3
REMARK VINA RESULT:    -7.062      1.749      3.642
REMARK INTER + INTRA:          -8.597
REMARK INTER:                  -8.331
REMARK INTRA:                  -0.266
REMARK UNBOUND:                -0.297
REMARK SMILES O=c1cc(-c2ccc(O)c(O)c2)oc2cc(O)cc(O)c12
REMARK SMILES IDX 4 1 3 2 2 3 1 4 21 5 19 6 18 7 16 8 15 9 14 10 13 11 5 12
REMARK SMILES IDX 6 13 7 14 8 15 12 16 10 17 9 18 11 20 20 22 17 24
REMARK H PARENT 9 19 11 21 20 23 17 25
REMARK Flexibility Score: inf
ROOT
ATOM      1  C   UNL     1      11.403   6.690  11.009  1.00  0.00     0.138 A 
ATOM      2  C   UNL     1      10.774   7.015  12.218  1.00  0.00     0.100 A 
ATOM      3  C   UNL     1      10.741   8.344  12.644  1.00  0.00     0.197 A 
ATOM      4  O   UNL     1      10.116   8.613  13.702  1.00  0.00    -0.289 OA
ATOM      5  C   UNL     1      11.370   9.347  11.868  1.00  0.00     0.107 A 
ATOM      6  C   UNL     1      11.435  10.726  12.224  1.00  0.00     0.134 A 
ATOM      7  C   UNL     1      11.982  11.646  11.320  1.00  0.00     0.093 A 
ATOM      8  C   UNL     1      12.521  11.227  10.101  1.00  0.00     0.123 A 
ATOM      9  C   UNL     1      12.511   9.874   9.769  1.00  0.00     0.094 A 
ATOM     10  C   UNL     1      11.940   8.936  10.634  1.00  0.00     0.146 A 
ATOM     11  O   UNL     1      11.938   7.658  10.272  1.00  0.00    -0.456 OA
ENDROOT
BRANCH   1  12
ATOM     12  C   UNL     1      11.468   5.293  10.509  1.00  0.00     0.021 A 
ATOM     13  C   UNL     1      10.525   4.851   9.565  1.00  0.00     0.016 A 
ATOM     14  C   UNL     1      10.569   3.545   9.073  1.00  0.00     0.051 A 
ATOM     15  C   UNL     1      11.561   2.659   9.510  1.00  0.00     0.157 A 
ATOM     16  C   UNL     1      12.473   4.400  10.934  1.00  0.00     0.062 A 
ATOM     17  C   UNL     1      12.517   3.089  10.439  1.00  0.00     0.158 A 
BRANCH  15  18
ATOM     18  O   UNL     1      11.608   1.354   9.023  1.00  0.00    -0.504 OA
ATOM     19  H   UNL     1      12.112   1.123   8.176  1.00  0.00     0.293 HD
ENDBRANCH  15  18
BRANCH  17  20
ATOM     20  O   UNL     1      13.511   2.209  10.864  1.00  0.00    -0.504 OA
ATOM     21  H   UNL     1      14.339   2.035  10.307  1.00  0.00     0.293 HD
ENDBRANCH  17  20
ENDBRANCH   1  12
BRANCH   6  22
ATOM     22  O   UNL     1      11.004  11.238  13.451  1.00  0.00    -0.507 OA
ATOM     23  H   UNL     1      11.556  11.826  14.057  1.00  0.00     0.293 HD
ENDBRANCH   6  22
BRANCH   8  24
ATOM     24  O   UNL     1      13.077  12.147   9.216  1.00  0.00    -0.508 OA
ATOM     25  H   UNL     1      13.327  11.887   8.268  1.00  0.00     0.293 HD
ENDBRANCH   8  24
TORSDOF 5
ENDMDL
MODEL 4
REMARK VINA RESULT:    -7.031      2.478      8.286
REMARK INTER + INTRA:          -8.561
REMARK INTER:                  -8.297
REMARK INTRA:                  -0.263
REMARK UNBOUND:                -0.297
REMARK SMILES O=c1cc(-c2ccc(O)c(O)c2)oc2cc(O)cc(O)c12
REMARK SMILES IDX 4 1 3 2 2 3 1 4 21 5 19 6 18 7 16 8 15 9 14 10 13 11 5 12
REMARK SMILES IDX 6 13 7 14 8 15 12 16 10 17 9 18 11 20 20 22 17 24
REMARK H PARENT 9 19 11 21 20 23 17 25
REMARK Flexibility Score: inf
ROOT
ATOM      1  C   UNL     1      11.769   5.832  10.732  1.00  0.00     0.138 A 
ATOM      2  C   UNL     1      12.840   5.082  11.238  1.00  0.00     0.100 A 
ATOM      3  C   UNL     1      12.896   3.709  10.994  1.00  0.00     0.197 A 
ATOM      4  O   UNL     1      13.900   3.073  11.408  1.00  0.00    -0.289 OA
ATOM      5  C   UNL     1      11.857   3.081  10.265  1.00  0.00     0.107 A 
ATOM      6  C   UNL     1      11.790   1.683   9.991  1.00  0.00     0.134 A 
ATOM      7  C   UNL     1      10.775   1.191   9.161  1.00  0.00     0.093 A 
ATOM      8  C   UNL     1       9.791   2.040   8.645  1.00  0.00     0.123 A 
ATOM      9  C   UNL     1       9.819   3.398   8.951  1.00  0.00     0.094 A 
ATOM     10  C   UNL     1      10.839   3.924   9.748  1.00  0.00     0.146 A 
ATOM     11  O   UNL     1      10.836   5.228  10.005  1.00  0.00    -0.456 OA
ENDROOT
BRANCH   1  12
ATOM     12  C   UNL     1      11.659   7.296  10.963  1.00  0.00     0.021 A 
ATOM     13  C   UNL     1      12.203   8.187  10.022  1.00  0.00     0.016 A 
ATOM     14  C   UNL     1      12.106   9.567  10.211  1.00  0.00     0.051 A 
ATOM     15  C   UNL     1      11.456  10.081  11.340  1.00  0.00     0.157 A 
ATOM     16  C   UNL     1      10.995   7.820  12.090  1.00  0.00     0.062 A 
ATOM     17  C   UNL     1      10.896   9.205  12.279  1.00  0.00     0.158 A 
BRANCH  15  18
ATOM     18  O   UNL     1      11.358  11.458  11.534  1.00  0.00    -0.504 OA
ATOM     19  H   UNL     1      10.646  11.859  12.131  1.00  0.00     0.293 HD
ENDBRANCH  15  18
BRANCH  17  20
ATOM     20  O   UNL     1      10.240   9.720  13.396  1.00  0.00    -0.504 OA
ATOM     21  H   UNL     1       9.232   9.806  13.426  1.00  0.00     0.293 HD
ENDBRANCH  17  20
ENDBRANCH   1  12
BRANCH   6  22
ATOM     22  O   UNL     1      12.670   0.738  10.525  1.00  0.00    -0.507 OA
ATOM     23  H   UNL     1      12.392  -0.122  10.973  1.00  0.00     0.293 HD
ENDBRANCH   6  22
BRANCH   8  24
ATOM     24  O   UNL     1       8.776   1.540   7.832  1.00  0.00    -0.508 OA
ATOM     25  H   UNL     1       8.333   2.114   7.123  1.00  0.00     0.293 HD
ENDBRANCH   8  24
TORSDOF 5
ENDMDL
MODEL 5
REMARK VINA RESULT:    -6.966      1.507      6.760
REMARK INTER + INTRA:          -8.484
REMARK INTER:                  -8.187
REMARK INTRA:                  -0.297
REMARK UNBOUND:                -0.297
REMARK SMILES O=c1cc(-c2ccc(O)c(O)c2)oc2cc(O)cc(O)c12
REMARK SMILES IDX 4 1 3 2 2 3 1 4 21 5 19 6 18 7 16 8 15 9 14 10 13 11 5 12
REMARK SMILES IDX 6 13 7 14 8 15 12 16 10 17 9 18 11 20 20 22 17 24
REMARK H PARENT 9 19 11 21 20 23 17 25
REMARK Flexibility Score: inf
ROOT
ATOM      1  C   UNL     1      11.607   8.547  11.376  1.00  0.00     0.138 A 
ATOM      2  C   UNL     1      12.001   7.543  10.482  1.00  0.00     0.100 A 
ATOM      3  C   UNL     1      11.791   6.203  10.810  1.00  0.00     0.197 A 
ATOM      4  O   UNL     1      12.099   5.328   9.962  1.00  0.00    -0.289 OA
ATOM      5  C   UNL     1      11.210   5.868  12.057  1.00  0.00     0.107 A 
ATOM      6  C   UNL     1      10.985   4.536  12.516  1.00  0.00     0.134 A 
ATOM      7  C   UNL     1      10.296   4.328  13.717  1.00  0.00     0.093 A 
ATOM      8  C   UNL     1       9.878   5.404  14.505  1.00  0.00     0.123 A 
ATOM      9  C   UNL     1      10.141   6.708  14.091  1.00  0.00     0.094 A 
ATOM     10  C   UNL     1      10.795   6.949  12.880  1.00  0.00     0.146 A 
ATOM     11  O   UNL     1      11.014   8.207  12.516  1.00  0.00    -0.456 OA
ENDROOT
BRANCH   1  12
ATOM     12  C   UNL     1      11.808   9.988  11.077  1.00  0.00     0.021 A 
ATOM     13  C   UNL     1      11.359  10.954  11.994  1.00  0.00     0.016 A 
ATOM     14  C   UNL     1      11.543  12.315  11.740  1.00  0.00     0.051 A 
ATOM     15  C   UNL     1      12.187  12.734  10.569  1.00  0.00     0.157 A 
ATOM     16  C   UNL     1      12.467  10.416   9.908  1.00  0.00     0.062 A 
ATOM     17  C   UNL     1      12.653  11.782   9.653  1.00  0.00     0.158 A 
BRANCH  15  18
ATOM     18  O   UNL     1      12.372  14.091  10.311  1.00  0.00    -0.504 OA
ATOM     19  H   UNL     1      11.825  14.799  10.786  1.00  0.00     0.293 HD
ENDBRANCH  15  18
BRANCH  17  20
ATOM     20  O   UNL     1      13.304  12.202   8.494  1.00  0.00    -0.504 OA
ATOM     21  H   UNL     1      14.114  12.809   8.531  1.00  0.00     0.293 HD
ENDBRANCH  17  20
ENDBRANCH   1  12
BRANCH   6  22
ATOM     22  O   UNL     1      11.436   3.394  11.849  1.00  0.00    -0.507 OA
ATOM     23  H   UNL     1      11.340   3.227  10.859  1.00  0.00     0.293 HD
ENDBRANCH   6  22
BRANCH   8  24
ATOM     24  O   UNL     1       9.206   5.187  15.706  1.00  0.00    -0.508 OA
ATOM     25  H   UNL     1       9.000   4.251  16.036  1.00  0.00     0.293 HD
ENDBRANCH   8  24
TORSDOF 5
ENDMDL
MODEL 6
REMARK VINA RESULT:    -6.896      1.171      2.709
REMARK INTER + INTRA:          -8.402
REMARK INTER:                  -8.085
REMARK INTRA:                  -0.317
REMARK UNBOUND:                -0.297
REMARK SMILES O=c1cc(-c2ccc(O)c(O)c2)oc2cc(O)cc(O)c12
REMARK SMILES IDX 4 1 3 2 2 3 1 4 21 5 19 6 18 7 16 8 15 9 14 10 13 11 5 12
REMARK SMILES IDX 6 13 7 14 8 15 12 16 10 17 9 18 11 20 20 22 17 24
REMARK H PARENT 9 19 11 21 20 23 17 25
REMARK Flexibility Score: inf
ROOT
ATOM      1  C   UNL     1      11.331   8.431  11.540  1.00  0.00     0.138 A 
ATOM      2  C   UNL     1      10.614   9.082  12.553  1.00  0.00     0.100 A 
ATOM      3  C   UNL     1      10.584  10.477  12.592  1.00  0.00     0.197 A 
ATOM      4  O   UNL     1       9.882  11.032  13.476  1.00  0.00    -0.289 OA
ATOM      5  C   UNL     1      11.304  11.222  11.627  1.00  0.00     0.107 A 
ATOM      6  C   UNL     1      11.379  12.646  11.592  1.00  0.00     0.134 A 
ATOM      7  C   UNL     1      12.024  13.277  10.521  1.00  0.00     0.093 A 
ATOM      8  C   UNL     1      12.650  12.533   9.517  1.00  0.00     0.123 A 
ATOM      9  C   UNL     1      12.627  11.141   9.571  1.00  0.00     0.094 A 
ATOM     10  C   UNL     1      11.961  10.483  10.608  1.00  0.00     0.146 A 
ATOM     11  O   UNL     1      11.952   9.154  10.615  1.00  0.00    -0.456 OA
ENDROOT
BRANCH   1  12
ATOM     12  C   UNL     1      11.396   6.950  11.453  1.00  0.00     0.021 A 
ATOM     13  C   UNL     1      10.847   6.171  12.486  1.00  0.00     0.016 A 
ATOM     14  C   UNL     1      10.888   4.777  12.425  1.00  0.00     0.051 A 
ATOM     15  C   UNL     1      11.471   4.136  11.325  1.00  0.00     0.157 A 
ATOM     16  C   UNL     1      11.969   6.298  10.342  1.00  0.00     0.062 A 
ATOM     17  C   UNL     1      12.009   4.898  10.280  1.00  0.00     0.158 A 
BRANCH  15  18
ATOM     18  O   UNL     1      11.516   2.744  11.260  1.00  0.00    -0.504 OA
ATOM     19  H   UNL     1      10.787   2.212  10.802  1.00  0.00     0.293 HD
ENDBRANCH  15  18
BRANCH  17  20
ATOM     20  O   UNL     1      12.579   4.256   9.182  1.00  0.00    -0.504 OA
ATOM     21  H   UNL     1      12.051   4.087   8.334  1.00  0.00     0.293 HD
ENDBRANCH  17  20
ENDBRANCH   1  12
BRANCH   6  22
ATOM     22  O   UNL     1      10.863  13.480  12.588  1.00  0.00    -0.507 OA
ATOM     23  H   UNL     1      11.158  13.478  13.553  1.00  0.00     0.293 HD
ENDBRANCH   6  22
BRANCH   8  24
ATOM     24  O   UNL     1      13.303  13.169   8.464  1.00  0.00    -0.508 OA
ATOM     25  H   UNL     1      14.034  13.851   8.628  1.00  0.00     0.293 HD
ENDBRANCH   8  24
TORSDOF 5
ENDMDL
MODEL 7
REMARK VINA RESULT:    -6.760      2.723      8.464
REMARK INTER + INTRA:          -8.242
REMARK INTER:                  -7.938
REMARK INTRA:                  -0.304
REMARK UNBOUND:                -0.297
REMARK SMILES O=c1cc(-c2ccc(O)c(O)c2)oc2cc(O)cc(O)c12
REMARK SMILES IDX 4 1 3 2 2 3 1 4 21 5 19 6 18 7 16 8 15 9 14 10 13 11 5 12
REMARK SMILES IDX 6 13 7 14 8 15 12 16 10 17 9 18 11 20 20 22 17 24
REMARK H PARENT 9 19 11 21 20 23 17 25
REMARK Flexibility Score: inf
ROOT
ATOM      1  C   UNL     1      12.006   5.006  11.305  1.00  0.00     0.138 A 
ATOM      2  C   UNL     1      11.978   4.250  10.125  1.00  0.00     0.100 A 
ATOM      3  C   UNL     1      12.175   2.869  10.185  1.00  0.00     0.197 A 
ATOM      4  O   UNL     1      12.083   2.210   9.118  1.00  0.00    -0.289 OA
ATOM      5  C   UNL     1      12.431   2.248  11.432  1.00  0.00     0.107 A 
ATOM      6  C   UNL     1      12.686   0.856  11.607  1.00  0.00     0.134 A 
ATOM      7  C   UNL     1      12.810   0.336  12.902  1.00  0.00     0.093 A 
ATOM      8  C   UNL     1      12.750   1.169  14.023  1.00  0.00     0.123 A 
ATOM      9  C   UNL     1      12.555   2.538  13.857  1.00  0.00     0.094 A 
ATOM     10  C   UNL     1      12.392   3.082  12.581  1.00  0.00     0.146 A 
ATOM     11  O   UNL     1      12.195   4.391  12.468  1.00  0.00    -0.456 OA
ENDROOT
BRANCH   1  12
ATOM     12  C   UNL     1      11.805   6.477  11.299  1.00  0.00     0.021 A 
ATOM     13  C   UNL     1      12.247   7.231  10.198  1.00  0.00     0.016 A 
ATOM     14  C   UNL     1      12.062   8.615  10.164  1.00  0.00     0.051 A 
ATOM     15  C   UNL     1      11.425   9.269  11.225  1.00  0.00     0.157 A 
ATOM     16  C   UNL     1      11.152   7.140  12.357  1.00  0.00     0.062 A 
ATOM     17  C   UNL     1      10.965   8.529  12.322  1.00  0.00     0.158 A 
BRANCH  15  18
ATOM     18  O   UNL     1      11.240  10.650  11.195  1.00  0.00    -0.504 OA
ATOM     19  H   UNL     1      11.471  11.197  10.375  1.00  0.00     0.293 HD
ENDBRANCH  15  18
BRANCH  17  20
ATOM     20  O   UNL     1      10.321   9.181  13.372  1.00  0.00    -0.504 OA
ATOM     21  H   UNL     1       9.326   9.077  13.530  1.00  0.00     0.293 HD
ENDBRANCH  17  20
ENDBRANCH   1  12
BRANCH   6  22
ATOM     22  O   UNL     1      12.849  -0.048  10.554  1.00  0.00    -0.507 OA
ATOM     23  H   UNL     1      12.388  -0.942  10.484  1.00  0.00     0.293 HD
ENDBRANCH   6  22
BRANCH   8  24
ATOM     24  O   UNL     1      12.890   0.645  15.306  1.00  0.00    -0.508 OA
ATOM     25  H   UNL     1      12.790  -0.347  15.487  1.00  0.00     0.293 HD
ENDBRANCH   8  24
TORSDOF 5
ENDMDL
MODEL 8
REMARK VINA RESULT:    -6.609      2.368      4.809
REMARK INTER + INTRA:          -8.065
REMARK INTER:                  -7.789
REMARK INTRA:                  -0.276
REMARK UNBOUND:                -0.297
REMARK SMILES O=c1cc(-c2ccc(O)c(O)c2)oc2cc(O)cc(O)c12
REMARK SMILES IDX 4 1 3 2 2 3 1 4 21 5 19 6 18 7 16 8 15 9 14 10 13 11 5 12
REMARK SMILES IDX 6 13 7 14 8 15 12 16 10 17 9 18 11 20 20 22 17 24
REMARK H PARENT 9 19 11 21 20 23 17 25
REMARK Flexibility Score: inf
ROOT
ATOM      1  C   UNL     1      11.518   5.171  11.822  1.00  0.00     0.138 A 
ATOM      2  C   UNL     1      10.774   5.467  12.973  1.00  0.00     0.100 A 
ATOM      3  C   UNL     1      10.469   6.795  13.275  1.00  0.00     0.197 A 
ATOM      4  O   UNL     1       9.748   7.025  14.279  1.00  0.00    -0.289 OA
ATOM      5  C   UNL     1      10.938   7.834  12.434  1.00  0.00     0.107 A 
ATOM      6  C   UNL     1      10.722   9.224  12.665  1.00  0.00     0.134 A 
ATOM      7  C   UNL     1      11.134  10.155  11.702  1.00  0.00     0.093 A 
ATOM      8  C   UNL     1      11.807   9.747  10.547  1.00  0.00     0.123 A 
ATOM      9  C   UNL     1      12.070   8.396  10.340  1.00  0.00     0.094 A 
ATOM     10  C   UNL     1      11.641   7.440  11.264  1.00  0.00     0.146 A 
ATOM     11  O   UNL     1      11.900   6.160  11.021  1.00  0.00    -0.456 OA
ENDROOT
BRANCH   1  12
ATOM     12  C   UNL     1      11.872   3.776  11.455  1.00  0.00     0.021 A 
ATOM     13  C   UNL     1      11.666   3.334  10.137  1.00  0.00     0.016 A 
ATOM     14  C   UNL     1      11.997   2.030   9.764  1.00  0.00     0.051 A 
ATOM     15  C   UNL     1      12.551   1.147  10.700  1.00  0.00     0.157 A 
ATOM     16  C   UNL     1      12.442   2.887  12.388  1.00  0.00     0.062 A 
ATOM     17  C   UNL     1      12.777   1.578  12.013  1.00  0.00     0.158 A 
BRANCH  15  18
ATOM     18  O   UNL     1      12.882  -0.156  10.332  1.00  0.00    -0.504 OA
ATOM     19  H   UNL     1      12.257  -0.932  10.511  1.00  0.00     0.293 HD
ENDBRANCH  15  18
BRANCH  17  20
ATOM     20  O   UNL     1      13.338   0.700  12.939  1.00  0.00    -0.504 OA
ATOM     21  H   UNL     1      14.312   0.427  12.889  1.00  0.00     0.293 HD
ENDBRANCH  17  20
ENDBRANCH   1  12
BRANCH   6  22
ATOM     22  O   UNL     1      10.136   9.743  13.823  1.00  0.00    -0.507 OA
ATOM     23  H   UNL     1      10.278   9.380  14.753  1.00  0.00     0.293 HD
ENDBRANCH   6  22
BRANCH   8  24
ATOM     24  O   UNL     1      12.227  10.682   9.603  1.00  0.00    -0.508 OA
ATOM     25  H   UNL     1      12.446  11.636   9.863  1.00  0.00     0.293 HD
ENDBRANCH   8  24
TORSDOF 5
ENDMDL
MODEL 9
REMARK VINA RESULT:    -6.333      2.762      6.895
REMARK INTER + INTRA:          -7.740
REMARK INTER:                  -7.423
REMARK INTRA:                  -0.317
REMARK UNBOUND:                -0.297
REMARK SMILES O=c1cc(-c2ccc(O)c(O)c2)oc2cc(O)cc(O)c12
REMARK SMILES IDX 4 1 3 2 2 3 1 4 21 5 19 6 18 7 16 8 15 9 14 10 13 11 5 12
REMARK SMILES IDX 6 13 7 14 8 15 12 16 10 17 9 18 11 20 20 22 17 24
REMARK H PARENT 9 19 11 21 20 23 17 25
REMARK Flexibility Score: inf
ROOT
ATOM      1  C   UNL     1      10.720  12.686  14.010  1.00  0.00     0.138 A 
ATOM      2  C   UNL     1      11.203  13.737  13.219  1.00  0.00     0.100 A 
ATOM      3  C   UNL     1      11.751  13.462  11.965  1.00  0.00     0.197 A 
ATOM      4  O   UNL     1      12.120  14.431  11.253  1.00  0.00    -0.289 OA
ATOM      5  C   UNL     1      11.843  12.122  11.516  1.00  0.00     0.107 A 
ATOM      6  C   UNL     1      12.419  11.720  10.275  1.00  0.00     0.134 A 
ATOM      7  C   UNL     1      12.348  10.377   9.885  1.00  0.00     0.093 A 
ATOM      8  C   UNL     1      11.777   9.413  10.720  1.00  0.00     0.123 A 
ATOM      9  C   UNL     1      11.261   9.788  11.958  1.00  0.00     0.094 A 
ATOM     10  C   UNL     1      11.284  11.126  12.360  1.00  0.00     0.146 A 
ATOM     11  O   UNL     1      10.768  11.443  13.542  1.00  0.00    -0.456 OA
ENDROOT
BRANCH   1  12
ATOM     12  C   UNL     1      10.129  12.922  15.352  1.00  0.00     0.021 A 
ATOM     13  C   UNL     1      10.188  14.207  15.917  1.00  0.00     0.016 A 
ATOM     14  C   UNL     1       9.633  14.458  17.174  1.00  0.00     0.051 A 
ATOM     15  C   UNL     1       9.000  13.430  17.884  1.00  0.00     0.157 A 
ATOM     16  C   UNL     1       9.478  11.896  16.066  1.00  0.00     0.062 A 
ATOM     17  C   UNL     1       8.919  12.148  17.327  1.00  0.00     0.158 A 
BRANCH  15  18
ATOM     18  O   UNL     1       8.445  13.676  19.138  1.00  0.00    -0.504 OA
ATOM     19  H   UNL     1       7.469  13.488  19.332  1.00  0.00     0.293 HD
ENDBRANCH  15  18
BRANCH  17  20
ATOM     20  O   UNL     1       8.278  11.130  18.030  1.00  0.00    -0.504 OA
ATOM     21  H   UNL     1       7.488  10.631  17.640  1.00  0.00     0.293 HD
ENDBRANCH  17  20
ENDBRANCH   1  12
BRANCH   6  22
ATOM     22  O   UNL     1      13.088  12.587   9.406  1.00  0.00    -0.507 OA
ATOM     23  H   UNL     1      13.177  13.583   9.540  1.00  0.00     0.293 HD
ENDBRANCH   6  22
BRANCH   8  24
ATOM     24  O   UNL     1      11.726   8.076  10.331  1.00  0.00    -0.508 OA
ATOM     25  H   UNL     1      11.205   7.389  10.863  1.00  0.00     0.293 HD
ENDBRANCH   8  24
TORSDOF 5
ENDMDL
