MODEL 1
REMARK VINA RESULT:    -6.211      0.000      0.000
REMARK INTER + INTRA:          -7.816
REMARK INTER:                  -7.482
REMARK INTRA:                  -0.333
REMARK UNBOUND:                -0.333
REMARK SMILES O=c1c(O)c(-c2ccc(O)c(O)c2)oc2cc(O)cc(O)c12
REMARK SMILES IDX 5 1 3 2 2 3 1 4 22 5 20 6 19 7 17 8 16 9 15 10 14 11 6 12
REMARK SMILES IDX 7 13 8 14 9 15 13 16 11 17 10 18 12 20 4 22 21 24 18 26
REMARK H PARENT 10 19 12 21 4 23 21 25 18 27
REMARK Flexibility Score: inf
ROOT
ATOM      1  C   UNL     1      27.870  24.471  34.805  1.00  0.00     0.180 A 
ATOM      2  C   UNL     1      26.535  24.761  35.137  1.00  0.00     0.208 A 
ATOM      3  C   UNL     1      25.668  23.703  35.458  1.00  0.00     0.238 A 
ATOM      4  O   UNL     1      24.461  23.964  35.700  1.00  0.00    -0.285 OA
ATOM      5  C   UNL     1      26.151  22.372  35.459  1.00  0.00     0.111 A 
ATOM      6  C   UNL     1      25.371  21.228  35.808  1.00  0.00     0.134 A 
ATOM      7  C   UNL     1      25.915  19.947  35.647  1.00  0.00     0.093 A 
ATOM      8  C   UNL     1      27.230  19.772  35.214  1.00  0.00     0.123 A 
ATOM      9  C   UNL     1      28.020  20.886  34.928  1.00  0.00     0.094 A 
ATOM     10  C   UNL     1      27.493  22.175  35.043  1.00  0.00     0.146 A 
ATOM     11  O   UNL     1      28.274  23.207  34.751  1.00  0.00    -0.452 OA
ENDROOT
BRANCH   1  12
ATOM     12  C   UNL     1      28.848  25.534  34.480  1.00  0.00     0.025 A 
ATOM     13  C   UNL     1      29.592  26.176  35.484  1.00  0.00     0.016 A 
ATOM     14  C   UNL     1      30.528  27.158  35.151  1.00  0.00     0.051 A 
ATOM     15  C   UNL     1      30.743  27.506  33.811  1.00  0.00     0.157 A 
ATOM     16  C   UNL     1      29.083  25.870  33.136  1.00  0.00     0.062 A 
ATOM     17  C   UNL     1      30.019  26.854  32.799  1.00  0.00     0.158 A 
BRANCH  15  18
ATOM     18  O   UNL     1      31.676  28.487  33.483  1.00  0.00    -0.504 OA
ATOM     19  H   UNL     1      31.390  29.412  33.184  1.00  0.00     0.293 HD
ENDBRANCH  15  18
BRANCH  17  20
ATOM     20  O   UNL     1      30.215  27.171  31.455  1.00  0.00    -0.504 OA
ATOM     21  H   UNL     1      30.701  28.010  31.165  1.00  0.00     0.293 HD
ENDBRANCH  17  20
ENDBRANCH   1  12
BRANCH   2  22
ATOM     22  O   UNL     1      26.073  26.079  35.108  1.00  0.00    -0.502 OA
ATOM     23  H   UNL     1      25.158  26.328  34.750  1.00  0.00     0.293 HD
ENDBRANCH   2  22
BRANCH   6  24
ATOM     24  O   UNL     1      24.080  21.295  36.337  1.00  0.00    -0.507 OA
ATOM     25  H   UNL     1      23.726  20.695  37.068  1.00  0.00     0.293 HD
ENDBRANCH   6  24
BRANCH   8  26
ATOM     26  O   UNL     1      27.743  18.484  35.082  1.00  0.00    -0.508 OA
ATOM     27  H   UNL     1      28.614  18.308  34.596  1.00  0.00     0.293 HD
ENDBRANCH   8  26
TORSDOF 6
ENDMDL
MODEL 2
REMARK VINA RESULT:    -6.141      1.455      3.349
REMARK INTER + INTRA:          -7.731
REMARK INTER:                  -7.430
REMARK INTRA:                  -0.301
REMARK UNBOUND:                -0.333
REMARK SMILES O=c1c(O)c(-c2ccc(O)c(O)c2)oc2cc(O)cc(O)c12
REMARK SMILES IDX 5 1 3 2 2 3 1 4 22 5 20 6 19 7 17 8 16 9 15 10 14 11 6 12
REMARK SMILES IDX 7 13 8 14 9 15 13 16 11 17 10 18 12 20 4 22 21 24 18 26
REMARK H PARENT 10 19 12 21 4 23 21 25 18 27
REMARK Flexibility Score: inf
ROOT
ATOM      1  C   UNL     1      29.093  23.678  34.021  1.00  0.00     0.180 A 
ATOM      2  C   UNL     1      29.800  22.527  33.631  1.00  0.00     0.208 A 
ATOM      3  C   UNL     1      29.289  21.264  33.974  1.00  0.00     0.238 A 
ATOM      4  O   UNL     1      29.954  20.241  33.670  1.00  0.00    -0.285 OA
ATOM      5  C   UNL     1      28.069  21.168  34.686  1.00  0.00     0.111 A 
ATOM      6  C   UNL     1      27.438  19.940  35.050  1.00  0.00     0.134 A 
ATOM      7  C   UNL     1      26.302  19.964  35.868  1.00  0.00     0.093 A 
ATOM      8  C   UNL     1      25.736  21.170  36.280  1.00  0.00     0.123 A 
ATOM      9  C   UNL     1      26.310  22.378  35.880  1.00  0.00     0.094 A 
ATOM     10  C   UNL     1      27.466  22.385  35.095  1.00  0.00     0.146 A 
ATOM     11  O   UNL     1      27.986  23.555  34.745  1.00  0.00    -0.452 OA
ENDROOT
BRANCH   1  12
ATOM     12  C   UNL     1      29.555  25.041  33.675  1.00  0.00     0.025 A 
ATOM     13  C   UNL     1      29.353  25.579  32.393  1.00  0.00     0.016 A 
ATOM     14  C   UNL     1      29.776  26.878  32.097  1.00  0.00     0.051 A 
ATOM     15  C   UNL     1      30.396  27.661  33.079  1.00  0.00     0.157 A 
ATOM     16  C   UNL     1      30.158  25.838  34.663  1.00  0.00     0.062 A 
ATOM     17  C   UNL     1      30.584  27.138  34.370  1.00  0.00     0.158 A 
BRANCH  15  18
ATOM     18  O   UNL     1      30.819  28.955  32.780  1.00  0.00    -0.504 OA
ATOM     19  H   UNL     1      30.768  29.700  33.464  1.00  0.00     0.293 HD
ENDBRANCH  15  18
BRANCH  17  20
ATOM     20  O   UNL     1      31.190  27.895  35.372  1.00  0.00    -0.504 OA
ATOM     21  H   UNL     1      31.379  27.516  36.292  1.00  0.00     0.293 HD
ENDBRANCH  17  20
ENDBRANCH   1  12
BRANCH   2  22
ATOM     22  O   UNL     1      31.013  22.645  32.948  1.00  0.00    -0.502 OA
ATOM     23  H   UNL     1      31.797  22.025  33.118  1.00  0.00     0.293 HD
ENDBRANCH   2  22
BRANCH   6  24
ATOM     24  O   UNL     1      27.868  18.683  34.617  1.00  0.00    -0.507 OA
ATOM     25  H   UNL     1      28.317  18.503  33.730  1.00  0.00     0.293 HD
ENDBRANCH   6  24
BRANCH   8  26
ATOM     26  O   UNL     1      24.595  21.156  37.079  1.00  0.00    -0.508 OA
ATOM     27  H   UNL     1      24.433  21.865  37.785  1.00  0.00     0.293 HD
ENDBRANCH   8  26
TORSDOF 6
ENDMDL
MODEL 3
REMARK VINA RESULT:    -6.044      1.182      2.841
REMARK INTER + INTRA:          -7.614
REMARK INTER:                  -7.295
REMARK INTRA:                  -0.319
REMARK UNBOUND:                -0.333
REMARK SMILES O=c1c(O)c(-c2ccc(O)c(O)c2)oc2cc(O)cc(O)c12
REMARK SMILES IDX 5 1 3 2 2 3 1 4 22 5 20 6 19 7 17 8 16 9 15 10 14 11 6 12
REMARK SMILES IDX 7 13 8 14 9 15 13 16 11 17 10 18 12 20 4 22 21 24 18 26
REMARK H PARENT 10 19 12 21 4 23 21 25 18 27
REMARK Flexibility Score: inf
ROOT
ATOM      1  C   UNL     1      28.251  24.126  34.748  1.00  0.00     0.180 A 
ATOM      2  C   UNL     1      28.826  22.843  34.765  1.00  0.00     0.208 A 
ATOM      3  C   UNL     1      28.014  21.737  35.066  1.00  0.00     0.238 A 
ATOM      4  O   UNL     1      28.545  20.599  35.133  1.00  0.00    -0.285 OA
ATOM      5  C   UNL     1      26.636  21.926  35.331  1.00  0.00     0.111 A 
ATOM      6  C   UNL     1      25.712  20.873  35.608  1.00  0.00     0.134 A 
ATOM      7  C   UNL     1      24.401  21.186  35.984  1.00  0.00     0.093 A 
ATOM      8  C   UNL     1      23.961  22.510  36.030  1.00  0.00     0.123 A 
ATOM      9  C   UNL     1      24.839  23.544  35.702  1.00  0.00     0.094 A 
ATOM     10  C   UNL     1      26.164  23.264  35.360  1.00  0.00     0.146 A 
ATOM     11  O   UNL     1      26.970  24.277  35.065  1.00  0.00    -0.452 OA
ENDROOT
BRANCH   1  12
ATOM     12  C   UNL     1      29.036  25.337  34.415  1.00  0.00     0.025 A 
ATOM     13  C   UNL     1      29.655  26.105  35.414  1.00  0.00     0.016 A 
ATOM     14  C   UNL     1      30.412  27.230  35.073  1.00  0.00     0.051 A 
ATOM     15  C   UNL     1      30.571  27.595  33.730  1.00  0.00     0.157 A 
ATOM     16  C   UNL     1      29.215  25.694  33.068  1.00  0.00     0.062 A 
ATOM     17  C   UNL     1      29.971  26.820  32.723  1.00  0.00     0.158 A 
BRANCH  15  18
ATOM     18  O   UNL     1      31.324  28.718  33.394  1.00  0.00    -0.504 OA
ATOM     19  H   UNL     1      32.309  28.785  33.623  1.00  0.00     0.293 HD
ENDBRANCH  15  18
BRANCH  17  20
ATOM     20  O   UNL     1      30.117  27.152  31.376  1.00  0.00    -0.504 OA
ATOM     21  H   UNL     1      30.696  27.925  31.072  1.00  0.00     0.293 HD
ENDBRANCH  17  20
ENDBRANCH   1  12
BRANCH   2  22
ATOM     22  O   UNL     1      30.192  22.682  34.523  1.00  0.00    -0.502 OA
ATOM     23  H   UNL     1      30.732  23.348  33.983  1.00  0.00     0.293 HD
ENDBRANCH   2  22
BRANCH   6  24
ATOM     24  O   UNL     1      26.023  19.514  35.503  1.00  0.00    -0.507 OA
ATOM     25  H   UNL     1      26.783  19.059  35.988  1.00  0.00     0.293 HD
ENDBRANCH   6  24
BRANCH   8  26
ATOM     26  O   UNL     1      22.644  22.783  36.392  1.00  0.00    -0.508 OA
ATOM     27  H   UNL     1      21.940  22.056  36.420  1.00  0.00     0.293 HD
ENDBRANCH   8  26
TORSDOF 6
ENDMDL
MODEL 4
REMARK VINA RESULT:    -5.873      1.633      6.929
REMARK INTER + INTRA:          -7.408
REMARK INTER:                  -7.076
REMARK INTRA:                  -0.331
REMARK UNBOUND:                -0.333
REMARK SMILES O=c1c(O)c(-c2ccc(O)c(O)c2)oc2cc(O)cc(O)c12
REMARK SMILES IDX 5 1 3 2 2 3 1 4 22 5 20 6 19 7 17 8 16 9 15 10 14 11 6 12
REMARK SMILES IDX 7 13 8 14 9 15 13 16 11 17 10 18 12 20 4 22 21 24 18 26
REMARK H PARENT 10 19 12 21 4 23 21 25 18 27
REMARK Flexibility Score: inf
ROOT
ATOM      1  C   UNL     1      27.362  24.654  35.388  1.00  0.00     0.180 A 
ATOM      2  C   UNL     1      28.124  25.215  36.429  1.00  0.00     0.208 A 
ATOM      3  C   UNL     1      29.175  26.091  36.108  1.00  0.00     0.238 A 
ATOM      4  O   UNL     1      29.887  26.546  37.039  1.00  0.00    -0.285 OA
ATOM      5  C   UNL     1      29.438  26.408  34.753  1.00  0.00     0.111 A 
ATOM      6  C   UNL     1      30.451  27.314  34.315  1.00  0.00     0.134 A 
ATOM      7  C   UNL     1      30.709  27.452  32.946  1.00  0.00     0.093 A 
ATOM      8  C   UNL     1      29.950  26.767  31.997  1.00  0.00     0.123 A 
ATOM      9  C   UNL     1      28.917  25.925  32.412  1.00  0.00     0.094 A 
ATOM     10  C   UNL     1      28.661  25.738  33.773  1.00  0.00     0.146 A 
ATOM     11  O   UNL     1      27.677  24.921  34.126  1.00  0.00    -0.452 OA
ENDROOT
BRANCH   1  12
ATOM     12  C   UNL     1      26.224  23.744  35.649  1.00  0.00     0.025 A 
ATOM     13  C   UNL     1      24.934  24.238  35.900  1.00  0.00     0.016 A 
ATOM     14  C   UNL     1      23.870  23.359  36.119  1.00  0.00     0.051 A 
ATOM     15  C   UNL     1      24.077  21.974  36.078  1.00  0.00     0.157 A 
ATOM     16  C   UNL     1      26.423  22.354  35.588  1.00  0.00     0.062 A 
ATOM     17  C   UNL     1      25.361  21.470  35.808  1.00  0.00     0.158 A 
BRANCH  15  18
ATOM     18  O   UNL     1      23.015  21.099  36.299  1.00  0.00    -0.504 OA
ATOM     19  H   UNL     1      23.164  20.165  36.661  1.00  0.00     0.293 HD
ENDBRANCH  15  18
BRANCH  17  20
ATOM     20  O   UNL     1      25.599  20.097  35.752  1.00  0.00    -0.504 OA
ATOM     21  H   UNL     1      26.477  19.716  35.421  1.00  0.00     0.293 HD
ENDBRANCH  17  20
ENDBRANCH   1  12
BRANCH   2  22
ATOM     22  O   UNL     1      27.862  24.872  37.757  1.00  0.00    -0.502 OA
ATOM     23  H   UNL     1      27.514  23.959  38.025  1.00  0.00     0.293 HD
ENDBRANCH   2  22
BRANCH   6  24
ATOM     24  O   UNL     1      31.206  28.116  35.176  1.00  0.00    -0.507 OA
ATOM     25  H   UNL     1      31.885  28.800  34.877  1.00  0.00     0.293 HD
ENDBRANCH   6  24
BRANCH   8  26
ATOM     26  O   UNL     1      30.224  26.941  30.643  1.00  0.00    -0.508 OA
ATOM     27  H   UNL     1      31.101  26.638  30.236  1.00  0.00     0.293 HD
ENDBRANCH   8  26
TORSDOF 6
ENDMDL
MODEL 5
REMARK VINA RESULT:    -5.676      2.576      6.617
REMARK INTER + INTRA:          -7.171
REMARK INTER:                  -7.237
REMARK INTRA:                   0.066
REMARK UNBOUND:                -0.333
REMARK SMILES O=c1c(O)c(-c2ccc(O)c(O)c2)oc2cc(O)cc(O)c12
REMARK SMILES IDX 5 1 3 2 2 3 1 4 22 5 20 6 19 7 17 8 16 9 15 10 14 11 6 12
REMARK SMILES IDX 7 13 8 14 9 15 13 16 11 17 10 18 12 20 4 22 21 24 18 26
REMARK H PARENT 10 19 12 21 4 23 21 25 18 27
REMARK Flexibility Score: inf
ROOT
ATOM      1  C   UNL     1      26.599  22.293  35.489  1.00  0.00     0.180 A 
ATOM      2  C   UNL     1      27.103  23.605  35.433  1.00  0.00     0.208 A 
ATOM      3  C   UNL     1      28.385  23.820  34.900  1.00  0.00     0.238 A 
ATOM      4  O   UNL     1      28.851  24.988  34.902  1.00  0.00    -0.285 OA
ATOM      5  C   UNL     1      29.139  22.724  34.415  1.00  0.00     0.111 A 
ATOM      6  C   UNL     1      30.432  22.831  33.818  1.00  0.00     0.134 A 
ATOM      7  C   UNL     1      31.141  21.668  33.494  1.00  0.00     0.093 A 
ATOM      8  C   UNL     1      30.579  20.405  33.685  1.00  0.00     0.123 A 
ATOM      9  C   UNL     1      29.292  20.291  34.212  1.00  0.00     0.094 A 
ATOM     10  C   UNL     1      28.575  21.433  34.580  1.00  0.00     0.146 A 
ATOM     11  O   UNL     1      27.358  21.280  35.087  1.00  0.00    -0.452 OA
ENDROOT
BRANCH   1  12
ATOM     12  C   UNL     1      25.248  21.991  36.014  1.00  0.00     0.025 A 
ATOM     13  C   UNL     1      24.137  22.780  35.673  1.00  0.00     0.016 A 
ATOM     14  C   UNL     1      22.867  22.460  36.160  1.00  0.00     0.051 A 
ATOM     15  C   UNL     1      22.686  21.342  36.984  1.00  0.00     0.157 A 
ATOM     16  C   UNL     1      25.059  20.858  36.823  1.00  0.00     0.062 A 
ATOM     17  C   UNL     1      23.789  20.535  37.314  1.00  0.00     0.158 A 
BRANCH  15  18
ATOM     18  O   UNL     1      21.419  21.027  37.471  1.00  0.00    -0.504 OA
ATOM     19  H   UNL     1      20.582  21.219  36.933  1.00  0.00     0.293 HD
ENDBRANCH  15  18
BRANCH  17  20
ATOM     20  O   UNL     1      23.641  19.410  38.125  1.00  0.00    -0.504 OA
ATOM     21  H   UNL     1      23.351  18.514  37.754  1.00  0.00     0.293 HD
ENDBRANCH  17  20
ENDBRANCH   1  12
BRANCH   2  22
ATOM     22  O   UNL     1      26.351  24.669  35.937  1.00  0.00    -0.502 OA
ATOM     23  H   UNL     1      26.710  25.305  36.639  1.00  0.00     0.293 HD
ENDBRANCH   2  22
BRANCH   6  24
ATOM     24  O   UNL     1      31.046  24.045  33.500  1.00  0.00    -0.507 OA
ATOM     25  H   UNL     1      31.192  24.387  32.561  1.00  0.00     0.293 HD
ENDBRANCH   6  24
BRANCH   8  26
ATOM     26  O   UNL     1      31.307  19.270  33.336  1.00  0.00    -0.508 OA
ATOM     27  H   UNL     1      31.081  18.358  33.714  1.00  0.00     0.293 HD
ENDBRANCH   8  26
TORSDOF 6
ENDMDL
MODEL 6
REMARK VINA RESULT:    -5.556      1.798      2.453
REMARK INTER + INTRA:          -7.027
REMARK INTER:                  -6.741
REMARK INTRA:                  -0.285
REMARK UNBOUND:                -0.333
REMARK SMILES O=c1c(O)c(-c2ccc(O)c(O)c2)oc2cc(O)cc(O)c12
REMARK SMILES IDX 5 1 3 2 2 3 1 4 22 5 20 6 19 7 17 8 16 9 15 10 14 11 6 12
REMARK SMILES IDX 7 13 8 14 9 15 13 16 11 17 10 18 12 20 4 22 21 24 18 26
REMARK H PARENT 10 19 12 21 4 23 21 25 18 27
REMARK Flexibility Score: inf
ROOT
ATOM      1  C   UNL     1      29.265  23.610  34.331  1.00  0.00     0.180 A 
ATOM      2  C   UNL     1      28.001  23.316  34.872  1.00  0.00     0.208 A 
ATOM      3  C   UNL     1      27.690  21.983  35.190  1.00  0.00     0.238 A 
ATOM      4  O   UNL     1      26.539  21.719  35.622  1.00  0.00    -0.285 OA
ATOM      5  C   UNL     1      28.652  20.966  34.979  1.00  0.00     0.111 A 
ATOM      6  C   UNL     1      28.458  19.589  35.302  1.00  0.00     0.134 A 
ATOM      7  C   UNL     1      29.428  18.650  34.930  1.00  0.00     0.093 A 
ATOM      8  C   UNL     1      30.611  19.045  34.305  1.00  0.00     0.123 A 
ATOM      9  C   UNL     1      30.837  20.395  34.038  1.00  0.00     0.094 A 
ATOM     10  C   UNL     1      29.871  21.352  34.365  1.00  0.00     0.146 A 
ATOM     11  O   UNL     1      30.120  22.625  34.085  1.00  0.00    -0.452 OA
ENDROOT
BRANCH   1  12
ATOM     12  C   UNL     1      29.675  24.993  33.995  1.00  0.00     0.025 A 
ATOM     13  C   UNL     1      30.042  25.911  34.993  1.00  0.00     0.016 A 
ATOM     14  C   UNL     1      30.449  27.203  34.650  1.00  0.00     0.051 A 
ATOM     15  C   UNL     1      30.507  27.593  33.305  1.00  0.00     0.157 A 
ATOM     16  C   UNL     1      29.755  25.381  32.647  1.00  0.00     0.062 A 
ATOM     17  C   UNL     1      30.161  26.675  32.299  1.00  0.00     0.158 A 
BRANCH  15  18
ATOM     18  O   UNL     1      30.911  28.882  32.966  1.00  0.00    -0.504 OA
ATOM     19  H   UNL     1      31.504  29.431  33.578  1.00  0.00     0.293 HD
ENDBRANCH  15  18
BRANCH  17  20
ATOM     20  O   UNL     1      30.216  27.028  30.952  1.00  0.00    -0.504 OA
ATOM     21  H   UNL     1      30.212  26.336  30.213  1.00  0.00     0.293 HD
ENDBRANCH  17  20
ENDBRANCH   1  12
BRANCH   2  22
ATOM     22  O   UNL     1      27.059  24.332  35.051  1.00  0.00    -0.502 OA
ATOM     23  H   UNL     1      26.113  24.148  35.364  1.00  0.00     0.293 HD
ENDBRANCH   2  22
BRANCH   6  24
ATOM     24  O   UNL     1      27.355  19.100  36.007  1.00  0.00    -0.507 OA
ATOM     25  H   UNL     1      27.304  19.018  37.012  1.00  0.00     0.293 HD
ENDBRANCH   6  24
BRANCH   8  26
ATOM     26  O   UNL     1      31.561  18.085  33.963  1.00  0.00    -0.508 OA
ATOM     27  H   UNL     1      31.664  17.228  34.495  1.00  0.00     0.293 HD
ENDBRANCH   8  26
TORSDOF 6
ENDMDL
MODEL 7
REMARK VINA RESULT:    -5.461      2.067      7.294
REMARK INTER + INTRA:          -6.911
REMARK INTER:                  -7.387
REMARK INTRA:                   0.476
REMARK UNBOUND:                -0.333
REMARK SMILES O=c1c(O)c(-c2ccc(O)c(O)c2)oc2cc(O)cc(O)c12
REMARK SMILES IDX 5 1 3 2 2 3 1 4 22 5 20 6 19 7 17 8 16 9 15 10 14 11 6 12
REMARK SMILES IDX 7 13 8 14 9 15 13 16 11 17 10 18 12 20 4 22 21 24 18 26
REMARK H PARENT 10 19 12 21 4 23 21 25 18 27
REMARK Flexibility Score: inf
ROOT
ATOM      1  C   UNL     1      27.091  21.827  35.065  1.00  0.00     0.180 A 
ATOM      2  C   UNL     1      27.954  20.882  34.482  1.00  0.00     0.208 A 
ATOM      3  C   UNL     1      29.215  21.301  34.027  1.00  0.00     0.238 A 
ATOM      4  O   UNL     1      29.960  20.463  33.456  1.00  0.00    -0.285 OA
ATOM      5  C   UNL     1      29.603  22.655  34.175  1.00  0.00     0.111 A 
ATOM      6  C   UNL     1      30.873  23.180  33.786  1.00  0.00     0.134 A 
ATOM      7  C   UNL     1      31.100  24.560  33.860  1.00  0.00     0.093 A 
ATOM      8  C   UNL     1      30.130  25.424  34.368  1.00  0.00     0.123 A 
ATOM      9  C   UNL     1      28.908  24.913  34.807  1.00  0.00     0.094 A 
ATOM     10  C   UNL     1      28.638  23.545  34.711  1.00  0.00     0.146 A 
ATOM     11  O   UNL     1      27.460  23.101  35.130  1.00  0.00    -0.452 OA
ENDROOT
BRANCH   1  12
ATOM     12  C   UNL     1      25.758  21.457  35.591  1.00  0.00     0.025 A 
ATOM     13  C   UNL     1      24.771  22.427  35.832  1.00  0.00     0.016 A 
ATOM     14  C   UNL     1      23.510  22.050  36.305  1.00  0.00     0.051 A 
ATOM     15  C   UNL     1      23.215  20.700  36.533  1.00  0.00     0.157 A 
ATOM     16  C   UNL     1      25.450  20.102  35.802  1.00  0.00     0.062 A 
ATOM     17  C   UNL     1      24.190  19.721  36.276  1.00  0.00     0.158 A 
BRANCH  15  18
ATOM     18  O   UNL     1      21.958  20.328  37.007  1.00  0.00    -0.504 OA
ATOM     19  H   UNL     1      21.251  21.018  37.232  1.00  0.00     0.293 HD
ENDBRANCH  15  18
BRANCH  17  20
ATOM     20  O   UNL     1      23.924  18.369  36.485  1.00  0.00    -0.504 OA
ATOM     21  H   UNL     1      24.588  17.645  36.235  1.00  0.00     0.293 HD
ENDBRANCH  17  20
ENDBRANCH   1  12
BRANCH   2  22
ATOM     22  O   UNL     1      27.542  19.557  34.325  1.00  0.00    -0.502 OA
ATOM     23  H   UNL     1      26.626  19.233  34.612  1.00  0.00     0.293 HD
ENDBRANCH   2  22
BRANCH   6  24
ATOM     24  O   UNL     1      31.943  22.394  33.351  1.00  0.00    -0.507 OA
ATOM     25  H   UNL     1      32.698  22.723  32.766  1.00  0.00     0.293 HD
ENDBRANCH   6  24
BRANCH   8  26
ATOM     26  O   UNL     1      30.397  26.789  34.442  1.00  0.00    -0.508 OA
ATOM     27  H   UNL     1      30.209  27.409  33.663  1.00  0.00     0.293 HD
ENDBRANCH   8  26
TORSDOF 6
ENDMDL
MODEL 8
REMARK VINA RESULT:    -4.991      2.657      7.164
REMARK INTER + INTRA:          -6.345
REMARK INTER:                  -6.551
REMARK INTRA:                   0.206
REMARK UNBOUND:                -0.333
REMARK SMILES O=c1c(O)c(-c2ccc(O)c(O)c2)oc2cc(O)cc(O)c12
REMARK SMILES IDX 5 1 3 2 2 3 1 4 22 5 20 6 19 7 17 8 16 9 15 10 14 11 6 12
REMARK SMILES IDX 7 13 8 14 9 15 13 16 11 17 10 18 12 20 4 22 21 24 18 26
REMARK H PARENT 10 19 12 21 4 23 21 25 18 27
REMARK Flexibility Score: inf
ROOT
ATOM      1  C   UNL     1      27.242  20.931  35.437  1.00  0.00     0.180 A 
ATOM      2  C   UNL     1      27.964  19.726  35.373  1.00  0.00     0.208 A 
ATOM      3  C   UNL     1      29.260  19.737  34.831  1.00  0.00     0.238 A 
ATOM      4  O   UNL     1      29.879  18.647  34.727  1.00  0.00    -0.285 OA
ATOM      5  C   UNL     1      29.823  20.954  34.376  1.00  0.00     0.111 A 
ATOM      6  C   UNL     1      31.142  21.088  33.847  1.00  0.00     0.134 A 
ATOM      7  C   UNL     1      31.547  22.314  33.306  1.00  0.00     0.093 A 
ATOM      8  C   UNL     1      30.707  23.427  33.334  1.00  0.00     0.123 A 
ATOM      9  C   UNL     1      29.437  23.323  33.904  1.00  0.00     0.094 A 
ATOM     10  C   UNL     1      28.991  22.102  34.418  1.00  0.00     0.146 A 
ATOM     11  O   UNL     1      27.773  22.043  34.942  1.00  0.00    -0.452 OA
ENDROOT
BRANCH   1  12
ATOM     12  C   UNL     1      25.881  21.004  36.017  1.00  0.00     0.025 A 
ATOM     13  C   UNL     1      24.961  19.955  35.857  1.00  0.00     0.016 A 
ATOM     14  C   UNL     1      23.691  20.035  36.435  1.00  0.00     0.051 A 
ATOM     15  C   UNL     1      23.326  21.158  37.190  1.00  0.00     0.157 A 
ATOM     16  C   UNL     1      25.519  22.118  36.792  1.00  0.00     0.062 A 
ATOM     17  C   UNL     1      24.248  22.203  37.371  1.00  0.00     0.158 A 
BRANCH  15  18
ATOM     18  O   UNL     1      22.058  21.236  37.763  1.00  0.00    -0.504 OA
ATOM     19  H   UNL     1      21.566  20.408  38.075  1.00  0.00     0.293 HD
ENDBRANCH  15  18
BRANCH  17  20
ATOM     20  O   UNL     1      23.920  23.330  38.124  1.00  0.00    -0.504 OA
ATOM     21  H   UNL     1      24.626  23.919  38.548  1.00  0.00     0.293 HD
ENDBRANCH  17  20
ENDBRANCH   1  12
BRANCH   2  22
ATOM     22  O   UNL     1      27.381  18.533  35.807  1.00  0.00    -0.502 OA
ATOM     23  H   UNL     1      26.525  18.510  36.349  1.00  0.00     0.293 HD
ENDBRANCH   2  22
BRANCH   6  24
ATOM     24  O   UNL     1      32.094  20.064  33.853  1.00  0.00    -0.507 OA
ATOM     25  H   UNL     1      32.879  20.005  33.222  1.00  0.00     0.293 HD
ENDBRANCH   6  24
BRANCH   8  26
ATOM     26  O   UNL     1      31.150  24.636  32.802  1.00  0.00    -0.508 OA
ATOM     27  H   UNL     1      30.571  25.467  32.820  1.00  0.00     0.293 HD
ENDBRANCH   8  26
TORSDOF 6
ENDMDL
MODEL 9
REMARK VINA RESULT:    -4.711      2.009      7.017
REMARK INTER + INTRA:          -6.008
REMARK INTER:                  -5.755
REMARK INTRA:                  -0.253
REMARK UNBOUND:                -0.333
REMARK SMILES O=c1c(O)c(-c2ccc(O)c(O)c2)oc2cc(O)cc(O)c12
REMARK SMILES IDX 5 1 3 2 2 3 1 4 22 5 20 6 19 7 17 8 16 9 15 10 14 11 6 12
REMARK SMILES IDX 7 13 8 14 9 15 13 16 11 17 10 18 12 20 4 22 21 24 18 26
REMARK H PARENT 10 19 12 21 4 23 21 25 18 27
REMARK Flexibility Score: inf
ROOT
ATOM      1  C   UNL     1      29.347  23.208  35.143  1.00  0.00     0.180 A 
ATOM      2  C   UNL     1      29.775  24.060  36.176  1.00  0.00     0.208 A 
ATOM      3  C   UNL     1      30.137  25.381  35.863  1.00  0.00     0.238 A 
ATOM      4  O   UNL     1      30.571  26.122  36.782  1.00  0.00    -0.285 OA
ATOM      5  C   UNL     1      30.051  25.836  34.525  1.00  0.00     0.111 A 
ATOM      6  C   UNL     1      30.354  27.166  34.101  1.00  0.00     0.134 A 
ATOM      7  C   UNL     1      30.361  27.469  32.734  1.00  0.00     0.093 A 
ATOM      8  C   UNL     1      30.012  26.512  31.782  1.00  0.00     0.123 A 
ATOM      9  C   UNL     1      29.655  25.226  32.190  1.00  0.00     0.094 A 
ATOM     10  C   UNL     1      29.676  24.883  33.544  1.00  0.00     0.146 A 
ATOM     11  O   UNL     1      29.340  23.646  33.889  1.00  0.00    -0.452 OA
ENDROOT
BRANCH   1  12
ATOM     12  C   UNL     1      28.925  21.812  35.399  1.00  0.00     0.025 A 
ATOM     13  C   UNL     1      29.862  20.805  35.687  1.00  0.00     0.016 A 
ATOM     14  C   UNL     1      29.438  19.500  35.950  1.00  0.00     0.051 A 
ATOM     15  C   UNL     1      28.074  19.183  35.939  1.00  0.00     0.157 A 
ATOM     16  C   UNL     1      27.556  21.494  35.410  1.00  0.00     0.062 A 
ATOM     17  C   UNL     1      27.128  20.188  35.671  1.00  0.00     0.158 A 
BRANCH  15  18
ATOM     18  O   UNL     1      27.654  17.880  36.199  1.00  0.00    -0.504 OA
ATOM     19  H   UNL     1      26.755  17.539  35.881  1.00  0.00     0.293 HD
ENDBRANCH  15  18
BRANCH  17  20
ATOM     20  O   UNL     1      25.763  19.907  35.661  1.00  0.00    -0.504 OA
ATOM     21  H   UNL     1      25.380  19.110  35.167  1.00  0.00     0.293 HD
ENDBRANCH  17  20
ENDBRANCH   1  12
BRANCH   2  22
ATOM     22  O   UNL     1      29.874  23.584  37.486  1.00  0.00    -0.502 OA
ATOM     23  H   UNL     1      30.749  23.269  37.886  1.00  0.00     0.293 HD
ENDBRANCH   2  22
BRANCH   6  24
ATOM     24  O   UNL     1      30.627  28.221  34.976  1.00  0.00    -0.507 OA
ATOM     25  H   UNL     1      30.629  28.147  35.983  1.00  0.00     0.293 HD
ENDBRANCH   6  24
BRANCH   8  26
ATOM     26  O   UNL     1      30.012  26.854  30.432  1.00  0.00    -0.508 OA
ATOM     27  H   UNL     1      30.722  27.462  30.039  1.00  0.00     0.293 HD
ENDBRANCH   8  26
TORSDOF 6
ENDMDL
