MODEL 1
REMARK VINA RESULT:    -4.581      0.000      0.000
REMARK INTER + INTRA:         -10.530
REMARK INTER:                  -8.330
REMARK INTRA:                  -2.200
REMARK UNBOUND:                -2.200
REMARK SMILES CCCCCCCCCCCCCCCC(=O)[O-]
REMARK SMILES IDX 9 1 10 2 11 3 12 4 13 5 14 6 15 7 16 8 17 9 18 10 8 11 7 12
REMARK SMILES IDX 6 13 5 14 4 15 3 16 2 17 1 18
REMARK H PARENT
REMARK Flexibility Score: inf
ROOT
ATOM      1  C   UNL     1      -5.096 -27.187  30.562  1.00  0.00     0.000 C 
ENDROOT
BRANCH   1   2
ATOM      2  C   UNL     1      -5.969 -27.178  29.294  1.00  0.00     0.000 C 
BRANCH   2   3
ATOM      3  C   UNL     1      -7.472 -27.246  29.603  1.00  0.00     0.000 C 
BRANCH   3   4
ATOM      4  C   UNL     1      -8.302 -26.795  28.392  1.00  0.00     0.000 C 
BRANCH   4   5
ATOM      5  C   UNL     1      -9.732 -27.356  28.412  1.00  0.00     0.000 C 
BRANCH   5   6
ATOM      6  C   UNL     1     -10.745 -26.419  27.737  1.00  0.00     0.006 C 
BRANCH   6   7
ATOM      7  C   UNL     1     -10.322 -24.955  27.889  1.00  0.00     0.053 C 
BRANCH   7   8
ATOM      8  C   UNL     1     -10.681 -24.175  26.664  1.00  0.00     0.041 C 
ATOM      9  O   UNL     1     -10.800 -24.757  25.554  1.00  0.00    -0.550 OA
ATOM     10  O   UNL     1     -10.934 -22.811  26.757  1.00  0.00    -0.550 OA
ENDBRANCH   7   8
ENDBRANCH   6   7
ENDBRANCH   5   6
ENDBRANCH   4   5
ENDBRANCH   3   4
ENDBRANCH   2   3
ENDBRANCH   1   2
BRANCH   1  11
ATOM     11  C   UNL     1      -5.756 -27.817  31.806  1.00  0.00     0.000 C 
BRANCH  11  12
ATOM     12  C   UNL     1      -5.913 -26.871  33.010  1.00  0.00    -0.000 C 
BRANCH  12  13
ATOM     13  C   UNL     1      -5.671 -25.399  32.648  1.00  0.00    -0.000 C 
BRANCH  13  14
ATOM     14  C   UNL     1      -6.923 -24.554  32.926  1.00  0.00    -0.000 C 
BRANCH  14  15
ATOM     15  C   UNL     1      -7.544 -23.961  31.647  1.00  0.00    -0.000 C 
BRANCH  15  16
ATOM     16  C   UNL     1      -8.938 -24.507  31.288  1.00  0.00    -0.000 C 
BRANCH  16  17
ATOM     17  C   UNL     1      -9.528 -25.408  32.382  1.00  0.00    -0.003 C 
ATOM     18  C   UNL     1     -10.586 -26.347  31.810  1.00  0.00     0.004 C 
ENDBRANCH  16  17
ENDBRANCH  15  16
ENDBRANCH  14  15
ENDBRANCH  13  14
ENDBRANCH  12  13
ENDBRANCH  11  12
ENDBRANCH   1  11
TORSDOF 14
ENDMDL
MODEL 2
REMARK VINA RESULT:    -4.552      3.167      5.893
REMARK INTER + INTRA:         -10.478
REMARK INTER:                  -8.725
REMARK INTRA:                  -1.753
REMARK UNBOUND:                -2.200
REMARK SMILES CCCCCCCCCCCCCCCC(=O)[O-]
REMARK SMILES IDX 9 1 10 2 11 3 12 4 13 5 14 6 15 7 16 8 17 9 18 10 8 11 7 12
REMARK SMILES IDX 6 13 5 14 4 15 3 16 2 17 1 18
REMARK H PARENT
REMARK Flexibility Score: inf
ROOT
ATOM      1  C   UNL     1      -7.919 -26.825  29.159  1.00  0.00     0.000 C 
ENDROOT
BRANCH   1   2
ATOM      2  C   UNL     1      -7.628 -27.613  30.449  1.00  0.00     0.000 C 
BRANCH   2   3
ATOM      3  C   UNL     1      -8.840 -27.690  31.389  1.00  0.00     0.000 C 
BRANCH   3   4
ATOM      4  C   UNL     1      -9.726 -26.444  31.245  1.00  0.00     0.000 C 
BRANCH   4   5
ATOM      5  C   UNL     1      -9.359 -25.337  32.246  1.00  0.00     0.000 C 
BRANCH   5   6
ATOM      6  C   UNL     1      -8.644 -24.152  31.581  1.00  0.00     0.006 C 
BRANCH   6   7
ATOM      7  C   UNL     1      -7.123 -24.331  31.630  1.00  0.00     0.053 C 
BRANCH   7   8
ATOM      8  C   UNL     1      -6.681 -24.677  33.017  1.00  0.00     0.041 C 
ATOM      9  O   UNL     1      -6.163 -25.800  33.255  1.00  0.00    -0.550 OA
ATOM     10  O   UNL     1      -6.794 -23.740  34.037  1.00  0.00    -0.550 OA
ENDBRANCH   7   8
ENDBRANCH   6   7
ENDBRANCH   5   6
ENDBRANCH   4   5
ENDBRANCH   3   4
ENDBRANCH   2   3
ENDBRANCH   1   2
BRANCH   1  11
ATOM     11  C   UNL     1      -7.757 -27.629  27.852  1.00  0.00     0.000 C 
BRANCH  11  12
ATOM     12  C   UNL     1      -9.065 -27.898  27.085  1.00  0.00    -0.000 C 
BRANCH  12  13
ATOM     13  C   UNL     1     -10.316 -27.702  27.953  1.00  0.00    -0.000 C 
BRANCH  13  14
ATOM     14  C   UNL     1     -11.181 -26.553  27.415  1.00  0.00    -0.000 C 
BRANCH  14  15
ATOM     15  C   UNL     1     -10.670 -25.165  27.844  1.00  0.00    -0.000 C 
BRANCH  15  16
ATOM     16  C   UNL     1     -10.066 -24.316  26.710  1.00  0.00    -0.000 C 
BRANCH  16  17
ATOM     17  C   UNL     1     -11.034 -24.111  25.537  1.00  0.00    -0.003 C 
ATOM     18  C   UNL     1     -11.783 -22.788  25.665  1.00  0.00     0.004 C 
ENDBRANCH  16  17
ENDBRANCH  15  16
ENDBRANCH  14  15
ENDBRANCH  13  14
ENDBRANCH  12  13
ENDBRANCH  11  12
ENDBRANCH   1  11
TORSDOF 14
ENDMDL
MODEL 3
REMARK VINA RESULT:    -4.487      1.928      2.442
REMARK INTER + INTRA:         -10.359
REMARK INTER:                  -8.429
REMARK INTRA:                  -1.930
REMARK UNBOUND:                -2.200
REMARK SMILES CCCCCCCCCCCCCCCC(=O)[O-]
REMARK SMILES IDX 9 1 10 2 11 3 12 4 13 5 14 6 15 7 16 8 17 9 18 10 8 11 7 12
REMARK SMILES IDX 6 13 5 14 4 15 3 16 2 17 1 18
REMARK H PARENT
REMARK Flexibility Score: inf
ROOT
ATOM      1  C   UNL     1      -5.215 -27.005  31.074  1.00  0.00     0.000 C 
ENDROOT
BRANCH   1   2
ATOM      2  C   UNL     1      -6.519 -27.547  30.460  1.00  0.00     0.000 C 
BRANCH   2   3
ATOM      3  C   UNL     1      -6.725 -27.101  29.005  1.00  0.00     0.000 C 
BRANCH   3   4
ATOM      4  C   UNL     1      -8.204 -27.208  28.603  1.00  0.00     0.000 C 
BRANCH   4   5
ATOM      5  C   UNL     1      -8.831 -25.842  28.285  1.00  0.00     0.000 C 
BRANCH   5   6
ATOM      6  C   UNL     1     -10.356 -25.832  28.473  1.00  0.00     0.006 C 
BRANCH   6   7
ATOM      7  C   UNL     1     -11.064 -26.388  27.233  1.00  0.00     0.053 C 
BRANCH   7   8
ATOM      8  C   UNL     1     -11.741 -27.684  27.553  1.00  0.00     0.041 C 
ATOM      9  O   UNL     1     -12.805 -27.694  28.226  1.00  0.00    -0.550 OA
ATOM     10  O   UNL     1     -11.224 -28.878  27.064  1.00  0.00    -0.550 OA
ENDBRANCH   7   8
ENDBRANCH   6   7
ENDBRANCH   5   6
ENDBRANCH   4   5
ENDBRANCH   3   4
ENDBRANCH   2   3
ENDBRANCH   1   2
BRANCH   1  11
ATOM     11  C   UNL     1      -5.189 -25.481  31.311  1.00  0.00     0.000 C 
BRANCH  11  12
ATOM     12  C   UNL     1      -5.387 -25.046  32.774  1.00  0.00    -0.000 C 
BRANCH  12  13
ATOM     13  C   UNL     1      -6.847 -24.705  33.104  1.00  0.00    -0.000 C 
BRANCH  13  14
ATOM     14  C   UNL     1      -7.530 -24.012  31.915  1.00  0.00    -0.000 C 
BRANCH  14  15
ATOM     15  C   UNL     1      -8.916 -24.600  31.592  1.00  0.00    -0.000 C 
BRANCH  15  16
ATOM     16  C   UNL     1      -9.196 -25.983  32.210  1.00  0.00    -0.000 C 
BRANCH  16  17
ATOM     17  C   UNL     1     -10.681 -26.210  32.518  1.00  0.00    -0.003 C 
ATOM     18  C   UNL     1     -11.009 -25.830  33.959  1.00  0.00     0.004 C 
ENDBRANCH  16  17
ENDBRANCH  15  16
ENDBRANCH  14  15
ENDBRANCH  13  14
ENDBRANCH  12  13
ENDBRANCH  11  12
ENDBRANCH   1  11
TORSDOF 14
ENDMDL
MODEL 4
REMARK VINA RESULT:    -4.476      3.039      6.299
REMARK INTER + INTRA:         -10.339
REMARK INTER:                  -8.704
REMARK INTRA:                  -1.634
REMARK UNBOUND:                -2.200
REMARK SMILES CCCCCCCCCCCCCCCC(=O)[O-]
REMARK SMILES IDX 9 1 10 2 11 3 12 4 13 5 14 6 15 7 16 8 17 9 18 10 8 11 7 12
REMARK SMILES IDX 6 13 5 14 4 15 3 16 2 17 1 18
REMARK H PARENT
REMARK Flexibility Score: inf
ROOT
ATOM      1  C   UNL     1      -8.714 -25.615  29.163  1.00  0.00     0.000 C 
ENDROOT
BRANCH   1   2
ATOM      2  C   UNL     1      -9.841 -25.129  30.092  1.00  0.00     0.000 C 
BRANCH   2   3
ATOM      3  C   UNL     1     -10.618 -26.283  30.744  1.00  0.00     0.000 C 
BRANCH   3   4
ATOM      4  C   UNL     1      -9.978 -26.690  32.079  1.00  0.00     0.000 C 
BRANCH   4   5
ATOM      5  C   UNL     1      -9.392 -25.493  32.844  1.00  0.00     0.000 C 
BRANCH   5   6
ATOM      6  C   UNL     1      -7.892 -25.652  33.133  1.00  0.00     0.006 C 
BRANCH   6   7
ATOM      7  C   UNL     1      -7.092 -24.494  32.527  1.00  0.00     0.053 C 
BRANCH   7   8
ATOM      8  C   UNL     1      -5.688 -24.921  32.238  1.00  0.00     0.041 C 
ATOM      9  O   UNL     1      -5.373 -25.328  31.089  1.00  0.00    -0.550 OA
ATOM     10  O   UNL     1      -4.714 -24.821  33.225  1.00  0.00    -0.550 OA
ENDBRANCH   7   8
ENDBRANCH   6   7
ENDBRANCH   5   6
ENDBRANCH   4   5
ENDBRANCH   3   4
ENDBRANCH   2   3
ENDBRANCH   1   2
BRANCH   1  11
ATOM     11  C   UNL     1      -8.728 -27.126  28.854  1.00  0.00     0.000 C 
BRANCH  11  12
ATOM     12  C   UNL     1      -8.976 -27.487  27.378  1.00  0.00    -0.000 C 
BRANCH  12  13
ATOM     13  C   UNL     1     -10.441 -27.840  27.088  1.00  0.00    -0.000 C 
BRANCH  13  14
ATOM     14  C   UNL     1     -11.317 -26.578  27.076  1.00  0.00    -0.000 C 
BRANCH  14  15
ATOM     15  C   UNL     1     -11.567 -26.034  25.658  1.00  0.00    -0.000 C 
BRANCH  15  16
ATOM     16  C   UNL     1     -10.969 -24.642  25.380  1.00  0.00    -0.000 C 
BRANCH  16  17
ATOM     17  C   UNL     1     -10.734 -23.826  26.659  1.00  0.00    -0.003 C 
ATOM     18  C   UNL     1     -11.137 -22.368  26.462  1.00  0.00     0.004 C 
ENDBRANCH  16  17
ENDBRANCH  15  16
ENDBRANCH  14  15
ENDBRANCH  13  14
ENDBRANCH  12  13
ENDBRANCH  11  12
ENDBRANCH   1  11
TORSDOF 14
ENDMDL
MODEL 5
REMARK VINA RESULT:    -4.461      1.769      4.091
REMARK INTER + INTRA:         -10.312
REMARK INTER:                  -8.539
REMARK INTRA:                  -1.772
REMARK UNBOUND:                -2.200
REMARK SMILES CCCCCCCCCCCCCCCC(=O)[O-]
REMARK SMILES IDX 9 1 10 2 11 3 12 4 13 5 14 6 15 7 16 8 17 9 18 10 8 11 7 12
REMARK SMILES IDX 6 13 5 14 4 15 3 16 2 17 1 18
REMARK H PARENT
REMARK Flexibility Score: inf
ROOT
ATOM      1  C   UNL     1      -9.605 -25.495  31.734  1.00  0.00     0.000 C 
ENDROOT
BRANCH   1   2
ATOM      2  C   UNL     1     -10.221 -26.027  30.428  1.00  0.00     0.000 C 
BRANCH   2   3
ATOM      3  C   UNL     1     -10.030 -25.069  29.243  1.00  0.00     0.000 C 
BRANCH   3   4
ATOM      4  C   UNL     1      -9.142 -25.705  28.162  1.00  0.00     0.000 C 
BRANCH   4   5
ATOM      5  C   UNL     1      -9.046 -27.232  28.298  1.00  0.00     0.000 C 
BRANCH   5   6
ATOM      6  C   UNL     1      -9.553 -27.971  27.050  1.00  0.00     0.006 C 
BRANCH   6   7
ATOM      7  C   UNL     1     -10.859 -28.715  27.347  1.00  0.00     0.053 C 
BRANCH   7   8
ATOM      8  C   UNL     1     -12.003 -27.754  27.429  1.00  0.00     0.041 C 
ATOM      9  O   UNL     1     -12.710 -27.698  28.470  1.00  0.00    -0.550 OA
ATOM     10  O   UNL     1     -12.258 -26.885  26.376  1.00  0.00    -0.550 OA
ENDBRANCH   7   8
ENDBRANCH   6   7
ENDBRANCH   5   6
ENDBRANCH   4   5
ENDBRANCH   3   4
ENDBRANCH   2   3
ENDBRANCH   1   2
BRANCH   1  11
ATOM     11  C   UNL     1      -8.500 -24.434  31.551  1.00  0.00     0.000 C 
BRANCH  11  12
ATOM     12  C   UNL     1      -7.106 -24.996  31.217  1.00  0.00    -0.000 C 
BRANCH  12  13
ATOM     13  C   UNL     1      -6.367 -25.531  32.451  1.00  0.00    -0.000 C 
BRANCH  13  14
ATOM     14  C   UNL     1      -6.671 -27.021  32.668  1.00  0.00    -0.000 C 
BRANCH  14  15
ATOM     15  C   UNL     1      -6.692 -27.827  31.356  1.00  0.00    -0.000 C 
BRANCH  15  16
ATOM     16  C   UNL     1      -5.305 -28.155  30.772  1.00  0.00    -0.000 C 
BRANCH  16  17
ATOM     17  C   UNL     1      -5.137 -27.678  29.324  1.00  0.00    -0.003 C 
ATOM     18  C   UNL     1      -3.689 -27.818  28.863  1.00  0.00     0.004 C 
ENDBRANCH  16  17
ENDBRANCH  15  16
ENDBRANCH  14  15
ENDBRANCH  13  14
ENDBRANCH  12  13
ENDBRANCH  11  12
ENDBRANCH   1  11
TORSDOF 14
ENDMDL
MODEL 6
REMARK VINA RESULT:    -4.423      2.716      5.751
REMARK INTER + INTRA:         -10.243
REMARK INTER:                  -8.347
REMARK INTRA:                  -1.896
REMARK UNBOUND:                -2.200
REMARK SMILES CCCCCCCCCCCCCCCC(=O)[O-]
REMARK SMILES IDX 9 1 10 2 11 3 12 4 13 5 14 6 15 7 16 8 17 9 18 10 8 11 7 12
REMARK SMILES IDX 6 13 5 14 4 15 3 16 2 17 1 18
REMARK H PARENT
REMARK Flexibility Score: inf
ROOT
ATOM      1  C   UNL     1      -9.264 -27.472  30.651  1.00  0.00     0.000 C 
ENDROOT
BRANCH   1   2
ATOM      2  C   UNL     1      -8.165 -27.951  31.615  1.00  0.00     0.000 C 
BRANCH   2   3
ATOM      3  C   UNL     1      -7.746 -26.874  32.628  1.00  0.00     0.000 C 
BRANCH   3   4
ATOM      4  C   UNL     1      -6.249 -26.978  32.951  1.00  0.00     0.000 C 
BRANCH   4   5
ATOM      5  C   UNL     1      -5.437 -25.804  32.381  1.00  0.00     0.000 C 
BRANCH   5   6
ATOM      6  C   UNL     1      -5.228 -25.910  30.864  1.00  0.00     0.006 C 
BRANCH   6   7
ATOM      7  C   UNL     1      -4.562 -27.239  30.494  1.00  0.00     0.053 C 
BRANCH   7   8
ATOM      8  C   UNL     1      -5.143 -27.782  29.227  1.00  0.00     0.041 C 
ATOM      9  O   UNL     1      -4.573 -28.730  28.624  1.00  0.00    -0.550 OA
ATOM     10  O   UNL     1      -6.341 -27.276  28.738  1.00  0.00    -0.550 OA
ENDBRANCH   7   8
ENDBRANCH   6   7
ENDBRANCH   5   6
ENDBRANCH   4   5
ENDBRANCH   3   4
ENDBRANCH   2   3
ENDBRANCH   1   2
BRANCH   1  11
ATOM     11  C   UNL     1      -9.955 -26.152  31.051  1.00  0.00     0.000 C 
BRANCH  11  12
ATOM     12  C   UNL     1      -9.624 -24.945  30.154  1.00  0.00    -0.000 C 
BRANCH  12  13
ATOM     13  C   UNL     1      -9.279 -25.349  28.714  1.00  0.00    -0.000 C 
BRANCH  13  14
ATOM     14  C   UNL     1     -10.391 -24.922  27.744  1.00  0.00    -0.000 C 
BRANCH  14  15
ATOM     15  C   UNL     1     -10.898 -26.080  26.865  1.00  0.00    -0.000 C 
BRANCH  15  16
ATOM     16  C   UNL     1     -11.540 -27.249  27.636  1.00  0.00    -0.000 C 
BRANCH  16  17
ATOM     17  C   UNL     1     -10.992 -28.618  27.212  1.00  0.00    -0.003 C 
ATOM     18  C   UNL     1      -9.557 -28.503  26.705  1.00  0.00     0.004 C 
ENDBRANCH  16  17
ENDBRANCH  15  16
ENDBRANCH  14  15
ENDBRANCH  13  14
ENDBRANCH  12  13
ENDBRANCH  11  12
ENDBRANCH   1  11
TORSDOF 14
ENDMDL
MODEL 7
REMARK VINA RESULT:    -4.395      1.171      3.543
REMARK INTER + INTRA:         -10.192
REMARK INTER:                  -7.892
REMARK INTRA:                  -2.300
REMARK UNBOUND:                -2.200
REMARK SMILES CCCCCCCCCCCCCCCC(=O)[O-]
REMARK SMILES IDX 9 1 10 2 11 3 12 4 13 5 14 6 15 7 16 8 17 9 18 10 8 11 7 12
REMARK SMILES IDX 6 13 5 14 4 15 3 16 2 17 1 18
REMARK H PARENT
REMARK Flexibility Score: inf
ROOT
ATOM      1  C   UNL     1      -7.025 -24.392  31.628  1.00  0.00     0.000 C 
ENDROOT
BRANCH   1   2
ATOM      2  C   UNL     1      -8.538 -24.655  31.521  1.00  0.00     0.000 C 
BRANCH   2   3
ATOM      3  C   UNL     1      -9.002 -25.835  32.389  1.00  0.00     0.000 C 
BRANCH   3   4
ATOM      4  C   UNL     1     -10.210 -26.539  31.756  1.00  0.00     0.000 C 
BRANCH   4   5
ATOM      5  C   UNL     1     -10.382 -26.198  30.267  1.00  0.00     0.000 C 
BRANCH   5   6
ATOM      6  C   UNL     1      -9.763 -27.256  29.342  1.00  0.00     0.006 C 
BRANCH   6   7
ATOM      7  C   UNL     1      -8.925 -26.597  28.241  1.00  0.00     0.053 C 
BRANCH   7   8
ATOM      8  C   UNL     1      -9.811 -26.009  27.188  1.00  0.00     0.041 C 
ATOM      9  O   UNL     1     -10.556 -26.754  26.498  1.00  0.00    -0.550 OA
ATOM     10  O   UNL     1      -9.851 -24.632  27.003  1.00  0.00    -0.550 OA
ENDBRANCH   7   8
ENDBRANCH   6   7
ENDBRANCH   5   6
ENDBRANCH   4   5
ENDBRANCH   3   4
ENDBRANCH   2   3
ENDBRANCH   1   2
BRANCH   1  11
ATOM     11  C   UNL     1      -6.430 -24.561  33.041  1.00  0.00     0.000 C 
BRANCH  11  12
ATOM     12  C   UNL     1      -4.925 -24.883  33.080  1.00  0.00    -0.000 C 
BRANCH  12  13
ATOM     13  C   UNL     1      -4.594 -26.080  33.983  1.00  0.00    -0.000 C 
BRANCH  13  14
ATOM     14  C   UNL     1      -5.489 -27.282  33.648  1.00  0.00    -0.000 C 
BRANCH  14  15
ATOM     15  C   UNL     1      -5.109 -27.963  32.321  1.00  0.00    -0.000 C 
BRANCH  15  16
ATOM     16  C   UNL     1      -6.250 -28.062  31.291  1.00  0.00    -0.000 C 
BRANCH  16  17
ATOM     17  C   UNL     1      -5.882 -27.455  29.931  1.00  0.00    -0.003 C 
ATOM     18  C   UNL     1      -4.375 -27.254  29.807  1.00  0.00     0.004 C 
ENDBRANCH  16  17
ENDBRANCH  15  16
ENDBRANCH  14  15
ENDBRANCH  13  14
ENDBRANCH  12  13
ENDBRANCH  11  12
ENDBRANCH   1  11
TORSDOF 14
ENDMDL
MODEL 8
REMARK VINA RESULT:    -4.379      3.303      6.178
REMARK INTER + INTRA:         -10.163
REMARK INTER:                  -8.640
REMARK INTRA:                  -1.523
REMARK UNBOUND:                -2.200
REMARK SMILES CCCCCCCCCCCCCCCC(=O)[O-]
REMARK SMILES IDX 9 1 10 2 11 3 12 4 13 5 14 6 15 7 16 8 17 9 18 10 8 11 7 12
REMARK SMILES IDX 6 13 5 14 4 15 3 16 2 17 1 18
REMARK H PARENT
REMARK Flexibility Score: inf
ROOT
ATOM      1  C   UNL     1      -8.960 -26.342  32.155  1.00  0.00     0.000 C 
ENDROOT
BRANCH   1   2
ATOM      2  C   UNL     1      -9.186 -24.888  31.704  1.00  0.00     0.000 C 
BRANCH   2   3
ATOM      3  C   UNL     1      -7.885 -24.073  31.640  1.00  0.00     0.000 C 
BRANCH   3   4
ATOM      4  C   UNL     1      -6.699 -24.892  32.169  1.00  0.00     0.000 C 
BRANCH   4   5
ATOM      5  C   UNL     1      -5.635 -25.157  31.092  1.00  0.00     0.000 C 
BRANCH   5   6
ATOM      6  C   UNL     1      -5.165 -26.619  31.072  1.00  0.00     0.006 C 
BRANCH   6   7
ATOM      7  C   UNL     1      -4.977 -27.114  29.634  1.00  0.00     0.053 C 
BRANCH   7   8
ATOM      8  C   UNL     1      -3.589 -27.637  29.437  1.00  0.00     0.041 C 
ATOM      9  O   UNL     1      -2.922 -28.053  30.421  1.00  0.00    -0.550 OA
ATOM     10  O   UNL     1      -3.049 -27.712  28.158  1.00  0.00    -0.550 OA
ENDBRANCH   7   8
ENDBRANCH   6   7
ENDBRANCH   5   6
ENDBRANCH   4   5
ENDBRANCH   3   4
ENDBRANCH   2   3
ENDBRANCH   1   2
BRANCH   1  11
ATOM     11  C   UNL     1      -9.140 -27.404  31.051  1.00  0.00     0.000 C 
BRANCH  11  12
ATOM     12  C   UNL     1      -9.834 -26.903  29.771  1.00  0.00    -0.000 C 
BRANCH  12  13
ATOM     13  C   UNL     1      -8.849 -26.628  28.627  1.00  0.00    -0.000 C 
BRANCH  13  14
ATOM     14  C   UNL     1      -9.170 -25.294  27.936  1.00  0.00    -0.000 C 
BRANCH  14  15
ATOM     15  C   UNL     1     -10.609 -25.229  27.393  1.00  0.00    -0.000 C 
BRANCH  15  16
ATOM     16  C   UNL     1     -10.723 -24.898  25.893  1.00  0.00    -0.000 C 
BRANCH  16  17
ATOM     17  C   UNL     1     -11.449 -23.573  25.627  1.00  0.00    -0.003 C 
ATOM     18  C   UNL     1     -11.247 -22.594  26.780  1.00  0.00     0.004 C 
ENDBRANCH  16  17
ENDBRANCH  15  16
ENDBRANCH  14  15
ENDBRANCH  13  14
ENDBRANCH  12  13
ENDBRANCH  11  12
ENDBRANCH   1  11
TORSDOF 14
ENDMDL
MODEL 9
REMARK VINA RESULT:    -4.256      3.697      5.928
REMARK INTER + INTRA:          -9.940
REMARK INTER:                  -7.390
REMARK INTRA:                  -2.550
REMARK UNBOUND:                -2.200
REMARK SMILES CCCCCCCCCCCCCCCC(=O)[O-]
REMARK SMILES IDX 9 1 10 2 11 3 12 4 13 5 14 6 15 7 16 8 17 9 18 10 8 11 7 12
REMARK SMILES IDX 6 13 5 14 4 15 3 16 2 17 1 18
REMARK H PARENT
REMARK Flexibility Score: inf
ROOT
ATOM      1  C   UNL     1      -7.367 -28.008  31.603  1.00  0.00     0.000 C 
ENDROOT
BRANCH   1   2
ATOM      2  C   UNL     1      -6.444 -27.826  30.385  1.00  0.00     0.000 C 
BRANCH   2   3
ATOM      3  C   UNL     1      -5.520 -26.605  30.511  1.00  0.00     0.000 C 
BRANCH   3   4
ATOM      4  C   UNL     1      -5.591 -26.008  31.924  1.00  0.00     0.000 C 
BRANCH   4   5
ATOM      5  C   UNL     1      -6.112 -24.563  31.932  1.00  0.00     0.000 C 
BRANCH   5   6
ATOM      6  C   UNL     1      -7.228 -24.342  32.964  1.00  0.00     0.006 C 
BRANCH   6   7
ATOM      7  C   UNL     1      -7.099 -25.328  34.130  1.00  0.00     0.053 C 
BRANCH   7   8
ATOM      8  C   UNL     1      -6.380 -24.692  35.277  1.00  0.00     0.041 C 
ATOM      9  O   UNL     1      -5.451 -25.308  35.863  1.00  0.00    -0.550 OA
ATOM     10  O   UNL     1      -6.702 -23.397  35.668  1.00  0.00    -0.550 OA
ENDBRANCH   7   8
ENDBRANCH   6   7
ENDBRANCH   5   6
ENDBRANCH   4   5
ENDBRANCH   3   4
ENDBRANCH   2   3
ENDBRANCH   1   2
BRANCH   1  11
ATOM     11  C   UNL     1      -8.877 -27.995  31.286  1.00  0.00     0.000 C 
BRANCH  11  12
ATOM     12  C   UNL     1      -9.665 -26.833  31.916  1.00  0.00    -0.000 C 
BRANCH  12  13
ATOM     13  C   UNL     1     -10.343 -25.936  30.871  1.00  0.00    -0.000 C 
BRANCH  13  14
ATOM     14  C   UNL     1      -9.298 -25.221  30.002  1.00  0.00    -0.000 C 
BRANCH  14  15
ATOM     15  C   UNL     1      -9.553 -25.391  28.494  1.00  0.00    -0.000 C 
BRANCH  15  16
ATOM     16  C   UNL     1      -8.946 -26.662  27.871  1.00  0.00    -0.000 C 
BRANCH  16  17
ATOM     17  C   UNL     1      -9.977 -27.781  27.672  1.00  0.00    -0.003 C 
ATOM     18  C   UNL     1     -11.379 -27.210  27.481  1.00  0.00     0.004 C 
ENDBRANCH  16  17
ENDBRANCH  15  16
ENDBRANCH  14  15
ENDBRANCH  13  14
ENDBRANCH  12  13
ENDBRANCH  11  12
ENDBRANCH   1  11
TORSDOF 14
ENDMDL
