MODEL 1
REMARK VINA RESULT:    -4.936      0.000      0.000
REMARK INTER + INTRA:         -17.403
REMARK INTER:                 -12.438
REMARK INTRA:                  -4.964
REMARK UNBOUND:                -4.964
REMARK SMILES CCCCCCCCCCCCCCCCCCCCCCCCCCCC(=O)[O-]
REMARK SMILES IDX 15 1 16 2 17 3 18 4 19 5 20 6 21 7 22 8 23 9 24 10 25 11
REMARK SMILES IDX 26 12 27 13 28 14 29 15 30 16 14 17 13 18 12 19 11 20 10 21
REMARK SMILES IDX 9 22 8 23 7 24 6 25 5 26 4 27 3 28 2 29 1 30
REMARK H PARENT
REMARK Flexibility Score: inf
ROOT
ATOM      1  C   UNL     1       9.362  13.529   3.532  1.00  0.00     0.000 C 
ENDROOT
BRANCH   1   2
ATOM      2  C   UNL     1       8.793  12.113   3.738  1.00  0.00     0.000 C 
BRANCH   2   3
ATOM      3  C   UNL     1       9.861  11.100   4.190  1.00  0.00     0.000 C 
BRANCH   3   4
ATOM      4  C   UNL     1       9.465  10.361   5.485  1.00  0.00     0.000 C 
BRANCH   4   5
ATOM      5  C   UNL     1       9.691  11.177   6.774  1.00  0.00     0.000 C 
BRANCH   5   6
ATOM      6  C   UNL     1       8.441  11.397   7.643  1.00  0.00     0.000 C 
BRANCH   6   7
ATOM      7  C   UNL     1       7.299  12.092   6.882  1.00  0.00     0.000 C 
BRANCH   7   8
ATOM      8  C   UNL     1       6.895  13.438   7.512  1.00  0.00     0.000 C 
BRANCH   8   9
ATOM      9  C   UNL     1       7.892  13.992   8.547  1.00  0.00     0.000 C 
BRANCH   9  10
ATOM     10  C   UNL     1       7.245  14.248   9.921  1.00  0.00     0.000 C 
BRANCH  10  11
ATOM     11  C   UNL     1       7.142  12.973  10.773  1.00  0.00     0.000 C 
BRANCH  11  12
ATOM     12  C   UNL     1       8.501  12.536  11.346  1.00  0.00     0.006 C 
BRANCH  12  13
ATOM     13  C   UNL     1       8.619  12.834  12.846  1.00  0.00     0.053 C 
BRANCH  13  14
ATOM     14  C   UNL     1       9.923  12.354  13.407  1.00  0.00     0.041 C 
ATOM     15  O   UNL     1      10.230  12.604  14.602  1.00  0.00    -0.550 OA
ATOM     16  O   UNL     1      10.783  11.599  12.620  1.00  0.00    -0.550 OA
ENDBRANCH  13  14
ENDBRANCH  12  13
ENDBRANCH  11  12
ENDBRANCH  10  11
ENDBRANCH   9  10
ENDBRANCH   8   9
ENDBRANCH   7   8
ENDBRANCH   6   7
ENDBRANCH   5   6
ENDBRANCH   4   5
ENDBRANCH   3   4
ENDBRANCH   2   3
ENDBRANCH   1   2
BRANCH   1  17
ATOM     17  C   UNL     1       9.285  14.441   4.772  1.00  0.00     0.000 C 
BRANCH  17  18
ATOM     18  C   UNL     1      10.659  14.999   5.186  1.00  0.00     0.000 C 
BRANCH  18  19
ATOM     19  C   UNL     1      11.022  14.650   6.639  1.00  0.00     0.000 C 
BRANCH  19  20
ATOM     20  C   UNL     1      12.337  13.856   6.740  1.00  0.00     0.000 C 
BRANCH  20  21
ATOM     21  C   UNL     1      12.621  13.008   5.487  1.00  0.00     0.000 C 
BRANCH  21  22
ATOM     22  C   UNL     1      14.097  12.959   5.053  1.00  0.00    -0.000 C 
BRANCH  22  23
ATOM     23  C   UNL     1      14.267  12.804   3.532  1.00  0.00    -0.000 C 
BRANCH  23  24
ATOM     24  C   UNL     1      12.924  12.755   2.780  1.00  0.00    -0.000 C 
BRANCH  24  25
ATOM     25  C   UNL     1      12.897  13.498   1.429  1.00  0.00    -0.000 C 
BRANCH  25  26
ATOM     26  C   UNL     1      14.220  14.177   1.028  1.00  0.00    -0.000 C 
BRANCH  26  27
ATOM     27  C   UNL     1      14.117  15.709   0.991  1.00  0.00    -0.000 C 
BRANCH  27  28
ATOM     28  C   UNL     1      14.590  16.321   2.317  1.00  0.00    -0.000 C 
BRANCH  28  29
ATOM     29  C   UNL     1      13.454  16.461   3.342  1.00  0.00    -0.003 C 
ATOM     30  C   UNL     1      13.934  17.003   4.687  1.00  0.00     0.004 C 
ENDBRANCH  28  29
ENDBRANCH  27  28
ENDBRANCH  26  27
ENDBRANCH  25  26
ENDBRANCH  24  25
ENDBRANCH  23  24
ENDBRANCH  22  23
ENDBRANCH  21  22
ENDBRANCH  20  21
ENDBRANCH  19  20
ENDBRANCH  18  19
ENDBRANCH  17  18
ENDBRANCH   1  17
TORSDOF 26
ENDMDL
MODEL 2
REMARK VINA RESULT:    -4.847      4.043      8.414
REMARK INTER + INTRA:         -17.179
REMARK INTER:                 -11.564
REMARK INTRA:                  -5.615
REMARK UNBOUND:                -4.964
REMARK SMILES CCCCCCCCCCCCCCCCCCCCCCCCCCCC(=O)[O-]
REMARK SMILES IDX 15 1 16 2 17 3 18 4 19 5 20 6 21 7 22 8 23 9 24 10 25 11
REMARK SMILES IDX 26 12 27 13 28 14 29 15 30 16 14 17 13 18 12 19 11 20 10 21
REMARK SMILES IDX 9 22 8 23 7 24 6 25 5 26 4 27 3 28 2 29 1 30
REMARK H PARENT
REMARK Flexibility Score: inf
ROOT
ATOM      1  C   UNL     1      13.767  13.474   5.542  1.00  0.00     0.000 C 
ENDROOT
BRANCH   1   2
ATOM      2  C   UNL     1      13.562  12.354   4.505  1.00  0.00     0.000 C 
BRANCH   2   3
ATOM      3  C   UNL     1      13.989  12.769   3.085  1.00  0.00     0.000 C 
BRANCH   3   4
ATOM      4  C   UNL     1      12.787  13.137   2.190  1.00  0.00     0.000 C 
BRANCH   4   5
ATOM      5  C   UNL     1      13.174  13.628   0.780  1.00  0.00     0.000 C 
BRANCH   5   6
ATOM      6  C   UNL     1      12.504  14.938   0.331  1.00  0.00     0.000 C 
BRANCH   6   7
ATOM      7  C   UNL     1      11.832  15.693   1.491  1.00  0.00     0.000 C 
BRANCH   7   8
ATOM      8  C   UNL     1      12.126  17.205   1.468  1.00  0.00     0.000 C 
BRANCH   8   9
ATOM      9  C   UNL     1      13.172  17.676   2.495  1.00  0.00     0.000 C 
BRANCH   9  10
ATOM     10  C   UNL     1      13.595  16.562   3.470  1.00  0.00     0.000 C 
BRANCH  10  11
ATOM     11  C   UNL     1      15.108  16.290   3.438  1.00  0.00     0.000 C 
BRANCH  11  12
ATOM     12  C   UNL     1      15.646  16.122   2.005  1.00  0.00     0.006 C 
BRANCH  12  13
ATOM     13  C   UNL     1      16.706  17.174   1.658  1.00  0.00     0.053 C 
BRANCH  13  14
ATOM     14  C   UNL     1      17.827  17.183   2.653  1.00  0.00     0.041 C 
ATOM     15  O   UNL     1      18.444  16.119   2.923  1.00  0.00    -0.550 OA
ATOM     16  O   UNL     1      18.212  18.374   3.254  1.00  0.00    -0.550 OA
ENDBRANCH  13  14
ENDBRANCH  12  13
ENDBRANCH  11  12
ENDBRANCH  10  11
ENDBRANCH   9  10
ENDBRANCH   8   9
ENDBRANCH   7   8
ENDBRANCH   6   7
ENDBRANCH   5   6
ENDBRANCH   4   5
ENDBRANCH   3   4
ENDBRANCH   2   3
ENDBRANCH   1   2
BRANCH   1  17
ATOM     17  C   UNL     1      12.667  13.565   6.617  1.00  0.00     0.000 C 
BRANCH  17  18
ATOM     18  C   UNL     1      11.821  14.846   6.494  1.00  0.00     0.000 C 
BRANCH  18  19
ATOM     19  C   UNL     1      11.207  15.013   5.095  1.00  0.00     0.000 C 
BRANCH  19  20
ATOM     20  C   UNL     1       9.824  15.689   5.138  1.00  0.00     0.000 C 
BRANCH  20  21
ATOM     21  C   UNL     1       8.760  14.925   4.329  1.00  0.00     0.000 C 
BRANCH  21  22
ATOM     22  C   UNL     1       9.301  13.772   3.465  1.00  0.00    -0.000 C 
BRANCH  22  23
ATOM     23  C   UNL     1       8.680  12.412   3.827  1.00  0.00    -0.000 C 
BRANCH  23  24
ATOM     24  C   UNL     1       9.610  11.226   3.513  1.00  0.00    -0.000 C 
BRANCH  24  25
ATOM     25  C   UNL     1      10.319  10.602   4.732  1.00  0.00    -0.000 C 
BRANCH  25  26
ATOM     26  C   UNL     1      10.275  11.448   6.019  1.00  0.00    -0.000 C 
BRANCH  26  27
ATOM     27  C   UNL     1       9.342  10.860   7.088  1.00  0.00    -0.000 C 
BRANCH  27  28
ATOM     28  C   UNL     1       9.063  11.886   8.195  1.00  0.00    -0.000 C 
BRANCH  28  29
ATOM     29  C   UNL     1       8.532  13.219   7.644  1.00  0.00    -0.003 C 
ATOM     30  C   UNL     1       7.087  13.124   7.158  1.00  0.00     0.004 C 
ENDBRANCH  28  29
ENDBRANCH  27  28
ENDBRANCH  26  27
ENDBRANCH  25  26
ENDBRANCH  24  25
ENDBRANCH  23  24
ENDBRANCH  22  23
ENDBRANCH  21  22
ENDBRANCH  20  21
ENDBRANCH  19  20
ENDBRANCH  18  19
ENDBRANCH  17  18
ENDBRANCH   1  17
TORSDOF 26
ENDMDL
MODEL 3
REMARK VINA RESULT:    -4.794      2.388      4.938
REMARK INTER + INTRA:         -17.045
REMARK INTER:                 -11.707
REMARK INTRA:                  -5.338
REMARK UNBOUND:                -4.964
REMARK SMILES CCCCCCCCCCCCCCCCCCCCCCCCCCCC(=O)[O-]
REMARK SMILES IDX 15 1 16 2 17 3 18 4 19 5 20 6 21 7 22 8 23 9 24 10 25 11
REMARK SMILES IDX 26 12 27 13 28 14 29 15 30 16 14 17 13 18 12 19 11 20 10 21
REMARK SMILES IDX 9 22 8 23 7 24 6 25 5 26 4 27 3 28 2 29 1 30
REMARK H PARENT
REMARK Flexibility Score: inf
ROOT
ATOM      1  C   UNL     1      13.603  13.068   5.301  1.00  0.00     0.000 C 
ENDROOT
BRANCH   1   2
ATOM      2  C   UNL     1      12.528  13.665   6.228  1.00  0.00     0.000 C 
BRANCH   2   3
ATOM      3  C   UNL     1      11.754  14.825   5.574  1.00  0.00     0.000 C 
BRANCH   3   4
ATOM      4  C   UNL     1      10.248  14.795   5.911  1.00  0.00     0.000 C 
BRANCH   4   5
ATOM      5  C   UNL     1       9.323  14.976   4.691  1.00  0.00     0.000 C 
BRANCH   5   6
ATOM      6  C   UNL     1       9.522  13.959   3.555  1.00  0.00     0.000 C 
BRANCH   6   7
ATOM      7  C   UNL     1       8.615  12.724   3.694  1.00  0.00     0.000 C 
BRANCH   7   8
ATOM      8  C   UNL     1       9.380  11.472   4.163  1.00  0.00     0.000 C 
BRANCH   8   9
ATOM      9  C   UNL     1       8.854  10.846   5.468  1.00  0.00     0.000 C 
BRANCH   9  10
ATOM     10  C   UNL     1       9.715  11.207   6.693  1.00  0.00     0.000 C 
BRANCH  10  11
ATOM     11  C   UNL     1       8.919  11.952   7.776  1.00  0.00     0.000 C 
BRANCH  11  12
ATOM     12  C   UNL     1       7.420  12.050   7.444  1.00  0.00     0.006 C 
BRANCH  12  13
ATOM     13  C   UNL     1       6.984  13.493   7.160  1.00  0.00     0.053 C 
BRANCH  13  14
ATOM     14  C   UNL     1       7.126  14.364   8.370  1.00  0.00     0.041 C 
ATOM     15  O   UNL     1       7.601  15.526   8.264  1.00  0.00    -0.550 OA
ATOM     16  O   UNL     1       6.699  13.907   9.610  1.00  0.00    -0.550 OA
ENDBRANCH  13  14
ENDBRANCH  12  13
ENDBRANCH  11  12
ENDBRANCH  10  11
ENDBRANCH   9  10
ENDBRANCH   8   9
ENDBRANCH   7   8
ENDBRANCH   6   7
ENDBRANCH   5   6
ENDBRANCH   4   5
ENDBRANCH   3   4
ENDBRANCH   2   3
ENDBRANCH   1   2
BRANCH   1  17
ATOM     17  C   UNL     1      13.119  11.897   4.424  1.00  0.00     0.000 C 
BRANCH  17  18
ATOM     18  C   UNL     1      12.697  12.345   3.013  1.00  0.00     0.000 C 
BRANCH  18  19
ATOM     19  C   UNL     1      13.742  13.254   2.348  1.00  0.00     0.000 C 
BRANCH  19  20
ATOM     20  C   UNL     1      13.232  13.868   1.032  1.00  0.00     0.000 C 
BRANCH  20  21
ATOM     21  C   UNL     1      14.028  15.115   0.606  1.00  0.00     0.000 C 
BRANCH  21  22
ATOM     22  C   UNL     1      13.323  16.459   0.861  1.00  0.00    -0.000 C 
BRANCH  22  23
ATOM     23  C   UNL     1      11.931  16.293   1.492  1.00  0.00    -0.000 C 
BRANCH  23  24
ATOM     24  C   UNL     1      11.712  17.205   2.713  1.00  0.00    -0.000 C 
BRANCH  24  25
ATOM     25  C   UNL     1      12.303  18.625   2.591  1.00  0.00    -0.000 C 
BRANCH  25  26
ATOM     26  C   UNL     1      13.102  19.109   3.815  1.00  0.00    -0.000 C 
BRANCH  26  27
ATOM     27  C   UNL     1      13.639  17.952   4.672  1.00  0.00    -0.000 C 
BRANCH  27  28
ATOM     28  C   UNL     1      13.114  18.049   6.112  1.00  0.00    -0.000 C 
BRANCH  28  29
ATOM     29  C   UNL     1      11.971  19.066   6.257  1.00  0.00    -0.003 C 
ATOM     30  C   UNL     1      10.631  18.408   6.579  1.00  0.00     0.004 C 
ENDBRANCH  28  29
ENDBRANCH  27  28
ENDBRANCH  26  27
ENDBRANCH  25  26
ENDBRANCH  24  25
ENDBRANCH  23  24
ENDBRANCH  22  23
ENDBRANCH  21  22
ENDBRANCH  20  21
ENDBRANCH  19  20
ENDBRANCH  18  19
ENDBRANCH  17  18
ENDBRANCH   1  17
TORSDOF 26
ENDMDL
MODEL 4
REMARK VINA RESULT:    -4.777      3.023      8.297
REMARK INTER + INTRA:         -17.001
REMARK INTER:                 -12.061
REMARK INTRA:                  -4.940
REMARK UNBOUND:                -4.964
REMARK SMILES CCCCCCCCCCCCCCCCCCCCCCCCCCCC(=O)[O-]
REMARK SMILES IDX 15 1 16 2 17 3 18 4 19 5 20 6 21 7 22 8 23 9 24 10 25 11
REMARK SMILES IDX 26 12 27 13 28 14 29 15 30 16 14 17 13 18 12 19 11 20 10 21
REMARK SMILES IDX 9 22 8 23 7 24 6 25 5 26 4 27 3 28 2 29 1 30
REMARK H PARENT
REMARK Flexibility Score: inf
ROOT
ATOM      1  C   UNL     1      12.376  13.078   4.905  1.00  0.00     0.000 C 
ENDROOT
BRANCH   1   2
ATOM      2  C   UNL     1      13.585  13.188   5.853  1.00  0.00     0.000 C 
BRANCH   2   3
ATOM      3  C   UNL     1      14.923  12.887   5.150  1.00  0.00     0.000 C 
BRANCH   3   4
ATOM      4  C   UNL     1      15.271  13.933   4.070  1.00  0.00     0.000 C 
BRANCH   4   5
ATOM      5  C   UNL     1      15.405  13.352   2.648  1.00  0.00     0.000 C 
BRANCH   5   6
ATOM      6  C   UNL     1      14.787  14.203   1.526  1.00  0.00     0.000 C 
BRANCH   6   7
ATOM      7  C   UNL     1      13.456  13.632   1.008  1.00  0.00     0.000 C 
BRANCH   7   8
ATOM      8  C   UNL     1      12.358  14.703   0.877  1.00  0.00     0.000 C 
BRANCH   8   9
ATOM      9  C   UNL     1      12.496  15.892   1.846  1.00  0.00     0.000 C 
BRANCH   9  10
ATOM     10  C   UNL     1      11.497  15.828   3.016  1.00  0.00     0.000 C 
BRANCH  10  11
ATOM     11  C   UNL     1      10.182  15.131   2.633  1.00  0.00     0.000 C 
BRANCH  11  12
ATOM     12  C   UNL     1       9.292  14.836   3.854  1.00  0.00     0.006 C 
BRANCH  12  13
ATOM     13  C   UNL     1       8.105  15.802   3.952  1.00  0.00     0.053 C 
BRANCH  13  14
ATOM     14  C   UNL     1       8.519  17.138   4.489  1.00  0.00     0.041 C 
ATOM     15  O   UNL     1       8.356  18.178   3.799  1.00  0.00    -0.550 OA
ATOM     16  O   UNL     1       9.050  17.238   5.769  1.00  0.00    -0.550 OA
ENDBRANCH  13  14
ENDBRANCH  12  13
ENDBRANCH  11  12
ENDBRANCH  10  11
ENDBRANCH   9  10
ENDBRANCH   8   9
ENDBRANCH   7   8
ENDBRANCH   6   7
ENDBRANCH   5   6
ENDBRANCH   4   5
ENDBRANCH   3   4
ENDBRANCH   2   3
ENDBRANCH   1   2
BRANCH   1  17
ATOM     17  C   UNL     1      12.306  11.765   4.101  1.00  0.00     0.000 C 
BRANCH  17  18
ATOM     18  C   UNL     1      10.867  11.381   3.713  1.00  0.00     0.000 C 
BRANCH  18  19
ATOM     19  C   UNL     1      10.101  10.725   4.873  1.00  0.00     0.000 C 
BRANCH  19  20
ATOM     20  C   UNL     1       8.634  11.187   4.943  1.00  0.00     0.000 C 
BRANCH  20  21
ATOM     21  C   UNL     1       8.214  11.630   6.356  1.00  0.00     0.000 C 
BRANCH  21  22
ATOM     22  C   UNL     1       9.363  12.122   7.255  1.00  0.00    -0.000 C 
BRANCH  22  23
ATOM     23  C   UNL     1       9.418  13.654   7.368  1.00  0.00    -0.000 C 
BRANCH  23  24
ATOM     24  C   UNL     1       8.025  14.309   7.326  1.00  0.00    -0.000 C 
BRANCH  24  25
ATOM     25  C   UNL     1       7.554  14.947   8.649  1.00  0.00    -0.000 C 
BRANCH  25  26
ATOM     26  C   UNL     1       6.812  13.995   9.607  1.00  0.00    -0.000 C 
BRANCH  26  27
ATOM     27  C   UNL     1       7.699  13.495  10.756  1.00  0.00    -0.000 C 
BRANCH  27  28
ATOM     28  C   UNL     1       7.867  11.970  10.694  1.00  0.00    -0.000 C 
BRANCH  28  29
ATOM     29  C   UNL     1       6.858  11.303   9.746  1.00  0.00    -0.003 C 
ATOM     30  C   UNL     1       6.013  10.236  10.440  1.00  0.00     0.004 C 
ENDBRANCH  28  29
ENDBRANCH  27  28
ENDBRANCH  26  27
ENDBRANCH  25  26
ENDBRANCH  24  25
ENDBRANCH  23  24
ENDBRANCH  22  23
ENDBRANCH  21  22
ENDBRANCH  20  21
ENDBRANCH  19  20
ENDBRANCH  18  19
ENDBRANCH  17  18
ENDBRANCH   1  17
TORSDOF 26
ENDMDL
MODEL 5
REMARK VINA RESULT:    -4.765      3.819      7.236
REMARK INTER + INTRA:         -16.972
REMARK INTER:                 -11.628
REMARK INTRA:                  -5.343
REMARK UNBOUND:                -4.964
REMARK SMILES CCCCCCCCCCCCCCCCCCCCCCCCCCCC(=O)[O-]
REMARK SMILES IDX 15 1 16 2 17 3 18 4 19 5 20 6 21 7 22 8 23 9 24 10 25 11
REMARK SMILES IDX 26 12 27 13 28 14 29 15 30 16 14 17 13 18 12 19 11 20 10 21
REMARK SMILES IDX 9 22 8 23 7 24 6 25 5 26 4 27 3 28 2 29 1 30
REMARK H PARENT
REMARK Flexibility Score: inf
ROOT
ATOM      1  C   UNL     1       8.751  12.491   7.634  1.00  0.00     0.000 C 
ENDROOT
BRANCH   1   2
ATOM      2  C   UNL     1       7.604  12.955   6.718  1.00  0.00     0.000 C 
BRANCH   2   3
ATOM      3  C   UNL     1       7.350  14.473   6.801  1.00  0.00     0.000 C 
BRANCH   3   4
ATOM      4  C   UNL     1       8.233  15.273   5.821  1.00  0.00     0.000 C 
BRANCH   4   5
ATOM      5  C   UNL     1       8.603  14.509   4.533  1.00  0.00     0.000 C 
BRANCH   5   6
ATOM      6  C   UNL     1       8.988  15.387   3.331  1.00  0.00     0.000 C 
BRANCH   6   7
ATOM      7  C   UNL     1      10.477  15.273   2.961  1.00  0.00     0.000 C 
BRANCH   7   8
ATOM      8  C   UNL     1      10.780  15.792   1.543  1.00  0.00     0.000 C 
BRANCH   8   9
ATOM      9  C   UNL     1      12.106  16.565   1.407  1.00  0.00     0.000 C 
BRANCH   9  10
ATOM     10  C   UNL     1      13.165  15.795   0.597  1.00  0.00     0.000 C 
BRANCH  10  11
ATOM     11  C   UNL     1      13.109  14.278   0.840  1.00  0.00     0.000 C 
BRANCH  11  12
ATOM     12  C   UNL     1      14.307  13.768   1.661  1.00  0.00     0.006 C 
BRANCH  12  13
ATOM     13  C   UNL     1      15.366  14.856   1.877  1.00  0.00     0.053 C 
BRANCH  13  14
ATOM     14  C   UNL     1      16.442  14.404   2.816  1.00  0.00     0.041 C 
ATOM     15  O   UNL     1      16.576  13.182   3.088  1.00  0.00    -0.550 OA
ATOM     16  O   UNL     1      17.321  15.331   3.362  1.00  0.00    -0.550 OA
ENDBRANCH  13  14
ENDBRANCH  12  13
ENDBRANCH  11  12
ENDBRANCH  10  11
ENDBRANCH   9  10
ENDBRANCH   8   9
ENDBRANCH   7   8
ENDBRANCH   6   7
ENDBRANCH   5   6
ENDBRANCH   4   5
ENDBRANCH   3   4
ENDBRANCH   2   3
ENDBRANCH   1   2
BRANCH   1  17
ATOM     17  C   UNL     1       9.499  11.236   7.144  1.00  0.00     0.000 C 
BRANCH  17  18
ATOM     18  C   UNL     1       9.041  10.779   5.747  1.00  0.00     0.000 C 
BRANCH  18  19
ATOM     19  C   UNL     1      10.222  10.503   4.803  1.00  0.00     0.000 C 
BRANCH  19  20
ATOM     20  C   UNL     1      10.271  11.488   3.621  1.00  0.00     0.000 C 
BRANCH  20  21
ATOM     21  C   UNL     1      11.682  12.046   3.366  1.00  0.00     0.000 C 
BRANCH  21  22
ATOM     22  C   UNL     1      12.753  11.602   4.379  1.00  0.00    -0.000 C 
BRANCH  22  23
ATOM     23  C   UNL     1      13.301  12.768   5.219  1.00  0.00    -0.000 C 
BRANCH  23  24
ATOM     24  C   UNL     1      12.296  13.273   6.271  1.00  0.00    -0.000 C 
BRANCH  24  25
ATOM     25  C   UNL     1      12.088  14.801   6.306  1.00  0.00    -0.000 C 
BRANCH  25  26
ATOM     26  C   UNL     1      12.916  15.598   5.280  1.00  0.00    -0.000 C 
BRANCH  26  27
ATOM     27  C   UNL     1      12.622  17.105   5.319  1.00  0.00    -0.000 C 
BRANCH  27  28
ATOM     28  C   UNL     1      11.906  17.490   6.621  1.00  0.00    -0.000 C 
BRANCH  28  29
ATOM     29  C   UNL     1      10.558  18.183   6.371  1.00  0.00    -0.003 C 
ATOM     30  C   UNL     1      10.308  18.475   4.892  1.00  0.00     0.004 C 
ENDBRANCH  28  29
ENDBRANCH  27  28
ENDBRANCH  26  27
ENDBRANCH  25  26
ENDBRANCH  24  25
ENDBRANCH  23  24
ENDBRANCH  22  23
ENDBRANCH  21  22
ENDBRANCH  20  21
ENDBRANCH  19  20
ENDBRANCH  18  19
ENDBRANCH  17  18
ENDBRANCH   1  17
TORSDOF 26
ENDMDL
MODEL 6
REMARK VINA RESULT:    -4.761      1.955      3.767
REMARK INTER + INTRA:         -16.963
REMARK INTER:                 -11.434
REMARK INTRA:                  -5.529
REMARK UNBOUND:                -4.964
REMARK SMILES CCCCCCCCCCCCCCCCCCCCCCCCCCCC(=O)[O-]
REMARK SMILES IDX 15 1 16 2 17 3 18 4 19 5 20 6 21 7 22 8 23 9 24 10 25 11
REMARK SMILES IDX 26 12 27 13 28 14 29 15 30 16 14 17 13 18 12 19 11 20 10 21
REMARK SMILES IDX 9 22 8 23 7 24 6 25 5 26 4 27 3 28 2 29 1 30
REMARK H PARENT
REMARK Flexibility Score: inf
ROOT
ATOM      1  C   UNL     1      10.899  16.444   6.616  1.00  0.00     0.000 C 
ENDROOT
BRANCH   1   2
ATOM      2  C   UNL     1       9.584  15.679   6.377  1.00  0.00     0.000 C 
BRANCH   2   3
ATOM      3  C   UNL     1       8.682  16.355   5.328  1.00  0.00     0.000 C 
BRANCH   3   4
ATOM      4  C   UNL     1       8.464  15.473   4.080  1.00  0.00     0.000 C 
BRANCH   4   5
ATOM      5  C   UNL     1       8.268  13.975   4.390  1.00  0.00     0.000 C 
BRANCH   5   6
ATOM      6  C   UNL     1       9.135  13.011   3.564  1.00  0.00     0.000 C 
BRANCH   6   7
ATOM      7  C   UNL     1       8.881  11.534   3.910  1.00  0.00     0.000 C 
BRANCH   7   8
ATOM      8  C   UNL     1      10.096  10.859   4.574  1.00  0.00     0.000 C 
BRANCH   8   9
ATOM      9  C   UNL     1       9.897  10.480   6.053  1.00  0.00     0.000 C 
BRANCH   9  10
ATOM     10  C   UNL     1       9.761  11.708   6.971  1.00  0.00     0.000 C 
BRANCH  10  11
ATOM     11  C   UNL     1       8.405  11.759   7.693  1.00  0.00     0.000 C 
BRANCH  11  12
ATOM     12  C   UNL     1       8.477  12.517   9.031  1.00  0.00     0.006 C 
BRANCH  12  13
ATOM     13  C   UNL     1       7.194  13.307   9.318  1.00  0.00     0.053 C 
BRANCH  13  14
ATOM     14  C   UNL     1       7.486  14.616   9.985  1.00  0.00     0.041 C 
ATOM     15  O   UNL     1       7.632  14.673  11.234  1.00  0.00    -0.550 OA
ATOM     16  O   UNL     1       7.632  15.767   9.222  1.00  0.00    -0.550 OA
ENDBRANCH  13  14
ENDBRANCH  12  13
ENDBRANCH  11  12
ENDBRANCH  10  11
ENDBRANCH   9  10
ENDBRANCH   8   9
ENDBRANCH   7   8
ENDBRANCH   6   7
ENDBRANCH   5   6
ENDBRANCH   4   5
ENDBRANCH   3   4
ENDBRANCH   2   3
ENDBRANCH   1   2
BRANCH   1  17
ATOM     17  C   UNL     1      12.170  15.693   6.175  1.00  0.00     0.000 C 
BRANCH  17  18
ATOM     18  C   UNL     1      11.872  14.274   5.657  1.00  0.00     0.000 C 
BRANCH  18  19
ATOM     19  C   UNL     1      12.963  13.264   6.048  1.00  0.00     0.000 C 
BRANCH  19  20
ATOM     20  C   UNL     1      13.457  12.440   4.846  1.00  0.00     0.000 C 
BRANCH  20  21
ATOM     21  C   UNL     1      14.586  13.138   4.065  1.00  0.00     0.000 C 
BRANCH  21  22
ATOM     22  C   UNL     1      14.387  13.194   2.540  1.00  0.00    -0.000 C 
BRANCH  22  23
ATOM     23  C   UNL     1      12.905  13.206   2.131  1.00  0.00    -0.000 C 
BRANCH  23  24
ATOM     24  C   UNL     1      12.529  14.428   1.273  1.00  0.00    -0.000 C 
BRANCH  24  25
ATOM     25  C   UNL     1      11.440  15.344   1.870  1.00  0.00    -0.000 C 
BRANCH  25  26
ATOM     26  C   UNL     1      11.966  16.544   2.680  1.00  0.00    -0.000 C 
BRANCH  26  27
ATOM     27  C   UNL     1      13.415  16.913   2.326  1.00  0.00    -0.000 C 
BRANCH  27  28
ATOM     28  C   UNL     1      14.323  16.804   3.558  1.00  0.00    -0.000 C 
BRANCH  28  29
ATOM     29  C   UNL     1      15.804  16.624   3.187  1.00  0.00    -0.003 C 
ATOM     30  C   UNL     1      16.014  16.389   1.692  1.00  0.00     0.004 C 
ENDBRANCH  28  29
ENDBRANCH  27  28
ENDBRANCH  26  27
ENDBRANCH  25  26
ENDBRANCH  24  25
ENDBRANCH  23  24
ENDBRANCH  22  23
ENDBRANCH  21  22
ENDBRANCH  20  21
ENDBRANCH  19  20
ENDBRANCH  18  19
ENDBRANCH  17  18
ENDBRANCH   1  17
TORSDOF 26
ENDMDL
MODEL 7
REMARK VINA RESULT:    -4.754      2.735      4.870
REMARK INTER + INTRA:         -16.945
REMARK INTER:                 -11.855
REMARK INTRA:                  -5.090
REMARK UNBOUND:                -4.964
REMARK SMILES CCCCCCCCCCCCCCCCCCCCCCCCCCCC(=O)[O-]
REMARK SMILES IDX 15 1 16 2 17 3 18 4 19 5 20 6 21 7 22 8 23 9 24 10 25 11
REMARK SMILES IDX 26 12 27 13 28 14 29 15 30 16 14 17 13 18 12 19 11 20 10 21
REMARK SMILES IDX 9 22 8 23 7 24 6 25 5 26 4 27 3 28 2 29 1 30
REMARK H PARENT
REMARK Flexibility Score: inf
ROOT
ATOM      1  C   UNL     1      13.882  13.330   5.630  1.00  0.00     0.000 C 
ENDROOT
BRANCH   1   2
ATOM      2  C   UNL     1      12.490  12.682   5.507  1.00  0.00     0.000 C 
BRANCH   2   3
ATOM      3  C   UNL     1      12.402  11.675   4.344  1.00  0.00     0.000 C 
BRANCH   3   4
ATOM      4  C   UNL     1      11.400  12.115   3.256  1.00  0.00     0.000 C 
BRANCH   4   5
ATOM      5  C   UNL     1      10.679  13.444   3.561  1.00  0.00     0.000 C 
BRANCH   5   6
ATOM      6  C   UNL     1       9.158  13.338   3.762  1.00  0.00     0.000 C 
BRANCH   6   7
ATOM      7  C   UNL     1       8.648  11.887   3.707  1.00  0.00     0.000 C 
BRANCH   7   8
ATOM      8  C   UNL     1       8.143  11.380   5.070  1.00  0.00     0.000 C 
BRANCH   8   9
ATOM      9  C   UNL     1       9.243  10.857   6.013  1.00  0.00     0.000 C 
BRANCH   9  10
ATOM     10  C   UNL     1       9.151  11.457   7.428  1.00  0.00     0.000 C 
BRANCH  10  11
ATOM     11  C   UNL     1       7.702  11.728   7.863  1.00  0.00     0.000 C 
BRANCH  11  12
ATOM     12  C   UNL     1       7.497  13.166   8.370  1.00  0.00     0.006 C 
BRANCH  12  13
ATOM     13  C   UNL     1       6.864  14.071   7.306  1.00  0.00     0.053 C 
BRANCH  13  14
ATOM     14  C   UNL     1       7.858  15.035   6.734  1.00  0.00     0.041 C 
ATOM     15  O   UNL     1       9.083  14.916   7.000  1.00  0.00    -0.550 OA
ATOM     16  O   UNL     1       7.435  16.042   5.876  1.00  0.00    -0.550 OA
ENDBRANCH  13  14
ENDBRANCH  12  13
ENDBRANCH  11  12
ENDBRANCH  10  11
ENDBRANCH   9  10
ENDBRANCH   8   9
ENDBRANCH   7   8
ENDBRANCH   6   7
ENDBRANCH   5   6
ENDBRANCH   4   5
ENDBRANCH   3   4
ENDBRANCH   2   3
ENDBRANCH   1   2
BRANCH   1  17
ATOM     17  C   UNL     1      14.323  14.147   4.401  1.00  0.00     0.000 C 
BRANCH  17  18
ATOM     18  C   UNL     1      15.617  13.610   3.763  1.00  0.00     0.000 C 
BRANCH  18  19
ATOM     19  C   UNL     1      15.417  13.178   2.301  1.00  0.00     0.000 C 
BRANCH  19  20
ATOM     20  C   UNL     1      14.095  13.700   1.711  1.00  0.00     0.000 C 
BRANCH  20  21
ATOM     21  C   UNL     1      14.298  14.533   0.433  1.00  0.00     0.000 C 
BRANCH  21  22
ATOM     22  C   UNL     1      13.418  15.792   0.328  1.00  0.00    -0.000 C 
BRANCH  22  23
ATOM     23  C   UNL     1      11.941  15.517   0.656  1.00  0.00    -0.000 C 
BRANCH  23  24
ATOM     24  C   UNL     1      11.377  16.473   1.724  1.00  0.00    -0.000 C 
BRANCH  24  25
ATOM     25  C   UNL     1      12.322  16.776   2.904  1.00  0.00    -0.000 C 
BRANCH  25  26
ATOM     26  C   UNL     1      12.827  18.230   2.981  1.00  0.00    -0.000 C 
BRANCH  26  27
ATOM     27  C   UNL     1      13.756  18.475   4.180  1.00  0.00    -0.000 C 
BRANCH  27  28
ATOM     28  C   UNL     1      15.024  17.617   4.073  1.00  0.00    -0.000 C 
BRANCH  28  29
ATOM     29  C   UNL     1      15.923  18.033   2.898  1.00  0.00    -0.003 C 
ATOM     30  C   UNL     1      16.554  16.839   2.185  1.00  0.00     0.004 C 
ENDBRANCH  28  29
ENDBRANCH  27  28
ENDBRANCH  26  27
ENDBRANCH  25  26
ENDBRANCH  24  25
ENDBRANCH  23  24
ENDBRANCH  22  23
ENDBRANCH  21  22
ENDBRANCH  20  21
ENDBRANCH  19  20
ENDBRANCH  18  19
ENDBRANCH  17  18
ENDBRANCH   1  17
TORSDOF 26
ENDMDL
MODEL 8
REMARK VINA RESULT:    -4.749      2.524      4.883
REMARK INTER + INTRA:         -16.932
REMARK INTER:                 -12.093
REMARK INTRA:                  -4.839
REMARK UNBOUND:                -4.964
REMARK SMILES CCCCCCCCCCCCCCCCCCCCCCCCCCCC(=O)[O-]
REMARK SMILES IDX 15 1 16 2 17 3 18 4 19 5 20 6 21 7 22 8 23 9 24 10 25 11
REMARK SMILES IDX 26 12 27 13 28 14 29 15 30 16 14 17 13 18 12 19 11 20 10 21
REMARK SMILES IDX 9 22 8 23 7 24 6 25 5 26 4 27 3 28 2 29 1 30
REMARK H PARENT
REMARK Flexibility Score: inf
ROOT
ATOM      1  C   UNL     1      12.212  16.261   6.201  1.00  0.00     0.000 C 
ENDROOT
BRANCH   1   2
ATOM      2  C   UNL     1      10.681  16.118   6.284  1.00  0.00     0.000 C 
BRANCH   2   3
ATOM      3  C   UNL     1      10.143  14.956   5.428  1.00  0.00     0.000 C 
BRANCH   3   4
ATOM      4  C   UNL     1      11.258  13.989   4.976  1.00  0.00     0.000 C 
BRANCH   4   5
ATOM      5  C   UNL     1      11.088  13.455   3.540  1.00  0.00     0.000 C 
BRANCH   5   6
ATOM      6  C   UNL     1      11.562  12.009   3.313  1.00  0.00     0.000 C 
BRANCH   6   7
ATOM      7  C   UNL     1      11.629  11.192   4.615  1.00  0.00     0.000 C 
BRANCH   7   8
ATOM      8  C   UNL     1      10.440  10.228   4.776  1.00  0.00     0.000 C 
BRANCH   8   9
ATOM      9  C   UNL     1       9.437  10.615   5.878  1.00  0.00     0.000 C 
BRANCH   9  10
ATOM     10  C   UNL     1       8.309  11.530   5.365  1.00  0.00     0.000 C 
BRANCH  10  11
ATOM     11  C   UNL     1       7.441  12.093   6.501  1.00  0.00     0.000 C 
BRANCH  11  12
ATOM     12  C   UNL     1       8.276  12.785   7.594  1.00  0.00     0.006 C 
BRANCH  12  13
ATOM     13  C   UNL     1       7.398  13.521   8.613  1.00  0.00     0.053 C 
BRANCH  13  14
ATOM     14  C   UNL     1       7.381  14.999   8.366  1.00  0.00     0.041 C 
ATOM     15  O   UNL     1       7.609  15.802   9.308  1.00  0.00    -0.550 OA
ATOM     16  O   UNL     1       7.149  15.487   7.087  1.00  0.00    -0.550 OA
ENDBRANCH  13  14
ENDBRANCH  12  13
ENDBRANCH  11  12
ENDBRANCH  10  11
ENDBRANCH   9  10
ENDBRANCH   8   9
ENDBRANCH   7   8
ENDBRANCH   6   7
ENDBRANCH   5   6
ENDBRANCH   4   5
ENDBRANCH   3   4
ENDBRANCH   2   3
ENDBRANCH   1   2
BRANCH   1  17
ATOM     17  C   UNL     1      12.732  17.707   6.322  1.00  0.00     0.000 C 
BRANCH  17  18
ATOM     18  C   UNL     1      13.253  18.265   4.985  1.00  0.00     0.000 C 
BRANCH  18  19
ATOM     19  C   UNL     1      14.411  17.432   4.412  1.00  0.00     0.000 C 
BRANCH  19  20
ATOM     20  C   UNL     1      15.236  18.212   3.373  1.00  0.00     0.000 C 
BRANCH  20  21
ATOM     21  C   UNL     1      16.616  17.583   3.111  1.00  0.00     0.000 C 
BRANCH  21  22
ATOM     22  C   UNL     1      16.745  16.821   1.780  1.00  0.00    -0.000 C 
BRANCH  22  23
ATOM     23  C   UNL     1      15.926  17.459   0.645  1.00  0.00    -0.000 C 
BRANCH  23  24
ATOM     24  C   UNL     1      15.007  16.451  -0.070  1.00  0.00    -0.000 C 
BRANCH  24  25
ATOM     25  C   UNL     1      13.588  16.319   0.520  1.00  0.00    -0.000 C 
BRANCH  25  26
ATOM     26  C   UNL     1      13.403  15.171   1.529  1.00  0.00    -0.000 C 
BRANCH  26  27
ATOM     27  C   UNL     1      14.134  13.886   1.112  1.00  0.00    -0.000 C 
BRANCH  27  28
ATOM     28  C   UNL     1      15.036  13.378   2.245  1.00  0.00    -0.000 C 
BRANCH  28  29
ATOM     29  C   UNL     1      14.796  14.120   3.569  1.00  0.00    -0.003 C 
ATOM     30  C   UNL     1      14.900  13.204   4.788  1.00  0.00     0.004 C 
ENDBRANCH  28  29
ENDBRANCH  27  28
ENDBRANCH  26  27
ENDBRANCH  25  26
ENDBRANCH  24  25
ENDBRANCH  23  24
ENDBRANCH  22  23
ENDBRANCH  21  22
ENDBRANCH  20  21
ENDBRANCH  19  20
ENDBRANCH  18  19
ENDBRANCH  17  18
ENDBRANCH   1  17
TORSDOF 26
ENDMDL
MODEL 9
REMARK VINA RESULT:    -4.727      2.810      7.410
REMARK INTER + INTRA:         -16.877
REMARK INTER:                 -12.322
REMARK INTRA:                  -4.555
REMARK UNBOUND:                -4.964
REMARK SMILES CCCCCCCCCCCCCCCCCCCCCCCCCCCC(=O)[O-]
REMARK SMILES IDX 15 1 16 2 17 3 18 4 19 5 20 6 21 7 22 8 23 9 24 10 25 11
REMARK SMILES IDX 26 12 27 13 28 14 29 15 30 16 14 17 13 18 12 19 11 20 10 21
REMARK SMILES IDX 9 22 8 23 7 24 6 25 5 26 4 27 3 28 2 29 1 30
REMARK H PARENT
REMARK Flexibility Score: inf
ROOT
ATOM      1  C   UNL     1      16.492  15.224   2.769  1.00  0.00     0.000 C 
ENDROOT
BRANCH   1   2
ATOM      2  C   UNL     1      15.424  16.247   2.339  1.00  0.00     0.000 C 
BRANCH   2   3
ATOM      3  C   UNL     1      15.672  16.811   0.927  1.00  0.00     0.000 C 
BRANCH   3   4
ATOM      4  C   UNL     1      14.496  16.537  -0.033  1.00  0.00     0.000 C 
BRANCH   4   5
ATOM      5  C   UNL     1      13.891  15.124   0.095  1.00  0.00     0.000 C 
BRANCH   5   6
ATOM      6  C   UNL     1      12.423  15.073   0.551  1.00  0.00     0.000 C 
BRANCH   6   7
ATOM      7  C   UNL     1      12.238  14.331   1.886  1.00  0.00     0.000 C 
BRANCH   7   8
ATOM      8  C   UNL     1      11.680  15.237   2.999  1.00  0.00     0.000 C 
BRANCH   8   9
ATOM      9  C   UNL     1      10.224  14.941   3.405  1.00  0.00     0.000 C 
BRANCH   9  10
ATOM     10  C   UNL     1       9.735  15.827   4.565  1.00  0.00     0.000 C 
BRANCH  10  11
ATOM     11  C   UNL     1      10.705  15.828   5.758  1.00  0.00     0.000 C 
BRANCH  11  12
ATOM     12  C   UNL     1      10.534  17.065   6.657  1.00  0.00     0.006 C 
BRANCH  12  13
ATOM     13  C   UNL     1      11.428  18.229   6.216  1.00  0.00     0.053 C 
BRANCH  13  14
ATOM     14  C   UNL     1      12.871  17.970   6.526  1.00  0.00     0.041 C 
ATOM     15  O   UNL     1      13.228  17.695   7.701  1.00  0.00    -0.550 OA
ATOM     16  O   UNL     1      13.816  17.997   5.509  1.00  0.00    -0.550 OA
ENDBRANCH  13  14
ENDBRANCH  12  13
ENDBRANCH  11  12
ENDBRANCH  10  11
ENDBRANCH   9  10
ENDBRANCH   8   9
ENDBRANCH   7   8
ENDBRANCH   6   7
ENDBRANCH   5   6
ENDBRANCH   4   5
ENDBRANCH   3   4
ENDBRANCH   2   3
ENDBRANCH   1   2
BRANCH   1  17
ATOM     17  C   UNL     1      15.970  13.785   2.945  1.00  0.00     0.000 C 
BRANCH  17  18
ATOM     18  C   UNL     1      15.467  13.506   4.373  1.00  0.00     0.000 C 
BRANCH  18  19
ATOM     19  C   UNL     1      14.172  12.678   4.389  1.00  0.00     0.000 C 
BRANCH  19  20
ATOM     20  C   UNL     1      13.285  12.999   5.605  1.00  0.00     0.000 C 
BRANCH  20  21
ATOM     21  C   UNL     1      11.876  12.388   5.496  1.00  0.00     0.000 C 
BRANCH  21  22
ATOM     22  C   UNL     1      11.633  11.531   4.241  1.00  0.00    -0.000 C 
BRANCH  22  23
ATOM     23  C   UNL     1      10.142  11.244   3.993  1.00  0.00    -0.000 C 
BRANCH  23  24
ATOM     24  C   UNL     1       9.345  11.045   5.296  1.00  0.00    -0.000 C 
BRANCH  24  25
ATOM     25  C   UNL     1       8.131  11.978   5.477  1.00  0.00    -0.000 C 
BRANCH  25  26
ATOM     26  C   UNL     1       7.730  12.256   6.938  1.00  0.00    -0.000 C 
BRANCH  26  27
ATOM     27  C   UNL     1       8.647  13.281   7.623  1.00  0.00    -0.000 C 
BRANCH  27  28
ATOM     28  C   UNL     1       7.919  14.618   7.823  1.00  0.00    -0.000 C 
BRANCH  28  29
ATOM     29  C   UNL     1       6.984  14.604   9.042  1.00  0.00    -0.003 C 
ATOM     30  C   UNL     1       7.595  13.892  10.248  1.00  0.00     0.004 C 
ENDBRANCH  28  29
ENDBRANCH  27  28
ENDBRANCH  26  27
ENDBRANCH  25  26
ENDBRANCH  24  25
ENDBRANCH  23  24
ENDBRANCH  22  23
ENDBRANCH  21  22
ENDBRANCH  20  21
ENDBRANCH  19  20
ENDBRANCH  18  19
ENDBRANCH  17  18
ENDBRANCH   1  17
TORSDOF 26
ENDMDL
