MODEL 1
REMARK VINA RESULT:    44.287      0.000      0.000
REMARK INTER + INTRA:          62.001
REMARK INTER:                  58.527
REMARK INTRA:                   3.474
REMARK UNBOUND:                 3.474
REMARK SMILES CC[C@@H](C=C[C@@H](C)[C@@H]1CC[C@H]2[C@@H]3CC=C4C[C@H](O)CC[C@@]4(C)[C@@H]3CC[C@@]21C)C(C)C
REMARK SMILES IDX 6 1 7 2 5 3 4 4 3 5 2 6 1 7 28 8 29 9 30 10 8 11 9 12 26 13
REMARK SMILES IDX 10 14 11 15 25 16 27 17 12 18 24 19 23 20 13 21 21 22 14 23
REMARK SMILES IDX 15 24 20 25 22 26 16 27 19 28 17 29 18 30
REMARK H PARENT 18 31
REMARK Flexibility Score: inf
ROOT
ATOM      1  C   UNL     1     -17.697 -36.747  23.244  1.00  0.00     0.012 C 
ATOM      2  C   UNL     1     -18.348 -35.588  22.463  1.00  0.00     0.012 C 
ENDROOT
BRANCH   1   3
ATOM      3  C   UNL     1     -17.744 -36.432  24.728  1.00  0.00    -0.028 C 
ATOM      4  C   UNL     1     -16.784 -36.848  25.568  1.00  0.00    -0.027 C 
BRANCH   4   5
ATOM      5  C   UNL     1     -16.853 -36.553  27.053  1.00  0.00     0.014 C 
BRANCH   5   6
ATOM      6  C   UNL     1     -16.726 -37.851  27.896  1.00  0.00     0.004 C 
ATOM      7  C   UNL     1     -15.973 -39.007  27.237  1.00  0.00     0.004 C 
ENDBRANCH   5   6
BRANCH   5   8
ATOM      8  C   UNL     1     -18.036 -35.594  27.407  1.00  0.00    -0.011 C 
ATOM      9  C   UNL     1     -18.015 -34.239  26.675  1.00  0.00     0.008 C 
ATOM     10  C   UNL     1     -19.406 -36.270  27.253  1.00  0.00     0.008 C 
ENDBRANCH   5   8
ENDBRANCH   4   5
ENDBRANCH   1   3
BRANCH   1  11
ATOM     11  C   UNL     1     -16.230 -37.097  22.801  1.00  0.00     0.002 C 
ATOM     12  C   UNL     1     -15.878 -38.595  23.007  1.00  0.00     0.005 C 
ATOM     13  C   UNL     1     -15.032 -36.323  23.454  1.00  0.00    -0.026 C 
ATOM     14  C   UNL     1     -14.747 -38.667  24.042  1.00  0.00     0.005 C 
ATOM     15  C   UNL     1     -14.630 -37.254  24.607  1.00  0.00    -0.001 C 
ATOM     16  C   UNL     1     -15.292 -34.890  24.016  1.00  0.00     0.007 C 
ATOM     17  C   UNL     1     -13.909 -36.230  22.366  1.00  0.00     0.012 C 
ATOM     18  C   UNL     1     -13.287 -36.861  25.284  1.00  0.00     0.000 C 
ATOM     19  C   UNL     1     -14.569 -34.609  25.362  1.00  0.00     0.005 C 
ATOM     20  C   UNL     1     -13.168 -35.295  25.484  1.00  0.00     0.003 C 
ATOM     21  C   UNL     1     -13.101 -37.680  26.587  1.00  0.00     0.031 C 
ATOM     22  C   UNL     1     -12.350 -34.875  26.777  1.00  0.00    -0.008 C 
ATOM     23  C   UNL     1     -13.305 -36.904  27.854  1.00  0.00    -0.027 C 
ATOM     24  C   UNL     1     -12.807 -35.662  27.994  1.00  0.00    -0.065 C 
ATOM     25  C   UNL     1     -10.830 -35.180  26.594  1.00  0.00     0.014 C 
ATOM     26  C   UNL     1     -12.514 -33.348  27.033  1.00  0.00     0.016 C 
ATOM     27  C   UNL     1     -12.113 -35.344  29.298  1.00  0.00     0.063 C 
ATOM     28  C   UNL     1     -10.000 -34.989  27.893  1.00  0.00     0.033 C 
ATOM     29  C   UNL     1     -10.620 -35.684  29.132  1.00  0.00     0.118 C 
BRANCH  29  30
ATOM     30  O   UNL     1      -9.932 -35.298  30.291  1.00  0.00    -0.393 OA
ATOM     31  H   UNL     1     -10.133 -34.337  30.438  1.00  0.00     0.210 HD
ENDBRANCH  29  30
ENDBRANCH   1  11
TORSDOF 6
ENDMDL
MODEL 2
REMARK VINA RESULT:    45.696      0.445      1.656
REMARK INTER + INTRA:          63.862
REMARK INTER:                  60.418
REMARK INTRA:                   3.445
REMARK UNBOUND:                 3.474
REMARK SMILES CC[C@@H](C=C[C@@H](C)[C@@H]1CC[C@H]2[C@@H]3CC=C4C[C@H](O)CC[C@@]4(C)[C@@H]3CC[C@@]21C)C(C)C
REMARK SMILES IDX 6 1 7 2 5 3 4 4 3 5 2 6 1 7 28 8 29 9 30 10 8 11 9 12 26 13
REMARK SMILES IDX 10 14 11 15 25 16 27 17 12 18 24 19 23 20 13 21 21 22 14 23
REMARK SMILES IDX 15 24 20 25 22 26 16 27 19 28 17 29 18 30
REMARK H PARENT 18 31
REMARK Flexibility Score: inf
ROOT
ATOM      1  C   UNL     1     -17.753 -36.654  23.264  1.00  0.00     0.012 C 
ATOM      2  C   UNL     1     -18.393 -35.491  22.480  1.00  0.00     0.012 C 
ENDROOT
BRANCH   1   3
ATOM      3  C   UNL     1     -17.776 -36.325  24.745  1.00  0.00    -0.028 C 
ATOM      4  C   UNL     1     -17.829 -37.287  25.680  1.00  0.00    -0.027 C 
BRANCH   4   5
ATOM      5  C   UNL     1     -17.879 -36.950  27.156  1.00  0.00     0.014 C 
BRANCH   5   6
ATOM      6  C   UNL     1     -18.268 -35.464  27.386  1.00  0.00     0.004 C 
ATOM      7  C   UNL     1     -17.696 -34.459  26.387  1.00  0.00     0.004 C 
ENDBRANCH   5   6
BRANCH   5   8
ATOM      8  C   UNL     1     -16.623 -37.478  27.923  1.00  0.00    -0.011 C 
ATOM      9  C   UNL     1     -16.058 -38.813  27.402  1.00  0.00     0.008 C 
ATOM     10  C   UNL     1     -15.511 -36.423  28.025  1.00  0.00     0.008 C 
ENDBRANCH   5   8
ENDBRANCH   4   5
ENDBRANCH   1   3
BRANCH   1  11
ATOM     11  C   UNL     1     -16.298 -37.034  22.806  1.00  0.00     0.002 C 
ATOM     12  C   UNL     1     -15.974 -38.539  23.013  1.00  0.00     0.005 C 
ATOM     13  C   UNL     1     -15.079 -36.283  23.444  1.00  0.00    -0.026 C 
ATOM     14  C   UNL     1     -14.834 -38.631  24.036  1.00  0.00     0.005 C 
ATOM     15  C   UNL     1     -14.682 -37.219  24.595  1.00  0.00    -0.001 C 
ATOM     16  C   UNL     1     -15.304 -34.843  24.005  1.00  0.00     0.007 C 
ATOM     17  C   UNL     1     -13.965 -36.215  22.344  1.00  0.00     0.012 C 
ATOM     18  C   UNL     1     -13.324 -36.850  25.257  1.00  0.00     0.000 C 
ATOM     19  C   UNL     1     -14.561 -34.573  25.342  1.00  0.00     0.005 C 
ATOM     20  C   UNL     1     -13.172 -35.286  25.451  1.00  0.00     0.003 C 
ATOM     21  C   UNL     1     -13.141 -37.669  26.560  1.00  0.00     0.031 C 
ATOM     22  C   UNL     1     -12.332 -34.880  26.734  1.00  0.00    -0.008 C 
ATOM     23  C   UNL     1     -13.316 -36.886  27.827  1.00  0.00    -0.027 C 
ATOM     24  C   UNL     1     -12.792 -35.654  27.958  1.00  0.00    -0.065 C 
ATOM     25  C   UNL     1     -10.821 -35.215  26.536  1.00  0.00     0.014 C 
ATOM     26  C   UNL     1     -12.464 -33.349  26.987  1.00  0.00     0.016 C 
ATOM     27  C   UNL     1     -12.078 -35.346  29.254  1.00  0.00     0.063 C 
ATOM     28  C   UNL     1      -9.973 -35.037  27.825  1.00  0.00     0.033 C 
ATOM     29  C   UNL     1     -10.594 -35.717  29.073  1.00  0.00     0.118 C 
BRANCH  29  30
ATOM     30  O   UNL     1      -9.886 -35.341  30.223  1.00  0.00    -0.393 OA
ATOM     31  H   UNL     1      -8.958 -35.673  30.111  1.00  0.00     0.210 HD
ENDBRANCH  29  30
ENDBRANCH   1  11
TORSDOF 6
ENDMDL
MODEL 3
REMARK VINA RESULT:    46.381      1.204      2.203
REMARK INTER + INTRA:          64.767
REMARK INTER:                  62.344
REMARK INTRA:                   2.423
REMARK UNBOUND:                 3.474
REMARK SMILES CC[C@@H](C=C[C@@H](C)[C@@H]1CC[C@H]2[C@@H]3CC=C4C[C@H](O)CC[C@@]4(C)[C@@H]3CC[C@@]21C)C(C)C
REMARK SMILES IDX 6 1 7 2 5 3 4 4 3 5 2 6 1 7 28 8 29 9 30 10 8 11 9 12 26 13
REMARK SMILES IDX 10 14 11 15 25 16 27 17 12 18 24 19 23 20 13 21 21 22 14 23
REMARK SMILES IDX 15 24 20 25 22 26 16 27 19 28 17 29 18 30
REMARK H PARENT 18 31
REMARK Flexibility Score: inf
ROOT
ATOM      1  C   UNL     1     -16.328 -37.422  22.906  1.00  0.00     0.012 C 
ATOM      2  C   UNL     1     -15.558 -36.451  21.988  1.00  0.00     0.012 C 
ENDROOT
BRANCH   1   3
ATOM      3  C   UNL     1     -17.163 -36.619  23.887  1.00  0.00    -0.028 C 
ATOM      4  C   UNL     1     -16.759 -36.409  25.149  1.00  0.00    -0.027 C 
BRANCH   4   5
ATOM      5  C   UNL     1     -17.612 -35.630  26.130  1.00  0.00     0.014 C 
BRANCH   5   6
ATOM      6  C   UNL     1     -16.891 -34.341  26.611  1.00  0.00     0.004 C 
ATOM      7  C   UNL     1     -15.424 -34.203  26.203  1.00  0.00     0.004 C 
ENDBRANCH   5   6
BRANCH   5   8
ATOM      8  C   UNL     1     -18.224 -36.550  27.236  1.00  0.00    -0.011 C 
ATOM      9  C   UNL     1     -19.583 -37.180  26.877  1.00  0.00     0.008 C 
ATOM     10  C   UNL     1     -17.239 -37.627  27.716  1.00  0.00     0.008 C 
ENDBRANCH   5   8
ENDBRANCH   4   5
ENDBRANCH   1   3
BRANCH   1  11
ATOM     11  C   UNL     1     -15.429 -38.461  23.668  1.00  0.00     0.002 C 
ATOM     12  C   UNL     1     -16.187 -39.195  24.807  1.00  0.00     0.005 C 
ATOM     13  C   UNL     1     -14.100 -37.969  24.340  1.00  0.00    -0.026 C 
ATOM     14  C   UNL     1     -15.511 -38.817  26.132  1.00  0.00     0.005 C 
ATOM     15  C   UNL     1     -14.546 -37.688  25.782  1.00  0.00    -0.001 C 
ATOM     16  C   UNL     1     -13.400 -36.699  23.760  1.00  0.00     0.007 C 
ATOM     17  C   UNL     1     -13.090 -39.164  24.269  1.00  0.00     0.012 C 
ATOM     18  C   UNL     1     -13.365 -37.424  26.758  1.00  0.00     0.000 C 
ATOM     19  C   UNL     1     -12.825 -35.754  24.850  1.00  0.00     0.005 C 
ATOM     20  C   UNL     1     -12.258 -36.501  26.103  1.00  0.00     0.003 C 
ATOM     21  C   UNL     1     -13.913 -36.892  28.107  1.00  0.00     0.031 C 
ATOM     22  C   UNL     1     -11.514 -35.559  27.140  1.00  0.00    -0.008 C 
ATOM     23  C   UNL     1     -13.685 -35.430  28.347  1.00  0.00    -0.027 C 
ATOM     24  C   UNL     1     -12.507 -34.853  28.049  1.00  0.00    -0.065 C 
ATOM     25  C   UNL     1     -10.574 -36.389  28.067  1.00  0.00     0.014 C 
ATOM     26  C   UNL     1     -10.648 -34.513  26.377  1.00  0.00     0.016 C 
ATOM     27  C   UNL     1     -11.924 -33.911  29.076  1.00  0.00     0.063 C 
ATOM     28  C   UNL     1      -9.973 -35.565  29.239  1.00  0.00     0.033 C 
ATOM     29  C   UNL     1     -11.028 -34.738  30.017  1.00  0.00     0.118 C 
BRANCH  29  30
ATOM     30  O   UNL     1     -10.388 -33.872  30.916  1.00  0.00    -0.393 OA
ATOM     31  H   UNL     1      -9.687 -34.401  31.377  1.00  0.00     0.210 HD
ENDBRANCH  29  30
ENDBRANCH   1  11
TORSDOF 6
ENDMDL
