MODEL 1
REMARK VINA RESULT:    -1.952      0.000      0.000
REMARK INTER + INTRA:          -6.586
REMARK INTER:                  -4.918
REMARK INTRA:                  -1.668
REMARK UNBOUND:                -1.668
REMARK SMILES CCCCCCCCCCCCCCCCCCCCCCCCCCCC(=O)[O-]
REMARK SMILES IDX 15 1 16 2 17 3 18 4 19 5 20 6 21 7 22 8 23 9 24 10 25 11
REMARK SMILES IDX 26 12 27 13 28 14 29 15 30 16 14 17 13 18 12 19 11 20 10 21
REMARK SMILES IDX 9 22 8 23 7 24 6 25 5 26 4 27 3 28 2 29 1 30
REMARK H PARENT
REMARK Flexibility Score: inf
ROOT
ATOM      1  C   UNL     1     109.207 106.312 110.744  1.00  0.00     0.000 C 
ENDROOT
BRANCH   1   2
ATOM      2  C   UNL     1     108.174 107.217 111.435  1.00  0.00     0.000 C 
BRANCH   2   3
ATOM      3  C   UNL     1     107.490 106.531 112.630  1.00  0.00     0.000 C 
BRANCH   3   4
ATOM      4  C   UNL     1     106.179 107.226 113.040  1.00  0.00     0.000 C 
BRANCH   4   5
ATOM      5  C   UNL     1     105.311 106.436 114.040  1.00  0.00     0.000 C 
BRANCH   5   6
ATOM      6  C   UNL     1     104.061 105.765 113.437  1.00  0.00     0.000 C 
BRANCH   6   7
ATOM      7  C   UNL     1     102.957 106.740 112.988  1.00  0.00     0.000 C 
BRANCH   7   8
ATOM      8  C   UNL     1     101.632 106.032 112.668  1.00  0.00     0.000 C 
BRANCH   8   9
ATOM      9  C   UNL     1     100.745 106.899 111.766  1.00  0.00     0.000 C 
BRANCH   9  10
ATOM     10  C   UNL     1     100.250 106.103 110.549  1.00  0.00     0.000 C 
BRANCH  10  11
ATOM     11  C   UNL     1     100.370 106.887 109.229  1.00  0.00     0.000 C 
BRANCH  11  12
ATOM     12  C   UNL     1     101.399 108.033 109.249  1.00  0.00     0.006 C 
BRANCH  12  13
ATOM     13  C   UNL     1     101.314 108.931 108.009  1.00  0.00     0.053 C 
BRANCH  13  14
ATOM     14  C   UNL     1     102.648 109.025 107.339  1.00  0.00     0.041 C 
ATOM     15  O   UNL     1     102.918 110.008 106.599  1.00  0.00    -0.550 OA
ATOM     16  O   UNL     1     103.581 108.008 107.500  1.00  0.00    -0.550 OA
ENDBRANCH  13  14
ENDBRANCH  12  13
ENDBRANCH  11  12
ENDBRANCH  10  11
ENDBRANCH   9  10
ENDBRANCH   8   9
ENDBRANCH   7   8
ENDBRANCH   6   7
ENDBRANCH   5   6
ENDBRANCH   4   5
ENDBRANCH   3   4
ENDBRANCH   2   3
ENDBRANCH   1   2
BRANCH   1  17
ATOM     17  C   UNL     1     108.918 104.817 110.966  1.00  0.00     0.000 C 
BRANCH  17  18
ATOM     18  C   UNL     1     110.153 104.039 111.452  1.00  0.00     0.000 C 
BRANCH  18  19
ATOM     19  C   UNL     1     110.476 102.825 110.568  1.00  0.00     0.000 C 
BRANCH  19  20
ATOM     20  C   UNL     1     111.227 101.748 111.363  1.00  0.00     0.000 C 
BRANCH  20  21
ATOM     21  C   UNL     1     112.086 102.383 112.467  1.00  0.00     0.000 C 
BRANCH  21  22
ATOM     22  C   UNL     1     113.590 102.151 112.255  1.00  0.00    -0.000 C 
BRANCH  22  23
ATOM     23  C   UNL     1     114.133 102.886 111.021  1.00  0.00    -0.000 C 
BRANCH  23  24
ATOM     24  C   UNL     1     115.223 103.891 111.415  1.00  0.00    -0.000 C 
BRANCH  24  25
ATOM     25  C   UNL     1     114.999 104.413 112.841  1.00  0.00    -0.000 C 
BRANCH  25  26
ATOM     26  C   UNL     1     116.270 105.014 113.467  1.00  0.00    -0.000 C 
BRANCH  26  27
ATOM     27  C   UNL     1     117.563 104.212 113.213  1.00  0.00    -0.000 C 
BRANCH  27  28
ATOM     28  C   UNL     1     118.870 104.945 113.572  1.00  0.00    -0.000 C 
BRANCH  28  29
ATOM     29  C   UNL     1     119.063 106.303 112.873  1.00  0.00    -0.003 C 
ATOM     30  C   UNL     1     119.431 106.164 111.396  1.00  0.00     0.004 C 
ENDBRANCH  28  29
ENDBRANCH  27  28
ENDBRANCH  26  27
ENDBRANCH  25  26
ENDBRANCH  24  25
ENDBRANCH  23  24
ENDBRANCH  22  23
ENDBRANCH  21  22
ENDBRANCH  20  21
ENDBRANCH  19  20
ENDBRANCH  18  19
ENDBRANCH  17  18
ENDBRANCH   1  17
TORSDOF 26
ENDMDL
MODEL 2
REMARK VINA RESULT:    -1.927      4.804     13.469
REMARK INTER + INTRA:          -6.525
REMARK INTER:                  -4.882
REMARK INTRA:                  -1.643
REMARK UNBOUND:                -1.668
REMARK SMILES CCCCCCCCCCCCCCCCCCCCCCCCCCCC(=O)[O-]
REMARK SMILES IDX 15 1 16 2 17 3 18 4 19 5 20 6 21 7 22 8 23 9 24 10 25 11
REMARK SMILES IDX 26 12 27 13 28 14 29 15 30 16 14 17 13 18 12 19 11 20 10 21
REMARK SMILES IDX 9 22 8 23 7 24 6 25 5 26 4 27 3 28 2 29 1 30
REMARK H PARENT
REMARK Flexibility Score: inf
ROOT
ATOM      1  C   UNL     1     108.873 105.220 110.802  1.00  0.00     0.000 C 
ENDROOT
BRANCH   1   2
ATOM      2  C   UNL     1     110.080 104.327 111.133  1.00  0.00     0.000 C 
BRANCH   2   3
ATOM      3  C   UNL     1     109.929 102.899 110.580  1.00  0.00     0.000 C 
BRANCH   3   4
ATOM      4  C   UNL     1     111.097 101.982 110.984  1.00  0.00     0.000 C 
BRANCH   4   5
ATOM      5  C   UNL     1     111.649 102.223 112.403  1.00  0.00     0.000 C 
BRANCH   5   6
ATOM      6  C   UNL     1     113.184 102.331 112.499  1.00  0.00     0.000 C 
BRANCH   6   7
ATOM      7  C   UNL     1     113.893 102.669 111.175  1.00  0.00     0.000 C 
BRANCH   7   8
ATOM      8  C   UNL     1     115.117 103.577 111.370  1.00  0.00     0.000 C 
BRANCH   8   9
ATOM      9  C   UNL     1     114.776 104.782 112.256  1.00  0.00     0.000 C 
BRANCH   9  10
ATOM     10  C   UNL     1     115.620 104.781 113.539  1.00  0.00     0.000 C 
BRANCH  10  11
ATOM     11  C   UNL     1     116.787 105.784 113.491  1.00  0.00     0.000 C 
BRANCH  11  12
ATOM     12  C   UNL     1     118.043 105.281 112.756  1.00  0.00     0.006 C 
BRANCH  12  13
ATOM     13  C   UNL     1     119.331 105.500 113.558  1.00  0.00     0.053 C 
BRANCH  13  14
ATOM     14  C   UNL     1     119.355 104.611 114.761  1.00  0.00     0.041 C 
ATOM     15  O   UNL     1     119.736 105.059 115.874  1.00  0.00    -0.550 OA
ATOM     16  O   UNL     1     118.993 103.273 114.646  1.00  0.00    -0.550 OA
ENDBRANCH  13  14
ENDBRANCH  12  13
ENDBRANCH  11  12
ENDBRANCH  10  11
ENDBRANCH   9  10
ENDBRANCH   8   9
ENDBRANCH   7   8
ENDBRANCH   6   7
ENDBRANCH   5   6
ENDBRANCH   4   5
ENDBRANCH   3   4
ENDBRANCH   2   3
ENDBRANCH   1   2
BRANCH   1  17
ATOM     17  C   UNL     1     109.242 106.714 110.767  1.00  0.00     0.000 C 
BRANCH  17  18
ATOM     18  C   UNL     1     108.233 107.592 111.527  1.00  0.00     0.000 C 
BRANCH  18  19
ATOM     19  C   UNL     1     107.493 106.825 112.634  1.00  0.00     0.000 C 
BRANCH  19  20
ATOM     20  C   UNL     1     106.010 107.217 112.681  1.00  0.00     0.000 C 
BRANCH  20  21
ATOM     21  C   UNL     1     105.314 106.576 113.891  1.00  0.00     0.000 C 
BRANCH  21  22
ATOM     22  C   UNL     1     104.004 105.866 113.513  1.00  0.00    -0.000 C 
BRANCH  22  23
ATOM     23  C   UNL     1     102.989 106.812 112.855  1.00  0.00    -0.000 C 
BRANCH  23  24
ATOM     24  C   UNL     1     101.623 106.131 112.701  1.00  0.00    -0.000 C 
BRANCH  24  25
ATOM     25  C   UNL     1     100.702 106.948 111.783  1.00  0.00    -0.000 C 
BRANCH  25  26
ATOM     26  C   UNL     1     100.213 106.151 110.560  1.00  0.00    -0.000 C 
BRANCH  26  27
ATOM     27  C   UNL     1     100.551 106.782 109.194  1.00  0.00    -0.000 C 
BRANCH  27  28
ATOM     28  C   UNL     1     101.356 108.094 109.259  1.00  0.00    -0.000 C 
BRANCH  28  29
ATOM     29  C   UNL     1     102.060 108.488 107.949  1.00  0.00    -0.003 C 
ATOM     30  C   UNL     1     101.688 109.891 107.473  1.00  0.00     0.004 C 
ENDBRANCH  28  29
ENDBRANCH  27  28
ENDBRANCH  26  27
ENDBRANCH  25  26
ENDBRANCH  24  25
ENDBRANCH  23  24
ENDBRANCH  22  23
ENDBRANCH  21  22
ENDBRANCH  20  21
ENDBRANCH  19  20
ENDBRANCH  18  19
ENDBRANCH  17  18
ENDBRANCH   1  17
TORSDOF 26
ENDMDL
MODEL 3
REMARK VINA RESULT:    -1.922      4.680     13.268
REMARK INTER + INTRA:          -6.513
REMARK INTER:                  -5.035
REMARK INTRA:                  -1.478
REMARK UNBOUND:                -1.668
REMARK SMILES CCCCCCCCCCCCCCCCCCCCCCCCCCCC(=O)[O-]
REMARK SMILES IDX 15 1 16 2 17 3 18 4 19 5 20 6 21 7 22 8 23 9 24 10 25 11
REMARK SMILES IDX 26 12 27 13 28 14 29 15 30 16 14 17 13 18 12 19 11 20 10 21
REMARK SMILES IDX 9 22 8 23 7 24 6 25 5 26 4 27 3 28 2 29 1 30
REMARK H PARENT
REMARK Flexibility Score: inf
ROOT
ATOM      1  C   UNL     1     108.128 106.179 112.575  1.00  0.00     0.000 C 
ENDROOT
BRANCH   1   2
ATOM      2  C   UNL     1     108.616 106.093 111.120  1.00  0.00     0.000 C 
BRANCH   2   3
ATOM      3  C   UNL     1     108.848 104.644 110.659  1.00  0.00     0.000 C 
BRANCH   3   4
ATOM      4  C   UNL     1     110.217 104.095 111.101  1.00  0.00     0.000 C 
BRANCH   4   5
ATOM      5  C   UNL     1     110.304 102.557 111.182  1.00  0.00     0.000 C 
BRANCH   5   6
ATOM      6  C   UNL     1     111.732 101.978 111.131  1.00  0.00     0.000 C 
BRANCH   6   7
ATOM      7  C   UNL     1     112.480 101.980 112.477  1.00  0.00     0.000 C 
BRANCH   7   8
ATOM      8  C   UNL     1     113.999 102.143 112.314  1.00  0.00     0.000 C 
BRANCH   8   9
ATOM      9  C   UNL     1     114.338 102.892 111.019  1.00  0.00     0.000 C 
BRANCH   9  10
ATOM     10  C   UNL     1     115.263 104.086 111.299  1.00  0.00     0.000 C 
BRANCH  10  11
ATOM     11  C   UNL     1     114.989 104.752 112.660  1.00  0.00     0.000 C 
BRANCH  11  12
ATOM     12  C   UNL     1     116.236 104.965 113.538  1.00  0.00     0.006 C 
BRANCH  12  13
ATOM     13  C   UNL     1     117.545 104.666 112.797  1.00  0.00     0.053 C 
BRANCH  13  14
ATOM     14  C   UNL     1     118.719 104.902 113.693  1.00  0.00     0.041 C 
ATOM     15  O   UNL     1     119.596 105.750 113.381  1.00  0.00    -0.550 OA
ATOM     16  O   UNL     1     118.867 104.157 114.858  1.00  0.00    -0.550 OA
ENDBRANCH  13  14
ENDBRANCH  12  13
ENDBRANCH  11  12
ENDBRANCH  10  11
ENDBRANCH   9  10
ENDBRANCH   8   9
ENDBRANCH   7   8
ENDBRANCH   6   7
ENDBRANCH   5   6
ENDBRANCH   4   5
ENDBRANCH   3   4
ENDBRANCH   2   3
ENDBRANCH   1   2
BRANCH   1  17
ATOM     17  C   UNL     1     106.852 107.028 112.717  1.00  0.00     0.000 C 
BRANCH  17  18
ATOM     18  C   UNL     1     105.851 106.431 113.720  1.00  0.00     0.000 C 
BRANCH  18  19
ATOM     19  C   UNL     1     104.524 107.202 113.766  1.00  0.00     0.000 C 
BRANCH  19  20
ATOM     20  C   UNL     1     103.327 106.241 113.784  1.00  0.00     0.000 C 
BRANCH  20  21
ATOM     21  C   UNL     1     102.601 106.247 112.430  1.00  0.00     0.000 C 
BRANCH  21  22
ATOM     22  C   UNL     1     101.071 106.241 112.578  1.00  0.00    -0.000 C 
BRANCH  22  23
ATOM     23  C   UNL     1     100.367 107.029 111.464  1.00  0.00    -0.000 C 
BRANCH  23  24
ATOM     24  C   UNL     1     100.195 106.168 110.206  1.00  0.00    -0.000 C 
BRANCH  24  25
ATOM     25  C   UNL     1     100.387 107.007 108.935  1.00  0.00    -0.000 C 
BRANCH  25  26
ATOM     26  C   UNL     1     101.498 108.063 109.075  1.00  0.00    -0.000 C 
BRANCH  26  27
ATOM     27  C   UNL     1     101.568 109.092 107.928  1.00  0.00    -0.000 C 
BRANCH  27  28
ATOM     28  C   UNL     1     102.827 109.004 107.044  1.00  0.00    -0.000 C 
BRANCH  28  29
ATOM     29  C   UNL     1     102.802 109.898 105.793  1.00  0.00    -0.003 C 
ATOM     30  C   UNL     1     103.594 109.309 104.625  1.00  0.00     0.004 C 
ENDBRANCH  28  29
ENDBRANCH  27  28
ENDBRANCH  26  27
ENDBRANCH  25  26
ENDBRANCH  24  25
ENDBRANCH  23  24
ENDBRANCH  22  23
ENDBRANCH  21  22
ENDBRANCH  20  21
ENDBRANCH  19  20
ENDBRANCH  18  19
ENDBRANCH  17  18
ENDBRANCH   1  17
TORSDOF 26
ENDMDL
MODEL 4
REMARK VINA RESULT:    -1.360      1.211      2.046
REMARK INTER + INTRA:          -5.095
REMARK INTER:                  -3.820
REMARK INTRA:                  -1.275
REMARK UNBOUND:                -1.668
REMARK SMILES CCCCCCCCCCCCCCCCCCCCCCCCCCCC(=O)[O-]
REMARK SMILES IDX 15 1 16 2 17 3 18 4 19 5 20 6 21 7 22 8 23 9 24 10 25 11
REMARK SMILES IDX 26 12 27 13 28 14 29 15 30 16 14 17 13 18 12 19 11 20 10 21
REMARK SMILES IDX 9 22 8 23 7 24 6 25 5 26 4 27 3 28 2 29 1 30
REMARK H PARENT
REMARK Flexibility Score: inf
ROOT
ATOM      1  C   UNL     1     107.436 107.189 111.746  1.00  0.00     0.000 C 
ENDROOT
BRANCH   1   2
ATOM      2  C   UNL     1     107.417 106.472 113.106  1.00  0.00     0.000 C 
BRANCH   2   3
ATOM      3  C   UNL     1     106.099 105.722 113.362  1.00  0.00     0.000 C 
BRANCH   3   4
ATOM      4  C   UNL     1     104.943 106.667 113.738  1.00  0.00     0.000 C 
BRANCH   4   5
ATOM      5  C   UNL     1     103.533 106.110 113.460  1.00  0.00     0.000 C 
BRANCH   5   6
ATOM      6  C   UNL     1     102.716 106.887 112.408  1.00  0.00     0.000 C 
BRANCH   6   7
ATOM      7  C   UNL     1     101.255 106.426 112.254  1.00  0.00     0.000 C 
BRANCH   7   8
ATOM      8  C   UNL     1     100.702 106.668 110.841  1.00  0.00     0.000 C 
BRANCH   8   9
ATOM      9  C   UNL     1     101.350 107.899 110.197  1.00  0.00     0.000 C 
BRANCH   9  10
ATOM     10  C   UNL     1     101.254 107.836 108.665  1.00  0.00     0.000 C 
BRANCH  10  11
ATOM     11  C   UNL     1     101.672 109.150 107.982  1.00  0.00     0.000 C 
BRANCH  11  12
ATOM     12  C   UNL     1     102.847 109.021 106.995  1.00  0.00     0.006 C 
BRANCH  12  13
ATOM     13  C   UNL     1     102.799 110.063 105.872  1.00  0.00     0.053 C 
BRANCH  13  14
ATOM     14  C   UNL     1     103.280 109.470 104.585  1.00  0.00     0.041 C 
ATOM     15  O   UNL     1     104.395 108.887 104.534  1.00  0.00    -0.550 OA
ATOM     16  O   UNL     1     102.514 109.594 103.432  1.00  0.00    -0.550 OA
ENDBRANCH  13  14
ENDBRANCH  12  13
ENDBRANCH  11  12
ENDBRANCH  10  11
ENDBRANCH   9  10
ENDBRANCH   8   9
ENDBRANCH   7   8
ENDBRANCH   6   7
ENDBRANCH   5   6
ENDBRANCH   4   5
ENDBRANCH   3   4
ENDBRANCH   2   3
ENDBRANCH   1   2
BRANCH   1  17
ATOM     17  C   UNL     1     108.508 106.622 110.799  1.00  0.00     0.000 C 
BRANCH  17  18
ATOM     18  C   UNL     1     108.715 105.108 110.976  1.00  0.00     0.000 C 
BRANCH  18  19
ATOM     19  C   UNL     1     110.196 104.702 110.935  1.00  0.00     0.000 C 
BRANCH  19  20
ATOM     20  C   UNL     1     110.352 103.176 110.977  1.00  0.00     0.000 C 
BRANCH  20  21
ATOM     21  C   UNL     1     111.389 102.761 112.032  1.00  0.00     0.000 C 
BRANCH  21  22
ATOM     22  C   UNL     1     112.556 101.960 111.432  1.00  0.00    -0.000 C 
BRANCH  22  23
ATOM     23  C   UNL     1     113.853 102.778 111.352  1.00  0.00    -0.000 C 
BRANCH  23  24
ATOM     24  C   UNL     1     114.246 103.323 112.730  1.00  0.00    -0.000 C 
BRANCH  24  25
ATOM     25  C   UNL     1     114.643 104.804 112.643  1.00  0.00    -0.000 C 
BRANCH  25  26
ATOM     26  C   UNL     1     115.962 105.116 113.372  1.00  0.00    -0.000 C 
BRANCH  26  27
ATOM     27  C   UNL     1     117.194 104.353 112.844  1.00  0.00    -0.000 C 
BRANCH  27  28
ATOM     28  C   UNL     1     118.397 104.305 113.807  1.00  0.00    -0.000 C 
BRANCH  28  29
ATOM     29  C   UNL     1     119.454 105.400 113.576  1.00  0.00    -0.003 C 
ATOM     30  C   UNL     1     119.121 106.306 112.391  1.00  0.00     0.004 C 
ENDBRANCH  28  29
ENDBRANCH  27  28
ENDBRANCH  26  27
ENDBRANCH  25  26
ENDBRANCH  24  25
ENDBRANCH  23  24
ENDBRANCH  22  23
ENDBRANCH  21  22
ENDBRANCH  20  21
ENDBRANCH  19  20
ENDBRANCH  18  19
ENDBRANCH  17  18
ENDBRANCH   1  17
TORSDOF 26
ENDMDL
MODEL 5
REMARK VINA RESULT:    -1.178      4.573     13.069
REMARK INTER + INTRA:          -4.637
REMARK INTER:                  -3.581
REMARK INTRA:                  -1.056
REMARK UNBOUND:                -1.668
REMARK SMILES CCCCCCCCCCCCCCCCCCCCCCCCCCCC(=O)[O-]
REMARK SMILES IDX 15 1 16 2 17 3 18 4 19 5 20 6 21 7 22 8 23 9 24 10 25 11
REMARK SMILES IDX 26 12 27 13 28 14 29 15 30 16 14 17 13 18 12 19 11 20 10 21
REMARK SMILES IDX 9 22 8 23 7 24 6 25 5 26 4 27 3 28 2 29 1 30
REMARK H PARENT
REMARK Flexibility Score: inf
ROOT
ATOM      1  C   UNL     1     106.413 105.971 113.090  1.00  0.00     0.000 C 
ENDROOT
BRANCH   1   2
ATOM      2  C   UNL     1     107.696 106.780 112.839  1.00  0.00     0.000 C 
BRANCH   2   3
ATOM      3  C   UNL     1     107.960 107.023 111.343  1.00  0.00     0.000 C 
BRANCH   3   4
ATOM      4  C   UNL     1     109.188 106.252 110.827  1.00  0.00     0.000 C 
BRANCH   4   5
ATOM      5  C   UNL     1     109.007 104.723 110.744  1.00  0.00     0.000 C 
BRANCH   5   6
ATOM      6  C   UNL     1     110.144 103.893 111.374  1.00  0.00     0.000 C 
BRANCH   6   7
ATOM      7  C   UNL     1     110.415 102.542 110.688  1.00  0.00     0.000 C 
BRANCH   7   8
ATOM      8  C   UNL     1     111.730 101.895 111.148  1.00  0.00     0.000 C 
BRANCH   8   9
ATOM      9  C   UNL     1     112.398 102.725 112.251  1.00  0.00     0.000 C 
BRANCH   9  10
ATOM     10  C   UNL     1     113.929 102.602 112.184  1.00  0.00     0.000 C 
BRANCH  10  11
ATOM     11  C   UNL     1     114.653 103.615 113.089  1.00  0.00     0.000 C 
BRANCH  11  12
ATOM     12  C   UNL     1     115.890 104.279 112.457  1.00  0.00     0.006 C 
BRANCH  12  13
ATOM     13  C   UNL     1     116.701 105.105 113.462  1.00  0.00     0.053 C 
BRANCH  13  14
ATOM     14  C   UNL     1     118.167 104.944 113.210  1.00  0.00     0.041 C 
ATOM     15  O   UNL     1     118.837 104.109 113.873  1.00  0.00    -0.550 OA
ATOM     16  O   UNL     1     118.803 105.743 112.267  1.00  0.00    -0.550 OA
ENDBRANCH  13  14
ENDBRANCH  12  13
ENDBRANCH  11  12
ENDBRANCH  10  11
ENDBRANCH   9  10
ENDBRANCH   8   9
ENDBRANCH   7   8
ENDBRANCH   6   7
ENDBRANCH   5   6
ENDBRANCH   4   5
ENDBRANCH   3   4
ENDBRANCH   2   3
ENDBRANCH   1   2
BRANCH   1  17
ATOM     17  C   UNL     1     105.248 106.853 113.573  1.00  0.00     0.000 C 
BRANCH  17  18
ATOM     18  C   UNL     1     103.897 106.118 113.547  1.00  0.00     0.000 C 
BRANCH  18  19
ATOM     19  C   UNL     1     102.821 106.880 112.760  1.00  0.00     0.000 C 
BRANCH  19  20
ATOM     20  C   UNL     1     101.582 106.005 112.529  1.00  0.00     0.000 C 
BRANCH  20  21
ATOM     21  C   UNL     1     100.473 106.801 111.825  1.00  0.00     0.000 C 
BRANCH  21  22
ATOM     22  C   UNL     1     100.610 106.782 110.294  1.00  0.00    -0.000 C 
BRANCH  22  23
ATOM     23  C   UNL     1     101.065 108.134 109.725  1.00  0.00    -0.000 C 
BRANCH  23  24
ATOM     24  C   UNL     1     101.580 107.980 108.288  1.00  0.00    -0.000 C 
BRANCH  24  25
ATOM     25  C   UNL     1     101.904 109.348 107.671  1.00  0.00    -0.000 C 
BRANCH  25  26
ATOM     26  C   UNL     1     103.103 109.304 106.707  1.00  0.00    -0.000 C 
BRANCH  26  27
ATOM     27  C   UNL     1     102.837 109.900 105.310  1.00  0.00    -0.000 C 
BRANCH  27  28
ATOM     28  C   UNL     1     103.816 109.449 104.208  1.00  0.00    -0.000 C 
BRANCH  28  29
ATOM     29  C   UNL     1     103.148 108.949 102.915  1.00  0.00    -0.003 C 
ATOM     30  C   UNL     1     104.129 108.826 101.749  1.00  0.00     0.004 C 
ENDBRANCH  28  29
ENDBRANCH  27  28
ENDBRANCH  26  27
ENDBRANCH  25  26
ENDBRANCH  24  25
ENDBRANCH  23  24
ENDBRANCH  22  23
ENDBRANCH  21  22
ENDBRANCH  20  21
ENDBRANCH  19  20
ENDBRANCH  18  19
ENDBRANCH  17  18
ENDBRANCH   1  17
TORSDOF 26
ENDMDL
MODEL 6
REMARK VINA RESULT:    -1.003      6.277     11.595
REMARK INTER + INTRA:          -4.196
REMARK INTER:                  -2.091
REMARK INTRA:                  -2.105
REMARK UNBOUND:                -1.668
REMARK SMILES CCCCCCCCCCCCCCCCCCCCCCCCCCCC(=O)[O-]
REMARK SMILES IDX 15 1 16 2 17 3 18 4 19 5 20 6 21 7 22 8 23 9 24 10 25 11
REMARK SMILES IDX 26 12 27 13 28 14 29 15 30 16 14 17 13 18 12 19 11 20 10 21
REMARK SMILES IDX 9 22 8 23 7 24 6 25 5 26 4 27 3 28 2 29 1 30
REMARK H PARENT
REMARK Flexibility Score: inf
ROOT
ATOM      1  C   UNL     1     110.184 102.686 110.534  1.00  0.00     0.000 C 
ENDROOT
BRANCH   1   2
ATOM      2  C   UNL     1     111.272 101.773 111.122  1.00  0.00     0.000 C 
BRANCH   2   3
ATOM      3  C   UNL     1     112.010 102.418 112.307  1.00  0.00     0.000 C 
BRANCH   3   4
ATOM      4  C   UNL     1     113.453 101.903 112.457  1.00  0.00     0.000 C 
BRANCH   4   5
ATOM      5  C   UNL     1     114.456 102.478 111.437  1.00  0.00     0.000 C 
BRANCH   5   6
ATOM      6  C   UNL     1     114.203 103.941 111.021  1.00  0.00     0.000 C 
BRANCH   6   7
ATOM      7  C   UNL     1     114.142 104.944 112.188  1.00  0.00     0.000 C 
BRANCH   7   8
ATOM      8  C   UNL     1     114.908 104.460 113.429  1.00  0.00     0.000 C 
BRANCH   8   9
ATOM      9  C   UNL     1     115.908 105.519 113.909  1.00  0.00     0.000 C 
BRANCH   9  10
ATOM     10  C   UNL     1     117.040 105.712 112.888  1.00  0.00     0.000 C 
BRANCH  10  11
ATOM     11  C   UNL     1     117.671 104.384 112.432  1.00  0.00     0.000 C 
BRANCH  11  12
ATOM     12  C   UNL     1     118.998 104.025 113.127  1.00  0.00     0.006 C 
BRANCH  12  13
ATOM     13  C   UNL     1     119.352 104.988 114.266  1.00  0.00     0.053 C 
BRANCH  13  14
ATOM     14  C   UNL     1     119.389 104.262 115.573  1.00  0.00     0.041 C 
ATOM     15  O   UNL     1     119.074 103.044 115.631  1.00  0.00    -0.550 OA
ATOM     16  O   UNL     1     119.735 104.940 116.736  1.00  0.00    -0.550 OA
ENDBRANCH  13  14
ENDBRANCH  12  13
ENDBRANCH  11  12
ENDBRANCH  10  11
ENDBRANCH   9  10
ENDBRANCH   8   9
ENDBRANCH   7   8
ENDBRANCH   6   7
ENDBRANCH   5   6
ENDBRANCH   4   5
ENDBRANCH   3   4
ENDBRANCH   2   3
ENDBRANCH   1   2
BRANCH   1  17
ATOM     17  C   UNL     1     110.254 104.118 111.094  1.00  0.00     0.000 C 
BRANCH  17  18
ATOM     18  C   UNL     1     108.968 104.920 110.834  1.00  0.00     0.000 C 
BRANCH  18  19
ATOM     19  C   UNL     1     108.166 105.190 112.116  1.00  0.00     0.000 C 
BRANCH  19  20
ATOM     20  C   UNL     1     107.957 106.694 112.330  1.00  0.00     0.000 C 
BRANCH  20  21
ATOM     21  C   UNL     1     108.361 107.487 111.077  1.00  0.00     0.000 C 
BRANCH  21  22
ATOM     22  C   UNL     1     109.780 108.070 111.177  1.00  0.00    -0.000 C 
BRANCH  22  23
ATOM     23  C   UNL     1     110.612 107.818 109.912  1.00  0.00    -0.000 C 
BRANCH  23  24
ATOM     24  C   UNL     1     112.034 107.369 110.269  1.00  0.00    -0.000 C 
BRANCH  24  25
ATOM     25  C   UNL     1     112.935 107.357 109.026  1.00  0.00    -0.000 C 
BRANCH  25  26
ATOM     26  C   UNL     1     112.834 108.651 108.198  1.00  0.00    -0.000 C 
BRANCH  26  27
ATOM     27  C   UNL     1     113.507 108.591 106.812  1.00  0.00    -0.000 C 
BRANCH  27  28
ATOM     28  C   UNL     1     112.848 107.628 105.804  1.00  0.00    -0.000 C 
BRANCH  28  29
ATOM     29  C   UNL     1     113.832 106.747 105.014  1.00  0.00    -0.003 C 
ATOM     30  C   UNL     1     113.344 106.434 103.600  1.00  0.00     0.004 C 
ENDBRANCH  28  29
ENDBRANCH  27  28
ENDBRANCH  26  27
ENDBRANCH  25  26
ENDBRANCH  24  25
ENDBRANCH  23  24
ENDBRANCH  22  23
ENDBRANCH  21  22
ENDBRANCH  20  21
ENDBRANCH  19  20
ENDBRANCH  18  19
ENDBRANCH  17  18
ENDBRANCH   1  17
TORSDOF 26
ENDMDL
MODEL 7
REMARK VINA RESULT:    -0.975      6.049     11.455
REMARK INTER + INTRA:          -4.125
REMARK INTER:                  -2.131
REMARK INTRA:                  -1.994
REMARK UNBOUND:                -1.668
REMARK SMILES CCCCCCCCCCCCCCCCCCCCCCCCCCCC(=O)[O-]
REMARK SMILES IDX 15 1 16 2 17 3 18 4 19 5 20 6 21 7 22 8 23 9 24 10 25 11
REMARK SMILES IDX 26 12 27 13 28 14 29 15 30 16 14 17 13 18 12 19 11 20 10 21
REMARK SMILES IDX 9 22 8 23 7 24 6 25 5 26 4 27 3 28 2 29 1 30
REMARK H PARENT
REMARK Flexibility Score: inf
ROOT
ATOM      1  C   UNL     1     109.811 103.884 110.396  1.00  0.00     0.000 C 
ENDROOT
BRANCH   1   2
ATOM      2  C   UNL     1     110.345 103.110 111.613  1.00  0.00     0.000 C 
BRANCH   2   3
ATOM      3  C   UNL     1     110.948 101.748 111.230  1.00  0.00     0.000 C 
BRANCH   3   4
ATOM      4  C   UNL     1     112.485 101.786 111.141  1.00  0.00     0.000 C 
BRANCH   4   5
ATOM      5  C   UNL     1     113.210 101.910 112.496  1.00  0.00     0.000 C 
BRANCH   5   6
ATOM      6  C   UNL     1     113.831 103.292 112.783  1.00  0.00     0.000 C 
BRANCH   6   7
ATOM      7  C   UNL     1     114.136 104.136 111.532  1.00  0.00     0.000 C 
BRANCH   7   8
ATOM      8  C   UNL     1     115.519 103.835 110.934  1.00  0.00     0.000 C 
BRANCH   8   9
ATOM      9  C   UNL     1     116.619 103.958 111.996  1.00  0.00     0.000 C 
BRANCH   9  10
ATOM     10  C   UNL     1     116.190 104.903 113.128  1.00  0.00     0.000 C 
BRANCH  10  11
ATOM     11  C   UNL     1     117.220 106.012 113.408  1.00  0.00     0.000 C 
BRANCH  11  12
ATOM     12  C   UNL     1     118.604 105.786 112.771  1.00  0.00     0.006 C 
BRANCH  12  13
ATOM     13  C   UNL     1     119.721 105.643 113.810  1.00  0.00     0.053 C 
BRANCH  13  14
ATOM     14  C   UNL     1     119.386 104.567 114.795  1.00  0.00     0.041 C 
ATOM     15  O   UNL     1     119.323 104.830 116.025  1.00  0.00    -0.550 OA
ATOM     16  O   UNL     1     119.179 103.264 114.359  1.00  0.00    -0.550 OA
ENDBRANCH  13  14
ENDBRANCH  12  13
ENDBRANCH  11  12
ENDBRANCH  10  11
ENDBRANCH   9  10
ENDBRANCH   8   9
ENDBRANCH   7   8
ENDBRANCH   6   7
ENDBRANCH   5   6
ENDBRANCH   4   5
ENDBRANCH   3   4
ENDBRANCH   2   3
ENDBRANCH   1   2
BRANCH   1  17
ATOM     17  C   UNL     1     108.577 104.737 110.738  1.00  0.00     0.000 C 
BRANCH  17  18
ATOM     18  C   UNL     1     108.591 105.246 112.189  1.00  0.00     0.000 C 
BRANCH  18  19
ATOM     19  C   UNL     1     107.680 106.464 112.401  1.00  0.00     0.000 C 
BRANCH  19  20
ATOM     20  C   UNL     1     107.796 107.450 111.231  1.00  0.00     0.000 C 
BRANCH  20  21
ATOM     21  C   UNL     1     109.102 108.255 111.321  1.00  0.00     0.000 C 
BRANCH  21  22
ATOM     22  C   UNL     1     110.060 107.962 110.156  1.00  0.00    -0.000 C 
BRANCH  22  23
ATOM     23  C   UNL     1     111.287 107.147 110.591  1.00  0.00    -0.000 C 
BRANCH  23  24
ATOM     24  C   UNL     1     112.534 107.570 109.805  1.00  0.00    -0.000 C 
BRANCH  24  25
ATOM     25  C   UNL     1     112.151 108.392 108.567  1.00  0.00    -0.000 C 
BRANCH  25  26
ATOM     26  C   UNL     1     113.353 108.702 107.656  1.00  0.00    -0.000 C 
BRANCH  26  27
ATOM     27  C   UNL     1     113.624 107.657 106.556  1.00  0.00    -0.000 C 
BRANCH  27  28
ATOM     28  C   UNL     1     112.571 107.600 105.432  1.00  0.00    -0.000 C 
BRANCH  28  29
ATOM     29  C   UNL     1     112.916 106.654 104.269  1.00  0.00    -0.003 C 
ATOM     30  C   UNL     1     114.225 107.023 103.571  1.00  0.00     0.004 C 
ENDBRANCH  28  29
ENDBRANCH  27  28
ENDBRANCH  26  27
ENDBRANCH  25  26
ENDBRANCH  24  25
ENDBRANCH  23  24
ENDBRANCH  22  23
ENDBRANCH  21  22
ENDBRANCH  20  21
ENDBRANCH  19  20
ENDBRANCH  18  19
ENDBRANCH  17  18
ENDBRANCH   1  17
TORSDOF 26
ENDMDL
MODEL 8
REMARK VINA RESULT:    -0.607      5.658     11.053
REMARK INTER + INTRA:          -3.198
REMARK INTER:                  -0.972
REMARK INTRA:                  -2.226
REMARK UNBOUND:                -1.668
REMARK SMILES CCCCCCCCCCCCCCCCCCCCCCCCCCCC(=O)[O-]
REMARK SMILES IDX 15 1 16 2 17 3 18 4 19 5 20 6 21 7 22 8 23 9 24 10 25 11
REMARK SMILES IDX 26 12 27 13 28 14 29 15 30 16 14 17 13 18 12 19 11 20 10 21
REMARK SMILES IDX 9 22 8 23 7 24 6 25 5 26 4 27 3 28 2 29 1 30
REMARK H PARENT
REMARK Flexibility Score: inf
ROOT
ATOM      1  C   UNL     1     110.313 103.914 111.128  1.00  0.00     0.000 C 
ENDROOT
BRANCH   1   2
ATOM      2  C   UNL     1     110.528 102.564 110.424  1.00  0.00     0.000 C 
BRANCH   2   3
ATOM      3  C   UNL     1     111.379 101.591 111.257  1.00  0.00     0.000 C 
BRANCH   3   4
ATOM      4  C   UNL     1     111.811 102.191 112.608  1.00  0.00     0.000 C 
BRANCH   4   5
ATOM      5  C   UNL     1     113.330 102.404 112.767  1.00  0.00     0.000 C 
BRANCH   5   6
ATOM      6  C   UNL     1     114.141 102.347 111.457  1.00  0.00     0.000 C 
BRANCH   6   7
ATOM      7  C   UNL     1     114.823 103.668 111.060  1.00  0.00     0.000 C 
BRANCH   7   8
ATOM      8  C   UNL     1     114.365 104.856 111.920  1.00  0.00     0.000 C 
BRANCH   8   9
ATOM      9  C   UNL     1     114.800 104.680 113.380  1.00  0.00     0.000 C 
BRANCH   9  10
ATOM     10  C   UNL     1     116.165 105.337 113.633  1.00  0.00     0.000 C 
BRANCH  10  11
ATOM     11  C   UNL     1     117.223 104.344 114.148  1.00  0.00     0.000 C 
BRANCH  11  12
ATOM     12  C   UNL     1     118.527 104.306 113.329  1.00  0.00     0.006 C 
BRANCH  12  13
ATOM     13  C   UNL     1     118.374 104.925 111.935  1.00  0.00     0.053 C 
BRANCH  13  14
ATOM     14  C   UNL     1     119.154 106.198 111.839  1.00  0.00     0.041 C 
ATOM     15  O   UNL     1     119.033 107.085 112.725  1.00  0.00    -0.550 OA
ATOM     16  O   UNL     1     119.989 106.422 110.751  1.00  0.00    -0.550 OA
ENDBRANCH  13  14
ENDBRANCH  12  13
ENDBRANCH  11  12
ENDBRANCH  10  11
ENDBRANCH   9  10
ENDBRANCH   8   9
ENDBRANCH   7   8
ENDBRANCH   6   7
ENDBRANCH   5   6
ENDBRANCH   4   5
ENDBRANCH   3   4
ENDBRANCH   2   3
ENDBRANCH   1   2
BRANCH   1  17
ATOM     17  C   UNL     1     109.068 104.654 110.609  1.00  0.00     0.000 C 
BRANCH  17  18
ATOM     18  C   UNL     1     107.995 104.843 111.695  1.00  0.00     0.000 C 
BRANCH  18  19
ATOM     19  C   UNL     1     108.182 106.140 112.497  1.00  0.00     0.000 C 
BRANCH  19  20
ATOM     20  C   UNL     1     107.356 107.285 111.896  1.00  0.00     0.000 C 
BRANCH  20  21
ATOM     21  C   UNL     1     108.168 108.050 110.841  1.00  0.00     0.000 C 
BRANCH  21  22
ATOM     22  C   UNL     1     109.667 108.109 111.174  1.00  0.00    -0.000 C 
BRANCH  22  23
ATOM     23  C   UNL     1     110.555 107.956 109.930  1.00  0.00    -0.000 C 
BRANCH  23  24
ATOM     24  C   UNL     1     111.858 107.222 110.271  1.00  0.00    -0.000 C 
BRANCH  24  25
ATOM     25  C   UNL     1     112.984 107.626 109.309  1.00  0.00    -0.000 C 
BRANCH  25  26
ATOM     26  C   UNL     1     112.462 108.228 107.992  1.00  0.00    -0.000 C 
BRANCH  26  27
ATOM     27  C   UNL     1     113.286 107.869 106.739  1.00  0.00    -0.000 C 
BRANCH  27  28
ATOM     28  C   UNL     1     112.458 107.569 105.474  1.00  0.00    -0.000 C 
BRANCH  28  29
ATOM     29  C   UNL     1     113.125 106.602 104.479  1.00  0.00    -0.003 C 
ATOM     30  C   UNL     1     114.375 107.190 103.827  1.00  0.00     0.004 C 
ENDBRANCH  28  29
ENDBRANCH  27  28
ENDBRANCH  26  27
ENDBRANCH  25  26
ENDBRANCH  24  25
ENDBRANCH  23  24
ENDBRANCH  22  23
ENDBRANCH  21  22
ENDBRANCH  20  21
ENDBRANCH  19  20
ENDBRANCH  18  19
ENDBRANCH  17  18
ENDBRANCH   1  17
TORSDOF 26
ENDMDL
MODEL 9
REMARK VINA RESULT:    -0.323      3.525      7.518
REMARK INTER + INTRA:          -2.481
REMARK INTER:                  -0.009
REMARK INTRA:                  -2.473
REMARK UNBOUND:                -1.668
REMARK SMILES CCCCCCCCCCCCCCCCCCCCCCCCCCCC(=O)[O-]
REMARK SMILES IDX 15 1 16 2 17 3 18 4 19 5 20 6 21 7 22 8 23 9 24 10 25 11
REMARK SMILES IDX 26 12 27 13 28 14 29 15 30 16 14 17 13 18 12 19 11 20 10 21
REMARK SMILES IDX 9 22 8 23 7 24 6 25 5 26 4 27 3 28 2 29 1 30
REMARK H PARENT
REMARK Flexibility Score: inf
ROOT
ATOM      1  C   UNL     1     115.605 103.510 110.663  1.00  0.00     0.000 C 
ENDROOT
BRANCH   1   2
ATOM      2  C   UNL     1     114.248 102.811 110.848  1.00  0.00     0.000 C 
BRANCH   2   3
ATOM      3  C   UNL     1     113.826 102.718 112.324  1.00  0.00     0.000 C 
BRANCH   3   4
ATOM      4  C   UNL     1     112.303 102.579 112.497  1.00  0.00     0.000 C 
BRANCH   4   5
ATOM      5  C   UNL     1     111.584 101.850 111.344  1.00  0.00     0.000 C 
BRANCH   5   6
ATOM      6  C   UNL     1     110.439 102.641 110.681  1.00  0.00     0.000 C 
BRANCH   6   7
ATOM      7  C   UNL     1     110.346 104.119 111.101  1.00  0.00     0.000 C 
BRANCH   7   8
ATOM      8  C   UNL     1     108.919 104.679 110.997  1.00  0.00     0.000 C 
BRANCH   8   9
ATOM      9  C   UNL     1     108.919 106.081 110.377  1.00  0.00     0.000 C 
BRANCH   9  10
ATOM     10  C   UNL     1     108.409 107.128 111.379  1.00  0.00     0.000 C 
BRANCH  10  11
ATOM     11  C   UNL     1     108.131 106.539 112.774  1.00  0.00     0.000 C 
BRANCH  11  12
ATOM     12  C   UNL     1     106.696 106.017 112.981  1.00  0.00     0.006 C 
BRANCH  12  13
ATOM     13  C   UNL     1     105.689 107.140 113.256  1.00  0.00     0.053 C 
BRANCH  13  14
ATOM     14  C   UNL     1     104.608 106.660 114.172  1.00  0.00     0.041 C 
ATOM     15  O   UNL     1     104.698 106.851 115.414  1.00  0.00    -0.550 OA
ATOM     16  O   UNL     1     103.517 105.968 113.659  1.00  0.00    -0.550 OA
ENDBRANCH  13  14
ENDBRANCH  12  13
ENDBRANCH  11  12
ENDBRANCH  10  11
ENDBRANCH   9  10
ENDBRANCH   8   9
ENDBRANCH   7   8
ENDBRANCH   6   7
ENDBRANCH   5   6
ENDBRANCH   4   5
ENDBRANCH   3   4
ENDBRANCH   2   3
ENDBRANCH   1   2
BRANCH   1  17
ATOM     17  C   UNL     1     116.516 103.358 111.894  1.00  0.00     0.000 C 
BRANCH  17  18
ATOM     18  C   UNL     1     117.705 104.334 111.876  1.00  0.00     0.000 C 
BRANCH  18  19
ATOM     19  C   UNL     1     117.837 105.134 113.181  1.00  0.00     0.000 C 
BRANCH  19  20
ATOM     20  C   UNL     1     116.491 105.225 113.912  1.00  0.00     0.000 C 
BRANCH  20  21
ATOM     21  C   UNL     1     115.662 106.406 113.385  1.00  0.00     0.000 C 
BRANCH  21  22
ATOM     22  C   UNL     1     114.343 105.962 112.734  1.00  0.00    -0.000 C 
BRANCH  22  23
ATOM     23  C   UNL     1     113.750 107.034 111.809  1.00  0.00    -0.000 C 
BRANCH  23  24
ATOM     24  C   UNL     1     113.005 106.394 110.631  1.00  0.00    -0.000 C 
BRANCH  24  25
ATOM     25  C   UNL     1     112.333 107.464 109.759  1.00  0.00    -0.000 C 
BRANCH  25  26
ATOM     26  C   UNL     1     113.281 108.062 108.704  1.00  0.00    -0.000 C 
BRANCH  26  27
ATOM     27  C   UNL     1     112.643 108.317 107.324  1.00  0.00    -0.000 C 
BRANCH  27  28
ATOM     28  C   UNL     1     113.532 107.964 106.115  1.00  0.00    -0.000 C 
BRANCH  28  29
ATOM     29  C   UNL     1     112.798 107.272 104.953  1.00  0.00    -0.003 C 
ATOM     30  C   UNL     1     113.749 106.585 103.974  1.00  0.00     0.004 C 
ENDBRANCH  28  29
ENDBRANCH  27  28
ENDBRANCH  26  27
ENDBRANCH  25  26
ENDBRANCH  24  25
ENDBRANCH  23  24
ENDBRANCH  22  23
ENDBRANCH  21  22
ENDBRANCH  20  21
ENDBRANCH  19  20
ENDBRANCH  18  19
ENDBRANCH  17  18
ENDBRANCH   1  17
TORSDOF 26
ENDMDL
