MODEL 1
REMARK VINA RESULT:    -3.623      0.000      0.000
REMARK INTER + INTRA:          -9.890
REMARK INTER:                  -7.012
REMARK INTRA:                  -2.878
REMARK UNBOUND:                -2.878
REMARK SMILES CCCCCCCCCCCCCCCCCC(=O)[O-]
REMARK SMILES IDX 10 1 11 2 12 3 13 4 14 5 15 6 16 7 17 8 18 9 19 10 20 11
REMARK SMILES IDX 9 12 8 13 7 14 6 15 5 16 4 17 3 18 2 19 1 20
REMARK H PARENT
REMARK Flexibility Score: inf
ROOT
ATOM      1  C   UNL     1      20.316  12.215 -16.614  1.00  0.00     0.000 C 
ENDROOT
BRANCH   1   2
ATOM      2  C   UNL     1      21.351  13.337 -16.418  1.00  0.00     0.000 C 
BRANCH   2   3
ATOM      3  C   UNL     1      20.713  14.672 -16.005  1.00  0.00     0.000 C 
BRANCH   3   4
ATOM      4  C   UNL     1      21.584  15.856 -16.452  1.00  0.00     0.000 C 
BRANCH   4   5
ATOM      5  C   UNL     1      20.778  16.936 -17.192  1.00  0.00     0.000 C 
BRANCH   5   6
ATOM      6  C   UNL     1      19.542  16.363 -17.908  1.00  0.00     0.000 C 
BRANCH   6   7
ATOM      7  C   UNL     1      19.782  16.128 -19.410  1.00  0.00     0.006 C 
BRANCH   7   8
ATOM      8  C   UNL     1      20.054  14.662 -19.784  1.00  0.00     0.053 C 
BRANCH   8   9
ATOM      9  C   UNL     1      21.513  14.397 -19.993  1.00  0.00     0.041 C 
ATOM     10  O   UNL     1      21.959  13.222 -19.925  1.00  0.00    -0.550 OA
ATOM     11  O   UNL     1      22.374  15.444 -20.300  1.00  0.00    -0.550 OA
ENDBRANCH   8   9
ENDBRANCH   7   8
ENDBRANCH   6   7
ENDBRANCH   5   6
ENDBRANCH   4   5
ENDBRANCH   3   4
ENDBRANCH   2   3
ENDBRANCH   1   2
BRANCH   1  12
ATOM     12  C   UNL     1      18.947  12.464 -15.948  1.00  0.00     0.000 C 
BRANCH  12  13
ATOM     13  C   UNL     1      17.738  11.897 -16.712  1.00  0.00    -0.000 C 
BRANCH  13  14
ATOM     14  C   UNL     1      17.671  12.379 -18.169  1.00  0.00    -0.000 C 
BRANCH  14  15
ATOM     15  C   UNL     1      17.673  11.193 -19.140  1.00  0.00    -0.000 C 
BRANCH  15  16
ATOM     16  C   UNL     1      19.052  11.013 -19.786  1.00  0.00    -0.000 C 
BRANCH  16  17
ATOM     17  C   UNL     1      19.689   9.682 -19.358  1.00  0.00    -0.000 C 
BRANCH  17  18
ATOM     18  C   UNL     1      18.697   8.744 -18.647  1.00  0.00    -0.000 C 
BRANCH  18  19
ATOM     19  C   UNL     1      19.320   7.841 -17.567  1.00  0.00    -0.003 C 
ATOM     20  C   UNL     1      19.522   8.557 -16.233  1.00  0.00     0.004 C 
ENDBRANCH  18  19
ENDBRANCH  17  18
ENDBRANCH  16  17
ENDBRANCH  15  16
ENDBRANCH  14  15
ENDBRANCH  13  14
ENDBRANCH  12  13
ENDBRANCH   1  12
TORSDOF 16
ENDMDL
MODEL 2
REMARK VINA RESULT:    -3.606      3.121      6.901
REMARK INTER + INTRA:          -9.857
REMARK INTER:                  -7.100
REMARK INTRA:                  -2.757
REMARK UNBOUND:                -2.878
REMARK SMILES CCCCCCCCCCCCCCCCCC(=O)[O-]
REMARK SMILES IDX 10 1 11 2 12 3 13 4 14 5 15 6 16 7 17 8 18 9 19 10 20 11
REMARK SMILES IDX 9 12 8 13 7 14 6 15 5 16 4 17 3 18 2 19 1 20
REMARK H PARENT
REMARK Flexibility Score: inf
ROOT
ATOM      1  C   UNL     1      19.668  13.273 -19.472  1.00  0.00     0.000 C 
ENDROOT
BRANCH   1   2
ATOM      2  C   UNL     1      18.825  13.611 -18.230  1.00  0.00     0.000 C 
BRANCH   2   3
ATOM      3  C   UNL     1      17.915  12.454 -17.792  1.00  0.00     0.000 C 
BRANCH   3   4
ATOM      4  C   UNL     1      18.299  11.955 -16.392  1.00  0.00     0.000 C 
BRANCH   4   5
ATOM      5  C   UNL     1      19.092  10.638 -16.431  1.00  0.00     0.000 C 
BRANCH   5   6
ATOM      6  C   UNL     1      18.985   9.925 -17.790  1.00  0.00     0.000 C 
BRANCH   6   7
ATOM      7  C   UNL     1      20.085   8.868 -17.995  1.00  0.00     0.006 C 
BRANCH   7   8
ATOM      8  C   UNL     1      20.120   7.775 -16.915  1.00  0.00     0.053 C 
BRANCH   8   9
ATOM      9  C   UNL     1      19.535   6.485 -17.402  1.00  0.00     0.041 C 
ATOM     10  O   UNL     1      18.509   6.491 -18.132  1.00  0.00    -0.550 OA
ATOM     11  O   UNL     1      20.144   5.278 -17.079  1.00  0.00    -0.550 OA
ENDBRANCH   8   9
ENDBRANCH   7   8
ENDBRANCH   6   7
ENDBRANCH   5   6
ENDBRANCH   4   5
ENDBRANCH   3   4
ENDBRANCH   2   3
ENDBRANCH   1   2
BRANCH   1  12
ATOM     12  C   UNL     1      21.073  12.707 -19.176  1.00  0.00     0.000 C 
BRANCH  12  13
ATOM     13  C   UNL     1      21.628  13.039 -17.780  1.00  0.00    -0.000 C 
BRANCH  13  14
ATOM     14  C   UNL     1      22.908  13.886 -17.831  1.00  0.00    -0.000 C 
BRANCH  14  15
ATOM     15  C   UNL     1      22.730  15.197 -17.056  1.00  0.00    -0.000 C 
BRANCH  15  16
ATOM     16  C   UNL     1      21.415  15.196 -16.266  1.00  0.00    -0.000 C 
BRANCH  16  17
ATOM     17  C   UNL     1      20.561  16.421 -16.621  1.00  0.00    -0.000 C 
BRANCH  17  18
ATOM     18  C   UNL     1      21.089  17.184 -17.851  1.00  0.00    -0.000 C 
BRANCH  18  19
ATOM     19  C   UNL     1      20.356  16.875 -19.168  1.00  0.00    -0.003 C 
ATOM     20  C   UNL     1      21.304  16.513 -20.309  1.00  0.00     0.004 C 
ENDBRANCH  18  19
ENDBRANCH  17  18
ENDBRANCH  16  17
ENDBRANCH  15  16
ENDBRANCH  14  15
ENDBRANCH  13  14
ENDBRANCH  12  13
ENDBRANCH   1  12
TORSDOF 16
ENDMDL
MODEL 3
REMARK VINA RESULT:    -3.579      2.366      5.654
REMARK INTER + INTRA:          -9.805
REMARK INTER:                  -6.562
REMARK INTRA:                  -3.243
REMARK UNBOUND:                -2.878
REMARK SMILES CCCCCCCCCCCCCCCCCC(=O)[O-]
REMARK SMILES IDX 10 1 11 2 12 3 13 4 14 5 15 6 16 7 17 8 18 9 19 10 20 11
REMARK SMILES IDX 9 12 8 13 7 14 6 15 5 16 4 17 3 18 2 19 1 20
REMARK H PARENT
REMARK Flexibility Score: inf
ROOT
ATOM      1  C   UNL     1      20.335  15.045 -20.007  1.00  0.00     0.000 C 
ENDROOT
BRANCH   1   2
ATOM      2  C   UNL     1      19.329  13.880 -20.035  1.00  0.00     0.000 C 
BRANCH   2   3
ATOM      3  C   UNL     1      19.427  12.977 -18.797  1.00  0.00     0.000 C 
BRANCH   3   4
ATOM      4  C   UNL     1      18.192  13.143 -17.899  1.00  0.00     0.000 C 
BRANCH   4   5
ATOM      5  C   UNL     1      18.233  12.229 -16.664  1.00  0.00     0.000 C 
BRANCH   5   6
ATOM      6  C   UNL     1      19.511  11.375 -16.603  1.00  0.00     0.000 C 
BRANCH   6   7
ATOM      7  C   UNL     1      19.217   9.864 -16.612  1.00  0.00     0.006 C 
BRANCH   7   8
ATOM      8  C   UNL     1      19.742   9.126 -17.854  1.00  0.00     0.053 C 
BRANCH   8   9
ATOM      9  C   UNL     1      18.653   8.848 -18.844  1.00  0.00     0.041 C 
ATOM     10  O   UNL     1      18.228   7.674 -19.003  1.00  0.00    -0.550 OA
ATOM     11  O   UNL     1      18.084   9.890 -19.566  1.00  0.00    -0.550 OA
ENDBRANCH   8   9
ENDBRANCH   7   8
ENDBRANCH   6   7
ENDBRANCH   5   6
ENDBRANCH   4   5
ENDBRANCH   3   4
ENDBRANCH   2   3
ENDBRANCH   1   2
BRANCH   1  12
ATOM     12  C   UNL     1      19.728  16.427 -19.684  1.00  0.00     0.000 C 
BRANCH  12  13
ATOM     13  C   UNL     1      19.487  16.699 -18.189  1.00  0.00    -0.000 C 
BRANCH  13  14
ATOM     14  C   UNL     1      20.758  16.548 -17.341  1.00  0.00    -0.000 C 
BRANCH  14  15
ATOM     15  C   UNL     1      20.566  15.492 -16.246  1.00  0.00    -0.000 C 
BRANCH  15  16
ATOM     16  C   UNL     1      21.653  14.412 -16.327  1.00  0.00    -0.000 C 
BRANCH  16  17
ATOM     17  C   UNL     1      22.800  14.855 -17.248  1.00  0.00    -0.000 C 
BRANCH  17  18
ATOM     18  C   UNL     1      23.265  13.740 -18.204  1.00  0.00    -0.000 C 
BRANCH  18  19
ATOM     19  C   UNL     1      23.019  12.308 -17.696  1.00  0.00    -0.003 C 
ATOM     20  C   UNL     1      22.581  11.349 -18.802  1.00  0.00     0.004 C 
ENDBRANCH  18  19
ENDBRANCH  17  18
ENDBRANCH  16  17
ENDBRANCH  15  16
ENDBRANCH  14  15
ENDBRANCH  13  14
ENDBRANCH  12  13
ENDBRANCH   1  12
TORSDOF 16
ENDMDL
MODEL 4
REMARK VINA RESULT:    -3.541      1.826      3.620
REMARK INTER + INTRA:          -9.731
REMARK INTER:                  -6.858
REMARK INTRA:                  -2.873
REMARK UNBOUND:                -2.878
REMARK SMILES CCCCCCCCCCCCCCCCCC(=O)[O-]
REMARK SMILES IDX 10 1 11 2 12 3 13 4 14 5 15 6 16 7 17 8 18 9 19 10 20 11
REMARK SMILES IDX 9 12 8 13 7 14 6 15 5 16 4 17 3 18 2 19 1 20
REMARK H PARENT
REMARK Flexibility Score: inf
ROOT
ATOM      1  C   UNL     1      21.223  12.421 -19.160  1.00  0.00     0.000 C 
ENDROOT
BRANCH   1   2
ATOM      2  C   UNL     1      20.589  13.285 -20.265  1.00  0.00     0.000 C 
BRANCH   2   3
ATOM      3  C   UNL     1      19.598  14.323 -19.717  1.00  0.00     0.000 C 
BRANCH   3   4
ATOM      4  C   UNL     1      19.459  15.510 -20.680  1.00  0.00     0.000 C 
BRANCH   4   5
ATOM      5  C   UNL     1      19.650  16.865 -19.979  1.00  0.00     0.000 C 
BRANCH   5   6
ATOM      6  C   UNL     1      20.166  16.716 -18.537  1.00  0.00     0.000 C 
BRANCH   6   7
ATOM      7  C   UNL     1      21.616  17.208 -18.372  1.00  0.00     0.006 C 
BRANCH   7   8
ATOM      8  C   UNL     1      22.593  16.656 -19.422  1.00  0.00     0.053 C 
BRANCH   8   9
ATOM      9  C   UNL     1      23.981  16.514 -18.877  1.00  0.00     0.041 C 
ATOM     10  O   UNL     1      24.963  16.969 -19.520  1.00  0.00    -0.550 OA
ATOM     11  O   UNL     1      24.187  15.911 -17.643  1.00  0.00    -0.550 OA
ENDBRANCH   8   9
ENDBRANCH   7   8
ENDBRANCH   6   7
ENDBRANCH   5   6
ENDBRANCH   4   5
ENDBRANCH   3   4
ENDBRANCH   2   3
ENDBRANCH   1   2
BRANCH   1  12
ATOM     12  C   UNL     1      22.192  13.167 -18.220  1.00  0.00     0.000 C 
BRANCH  12  13
ATOM     13  C   UNL     1      21.829  13.102 -16.726  1.00  0.00    -0.000 C 
BRANCH  13  14
ATOM     14  C   UNL     1      21.244  14.418 -16.194  1.00  0.00    -0.000 C 
BRANCH  14  15
ATOM     15  C   UNL     1      19.792  14.228 -15.738  1.00  0.00    -0.000 C 
BRANCH  15  16
ATOM     16  C   UNL     1      19.407  12.743 -15.731  1.00  0.00    -0.000 C 
BRANCH  16  17
ATOM     17  C   UNL     1      18.300  12.459 -16.758  1.00  0.00    -0.000 C 
BRANCH  17  18
ATOM     18  C   UNL     1      18.310  11.003 -17.262  1.00  0.00    -0.000 C 
BRANCH  18  19
ATOM     19  C   UNL     1      19.466  10.140 -16.724  1.00  0.00    -0.003 C 
ATOM     20  C   UNL     1      19.073   8.679 -16.516  1.00  0.00     0.004 C 
ENDBRANCH  18  19
ENDBRANCH  17  18
ENDBRANCH  16  17
ENDBRANCH  15  16
ENDBRANCH  14  15
ENDBRANCH  13  14
ENDBRANCH  12  13
ENDBRANCH   1  12
TORSDOF 16
ENDMDL
MODEL 5
REMARK VINA RESULT:    -3.506      2.081      2.709
REMARK INTER + INTRA:          -9.663
REMARK INTER:                  -7.490
REMARK INTRA:                  -2.173
REMARK UNBOUND:                -2.878
REMARK SMILES CCCCCCCCCCCCCCCCCC(=O)[O-]
REMARK SMILES IDX 10 1 11 2 12 3 13 4 14 5 15 6 16 7 17 8 18 9 19 10 20 11
REMARK SMILES IDX 9 12 8 13 7 14 6 15 5 16 4 17 3 18 2 19 1 20
REMARK H PARENT
REMARK Flexibility Score: inf
ROOT
ATOM      1  C   UNL     1      21.589  12.882 -17.843  1.00  0.00     0.000 C 
ENDROOT
BRANCH   1   2
ATOM      2  C   UNL     1      22.795  13.823 -18.019  1.00  0.00     0.000 C 
BRANCH   2   3
ATOM      3  C   UNL     1      22.724  15.060 -17.112  1.00  0.00     0.000 C 
BRANCH   3   4
ATOM      4  C   UNL     1      21.468  15.020 -16.230  1.00  0.00     0.000 C 
BRANCH   4   5
ATOM      5  C   UNL     1      20.629  16.304 -16.339  1.00  0.00     0.000 C 
BRANCH   5   6
ATOM      6  C   UNL     1      20.904  17.081 -17.637  1.00  0.00     0.000 C 
BRANCH   6   7
ATOM      7  C   UNL     1      19.878  16.774 -18.743  1.00  0.00     0.006 C 
BRANCH   7   8
ATOM      8  C   UNL     1      20.455  16.805 -20.167  1.00  0.00     0.053 C 
BRANCH   8   9
ATOM      9  C   UNL     1      19.586  17.582 -21.108  1.00  0.00     0.041 C 
ATOM     10  O   UNL     1      18.393  17.842 -20.800  1.00  0.00    -0.550 OA
ATOM     11  O   UNL     1      20.104  18.049 -22.310  1.00  0.00    -0.550 OA
ENDBRANCH   8   9
ENDBRANCH   7   8
ENDBRANCH   6   7
ENDBRANCH   5   6
ENDBRANCH   4   5
ENDBRANCH   3   4
ENDBRANCH   2   3
ENDBRANCH   1   2
BRANCH   1  12
ATOM     12  C   UNL     1      20.756  12.640 -19.119  1.00  0.00     0.000 C 
BRANCH  12  13
ATOM     13  C   UNL     1      19.348  13.260 -19.105  1.00  0.00    -0.000 C 
BRANCH  13  14
ATOM     14  C   UNL     1      18.761  13.380 -17.691  1.00  0.00    -0.000 C 
BRANCH  14  15
ATOM     15  C   UNL     1      17.807  12.217 -17.392  1.00  0.00    -0.000 C 
BRANCH  15  16
ATOM     16  C   UNL     1      18.503  11.134 -16.559  1.00  0.00    -0.000 C 
BRANCH  16  17
ATOM     17  C   UNL     1      18.789   9.887 -17.408  1.00  0.00    -0.000 C 
BRANCH  17  18
ATOM     18  C   UNL     1      19.453   8.753 -16.605  1.00  0.00    -0.000 C 
BRANCH  18  19
ATOM     19  C   UNL     1      19.224   7.339 -17.169  1.00  0.00    -0.003 C 
ATOM     20  C   UNL     1      20.510   6.522 -17.274  1.00  0.00     0.004 C 
ENDBRANCH  18  19
ENDBRANCH  17  18
ENDBRANCH  16  17
ENDBRANCH  15  16
ENDBRANCH  14  15
ENDBRANCH  13  14
ENDBRANCH  12  13
ENDBRANCH   1  12
TORSDOF 16
ENDMDL
MODEL 6
REMARK VINA RESULT:    -3.480      3.216      6.851
REMARK INTER + INTRA:          -9.612
REMARK INTER:                  -7.411
REMARK INTRA:                  -2.201
REMARK UNBOUND:                -2.878
REMARK SMILES CCCCCCCCCCCCCCCCCC(=O)[O-]
REMARK SMILES IDX 10 1 11 2 12 3 13 4 14 5 15 6 16 7 17 8 18 9 19 10 20 11
REMARK SMILES IDX 9 12 8 13 7 14 6 15 5 16 4 17 3 18 2 19 1 20
REMARK H PARENT
REMARK Flexibility Score: inf
ROOT
ATOM      1  C   UNL     1      19.305  13.284 -15.925  1.00  0.00     0.000 C 
ENDROOT
BRANCH   1   2
ATOM      2  C   UNL     1      18.392  13.279 -17.164  1.00  0.00     0.000 C 
BRANCH   2   3
ATOM      3  C   UNL     1      17.692  11.930 -17.386  1.00  0.00     0.000 C 
BRANCH   3   4
ATOM      4  C   UNL     1      18.569  10.771 -16.888  1.00  0.00     0.000 C 
BRANCH   4   5
ATOM      5  C   UNL     1      19.142   9.929 -18.039  1.00  0.00     0.000 C 
BRANCH   5   6
ATOM      6  C   UNL     1      20.339   9.066 -17.600  1.00  0.00     0.000 C 
BRANCH   6   7
ATOM      7  C   UNL     1      19.923   7.886 -16.704  1.00  0.00     0.006 C 
BRANCH   7   8
ATOM      8  C   UNL     1      20.173   6.503 -17.326  1.00  0.00     0.053 C 
BRANCH   8   9
ATOM      9  C   UNL     1      18.898   5.750 -17.553  1.00  0.00     0.041 C 
ATOM     10  O   UNL     1      17.790   6.340 -17.460  1.00  0.00    -0.550 OA
ATOM     11  O   UNL     1      18.934   4.406 -17.904  1.00  0.00    -0.550 OA
ENDBRANCH   8   9
ENDBRANCH   7   8
ENDBRANCH   6   7
ENDBRANCH   5   6
ENDBRANCH   4   5
ENDBRANCH   3   4
ENDBRANCH   2   3
ENDBRANCH   1   2
BRANCH   1  12
ATOM     12  C   UNL     1      20.280  14.476 -15.835  1.00  0.00     0.000 C 
BRANCH  12  13
ATOM     13  C   UNL     1      21.689  14.210 -16.394  1.00  0.00    -0.000 C 
BRANCH  13  14
ATOM     14  C   UNL     1      22.338  15.462 -17.001  1.00  0.00    -0.000 C 
BRANCH  14  15
ATOM     15  C   UNL     1      21.287  16.540 -17.289  1.00  0.00    -0.000 C 
BRANCH  15  16
ATOM     16  C   UNL     1      21.169  16.807 -18.795  1.00  0.00    -0.000 C 
BRANCH  16  17
ATOM     17  C   UNL     1      19.750  16.502 -19.298  1.00  0.00    -0.000 C 
BRANCH  17  18
ATOM     18  C   UNL     1      19.642  15.130 -19.991  1.00  0.00    -0.000 C 
BRANCH  18  19
ATOM     19  C   UNL     1      20.986  14.417 -20.227  1.00  0.00    -0.003 C 
ATOM     20  C   UNL     1      20.958  12.942 -19.829  1.00  0.00     0.004 C 
ENDBRANCH  18  19
ENDBRANCH  17  18
ENDBRANCH  16  17
ENDBRANCH  15  16
ENDBRANCH  14  15
ENDBRANCH  13  14
ENDBRANCH  12  13
ENDBRANCH   1  12
TORSDOF 16
ENDMDL
MODEL 7
REMARK VINA RESULT:    -3.477      1.443      2.840
REMARK INTER + INTRA:          -9.608
REMARK INTER:                  -6.362
REMARK INTRA:                  -3.246
REMARK UNBOUND:                -2.878
REMARK SMILES CCCCCCCCCCCCCCCCCC(=O)[O-]
REMARK SMILES IDX 10 1 11 2 12 3 13 4 14 5 15 6 16 7 17 8 18 9 19 10 20 11
REMARK SMILES IDX 9 12 8 13 7 14 6 15 5 16 4 17 3 18 2 19 1 20
REMARK H PARENT
REMARK Flexibility Score: inf
ROOT
ATOM      1  C   UNL     1      20.696  13.155 -19.419  1.00  0.00     0.000 C 
ENDROOT
BRANCH   1   2
ATOM      2  C   UNL     1      22.227  13.008 -19.482  1.00  0.00     0.000 C 
BRANCH   2   3
ATOM      3  C   UNL     1      22.930  13.538 -18.224  1.00  0.00     0.000 C 
BRANCH   3   4
ATOM      4  C   UNL     1      22.022  13.405 -16.992  1.00  0.00     0.000 C 
BRANCH   4   5
ATOM      5  C   UNL     1      21.734  14.759 -16.322  1.00  0.00     0.000 C 
BRANCH   5   6
ATOM      6  C   UNL     1      20.232  15.089 -16.278  1.00  0.00     0.000 C 
BRANCH   6   7
ATOM      7  C   UNL     1      19.827  16.152 -17.314  1.00  0.00     0.006 C 
BRANCH   7   8
ATOM      8  C   UNL     1      21.007  16.939 -17.907  1.00  0.00     0.053 C 
BRANCH   8   9
ATOM      9  C   UNL     1      21.038  16.863 -19.402  1.00  0.00     0.041 C 
ATOM     10  O   UNL     1      22.120  16.628 -20.002  1.00  0.00    -0.550 OA
ATOM     11  O   UNL     1      19.866  17.016 -20.133  1.00  0.00    -0.550 OA
ENDBRANCH   8   9
ENDBRANCH   7   8
ENDBRANCH   6   7
ENDBRANCH   5   6
ENDBRANCH   4   5
ENDBRANCH   3   4
ENDBRANCH   2   3
ENDBRANCH   1   2
BRANCH   1  12
ATOM     12  C   UNL     1      19.907  12.176 -20.314  1.00  0.00     0.000 C 
BRANCH  12  13
ATOM     13  C   UNL     1      18.394  12.120 -20.042  1.00  0.00    -0.000 C 
BRANCH  13  14
ATOM     14  C   UNL     1      17.990  12.852 -18.755  1.00  0.00    -0.000 C 
BRANCH  14  15
ATOM     15  C   UNL     1      17.423  11.872 -17.721  1.00  0.00    -0.000 C 
BRANCH  15  16
ATOM     16  C   UNL     1      18.227  11.924 -16.415  1.00  0.00    -0.000 C 
BRANCH  16  17
ATOM     17  C   UNL     1      19.493  11.060 -16.515  1.00  0.00    -0.000 C 
BRANCH  17  18
ATOM     18  C   UNL     1      19.190   9.593 -16.874  1.00  0.00    -0.000 C 
BRANCH  18  19
ATOM     19  C   UNL     1      19.830   9.103 -18.185  1.00  0.00    -0.003 C 
ATOM     20  C   UNL     1      21.315   9.447 -18.291  1.00  0.00     0.004 C 
ENDBRANCH  18  19
ENDBRANCH  17  18
ENDBRANCH  16  17
ENDBRANCH  15  16
ENDBRANCH  14  15
ENDBRANCH  13  14
ENDBRANCH  12  13
ENDBRANCH   1  12
TORSDOF 16
ENDMDL
MODEL 8
REMARK VINA RESULT:    -3.440      2.062      6.006
REMARK INTER + INTRA:          -9.536
REMARK INTER:                  -6.809
REMARK INTRA:                  -2.727
REMARK UNBOUND:                -2.878
REMARK SMILES CCCCCCCCCCCCCCCCCC(=O)[O-]
REMARK SMILES IDX 10 1 11 2 12 3 13 4 14 5 15 6 16 7 17 8 18 9 19 10 20 11
REMARK SMILES IDX 9 12 8 13 7 14 6 15 5 16 4 17 3 18 2 19 1 20
REMARK H PARENT
REMARK Flexibility Score: inf
ROOT
ATOM      1  C   UNL     1      19.646  12.361 -19.832  1.00  0.00     0.000 C 
ENDROOT
BRANCH   1   2
ATOM      2  C   UNL     1      18.141  12.429 -20.150  1.00  0.00     0.000 C 
BRANCH   2   3
ATOM      3  C   UNL     1      17.259  12.096 -18.938  1.00  0.00     0.000 C 
BRANCH   3   4
ATOM      4  C   UNL     1      17.924  12.559 -17.633  1.00  0.00     0.000 C 
BRANCH   4   5
ATOM      5  C   UNL     1      17.987  11.445 -16.575  1.00  0.00     0.000 C 
BRANCH   5   6
ATOM      6  C   UNL     1      19.301  10.647 -16.635  1.00  0.00     0.000 C 
BRANCH   6   7
ATOM      7  C   UNL     1      19.097   9.146 -16.362  1.00  0.00     0.006 C 
BRANCH   7   8
ATOM      8  C   UNL     1      19.790   8.221 -17.374  1.00  0.00     0.053 C 
BRANCH   8   9
ATOM      9  C   UNL     1      19.565   8.664 -18.787  1.00  0.00     0.041 C 
ATOM     10  O   UNL     1      20.545   8.948 -19.525  1.00  0.00    -0.550 OA
ATOM     11  O   UNL     1      18.276   8.730 -19.300  1.00  0.00    -0.550 OA
ENDBRANCH   8   9
ENDBRANCH   7   8
ENDBRANCH   6   7
ENDBRANCH   5   6
ENDBRANCH   4   5
ENDBRANCH   3   4
ENDBRANCH   2   3
ENDBRANCH   1   2
BRANCH   1  12
ATOM     12  C   UNL     1      20.461  13.601 -20.255  1.00  0.00     0.000 C 
BRANCH  12  13
ATOM     13  C   UNL     1      19.815  14.954 -19.908  1.00  0.00    -0.000 C 
BRANCH  13  14
ATOM     14  C   UNL     1      20.772  16.140 -20.099  1.00  0.00    -0.000 C 
BRANCH  14  15
ATOM     15  C   UNL     1      20.807  17.024 -18.847  1.00  0.00    -0.000 C 
BRANCH  15  16
ATOM     16  C   UNL     1      19.864  16.484 -17.765  1.00  0.00    -0.000 C 
BRANCH  16  17
ATOM     17  C   UNL     1      20.628  16.203 -16.462  1.00  0.00    -0.000 C 
BRANCH  17  18
ATOM     18  C   UNL     1      20.429  14.764 -15.949  1.00  0.00    -0.000 C 
BRANCH  18  19
ATOM     19  C   UNL     1      21.302  13.703 -16.644  1.00  0.00    -0.003 C 
ATOM     20  C   UNL     1      22.613  14.270 -17.186  1.00  0.00     0.004 C 
ENDBRANCH  18  19
ENDBRANCH  17  18
ENDBRANCH  16  17
ENDBRANCH  15  16
ENDBRANCH  14  15
ENDBRANCH  13  14
ENDBRANCH  12  13
ENDBRANCH   1  12
TORSDOF 16
ENDMDL
MODEL 9
REMARK VINA RESULT:    -3.437      3.737      6.871
REMARK INTER + INTRA:          -9.529
REMARK INTER:                  -7.303
REMARK INTRA:                  -2.226
REMARK UNBOUND:                -2.878
REMARK SMILES CCCCCCCCCCCCCCCCCC(=O)[O-]
REMARK SMILES IDX 10 1 11 2 12 3 13 4 14 5 15 6 16 7 17 8 18 9 19 10 20 11
REMARK SMILES IDX 9 12 8 13 7 14 6 15 5 16 4 17 3 18 2 19 1 20
REMARK H PARENT
REMARK Flexibility Score: inf
ROOT
ATOM      1  C   UNL     1      19.151  12.863 -15.551  1.00  0.00     0.000 C 
ENDROOT
BRANCH   1   2
ATOM      2  C   UNL     1      18.539  12.570 -16.932  1.00  0.00     0.000 C 
BRANCH   2   3
ATOM      3  C   UNL     1      18.373  11.068 -17.206  1.00  0.00     0.000 C 
BRANCH   3   4
ATOM      4  C   UNL     1      19.483  10.260 -16.516  1.00  0.00     0.000 C 
BRANCH   4   5
ATOM      5  C   UNL     1      19.126   8.772 -16.370  1.00  0.00     0.000 C 
BRANCH   5   6
ATOM      6  C   UNL     1      20.018   7.863 -17.234  1.00  0.00     0.000 C 
BRANCH   6   7
ATOM      7  C   UNL     1      19.220   7.082 -18.293  1.00  0.00     0.006 C 
BRANCH   7   8
ATOM      8  C   UNL     1      18.019   6.304 -17.733  1.00  0.00     0.053 C 
BRANCH   8   9
ATOM      9  C   UNL     1      18.168   4.826 -17.923  1.00  0.00     0.041 C 
ATOM     10  O   UNL     1      19.304   4.326 -18.131  1.00  0.00    -0.550 OA
ATOM     11  O   UNL     1      17.057   3.996 -17.835  1.00  0.00    -0.550 OA
ENDBRANCH   8   9
ENDBRANCH   7   8
ENDBRANCH   6   7
ENDBRANCH   5   6
ENDBRANCH   4   5
ENDBRANCH   3   4
ENDBRANCH   2   3
ENDBRANCH   1   2
BRANCH   1  12
ATOM     12  C   UNL     1      19.869  14.223 -15.428  1.00  0.00     0.000 C 
BRANCH  12  13
ATOM     13  C   UNL     1      20.013  15.005 -16.745  1.00  0.00    -0.000 C 
BRANCH  13  14
ATOM     14  C   UNL     1      21.138  16.050 -16.700  1.00  0.00    -0.000 C 
BRANCH  14  15
ATOM     15  C   UNL     1      22.500  15.401 -16.976  1.00  0.00    -0.000 C 
BRANCH  15  16
ATOM     16  C   UNL     1      22.385  14.319 -18.057  1.00  0.00    -0.000 C 
BRANCH  16  17
ATOM     17  C   UNL     1      22.936  12.977 -17.550  1.00  0.00    -0.000 C 
BRANCH  17  18
ATOM     18  C   UNL     1      22.223  11.763 -18.175  1.00  0.00    -0.000 C 
BRANCH  18  19
ATOM     19  C   UNL     1      21.277  12.098 -19.342  1.00  0.00    -0.003 C 
ATOM     20  C   UNL     1      20.754  10.857 -20.063  1.00  0.00     0.004 C 
ENDBRANCH  18  19
ENDBRANCH  17  18
ENDBRANCH  16  17
ENDBRANCH  15  16
ENDBRANCH  14  15
ENDBRANCH  13  14
ENDBRANCH  12  13
ENDBRANCH   1  12
TORSDOF 16
ENDMDL
