MODEL 1
REMARK VINA RESULT:    -7.796      0.000      0.000
REMARK INTER + INTRA:         -11.630
REMARK INTER:                 -10.759
REMARK INTRA:                  -0.871
REMARK UNBOUND:                -0.871
REMARK SMILES CC[C@H](CC[C@H](C)[C@H]1CC[C@H]2[C@@H]3CC=C4C[C@@H](O)CC[C@@]4(C)[C@@H]3CC[C@@]12C)C(C)C
REMARK SMILES IDX 5 1 4 2 3 3 2 4 1 5 28 6 29 7 30 8 6 9 7 10 8 11 9 12 26 13
REMARK SMILES IDX 10 14 11 15 25 16 27 17 12 18 24 19 23 20 13 21 21 22 14 23
REMARK SMILES IDX 15 24 20 25 22 26 16 27 19 28 17 29 18 30
REMARK H PARENT 18 31
REMARK Flexibility Score: inf
ROOT
ATOM      1  C   UNL     1     119.878 129.619 129.189  1.00  0.00     0.004 C 
ENDROOT
BRANCH   1   2
ATOM      2  C   UNL     1     119.437 131.096 129.249  1.00  0.00     0.004 C 
BRANCH   2   3
ATOM      3  C   UNL     1     120.417 132.076 128.547  1.00  0.00    -0.009 C 
BRANCH   3   4
ATOM      4  C   UNL     1     119.729 133.449 128.304  1.00  0.00     0.000 C 
ATOM      5  C   UNL     1     118.973 133.521 126.975  1.00  0.00     0.004 C 
ENDBRANCH   3   4
BRANCH   3   6
ATOM      6  C   UNL     1     121.784 132.216 129.301  1.00  0.00    -0.014 C 
ATOM      7  C   UNL     1     122.972 131.732 128.453  1.00  0.00     0.007 C 
ATOM      8  C   UNL     1     122.053 133.634 129.833  1.00  0.00     0.007 C 
ENDBRANCH   3   6
ENDBRANCH   2   3
ENDBRANCH   1   2
BRANCH   1   9
ATOM      9  C   UNL     1     118.698 128.640 129.433  1.00  0.00    -0.011 C 
ATOM     10  C   UNL     1     117.799 129.207 130.550  1.00  0.00     0.008 C 
BRANCH   9  11
ATOM     11  C   UNL     1     119.225 127.173 129.686  1.00  0.00    -0.002 C 
ATOM     12  C   UNL     1     119.077 126.627 131.110  1.00  0.00     0.005 C 
ATOM     13  C   UNL     1     118.690 126.047 128.754  1.00  0.00    -0.026 C 
ATOM     14  C   UNL     1     119.195 125.109 130.989  1.00  0.00     0.005 C 
ATOM     15  C   UNL     1     119.199 124.768 129.486  1.00  0.00    -0.001 C 
ATOM     16  C   UNL     1     117.138 126.065 128.661  1.00  0.00     0.007 C 
ATOM     17  C   UNL     1     119.314 126.202 127.342  1.00  0.00     0.012 C 
ATOM     18  C   UNL     1     118.452 123.432 129.187  1.00  0.00     0.000 C 
ATOM     19  C   UNL     1     116.534 124.740 128.174  1.00  0.00     0.005 C 
ATOM     20  C   UNL     1     116.912 123.583 129.135  1.00  0.00     0.003 C 
ATOM     21  C   UNL     1     118.969 122.760 127.905  1.00  0.00     0.031 C 
ATOM     22  C   UNL     1     116.187 122.187 128.882  1.00  0.00    -0.008 C 
ATOM     23  C   UNL     1     118.293 121.449 127.670  1.00  0.00    -0.027 C 
ATOM     24  C   UNL     1     117.023 121.199 128.048  1.00  0.00    -0.065 C 
ATOM     25  C   UNL     1     115.945 121.507 130.270  1.00  0.00     0.014 C 
ATOM     26  C   UNL     1     114.813 122.397 128.188  1.00  0.00     0.016 C 
ATOM     27  C   UNL     1     116.502 119.781 127.910  1.00  0.00     0.063 C 
ATOM     28  C   UNL     1     115.426 120.055 130.186  1.00  0.00     0.033 C 
ATOM     29  C   UNL     1     116.319 119.163 129.302  1.00  0.00     0.118 C 
BRANCH  29  30
ATOM     30  O   UNL     1     117.576 118.981 129.903  1.00  0.00    -0.393 OA
ATOM     31  H   UNL     1     117.674 119.693 130.588  1.00  0.00     0.210 HD
ENDBRANCH  29  30
ENDBRANCH   9  11
ENDBRANCH   1   9
TORSDOF 7
ENDMDL
MODEL 2
REMARK VINA RESULT:    -7.227      1.537      3.180
REMARK INTER + INTRA:         -10.844
REMARK INTER:                  -9.701
REMARK INTRA:                  -1.144
REMARK UNBOUND:                -0.871
REMARK SMILES CC[C@H](CC[C@H](C)[C@H]1CC[C@H]2[C@@H]3CC=C4C[C@@H](O)CC[C@@]4(C)[C@@H]3CC[C@@]12C)C(C)C
REMARK SMILES IDX 5 1 4 2 3 3 2 4 1 5 28 6 29 7 30 8 6 9 7 10 8 11 9 12 26 13
REMARK SMILES IDX 10 14 11 15 25 16 27 17 12 18 24 19 23 20 13 21 21 22 14 23
REMARK SMILES IDX 15 24 20 25 22 26 16 27 19 28 17 29 18 30
REMARK H PARENT 18 31
REMARK Flexibility Score: inf
ROOT
ATOM      1  C   UNL     1     119.071 130.217 129.880  1.00  0.00     0.004 C 
ENDROOT
BRANCH   1   2
ATOM      2  C   UNL     1     119.622 131.157 128.787  1.00  0.00     0.004 C 
BRANCH   2   3
ATOM      3  C   UNL     1     120.199 132.492 129.335  1.00  0.00    -0.009 C 
BRANCH   3   4
ATOM      4  C   UNL     1     121.734 132.370 129.548  1.00  0.00     0.000 C 
ATOM      5  C   UNL     1     122.482 131.886 128.303  1.00  0.00     0.004 C 
ENDBRANCH   3   4
BRANCH   3   6
ATOM      6  C   UNL     1     119.812 133.729 128.455  1.00  0.00    -0.014 C 
ATOM      7  C   UNL     1     119.035 133.327 127.189  1.00  0.00     0.007 C 
ATOM      8  C   UNL     1     119.045 134.818 129.225  1.00  0.00     0.007 C 
ENDBRANCH   3   6
ENDBRANCH   2   3
ENDBRANCH   1   2
BRANCH   1   9
ATOM      9  C   UNL     1     119.596 128.764 129.729  1.00  0.00    -0.011 C 
ATOM     10  C   UNL     1     120.697 128.738 128.650  1.00  0.00     0.008 C 
BRANCH   9  11
ATOM     11  C   UNL     1     118.405 127.756 129.485  1.00  0.00    -0.002 C 
ATOM     12  C   UNL     1     118.339 127.093 128.105  1.00  0.00     0.005 C 
ATOM     13  C   UNL     1     118.223 126.598 130.509  1.00  0.00    -0.026 C 
ATOM     14  C   UNL     1     117.447 125.865 128.275  1.00  0.00     0.005 C 
ATOM     15  C   UNL     1     117.174 125.701 129.783  1.00  0.00    -0.001 C 
ATOM     16  C   UNL     1     119.552 125.829 130.752  1.00  0.00     0.007 C 
ATOM     17  C   UNL     1     117.681 127.168 131.846  1.00  0.00     0.012 C 
ATOM     18  C   UNL     1     117.105 124.202 130.207  1.00  0.00     0.000 C 
ATOM     19  C   UNL     1     119.355 124.429 131.347  1.00  0.00     0.005 C 
ATOM     20  C   UNL     1     118.496 123.550 130.402  1.00  0.00     0.003 C 
ATOM     21  C   UNL     1     116.236 123.999 131.458  1.00  0.00     0.031 C 
ATOM     22  C   UNL     1     118.379 122.006 130.780  1.00  0.00    -0.008 C 
ATOM     23  C   UNL     1     116.123 122.552 131.810  1.00  0.00    -0.027 C 
ATOM     24  C   UNL     1     117.103 121.658 131.568  1.00  0.00    -0.065 C 
ATOM     25  C   UNL     1     118.322 121.184 129.450  1.00  0.00     0.014 C 
ATOM     26  C   UNL     1     119.618 121.543 131.594  1.00  0.00     0.016 C 
ATOM     27  C   UNL     1     116.808 120.191 131.812  1.00  0.00     0.063 C 
ATOM     28  C   UNL     1     118.011 119.683 129.642  1.00  0.00     0.033 C 
ATOM     29  C   UNL     1     116.733 119.451 130.470  1.00  0.00     0.118 C 
BRANCH  29  30
ATOM     30  O   UNL     1     115.603 119.885 129.758  1.00  0.00    -0.393 OA
ATOM     31  H   UNL     1     114.910 119.182 129.861  1.00  0.00     0.210 HD
ENDBRANCH  29  30
ENDBRANCH   9  11
ENDBRANCH   1   9
TORSDOF 7
ENDMDL
MODEL 3
REMARK VINA RESULT:    -7.069      6.581      9.044
REMARK INTER + INTRA:         -10.626
REMARK INTER:                  -8.607
REMARK INTRA:                  -2.019
REMARK UNBOUND:                -0.871
REMARK SMILES CC[C@H](CC[C@H](C)[C@H]1CC[C@H]2[C@@H]3CC=C4C[C@@H](O)CC[C@@]4(C)[C@@H]3CC[C@@]12C)C(C)C
REMARK SMILES IDX 5 1 4 2 3 3 2 4 1 5 28 6 29 7 30 8 6 9 7 10 8 11 9 12 26 13
REMARK SMILES IDX 10 14 11 15 25 16 27 17 12 18 24 19 23 20 13 21 21 22 14 23
REMARK SMILES IDX 15 24 20 25 22 26 16 27 19 28 17 29 18 30
REMARK H PARENT 18 31
REMARK Flexibility Score: inf
ROOT
ATOM      1  C   UNL     1     118.398 121.663 132.597  1.00  0.00     0.004 C 
ENDROOT
BRANCH   1   2
ATOM      2  C   UNL     1     116.875 121.845 132.431  1.00  0.00     0.004 C 
BRANCH   2   3
ATOM      3  C   UNL     1     116.081 120.510 132.381  1.00  0.00    -0.009 C 
BRANCH   3   4
ATOM      4  C   UNL     1     115.295 120.297 133.705  1.00  0.00     0.000 C 
ATOM      5  C   UNL     1     116.171 119.797 134.856  1.00  0.00     0.004 C 
ENDBRANCH   3   4
BRANCH   3   6
ATOM      6  C   UNL     1     115.166 120.392 131.114  1.00  0.00    -0.014 C 
ATOM      7  C   UNL     1     114.918 121.755 130.444  1.00  0.00     0.007 C 
ATOM      8  C   UNL     1     115.674 119.375 130.078  1.00  0.00     0.007 C 
ENDBRANCH   3   6
ENDBRANCH   2   3
ENDBRANCH   1   2
BRANCH   1   9
ATOM      9  C   UNL     1     118.954 120.510 131.719  1.00  0.00    -0.011 C 
ATOM     10  C   UNL     1     119.596 119.448 132.633  1.00  0.00     0.008 C 
BRANCH   9  11
ATOM     11  C   UNL     1     119.901 121.070 130.586  1.00  0.00    -0.002 C 
ATOM     12  C   UNL     1     121.362 120.607 130.623  1.00  0.00     0.005 C 
ATOM     13  C   UNL     1     119.445 120.882 129.110  1.00  0.00    -0.026 C 
ATOM     14  C   UNL     1     121.919 120.873 129.225  1.00  0.00     0.005 C 
ATOM     15  C   UNL     1     120.734 121.288 128.331  1.00  0.00    -0.001 C 
ATOM     16  C   UNL     1     119.046 119.410 128.813  1.00  0.00     0.007 C 
ATOM     17  C   UNL     1     118.256 121.832 128.810  1.00  0.00     0.012 C 
ATOM     18  C   UNL     1     120.884 120.751 126.874  1.00  0.00     0.000 C 
ATOM     19  C   UNL     1     119.053 119.058 127.319  1.00  0.00     0.005 C 
ATOM     20  C   UNL     1     120.466 119.268 126.716  1.00  0.00     0.003 C 
ATOM     21  C   UNL     1     120.136 121.630 125.859  1.00  0.00     0.031 C 
ATOM     22  C   UNL     1     120.687 118.745 125.227  1.00  0.00    -0.008 C 
ATOM     23  C   UNL     1     120.347 121.143 124.463  1.00  0.00    -0.027 C 
ATOM     24  C   UNL     1     120.533 119.843 124.158  1.00  0.00    -0.065 C 
ATOM     25  C   UNL     1     122.153 118.212 125.112  1.00  0.00     0.014 C 
ATOM     26  C   UNL     1     119.711 117.582 124.901  1.00  0.00     0.016 C 
ATOM     27  C   UNL     1     120.905 119.489 122.731  1.00  0.00     0.063 C 
ATOM     28  C   UNL     1     122.588 117.849 123.675  1.00  0.00     0.033 C 
ATOM     29  C   UNL     1     122.360 119.006 122.684  1.00  0.00     0.118 C 
BRANCH  29  30
ATOM     30  O   UNL     1     123.219 120.078 122.978  1.00  0.00    -0.393 OA
ATOM     31  H   UNL     1     124.063 119.685 123.322  1.00  0.00     0.210 HD
ENDBRANCH  29  30
ENDBRANCH   9  11
ENDBRANCH   1   9
TORSDOF 7
ENDMDL
MODEL 4
REMARK VINA RESULT:    -7.026      5.174      8.588
REMARK INTER + INTRA:         -10.567
REMARK INTER:                  -8.724
REMARK INTRA:                  -1.843
REMARK UNBOUND:                -0.871
REMARK SMILES CC[C@H](CC[C@H](C)[C@H]1CC[C@H]2[C@@H]3CC=C4C[C@@H](O)CC[C@@]4(C)[C@@H]3CC[C@@]12C)C(C)C
REMARK SMILES IDX 5 1 4 2 3 3 2 4 1 5 28 6 29 7 30 8 6 9 7 10 8 11 9 12 26 13
REMARK SMILES IDX 10 14 11 15 25 16 27 17 12 18 24 19 23 20 13 21 21 22 14 23
REMARK SMILES IDX 15 24 20 25 22 26 16 27 19 28 17 29 18 30
REMARK H PARENT 18 31
REMARK Flexibility Score: inf
ROOT
ATOM      1  C   UNL     1     115.176 122.672 127.823  1.00  0.00     0.004 C 
ENDROOT
BRANCH   1   2
ATOM      2  C   UNL     1     114.642 121.986 129.097  1.00  0.00     0.004 C 
BRANCH   2   3
ATOM      3  C   UNL     1     115.704 121.824 130.220  1.00  0.00    -0.009 C 
BRANCH   3   4
ATOM      4  C   UNL     1     115.431 122.831 131.373  1.00  0.00     0.000 C 
ATOM      5  C   UNL     1     116.589 123.801 131.618  1.00  0.00     0.004 C 
ENDBRANCH   3   4
BRANCH   3   6
ATOM      6  C   UNL     1     115.832 120.348 130.730  1.00  0.00    -0.014 C 
ATOM      7  C   UNL     1     115.083 120.120 132.055  1.00  0.00     0.007 C 
ATOM      8  C   UNL     1     115.405 119.297 129.691  1.00  0.00     0.007 C 
ENDBRANCH   3   6
ENDBRANCH   2   3
ENDBRANCH   1   2
BRANCH   1   9
ATOM      9  C   UNL     1     116.506 123.432 128.074  1.00  0.00    -0.011 C 
ATOM     10  C   UNL     1     116.234 124.948 128.024  1.00  0.00     0.008 C 
BRANCH   9  11
ATOM     11  C   UNL     1     117.638 122.928 127.094  1.00  0.00    -0.002 C 
ATOM     12  C   UNL     1     118.261 123.979 126.169  1.00  0.00     0.005 C 
ATOM     13  C   UNL     1     118.840 122.162 127.719  1.00  0.00    -0.026 C 
ATOM     14  C   UNL     1     119.590 123.387 125.701  1.00  0.00     0.005 C 
ATOM     15  C   UNL     1     119.830 122.100 126.515  1.00  0.00    -0.001 C 
ATOM     16  C   UNL     1     119.457 122.935 128.918  1.00  0.00     0.007 C 
ATOM     17  C   UNL     1     118.378 120.751 128.170  1.00  0.00     0.012 C 
ATOM     18  C   UNL     1     121.340 121.890 126.845  1.00  0.00     0.000 C 
ATOM     19  C   UNL     1     120.888 122.502 129.261  1.00  0.00     0.005 C 
ATOM     20  C   UNL     1     121.831 122.727 128.051  1.00  0.00     0.003 C 
ATOM     21  C   UNL     1     121.680 120.405 127.048  1.00  0.00     0.031 C 
ATOM     22  C   UNL     1     123.389 122.524 128.319  1.00  0.00    -0.008 C 
ATOM     23  C   UNL     1     123.141 120.213 127.294  1.00  0.00    -0.027 C 
ATOM     24  C   UNL     1     123.907 121.130 127.919  1.00  0.00    -0.065 C 
ATOM     25  C   UNL     1     124.171 123.558 127.444  1.00  0.00     0.014 C 
ATOM     26  C   UNL     1     123.730 122.780 129.812  1.00  0.00     0.016 C 
ATOM     27  C   UNL     1     125.406 120.900 127.961  1.00  0.00     0.063 C 
ATOM     28  C   UNL     1     125.703 123.361 127.441  1.00  0.00     0.033 C 
ATOM     29  C   UNL     1     126.108 121.924 127.059  1.00  0.00     0.118 C 
BRANCH  29  30
ATOM     30  O   UNL     1     125.786 121.665 125.717  1.00  0.00    -0.393 OA
ATOM     31  H   UNL     1     126.300 120.860 125.447  1.00  0.00     0.210 HD
ENDBRANCH  29  30
ENDBRANCH   9  11
ENDBRANCH   1   9
TORSDOF 7
ENDMDL
MODEL 5
REMARK VINA RESULT:    -6.904      6.398      9.493
REMARK INTER + INTRA:         -10.399
REMARK INTER:                  -9.431
REMARK INTRA:                  -0.968
REMARK UNBOUND:                -0.871
REMARK SMILES CC[C@H](CC[C@H](C)[C@H]1CC[C@H]2[C@@H]3CC=C4C[C@@H](O)CC[C@@]4(C)[C@@H]3CC[C@@]12C)C(C)C
REMARK SMILES IDX 5 1 4 2 3 3 2 4 1 5 28 6 29 7 30 8 6 9 7 10 8 11 9 12 26 13
REMARK SMILES IDX 10 14 11 15 25 16 27 17 12 18 24 19 23 20 13 21 21 22 14 23
REMARK SMILES IDX 15 24 20 25 22 26 16 27 19 28 17 29 18 30
REMARK H PARENT 18 31
REMARK Flexibility Score: inf
ROOT
ATOM      1  C   UNL     1     122.501 119.282 123.699  1.00  0.00     0.004 C 
ENDROOT
BRANCH   1   2
ATOM      2  C   UNL     1     122.506 119.336 122.157  1.00  0.00     0.004 C 
BRANCH   2   3
ATOM      3  C   UNL     1     123.875 119.739 121.544  1.00  0.00    -0.009 C 
BRANCH   3   4
ATOM      4  C   UNL     1     124.988 119.690 122.628  1.00  0.00     0.000 C 
ATOM      5  C   UNL     1     126.404 119.734 122.046  1.00  0.00     0.004 C 
ENDBRANCH   3   4
BRANCH   3   6
ATOM      6  C   UNL     1     124.242 118.904 120.269  1.00  0.00    -0.014 C 
ATOM      7  C   UNL     1     123.258 117.747 120.025  1.00  0.00     0.007 C 
ATOM      8  C   UNL     1     124.390 119.755 118.996  1.00  0.00     0.007 C 
ENDBRANCH   3   6
ENDBRANCH   2   3
ENDBRANCH   1   2
BRANCH   1   9
ATOM      9  C   UNL     1     121.064 119.234 124.283  1.00  0.00    -0.011 C 
ATOM     10  C   UNL     1     120.049 119.404 123.135  1.00  0.00     0.008 C 
BRANCH   9  11
ATOM     11  C   UNL     1     120.902 120.264 125.469  1.00  0.00    -0.002 C 
ATOM     12  C   UNL     1     120.140 121.557 125.156  1.00  0.00     0.005 C 
ATOM     13  C   UNL     1     120.292 119.737 126.801  1.00  0.00    -0.026 C 
ATOM     14  C   UNL     1     119.714 122.127 126.507  1.00  0.00     0.005 C 
ATOM     15  C   UNL     1     120.041 121.066 127.577  1.00  0.00    -0.001 C 
ATOM     16  C   UNL     1     118.965 118.964 126.560  1.00  0.00     0.007 C 
ATOM     17  C   UNL     1     121.322 118.826 127.518  1.00  0.00     0.012 C 
ATOM     18  C   UNL     1     118.976 121.035 128.716  1.00  0.00     0.000 C 
ATOM     19  C   UNL     1     118.086 118.843 127.813  1.00  0.00     0.005 C 
ATOM     20  C   UNL     1     117.696 120.246 128.344  1.00  0.00     0.003 C 
ATOM     21  C   UNL     1     119.564 120.514 130.036  1.00  0.00     0.031 C 
ATOM     22  C   UNL     1     116.615 120.286 129.514  1.00  0.00    -0.008 C 
ATOM     23  C   UNL     1     118.552 120.556 131.133  1.00  0.00    -0.027 C 
ATOM     24  C   UNL     1     117.230 120.393 130.921  1.00  0.00    -0.065 C 
ATOM     25  C   UNL     1     115.732 121.562 129.314  1.00  0.00     0.014 C 
ATOM     26  C   UNL     1     115.696 119.035 129.458  1.00  0.00     0.016 C 
ATOM     27  C   UNL     1     116.285 120.624 132.084  1.00  0.00     0.063 C 
ATOM     28  C   UNL     1     114.758 121.852 130.478  1.00  0.00     0.033 C 
ATOM     29  C   UNL     1     115.475 121.905 131.841  1.00  0.00     0.118 C 
BRANCH  29  30
ATOM     30  O   UNL     1     116.329 123.018 131.902  1.00  0.00    -0.393 OA
ATOM     31  H   UNL     1     116.441 123.243 132.863  1.00  0.00     0.210 HD
ENDBRANCH  29  30
ENDBRANCH   9  11
ENDBRANCH   1   9
TORSDOF 7
ENDMDL
MODEL 6
REMARK VINA RESULT:    -6.867      3.504      9.039
REMARK INTER + INTRA:         -10.348
REMARK INTER:                  -8.541
REMARK INTRA:                  -1.807
REMARK UNBOUND:                -0.871
REMARK SMILES CC[C@H](CC[C@H](C)[C@H]1CC[C@H]2[C@@H]3CC=C4C[C@@H](O)CC[C@@]4(C)[C@@H]3CC[C@@]12C)C(C)C
REMARK SMILES IDX 5 1 4 2 3 3 2 4 1 5 28 6 29 7 30 8 6 9 7 10 8 11 9 12 26 13
REMARK SMILES IDX 10 14 11 15 25 16 27 17 12 18 24 19 23 20 13 21 21 22 14 23
REMARK SMILES IDX 15 24 20 25 22 26 16 27 19 28 17 29 18 30
REMARK H PARENT 18 31
REMARK Flexibility Score: inf
ROOT
ATOM      1  C   UNL     1     119.550 118.226 125.899  1.00  0.00     0.004 C 
ENDROOT
BRANCH   1   2
ATOM      2  C   UNL     1     121.015 117.897 125.541  1.00  0.00     0.004 C 
BRANCH   2   3
ATOM      3  C   UNL     1     121.509 118.566 124.229  1.00  0.00    -0.009 C 
BRANCH   3   4
ATOM      4  C   UNL     1     120.314 119.195 123.459  1.00  0.00     0.000 C 
ATOM      5  C   UNL     1     120.683 120.480 122.713  1.00  0.00     0.004 C 
ENDBRANCH   3   4
BRANCH   3   6
ATOM      6  C   UNL     1     122.674 119.587 124.466  1.00  0.00    -0.014 C 
ATOM      7  C   UNL     1     122.930 119.844 125.961  1.00  0.00     0.007 C 
ATOM      8  C   UNL     1     123.986 119.200 123.761  1.00  0.00     0.007 C 
ENDBRANCH   3   6
ENDBRANCH   2   3
ENDBRANCH   1   2
BRANCH   1   9
ATOM      9  C   UNL     1     119.423 118.930 127.277  1.00  0.00    -0.011 C 
ATOM     10  C   UNL     1     118.987 117.893 128.330  1.00  0.00     0.008 C 
BRANCH   9  11
ATOM     11  C   UNL     1     118.494 120.203 127.176  1.00  0.00    -0.002 C 
ATOM     12  C   UNL     1     117.284 120.246 128.116  1.00  0.00     0.005 C 
ATOM     13  C   UNL     1     119.171 121.598 127.309  1.00  0.00    -0.026 C 
ATOM     14  C   UNL     1     116.853 121.710 128.174  1.00  0.00     0.005 C 
ATOM     15  C   UNL     1     117.932 122.535 127.444  1.00  0.00    -0.001 C 
ATOM     16  C   UNL     1     120.080 121.679 128.568  1.00  0.00     0.007 C 
ATOM     17  C   UNL     1     119.996 121.899 126.031  1.00  0.00     0.012 C 
ATOM     18  C   UNL     1     118.160 123.925 128.114  1.00  0.00     0.000 C 
ATOM     19  C   UNL     1     120.383 123.115 129.018  1.00  0.00     0.005 C 
ATOM     20  C   UNL     1     119.071 123.866 129.365  1.00  0.00     0.003 C 
ATOM     21  C   UNL     1     118.688 124.964 127.113  1.00  0.00     0.031 C 
ATOM     22  C   UNL     1     119.232 125.296 130.049  1.00  0.00    -0.008 C 
ATOM     23  C   UNL     1     118.835 126.306 127.753  1.00  0.00    -0.027 C 
ATOM     24  C   UNL     1     119.140 126.470 129.056  1.00  0.00    -0.065 C 
ATOM     25  C   UNL     1     118.061 125.481 131.069  1.00  0.00     0.014 C 
ATOM     26  C   UNL     1     120.577 125.390 130.819  1.00  0.00     0.016 C 
ATOM     27  C   UNL     1     119.095 127.872 129.630  1.00  0.00     0.063 C 
ATOM     28  C   UNL     1     117.961 126.899 131.675  1.00  0.00     0.033 C 
ATOM     29  C   UNL     1     117.908 127.995 130.594  1.00  0.00     0.118 C 
BRANCH  29  30
ATOM     30  O   UNL     1     116.707 127.912 129.870  1.00  0.00    -0.393 OA
ATOM     31  H   UNL     1     116.526 128.818 129.506  1.00  0.00     0.210 HD
ENDBRANCH  29  30
ENDBRANCH   9  11
ENDBRANCH   1   9
TORSDOF 7
ENDMDL
MODEL 7
REMARK VINA RESULT:    -6.802      6.400      9.246
REMARK INTER + INTRA:         -10.258
REMARK INTER:                  -8.255
REMARK INTRA:                  -2.003
REMARK UNBOUND:                -0.871
REMARK SMILES CC[C@H](CC[C@H](C)[C@H]1CC[C@H]2[C@@H]3CC=C4C[C@@H](O)CC[C@@]4(C)[C@@H]3CC[C@@]12C)C(C)C
REMARK SMILES IDX 5 1 4 2 3 3 2 4 1 5 28 6 29 7 30 8 6 9 7 10 8 11 9 12 26 13
REMARK SMILES IDX 10 14 11 15 25 16 27 17 12 18 24 19 23 20 13 21 21 22 14 23
REMARK SMILES IDX 15 24 20 25 22 26 16 27 19 28 17 29 18 30
REMARK H PARENT 18 31
REMARK Flexibility Score: inf
ROOT
ATOM      1  C   UNL     1     121.730 116.767 125.633  1.00  0.00     0.004 C 
ENDROOT
BRANCH   1   2
ATOM      2  C   UNL     1     121.649 117.682 124.393  1.00  0.00     0.004 C 
BRANCH   2   3
ATOM      3  C   UNL     1     121.831 119.192 124.709  1.00  0.00    -0.009 C 
BRANCH   3   4
ATOM      4  C   UNL     1     123.204 119.693 124.177  1.00  0.00     0.000 C 
ATOM      5  C   UNL     1     124.155 120.147 125.288  1.00  0.00     0.004 C 
ENDBRANCH   3   4
BRANCH   3   6
ATOM      6  C   UNL     1     120.635 120.070 124.203  1.00  0.00    -0.014 C 
ATOM      7  C   UNL     1     120.378 121.285 125.111  1.00  0.00     0.007 C 
ATOM      8  C   UNL     1     120.776 120.520 122.739  1.00  0.00     0.007 C 
ENDBRANCH   3   6
ENDBRANCH   2   3
ENDBRANCH   1   2
BRANCH   1   9
ATOM      9  C   UNL     1     121.679 117.568 126.962  1.00  0.00    -0.011 C 
ATOM     10  C   UNL     1     123.003 117.363 127.722  1.00  0.00     0.008 C 
BRANCH   9  11
ATOM     11  C   UNL     1     120.379 117.212 127.785  1.00  0.00    -0.002 C 
ATOM     12  C   UNL     1     120.593 116.618 129.182  1.00  0.00     0.005 C 
ATOM     13  C   UNL     1     119.317 118.335 127.972  1.00  0.00    -0.026 C 
ATOM     14  C   UNL     1     119.272 116.812 129.924  1.00  0.00     0.005 C 
ATOM     15  C   UNL     1     118.374 117.698 129.038  1.00  0.00    -0.001 C 
ATOM     16  C   UNL     1     119.956 119.651 128.496  1.00  0.00     0.007 C 
ATOM     17  C   UNL     1     118.590 118.590 126.625  1.00  0.00     0.012 C 
ATOM     18  C   UNL     1     117.496 118.672 129.884  1.00  0.00     0.000 C 
ATOM     19  C   UNL     1     118.948 120.610 129.144  1.00  0.00     0.005 C 
ATOM     20  C   UNL     1     118.255 119.936 130.356  1.00  0.00     0.003 C 
ATOM     21  C   UNL     1     116.204 119.063 129.148  1.00  0.00     0.031 C 
ATOM     22  C   UNL     1     117.337 120.874 131.260  1.00  0.00    -0.008 C 
ATOM     23  C   UNL     1     115.343 119.939 129.998  1.00  0.00    -0.027 C 
ATOM     24  C   UNL     1     115.840 120.802 130.906  1.00  0.00    -0.065 C 
ATOM     25  C   UNL     1     117.469 120.397 132.744  1.00  0.00     0.014 C 
ATOM     26  C   UNL     1     117.806 122.352 131.173  1.00  0.00     0.016 C 
ATOM     27  C   UNL     1     114.867 121.512 131.826  1.00  0.00     0.063 C 
ATOM     28  C   UNL     1     116.489 121.081 133.723  1.00  0.00     0.033 C 
ATOM     29  C   UNL     1     115.025 120.976 133.255  1.00  0.00     0.118 C 
BRANCH  29  30
ATOM     30  O   UNL     1     114.590 119.641 133.305  1.00  0.00    -0.393 OA
ATOM     31  H   UNL     1     114.448 119.348 132.367  1.00  0.00     0.210 HD
ENDBRANCH  29  30
ENDBRANCH   9  11
ENDBRANCH   1   9
TORSDOF 7
ENDMDL
MODEL 8
REMARK VINA RESULT:    -6.796      4.132      7.123
REMARK INTER + INTRA:         -10.250
REMARK INTER:                  -9.522
REMARK INTRA:                  -0.728
REMARK UNBOUND:                -0.871
REMARK SMILES CC[C@H](CC[C@H](C)[C@H]1CC[C@H]2[C@@H]3CC=C4C[C@@H](O)CC[C@@]4(C)[C@@H]3CC[C@@]12C)C(C)C
REMARK SMILES IDX 5 1 4 2 3 3 2 4 1 5 28 6 29 7 30 8 6 9 7 10 8 11 9 12 26 13
REMARK SMILES IDX 10 14 11 15 25 16 27 17 12 18 24 19 23 20 13 21 21 22 14 23
REMARK SMILES IDX 15 24 20 25 22 26 16 27 19 28 17 29 18 30
REMARK H PARENT 18 31
REMARK Flexibility Score: inf
ROOT
ATOM      1  C   UNL     1     115.529 123.517 127.887  1.00  0.00     0.004 C 
ENDROOT
BRANCH   1   2
ATOM      2  C   UNL     1     116.552 123.360 126.743  1.00  0.00     0.004 C 
BRANCH   2   3
ATOM      3  C   UNL     1     117.794 124.285 126.874  1.00  0.00    -0.009 C 
BRANCH   3   4
ATOM      4  C   UNL     1     117.452 125.529 127.742  1.00  0.00     0.000 C 
ATOM      5  C   UNL     1     118.291 125.626 129.019  1.00  0.00     0.004 C 
ENDBRANCH   3   4
BRANCH   3   6
ATOM      6  C   UNL     1     119.067 123.528 127.386  1.00  0.00    -0.014 C 
ATOM      7  C   UNL     1     118.878 122.001 127.387  1.00  0.00     0.007 C 
ATOM      8  C   UNL     1     120.353 123.904 126.631  1.00  0.00     0.007 C 
ENDBRANCH   3   6
ENDBRANCH   2   3
ENDBRANCH   1   2
BRANCH   1   9
ATOM      9  C   UNL     1     114.395 122.461 127.815  1.00  0.00    -0.011 C 
ATOM     10  C   UNL     1     113.038 123.169 127.996  1.00  0.00     0.008 C 
BRANCH   9  11
ATOM     11  C   UNL     1     114.663 121.275 128.823  1.00  0.00    -0.002 C 
ATOM     12  C   UNL     1     115.475 120.090 128.287  1.00  0.00     0.005 C 
ATOM     13  C   UNL     1     115.307 121.630 130.195  1.00  0.00    -0.026 C 
ATOM     14  C   UNL     1     115.992 119.348 129.518  1.00  0.00     0.005 C 
ATOM     15  C   UNL     1     115.661 120.216 130.749  1.00  0.00    -0.001 C 
ATOM     16  C   UNL     1     116.580 122.506 130.025  1.00  0.00     0.007 C 
ATOM     17  C   UNL     1     114.266 122.362 131.082  1.00  0.00     0.012 C 
ATOM     18  C   UNL     1     116.775 120.137 131.838  1.00  0.00     0.000 C 
ATOM     19  C   UNL     1     117.508 122.488 131.247  1.00  0.00     0.005 C 
ATOM     20  C   UNL     1     117.993 121.045 131.543  1.00  0.00     0.003 C 
ATOM     21  C   UNL     1     116.222 120.420 133.244  1.00  0.00     0.031 C 
ATOM     22  C   UNL     1     119.129 120.892 132.651  1.00  0.00    -0.008 C 
ATOM     23  C   UNL     1     117.285 120.271 134.283  1.00  0.00    -0.027 C 
ATOM     24  C   UNL     1     118.585 120.540 134.048  1.00  0.00    -0.065 C 
ATOM     25  C   UNL     1     120.066 119.714 132.226  1.00  0.00     0.014 C 
ATOM     26  C   UNL     1     119.979 122.188 132.751  1.00  0.00     0.016 C 
ATOM     27  C   UNL     1     119.594 120.192 135.125  1.00  0.00     0.063 C 
ATOM     28  C   UNL     1     121.105 119.309 133.294  1.00  0.00     0.033 C 
ATOM     29  C   UNL     1     120.456 119.011 134.659  1.00  0.00     0.118 C 
BRANCH  29  30
ATOM     30  O   UNL     1     119.664 117.854 134.582  1.00  0.00    -0.393 OA
ATOM     31  H   UNL     1     119.414 117.614 135.513  1.00  0.00     0.210 HD
ENDBRANCH  29  30
ENDBRANCH   9  11
ENDBRANCH   1   9
TORSDOF 7
ENDMDL
MODEL 9
REMARK VINA RESULT:    -6.671      3.104      5.480
REMARK INTER + INTRA:         -10.077
REMARK INTER:                  -8.429
REMARK INTRA:                  -1.648
REMARK UNBOUND:                -0.871
REMARK SMILES CC[C@H](CC[C@H](C)[C@H]1CC[C@H]2[C@@H]3CC=C4C[C@@H](O)CC[C@@]4(C)[C@@H]3CC[C@@]12C)C(C)C
REMARK SMILES IDX 5 1 4 2 3 3 2 4 1 5 28 6 29 7 30 8 6 9 7 10 8 11 9 12 26 13
REMARK SMILES IDX 10 14 11 15 25 16 27 17 12 18 24 19 23 20 13 21 21 22 14 23
REMARK SMILES IDX 15 24 20 25 22 26 16 27 19 28 17 29 18 30
REMARK H PARENT 18 31
REMARK Flexibility Score: inf
ROOT
ATOM      1  C   UNL     1     119.497 126.425 127.937  1.00  0.00     0.004 C 
ENDROOT
BRANCH   1   2
ATOM      2  C   UNL     1     119.602 126.232 129.464  1.00  0.00     0.004 C 
BRANCH   2   3
ATOM      3  C   UNL     1     118.994 127.398 130.291  1.00  0.00    -0.009 C 
BRANCH   3   4
ATOM      4  C   UNL     1     119.101 128.734 129.502  1.00  0.00     0.000 C 
ATOM      5  C   UNL     1     120.415 129.480 129.748  1.00  0.00     0.004 C 
ENDBRANCH   3   4
BRANCH   3   6
ATOM      6  C   UNL     1     117.534 127.104 130.778  1.00  0.00    -0.014 C 
ATOM      7  C   UNL     1     117.285 125.603 131.008  1.00  0.00     0.007 C 
ATOM      8  C   UNL     1     117.127 127.907 132.025  1.00  0.00     0.007 C 
ENDBRANCH   3   6
ENDBRANCH   2   3
ENDBRANCH   1   2
BRANCH   1   9
ATOM      9  C   UNL     1     118.603 125.349 127.265  1.00  0.00    -0.011 C 
ATOM     10  C   UNL     1     117.148 125.857 127.231  1.00  0.00     0.008 C 
BRANCH   9  11
ATOM     11  C   UNL     1     118.798 123.942 127.955  1.00  0.00    -0.002 C 
ATOM     12  C   UNL     1     117.532 123.111 128.190  1.00  0.00     0.005 C 
ATOM     13  C   UNL     1     119.822 122.962 127.311  1.00  0.00    -0.026 C 
ATOM     14  C   UNL     1     118.008 121.676 128.401  1.00  0.00     0.005 C 
ATOM     15  C   UNL     1     119.516 121.641 128.081  1.00  0.00    -0.001 C 
ATOM     16  C   UNL     1     119.580 122.796 125.785  1.00  0.00     0.007 C 
ATOM     17  C   UNL     1     121.263 123.472 127.574  1.00  0.00     0.012 C 
ATOM     18  C   UNL     1     119.939 120.304 127.397  1.00  0.00     0.000 C 
ATOM     19  C   UNL     1     120.209 121.527 125.195  1.00  0.00     0.005 C 
ATOM     20  C   UNL     1     119.630 120.262 125.880  1.00  0.00     0.003 C 
ATOM     21  C   UNL     1     121.417 119.972 127.654  1.00  0.00     0.031 C 
ATOM     22  C   UNL     1     120.027 118.861 125.233  1.00  0.00    -0.008 C 
ATOM     23  C   UNL     1     121.788 118.656 127.051  1.00  0.00    -0.027 C 
ATOM     24  C   UNL     1     121.216 118.174 125.930  1.00  0.00    -0.065 C 
ATOM     25  C   UNL     1     118.805 117.895 125.379  1.00  0.00     0.014 C 
ATOM     26  C   UNL     1     120.352 119.023 123.723  1.00  0.00     0.016 C 
ATOM     27  C   UNL     1     121.551 116.756 125.509  1.00  0.00     0.063 C 
ATOM     28  C   UNL     1     119.097 116.433 124.976  1.00  0.00     0.033 C 
ATOM     29  C   UNL     1     120.324 115.857 125.708  1.00  0.00     0.118 C 
BRANCH  29  30
ATOM     30  O   UNL     1     120.057 115.724 127.080  1.00  0.00    -0.393 OA
ATOM     31  H   UNL     1     120.897 115.411 127.508  1.00  0.00     0.210 HD
ENDBRANCH  29  30
ENDBRANCH   9  11
ENDBRANCH   1   9
TORSDOF 7
ENDMDL
