MODEL 1
REMARK VINA RESULT:    -3.857      0.000      0.000
REMARK INTER + INTRA:         -11.843
REMARK INTER:                  -8.367
REMARK INTRA:                  -3.475
REMARK UNBOUND:                -3.475
REMARK SMILES CCCCCCCCCCCCCCCCCCCCCC(=O)[O-]
REMARK SMILES IDX 12 1 11 2 10 3 9 4 8 5 7 6 6 7 5 8 4 9 3 10 2 11 1 12 13 13
REMARK SMILES IDX 14 14 15 15 16 16 17 17 18 18 19 19 20 20 21 21 22 22 23 23
REMARK SMILES IDX 24 24
REMARK H PARENT
REMARK Flexibility Score: inf
ROOT
ATOM      1  C   UNL     1      20.960  12.578 -19.054  1.00  0.00     0.000 C 
ENDROOT
BRANCH   1   2
ATOM      2  C   UNL     1      22.211  13.397 -18.690  1.00  0.00     0.000 C 
BRANCH   2   3
ATOM      3  C   UNL     1      22.383  13.577 -17.173  1.00  0.00     0.000 C 
BRANCH   3   4
ATOM      4  C   UNL     1      21.111  13.233 -16.376  1.00  0.00    -0.000 C 
BRANCH   4   5
ATOM      5  C   UNL     1      20.322  14.439 -15.832  1.00  0.00    -0.000 C 
BRANCH   5   6
ATOM      6  C   UNL     1      21.003  15.787 -16.123  1.00  0.00    -0.000 C 
BRANCH   6   7
ATOM      7  C   UNL     1      20.340  16.560 -17.278  1.00  0.00    -0.000 C 
BRANCH   7   8
ATOM      8  C   UNL     1      21.316  17.192 -18.289  1.00  0.00    -0.000 C 
BRANCH   8   9
ATOM      9  C   UNL     1      21.004  16.810 -19.746  1.00  0.00    -0.000 C 
BRANCH   9  10
ATOM     10  C   UNL     1      19.494  16.882 -20.058  1.00  0.00    -0.000 C 
BRANCH  10  11
ATOM     11  C   UNL     1      19.163  17.679 -21.332  1.00  0.00    -0.003 C 
ATOM     12  C   UNL     1      17.773  18.313 -21.300  1.00  0.00     0.004 C 
ENDBRANCH  10  11
ENDBRANCH   9  10
ENDBRANCH   8   9
ENDBRANCH   7   8
ENDBRANCH   6   7
ENDBRANCH   5   6
ENDBRANCH   4   5
ENDBRANCH   3   4
ENDBRANCH   2   3
ENDBRANCH   1   2
BRANCH   1  13
ATOM     13  C   UNL     1      20.103  13.160 -20.197  1.00  0.00     0.000 C 
BRANCH  13  14
ATOM     14  C   UNL     1      18.592  13.246 -19.906  1.00  0.00     0.000 C 
BRANCH  14  15
ATOM     15  C   UNL     1      18.222  13.253 -18.411  1.00  0.00     0.000 C 
BRANCH  15  16
ATOM     16  C   UNL     1      17.437  12.000 -17.988  1.00  0.00     0.000 C 
BRANCH  16  17
ATOM     17  C   UNL     1      17.958  11.390 -16.677  1.00  0.00     0.000 C 
BRANCH  17  18
ATOM     18  C   UNL     1      18.949  10.240 -16.913  1.00  0.00     0.000 C 
BRANCH  18  19
ATOM     19  C   UNL     1      18.807   9.673 -18.331  1.00  0.00     0.000 C 
BRANCH  19  20
ATOM     20  C   UNL     1      19.794   8.523 -18.564  1.00  0.00     0.006 C 
BRANCH  20  21
ATOM     21  C   UNL     1      20.162   7.836 -17.245  1.00  0.00     0.053 C 
BRANCH  21  22
ATOM     22  C   UNL     1      19.750   6.398 -17.269  1.00  0.00     0.041 C 
ATOM     23  O   UNL     1      18.550   6.086 -17.492  1.00  0.00    -0.550 OA
ATOM     24  O   UNL     1      20.703   5.398 -17.104  1.00  0.00    -0.550 OA
ENDBRANCH  21  22
ENDBRANCH  20  21
ENDBRANCH  19  20
ENDBRANCH  18  19
ENDBRANCH  17  18
ENDBRANCH  16  17
ENDBRANCH  15  16
ENDBRANCH  14  15
ENDBRANCH  13  14
ENDBRANCH   1  13
TORSDOF 20
ENDMDL
MODEL 2
REMARK VINA RESULT:    -3.764      3.974      8.190
REMARK INTER + INTRA:         -11.639
REMARK INTER:                  -8.240
REMARK INTRA:                  -3.399
REMARK UNBOUND:                -3.475
REMARK SMILES CCCCCCCCCCCCCCCCCCCCCC(=O)[O-]
REMARK SMILES IDX 12 1 11 2 10 3 9 4 8 5 7 6 6 7 5 8 4 9 3 10 2 11 1 12 13 13
REMARK SMILES IDX 14 14 15 15 16 16 17 17 18 18 19 19 20 20 21 21 22 22 23 23
REMARK SMILES IDX 24 24
REMARK H PARENT
REMARK Flexibility Score: inf
ROOT
ATOM      1  C   UNL     1      21.287  12.988 -19.343  1.00  0.00     0.000 C 
ENDROOT
BRANCH   1   2
ATOM      2  C   UNL     1      19.907  12.480 -19.799  1.00  0.00     0.000 C 
BRANCH   2   3
ATOM      3  C   UNL     1      18.745  13.265 -19.169  1.00  0.00     0.000 C 
BRANCH   3   4
ATOM      4  C   UNL     1      17.918  12.425 -18.177  1.00  0.00    -0.000 C 
BRANCH   4   5
ATOM      5  C   UNL     1      18.294  10.934 -18.094  1.00  0.00    -0.000 C 
BRANCH   5   6
ATOM      6  C   UNL     1      18.698  10.492 -16.677  1.00  0.00    -0.000 C 
BRANCH   6   7
ATOM      7  C   UNL     1      19.454   9.150 -16.658  1.00  0.00    -0.000 C 
BRANCH   7   8
ATOM      8  C   UNL     1      20.495   8.967 -17.778  1.00  0.00    -0.000 C 
BRANCH   8   9
ATOM      9  C   UNL     1      20.579   7.519 -18.292  1.00  0.00    -0.000 C 
BRANCH   9  10
ATOM     10  C   UNL     1      20.143   6.495 -17.223  1.00  0.00    -0.000 C 
BRANCH  10  11
ATOM     11  C   UNL     1      19.123   5.464 -17.737  1.00  0.00    -0.003 C 
ATOM     12  C   UNL     1      17.685   5.981 -17.721  1.00  0.00     0.004 C 
ENDBRANCH  10  11
ENDBRANCH   9  10
ENDBRANCH   8   9
ENDBRANCH   7   8
ENDBRANCH   6   7
ENDBRANCH   5   6
ENDBRANCH   4   5
ENDBRANCH   3   4
ENDBRANCH   2   3
ENDBRANCH   1   2
BRANCH   1  13
ATOM     13  C   UNL     1      21.870  12.283 -18.101  1.00  0.00     0.000 C 
BRANCH  13  14
ATOM     14  C   UNL     1      22.025  13.174 -16.853  1.00  0.00     0.000 C 
BRANCH  14  15
ATOM     15  C   UNL     1      20.751  13.321 -16.001  1.00  0.00     0.000 C 
BRANCH  15  16
ATOM     16  C   UNL     1      20.281  14.780 -15.882  1.00  0.00     0.000 C 
BRANCH  16  17
ATOM     17  C   UNL     1      21.282  15.776 -16.490  1.00  0.00     0.000 C 
BRANCH  17  18
ATOM     18  C   UNL     1      20.591  16.921 -17.246  1.00  0.00     0.000 C 
BRANCH  18  19
ATOM     19  C   UNL     1      21.038  16.961 -18.713  1.00  0.00     0.000 C 
BRANCH  19  20
ATOM     20  C   UNL     1      19.845  16.770 -19.657  1.00  0.00     0.006 C 
BRANCH  20  21
ATOM     21  C   UNL     1      20.310  16.356 -21.056  1.00  0.00     0.053 C 
BRANCH  21  22
ATOM     22  C   UNL     1      20.492  17.560 -21.926  1.00  0.00     0.041 C 
ATOM     23  O   UNL     1      19.616  18.464 -21.949  1.00  0.00    -0.550 OA
ATOM     24  O   UNL     1      21.659  17.711 -22.668  1.00  0.00    -0.550 OA
ENDBRANCH  21  22
ENDBRANCH  20  21
ENDBRANCH  19  20
ENDBRANCH  18  19
ENDBRANCH  17  18
ENDBRANCH  16  17
ENDBRANCH  15  16
ENDBRANCH  14  15
ENDBRANCH  13  14
ENDBRANCH   1  13
TORSDOF 20
ENDMDL
MODEL 3
REMARK VINA RESULT:    -3.707      2.194      6.576
REMARK INTER + INTRA:         -11.517
REMARK INTER:                  -8.050
REMARK INTRA:                  -3.467
REMARK UNBOUND:                -3.475
REMARK SMILES CCCCCCCCCCCCCCCCCCCCCC(=O)[O-]
REMARK SMILES IDX 12 1 11 2 10 3 9 4 8 5 7 6 6 7 5 8 4 9 3 10 2 11 1 12 13 13
REMARK SMILES IDX 14 14 15 15 16 16 17 17 18 18 19 19 20 20 21 21 22 22 23 23
REMARK SMILES IDX 24 24
REMARK H PARENT
REMARK Flexibility Score: inf
ROOT
ATOM      1  C   UNL     1      20.463  14.826 -20.414  1.00  0.00     0.000 C 
ENDROOT
BRANCH   1   2
ATOM      2  C   UNL     1      19.151  14.206 -19.902  1.00  0.00     0.000 C 
BRANCH   2   3
ATOM      3  C   UNL     1      19.374  13.185 -18.775  1.00  0.00     0.000 C 
BRANCH   3   4
ATOM      4  C   UNL     1      18.187  13.093 -17.799  1.00  0.00    -0.000 C 
BRANCH   4   5
ATOM      5  C   UNL     1      18.529  12.597 -16.382  1.00  0.00    -0.000 C 
BRANCH   5   6
ATOM      6  C   UNL     1      19.577  11.471 -16.373  1.00  0.00    -0.000 C 
BRANCH   6   7
ATOM      7  C   UNL     1      18.983  10.093 -16.721  1.00  0.00    -0.000 C 
BRANCH   7   8
ATOM      8  C   UNL     1      19.847   9.223 -17.654  1.00  0.00    -0.000 C 
BRANCH   8   9
ATOM      9  C   UNL     1      20.238   7.873 -17.028  1.00  0.00    -0.000 C 
BRANCH   9  10
ATOM     10  C   UNL     1      19.624   6.678 -17.788  1.00  0.00    -0.000 C 
BRANCH  10  11
ATOM     11  C   UNL     1      18.150   6.415 -17.436  1.00  0.00    -0.003 C 
ATOM     12  C   UNL     1      17.466   5.447 -18.401  1.00  0.00     0.004 C 
ENDBRANCH  10  11
ENDBRANCH   9  10
ENDBRANCH   8   9
ENDBRANCH   7   8
ENDBRANCH   6   7
ENDBRANCH   5   6
ENDBRANCH   4   5
ENDBRANCH   3   4
ENDBRANCH   2   3
ENDBRANCH   1   2
BRANCH   1  13
ATOM     13  C   UNL     1      20.710  16.287 -19.987  1.00  0.00     0.000 C 
BRANCH  13  14
ATOM     14  C   UNL     1      19.928  16.748 -18.741  1.00  0.00     0.000 C 
BRANCH  14  15
ATOM     15  C   UNL     1      20.788  16.957 -17.480  1.00  0.00     0.000 C 
BRANCH  15  16
ATOM     16  C   UNL     1      20.517  15.901 -16.395  1.00  0.00     0.000 C 
BRANCH  16  17
ATOM     17  C   UNL     1      21.615  14.829 -16.325  1.00  0.00     0.000 C 
BRANCH  17  18
ATOM     18  C   UNL     1      22.845  15.186 -17.173  1.00  0.00     0.000 C 
BRANCH  18  19
ATOM     19  C   UNL     1      23.263  14.008 -18.062  1.00  0.00     0.000 C 
BRANCH  19  20
ATOM     20  C   UNL     1      22.694  12.688 -17.527  1.00  0.00     0.006 C 
BRANCH  20  21
ATOM     21  C   UNL     1      22.750  11.592 -18.595  1.00  0.00     0.053 C 
BRANCH  21  22
ATOM     22  C   UNL     1      23.705  10.513 -18.190  1.00  0.00     0.041 C 
ATOM     23  O   UNL     1      24.775  10.805 -17.592  1.00  0.00    -0.550 OA
ATOM     24  O   UNL     1      23.386   9.179 -18.421  1.00  0.00    -0.550 OA
ENDBRANCH  21  22
ENDBRANCH  20  21
ENDBRANCH  19  20
ENDBRANCH  18  19
ENDBRANCH  17  18
ENDBRANCH  16  17
ENDBRANCH  15  16
ENDBRANCH  14  15
ENDBRANCH  13  14
ENDBRANCH   1  13
TORSDOF 20
ENDMDL
MODEL 4
REMARK VINA RESULT:    -3.681      1.555      3.580
REMARK INTER + INTRA:         -11.460
REMARK INTER:                  -7.320
REMARK INTRA:                  -4.140
REMARK UNBOUND:                -3.475
REMARK SMILES CCCCCCCCCCCCCCCCCCCCCC(=O)[O-]
REMARK SMILES IDX 12 1 11 2 10 3 9 4 8 5 7 6 6 7 5 8 4 9 3 10 2 11 1 12 13 13
REMARK SMILES IDX 14 14 15 15 16 16 17 17 18 18 19 19 20 20 21 21 22 22 23 23
REMARK SMILES IDX 24 24
REMARK H PARENT
REMARK Flexibility Score: inf
ROOT
ATOM      1  C   UNL     1      20.058  13.364 -20.626  1.00  0.00     0.000 C 
ENDROOT
BRANCH   1   2
ATOM      2  C   UNL     1      19.625  14.839 -20.546  1.00  0.00     0.000 C 
BRANCH   2   3
ATOM      3  C   UNL     1      20.790  15.815 -20.777  1.00  0.00     0.000 C 
BRANCH   3   4
ATOM      4  C   UNL     1      21.010  16.781 -19.597  1.00  0.00    -0.000 C 
BRANCH   4   5
ATOM      5  C   UNL     1      19.902  16.787 -18.528  1.00  0.00    -0.000 C 
BRANCH   5   6
ATOM      6  C   UNL     1      20.437  16.559 -17.103  1.00  0.00    -0.000 C 
BRANCH   6   7
ATOM      7  C   UNL     1      19.988  15.215 -16.499  1.00  0.00    -0.000 C 
BRANCH   7   8
ATOM      8  C   UNL     1      21.120  14.208 -16.226  1.00  0.00    -0.000 C 
BRANCH   8   9
ATOM      9  C   UNL     1      22.428  14.558 -16.958  1.00  0.00    -0.000 C 
BRANCH   9  10
ATOM     10  C   UNL     1      22.655  13.673 -18.201  1.00  0.00    -0.000 C 
BRANCH  10  11
ATOM     11  C   UNL     1      22.633  12.165 -17.898  1.00  0.00    -0.003 C 
ATOM     12  C   UNL     1      22.765  11.298 -19.149  1.00  0.00     0.004 C 
ENDBRANCH  10  11
ENDBRANCH   9  10
ENDBRANCH   8   9
ENDBRANCH   7   8
ENDBRANCH   6   7
ENDBRANCH   5   6
ENDBRANCH   4   5
ENDBRANCH   3   4
ENDBRANCH   2   3
ENDBRANCH   1   2
BRANCH   1  13
ATOM     13  C   UNL     1      19.141  12.369 -19.887  1.00  0.00     0.000 C 
BRANCH  13  14
ATOM     14  C   UNL     1      18.437  12.930 -18.636  1.00  0.00     0.000 C 
BRANCH  14  15
ATOM     15  C   UNL     1      17.492  11.941 -17.928  1.00  0.00     0.000 C 
BRANCH  15  16
ATOM     16  C   UNL     1      17.931  11.628 -16.488  1.00  0.00     0.000 C 
BRANCH  16  17
ATOM     17  C   UNL     1      19.300  10.932 -16.425  1.00  0.00     0.000 C 
BRANCH  17  18
ATOM     18  C   UNL     1      19.206   9.419 -16.680  1.00  0.00     0.000 C 
BRANCH  18  19
ATOM     19  C   UNL     1      20.355   8.940 -17.575  1.00  0.00     0.000 C 
BRANCH  19  20
ATOM     20  C   UNL     1      19.900   8.813 -19.033  1.00  0.00     0.006 C 
BRANCH  20  21
ATOM     21  C   UNL     1      18.409   8.471 -19.118  1.00  0.00     0.053 C 
BRANCH  21  22
ATOM     22  C   UNL     1      18.210   6.988 -19.120  1.00  0.00     0.041 C 
ATOM     23  O   UNL     1      18.509   6.310 -20.138  1.00  0.00    -0.550 OA
ATOM     24  O   UNL     1      17.749   6.347 -17.975  1.00  0.00    -0.550 OA
ENDBRANCH  21  22
ENDBRANCH  20  21
ENDBRANCH  19  20
ENDBRANCH  18  19
ENDBRANCH  17  18
ENDBRANCH  16  17
ENDBRANCH  15  16
ENDBRANCH  14  15
ENDBRANCH  13  14
ENDBRANCH   1  13
TORSDOF 20
ENDMDL
MODEL 5
REMARK VINA RESULT:    -3.637      2.620      6.295
REMARK INTER + INTRA:         -11.364
REMARK INTER:                  -7.577
REMARK INTRA:                  -3.787
REMARK UNBOUND:                -3.475
REMARK SMILES CCCCCCCCCCCCCCCCCCCCCC(=O)[O-]
REMARK SMILES IDX 12 1 11 2 10 3 9 4 8 5 7 6 6 7 5 8 4 9 3 10 2 11 1 12 13 13
REMARK SMILES IDX 14 14 15 15 16 16 17 17 18 18 19 19 20 20 21 21 22 22 23 23
REMARK SMILES IDX 24 24
REMARK H PARENT
REMARK Flexibility Score: inf
ROOT
ATOM      1  C   UNL     1      20.967  16.532 -19.342  1.00  0.00     0.000 C 
ENDROOT
BRANCH   1   2
ATOM      2  C   UNL     1      19.597  15.964 -19.754  1.00  0.00     0.000 C 
BRANCH   2   3
ATOM      3  C   UNL     1      19.682  14.519 -20.271  1.00  0.00     0.000 C 
BRANCH   3   4
ATOM      4  C   UNL     1      21.031  13.845 -19.958  1.00  0.00    -0.000 C 
BRANCH   4   5
ATOM      5  C   UNL     1      20.987  12.313 -19.801  1.00  0.00    -0.000 C 
BRANCH   5   6
ATOM      6  C   UNL     1      22.343  11.708 -19.399  1.00  0.00    -0.000 C 
BRANCH   6   7
ATOM      7  C   UNL     1      22.205  10.454 -18.515  1.00  0.00    -0.000 C 
BRANCH   7   8
ATOM      8  C   UNL     1      20.862   9.708 -18.640  1.00  0.00    -0.000 C 
BRANCH   8   9
ATOM      9  C   UNL     1      20.660   8.645 -17.546  1.00  0.00    -0.000 C 
BRANCH   9  10
ATOM     10  C   UNL     1      19.173   8.465 -17.175  1.00  0.00    -0.000 C 
BRANCH  10  11
ATOM     11  C   UNL     1      18.591   7.107 -17.605  1.00  0.00    -0.003 C 
ATOM     12  C   UNL     1      17.978   7.132 -19.005  1.00  0.00     0.004 C 
ENDBRANCH  10  11
ENDBRANCH   9  10
ENDBRANCH   8   9
ENDBRANCH   7   8
ENDBRANCH   6   7
ENDBRANCH   5   6
ENDBRANCH   4   5
ENDBRANCH   3   4
ENDBRANCH   2   3
ENDBRANCH   1   2
BRANCH   1  13
ATOM     13  C   UNL     1      21.009  17.209 -17.957  1.00  0.00     0.000 C 
BRANCH  13  14
ATOM     14  C   UNL     1      20.722  16.278 -16.763  1.00  0.00     0.000 C 
BRANCH  14  15
ATOM     15  C   UNL     1      21.898  15.373 -16.353  1.00  0.00     0.000 C 
BRANCH  15  16
ATOM     16  C   UNL     1      21.551  13.876 -16.433  1.00  0.00     0.000 C 
BRANCH  16  17
ATOM     17  C   UNL     1      20.115  13.576 -15.977  1.00  0.00     0.000 C 
BRANCH  17  18
ATOM     18  C   UNL     1      19.705  12.118 -16.237  1.00  0.00     0.000 C 
BRANCH  18  19
ATOM     19  C   UNL     1      18.186  11.995 -16.407  1.00  0.00     0.000 C 
BRANCH  19  20
ATOM     20  C   UNL     1      17.732  12.602 -17.740  1.00  0.00     0.006 C 
BRANCH  20  21
ATOM     21  C   UNL     1      17.604  11.524 -18.821  1.00  0.00     0.053 C 
BRANCH  21  22
ATOM     22  C   UNL     1      16.749  12.009 -19.949  1.00  0.00     0.041 C 
ATOM     23  O   UNL     1      15.651  12.579 -19.712  1.00  0.00    -0.550 OA
ATOM     24  O   UNL     1      17.192  11.885 -21.261  1.00  0.00    -0.550 OA
ENDBRANCH  21  22
ENDBRANCH  20  21
ENDBRANCH  19  20
ENDBRANCH  18  19
ENDBRANCH  17  18
ENDBRANCH  16  17
ENDBRANCH  15  16
ENDBRANCH  14  15
ENDBRANCH  13  14
ENDBRANCH   1  13
TORSDOF 20
ENDMDL
MODEL 6
REMARK VINA RESULT:    -3.634      1.203      2.217
REMARK INTER + INTRA:         -11.358
REMARK INTER:                  -7.622
REMARK INTRA:                  -3.735
REMARK UNBOUND:                -3.475
REMARK SMILES CCCCCCCCCCCCCCCCCCCCCC(=O)[O-]
REMARK SMILES IDX 12 1 11 2 10 3 9 4 8 5 7 6 6 7 5 8 4 9 3 10 2 11 1 12 13 13
REMARK SMILES IDX 14 14 15 15 16 16 17 17 18 18 19 19 20 20 21 21 22 22 23 23
REMARK SMILES IDX 24 24
REMARK H PARENT
REMARK Flexibility Score: inf
ROOT
ATOM      1  C   UNL     1      19.298  11.492 -20.377  1.00  0.00     0.000 C 
ENDROOT
BRANCH   1   2
ATOM      2  C   UNL     1      20.782  11.664 -20.005  1.00  0.00     0.000 C 
BRANCH   2   3
ATOM      3  C   UNL     1      21.184  13.137 -19.826  1.00  0.00     0.000 C 
BRANCH   3   4
ATOM      4  C   UNL     1      22.420  13.321 -18.925  1.00  0.00    -0.000 C 
BRANCH   4   5
ATOM      5  C   UNL     1      22.353  12.618 -17.556  1.00  0.00    -0.000 C 
BRANCH   5   6
ATOM      6  C   UNL     1      21.783  13.515 -16.444  1.00  0.00    -0.000 C 
BRANCH   6   7
ATOM      7  C   UNL     1      22.032  15.014 -16.693  1.00  0.00    -0.000 C 
BRANCH   7   8
ATOM      8  C   UNL     1      20.825  15.933 -16.428  1.00  0.00    -0.000 C 
BRANCH   8   9
ATOM      9  C   UNL     1      20.650  17.022 -17.501  1.00  0.00    -0.000 C 
BRANCH   9  10
ATOM     10  C   UNL     1      21.660  16.870 -18.657  1.00  0.00    -0.000 C 
BRANCH  10  11
ATOM     11  C   UNL     1      21.009  16.880 -20.051  1.00  0.00    -0.003 C 
ATOM     12  C   UNL     1      19.581  16.335 -20.052  1.00  0.00     0.004 C 
ENDBRANCH  10  11
ENDBRANCH   9  10
ENDBRANCH   8   9
ENDBRANCH   7   8
ENDBRANCH   6   7
ENDBRANCH   5   6
ENDBRANCH   4   5
ENDBRANCH   3   4
ENDBRANCH   2   3
ENDBRANCH   1   2
BRANCH   1  13
ATOM     13  C   UNL     1      18.405  12.719 -20.102  1.00  0.00     0.000 C 
BRANCH  13  14
ATOM     14  C   UNL     1      17.596  12.661 -18.792  1.00  0.00     0.000 C 
BRANCH  14  15
ATOM     15  C   UNL     1      18.254  13.370 -17.594  1.00  0.00     0.000 C 
BRANCH  15  16
ATOM     16  C   UNL     1      18.521  12.419 -16.415  1.00  0.00     0.000 C 
BRANCH  16  17
ATOM     17  C   UNL     1      18.301  10.944 -16.782  1.00  0.00     0.000 C 
BRANCH  17  18
ATOM     18  C   UNL     1      19.611  10.141 -16.818  1.00  0.00     0.000 C 
BRANCH  18  19
ATOM     19  C   UNL     1      19.478   8.910 -17.722  1.00  0.00     0.000 C 
BRANCH  19  20
ATOM     20  C   UNL     1      19.039   7.681 -16.917  1.00  0.00     0.006 C 
BRANCH  20  21
ATOM     21  C   UNL     1      18.184   6.739 -17.771  1.00  0.00     0.053 C 
BRANCH  21  22
ATOM     22  C   UNL     1      18.838   5.398 -17.888  1.00  0.00     0.041 C 
ATOM     23  O   UNL     1      20.001   5.300 -18.362  1.00  0.00    -0.550 OA
ATOM     24  O   UNL     1      18.185   4.264 -17.419  1.00  0.00    -0.550 OA
ENDBRANCH  21  22
ENDBRANCH  20  21
ENDBRANCH  19  20
ENDBRANCH  18  19
ENDBRANCH  17  18
ENDBRANCH  16  17
ENDBRANCH  15  16
ENDBRANCH  14  15
ENDBRANCH  13  14
ENDBRANCH   1  13
TORSDOF 20
ENDMDL
MODEL 7
REMARK VINA RESULT:    -3.611      3.820      7.331
REMARK INTER + INTRA:         -11.308
REMARK INTER:                  -7.431
REMARK INTRA:                  -3.878
REMARK UNBOUND:                -3.475
REMARK SMILES CCCCCCCCCCCCCCCCCCCCCC(=O)[O-]
REMARK SMILES IDX 12 1 11 2 10 3 9 4 8 5 7 6 6 7 5 8 4 9 3 10 2 11 1 12 13 13
REMARK SMILES IDX 14 14 15 15 16 16 17 17 18 18 19 19 20 20 21 21 22 22 23 23
REMARK SMILES IDX 24 24
REMARK H PARENT
REMARK Flexibility Score: inf
ROOT
ATOM      1  C   UNL     1      19.110  11.600 -19.459  1.00  0.00     0.000 C 
ENDROOT
BRANCH   1   2
ATOM      2  C   UNL     1      19.838  12.938 -19.681  1.00  0.00     0.000 C 
BRANCH   2   3
ATOM      3  C   UNL     1      21.347  12.848 -19.403  1.00  0.00     0.000 C 
BRANCH   3   4
ATOM      4  C   UNL     1      21.676  12.133 -18.079  1.00  0.00    -0.000 C 
BRANCH   4   5
ATOM      5  C   UNL     1      23.169  12.077 -17.707  1.00  0.00    -0.000 C 
BRANCH   5   6
ATOM      6  C   UNL     1      23.990  11.173 -18.643  1.00  0.00    -0.000 C 
BRANCH   6   7
ATOM      7  C   UNL     1      23.551   9.697 -18.593  1.00  0.00    -0.000 C 
BRANCH   7   8
ATOM      8  C   UNL     1      22.862   9.175 -19.868  1.00  0.00    -0.000 C 
BRANCH   8   9
ATOM      9  C   UNL     1      21.438   8.649 -19.610  1.00  0.00    -0.000 C 
BRANCH   9  10
ATOM     10  C   UNL     1      21.176   8.386 -18.112  1.00  0.00    -0.000 C 
BRANCH  10  11
ATOM     11  C   UNL     1      19.684   8.400 -17.735  1.00  0.00    -0.003 C 
ATOM     12  C   UNL     1      19.442   8.683 -16.254  1.00  0.00     0.004 C 
ENDBRANCH  10  11
ENDBRANCH   9  10
ENDBRANCH   8   9
ENDBRANCH   7   8
ENDBRANCH   6   7
ENDBRANCH   5   6
ENDBRANCH   4   5
ENDBRANCH   3   4
ENDBRANCH   2   3
ENDBRANCH   1   2
BRANCH   1  13
ATOM     13  C   UNL     1      17.903  11.660 -18.502  1.00  0.00     0.000 C 
BRANCH  13  14
ATOM     14  C   UNL     1      18.005  12.713 -17.381  1.00  0.00     0.000 C 
BRANCH  14  15
ATOM     15  C   UNL     1      18.732  12.235 -16.110  1.00  0.00     0.000 C 
BRANCH  15  16
ATOM     16  C   UNL     1      19.512  13.363 -15.413  1.00  0.00     0.000 C 
BRANCH  16  17
ATOM     17  C   UNL     1      19.625  14.627 -16.278  1.00  0.00     0.000 C 
BRANCH  17  18
ATOM     18  C   UNL     1      21.050  15.202 -16.302  1.00  0.00     0.000 C 
BRANCH  18  19
ATOM     19  C   UNL     1      21.107  16.500 -17.117  1.00  0.00     0.000 C 
BRANCH  19  20
ATOM     20  C   UNL     1      20.239  16.396 -18.377  1.00  0.00     0.006 C 
BRANCH  20  21
ATOM     21  C   UNL     1      21.053  16.715 -19.634  1.00  0.00     0.053 C 
BRANCH  21  22
ATOM     22  C   UNL     1      20.159  17.200 -20.731  1.00  0.00     0.041 C 
ATOM     23  O   UNL     1      20.590  17.280 -21.912  1.00  0.00    -0.550 OA
ATOM     24  O   UNL     1      18.830  17.509 -20.460  1.00  0.00    -0.550 OA
ENDBRANCH  21  22
ENDBRANCH  20  21
ENDBRANCH  19  20
ENDBRANCH  18  19
ENDBRANCH  17  18
ENDBRANCH  16  17
ENDBRANCH  15  16
ENDBRANCH  14  15
ENDBRANCH  13  14
ENDBRANCH   1  13
TORSDOF 20
ENDMDL
MODEL 8
REMARK VINA RESULT:    -3.609      1.382      3.803
REMARK INTER + INTRA:         -11.304
REMARK INTER:                  -7.131
REMARK INTRA:                  -4.172
REMARK UNBOUND:                -3.475
REMARK SMILES CCCCCCCCCCCCCCCCCCCCCC(=O)[O-]
REMARK SMILES IDX 12 1 11 2 10 3 9 4 8 5 7 6 6 7 5 8 4 9 3 10 2 11 1 12 13 13
REMARK SMILES IDX 14 14 15 15 16 16 17 17 18 18 19 19 20 20 21 21 22 22 23 23
REMARK SMILES IDX 24 24
REMARK H PARENT
REMARK Flexibility Score: inf
ROOT
ATOM      1  C   UNL     1      20.066  16.112 -21.200  1.00  0.00     0.000 C 
ENDROOT
BRANCH   1   2
ATOM      2  C   UNL     1      20.240  17.187 -20.112  1.00  0.00     0.000 C 
BRANCH   2   3
ATOM      3  C   UNL     1      21.386  16.867 -19.138  1.00  0.00     0.000 C 
BRANCH   3   4
ATOM      4  C   UNL     1      20.973  16.986 -17.659  1.00  0.00    -0.000 C 
BRANCH   4   5
ATOM      5  C   UNL     1      19.790  16.100 -17.227  1.00  0.00    -0.000 C 
BRANCH   5   6
ATOM      6  C   UNL     1      20.178  15.046 -16.175  1.00  0.00    -0.000 C 
BRANCH   6   7
ATOM      7  C   UNL     1      21.658  14.627 -16.259  1.00  0.00    -0.000 C 
BRANCH   7   8
ATOM      8  C   UNL     1      21.946  13.417 -17.168  1.00  0.00    -0.000 C 
BRANCH   8   9
ATOM      9  C   UNL     1      23.156  13.635 -18.095  1.00  0.00    -0.000 C 
BRANCH   9  10
ATOM     10  C   UNL     1      23.281  12.526 -19.161  1.00  0.00    -0.000 C 
BRANCH  10  11
ATOM     11  C   UNL     1      22.671  11.181 -18.727  1.00  0.00    -0.003 C 
ATOM     12  C   UNL     1      22.072  10.391 -19.889  1.00  0.00     0.004 C 
ENDBRANCH  10  11
ENDBRANCH   9  10
ENDBRANCH   8   9
ENDBRANCH   7   8
ENDBRANCH   6   7
ENDBRANCH   5   6
ENDBRANCH   4   5
ENDBRANCH   3   4
ENDBRANCH   2   3
ENDBRANCH   1   2
BRANCH   1  13
ATOM     13  C   UNL     1      20.955  14.863 -21.039  1.00  0.00     0.000 C 
BRANCH  13  14
ATOM     14  C   UNL     1      20.195  13.546 -20.785  1.00  0.00     0.000 C 
BRANCH  14  15
ATOM     15  C   UNL     1      19.165  13.604 -19.642  1.00  0.00     0.000 C 
BRANCH  15  16
ATOM     16  C   UNL     1      18.971  12.246 -18.948  1.00  0.00     0.000 C 
BRANCH  16  17
ATOM     17  C   UNL     1      18.035  12.331 -17.732  1.00  0.00     0.000 C 
BRANCH  17  18
ATOM     18  C   UNL     1      18.641  11.692 -16.473  1.00  0.00     0.000 C 
BRANCH  18  19
ATOM     19  C   UNL     1      19.559  10.519 -16.839  1.00  0.00     0.000 C 
BRANCH  19  20
ATOM     20  C   UNL     1      19.007   9.197 -16.293  1.00  0.00     0.006 C 
BRANCH  20  21
ATOM     21  C   UNL     1      19.850   8.010 -16.767  1.00  0.00     0.053 C 
BRANCH  21  22
ATOM     22  C   UNL     1      19.598   7.731 -18.216  1.00  0.00     0.041 C 
ATOM     23  O   UNL     1      20.544   7.369 -18.965  1.00  0.00    -0.550 OA
ATOM     24  O   UNL     1      18.308   7.815 -18.726  1.00  0.00    -0.550 OA
ENDBRANCH  21  22
ENDBRANCH  20  21
ENDBRANCH  19  20
ENDBRANCH  18  19
ENDBRANCH  17  18
ENDBRANCH  16  17
ENDBRANCH  15  16
ENDBRANCH  14  15
ENDBRANCH  13  14
ENDBRANCH   1  13
TORSDOF 20
ENDMDL
MODEL 9
REMARK VINA RESULT:    -3.585      3.999      7.867
REMARK INTER + INTRA:         -11.251
REMARK INTER:                  -7.349
REMARK INTRA:                  -3.902
REMARK UNBOUND:                -3.475
REMARK SMILES CCCCCCCCCCCCCCCCCCCCCC(=O)[O-]
REMARK SMILES IDX 12 1 11 2 10 3 9 4 8 5 7 6 6 7 5 8 4 9 3 10 2 11 1 12 13 13
REMARK SMILES IDX 14 14 15 15 16 16 17 17 18 18 19 19 20 20 21 21 22 22 23 23
REMARK SMILES IDX 24 24
REMARK H PARENT
REMARK Flexibility Score: inf
ROOT
ATOM      1  C   UNL     1      21.745  14.368 -16.404  1.00  0.00     0.000 C 
ENDROOT
BRANCH   1   2
ATOM      2  C   UNL     1      21.669  13.061 -17.214  1.00  0.00     0.000 C 
BRANCH   2   3
ATOM      3  C   UNL     1      22.313  13.185 -18.604  1.00  0.00     0.000 C 
BRANCH   3   4
ATOM      4  C   UNL     1      21.291  13.094 -19.753  1.00  0.00    -0.000 C 
BRANCH   4   5
ATOM      5  C   UNL     1      19.833  13.411 -19.371  1.00  0.00    -0.000 C 
BRANCH   5   6
ATOM      6  C   UNL     1      18.843  12.317 -19.806  1.00  0.00    -0.000 C 
BRANCH   6   7
ATOM      7  C   UNL     1      17.715  12.084 -18.784  1.00  0.00    -0.000 C 
BRANCH   7   8
ATOM      8  C   UNL     1      18.016  12.567 -17.353  1.00  0.00    -0.000 C 
BRANCH   8   9
ATOM      9  C   UNL     1      18.563  11.452 -16.443  1.00  0.00    -0.000 C 
BRANCH   9  10
ATOM     10  C   UNL     1      18.562  10.076 -17.143  1.00  0.00    -0.000 C 
BRANCH  10  11
ATOM     11  C   UNL     1      19.906   9.333 -17.045  1.00  0.00    -0.003 C 
ATOM     12  C   UNL     1      20.829   9.603 -18.232  1.00  0.00     0.004 C 
ENDBRANCH  10  11
ENDBRANCH   9  10
ENDBRANCH   8   9
ENDBRANCH   7   8
ENDBRANCH   6   7
ENDBRANCH   5   6
ENDBRANCH   4   5
ENDBRANCH   3   4
ENDBRANCH   2   3
ENDBRANCH   1   2
BRANCH   1  13
ATOM     13  C   UNL     1      20.385  14.956 -15.977  1.00  0.00     0.000 C 
BRANCH  13  14
ATOM     14  C   UNL     1      19.862  16.108 -16.858  1.00  0.00     0.000 C 
BRANCH  14  15
ATOM     15  C   UNL     1      20.958  16.965 -17.518  1.00  0.00     0.000 C 
BRANCH  15  16
ATOM     16  C   UNL     1      20.830  17.018 -19.049  1.00  0.00     0.000 C 
BRANCH  16  17
ATOM     17  C   UNL     1      22.155  16.712 -19.765  1.00  0.00     0.000 C 
BRANCH  17  18
ATOM     18  C   UNL     1      21.962  16.395 -21.256  1.00  0.00     0.000 C 
BRANCH  18  19
ATOM     19  C   UNL     1      20.516  16.663 -21.693  1.00  0.00     0.000 C 
BRANCH  19  20
ATOM     20  C   UNL     1      20.454  17.810 -22.710  1.00  0.00     0.006 C 
BRANCH  20  21
ATOM     21  C   UNL     1      19.398  18.844 -22.309  1.00  0.00     0.053 C 
BRANCH  21  22
ATOM     22  C   UNL     1      18.031  18.237 -22.333  1.00  0.00     0.041 C 
ATOM     23  O   UNL     1      17.573  17.749 -23.401  1.00  0.00    -0.550 OA
ATOM     24  O   UNL     1      17.285  18.156 -21.163  1.00  0.00    -0.550 OA
ENDBRANCH  21  22
ENDBRANCH  20  21
ENDBRANCH  19  20
ENDBRANCH  18  19
ENDBRANCH  17  18
ENDBRANCH  16  17
ENDBRANCH  15  16
ENDBRANCH  14  15
ENDBRANCH  13  14
ENDBRANCH   1  13
TORSDOF 20
ENDMDL
