MODEL 1
REMARK VINA RESULT:    -7.018      0.000      0.000
REMARK INTER + INTRA:          -8.872
REMARK INTER:                  -8.454
REMARK INTRA:                  -0.417
REMARK UNBOUND:                -0.417
REMARK SMILES O=c1c(O)c(-c2ccc(O)cc2O)oc2cc(O)cc(O)c12
REMARK SMILES IDX 5 1 3 2 2 3 1 4 22 5 20 6 19 7 17 8 16 9 15 10 14 11 6 12
REMARK SMILES IDX 8 13 7 14 9 15 11 16 12 17 10 18 13 20 4 22 21 24 18 26
REMARK H PARENT 10 19 13 21 4 23 21 25 18 27
REMARK Flexibility Score: inf
ROOT
ATOM      1  C   UNL     1     101.120 111.290 123.196  1.00  0.00     0.184 A 
ATOM      2  C   UNL     1     102.121 110.727 124.009  1.00  0.00     0.208 A 
ATOM      3  C   UNL     1     102.433 111.347 125.227  1.00  0.00     0.238 A 
ATOM      4  O   UNL     1     103.321 110.845 125.970  1.00  0.00    -0.285 OA
ATOM      5  C   UNL     1     101.756 112.526 125.602  1.00  0.00     0.111 A 
ATOM      6  C   UNL     1     102.013 113.214 126.812  1.00  0.00     0.134 A 
ATOM      7  C   UNL     1     101.302 114.388 127.110  1.00  0.00     0.093 A 
ATOM      8  C   UNL     1     100.341 114.883 126.221  1.00  0.00     0.123 A 
ATOM      9  C   UNL     1     100.084 114.207 125.027  1.00  0.00     0.094 A 
ATOM     10  C   UNL     1     100.780 113.036 124.713  1.00  0.00     0.146 A 
ATOM     11  O   UNL     1     100.512 112.411 123.572  1.00  0.00    -0.451 OA
ENDROOT
BRANCH   1  12
ATOM     12  C   UNL     1     100.735 110.681 121.907  1.00  0.00     0.063 A 
ATOM     13  C   UNL     1      99.594 108.899 120.710  1.00  0.00     0.047 A 
ATOM     14  C   UNL     1      99.970 109.504 121.912  1.00  0.00     0.020 A 
ATOM     15  C   UNL     1      99.988 109.452 119.490  1.00  0.00     0.119 A 
ATOM     16  C   UNL     1     100.771 110.613 119.474  1.00  0.00     0.093 A 
ATOM     17  C   UNL     1     101.159 111.224 120.675  1.00  0.00     0.130 A 
BRANCH  15  18
ATOM     18  O   UNL     1      99.601 108.839 118.300  1.00  0.00    -0.508 OA
ATOM     19  H   UNL     1      99.071 109.338 117.595  1.00  0.00     0.293 HD
ENDBRANCH  15  18
BRANCH  17  20
ATOM     20  O   UNL     1     101.980 112.351 120.648  1.00  0.00    -0.507 OA
ATOM     21  H   UNL     1     101.761 113.154 120.071  1.00  0.00     0.293 HD
ENDBRANCH  17  20
ENDBRANCH   1  12
BRANCH   2  22
ATOM     22  O   UNL     1     102.805 109.583 123.587  1.00  0.00    -0.502 OA
ATOM     23  H   UNL     1     103.810 109.487 123.683  1.00  0.00     0.293 HD
ENDBRANCH   2  22
BRANCH   6  24
ATOM     24  O   UNL     1     102.965 112.746 127.718  1.00  0.00    -0.507 OA
ATOM     25  H   UNL     1     102.769 112.676 128.709  1.00  0.00     0.293 HD
ENDBRANCH   6  24
BRANCH   8  26
ATOM     26  O   UNL     1      99.636 116.048 126.515  1.00  0.00    -0.508 OA
ATOM     27  H   UNL     1      99.105 116.144 127.373  1.00  0.00     0.293 HD
ENDBRANCH   8  26
TORSDOF 6
ENDMDL
MODEL 2
REMARK VINA RESULT:    -6.852      0.927      1.494
REMARK INTER + INTRA:          -8.672
REMARK INTER:                  -8.270
REMARK INTRA:                  -0.401
REMARK UNBOUND:                -0.417
REMARK SMILES O=c1c(O)c(-c2ccc(O)cc2O)oc2cc(O)cc(O)c12
REMARK SMILES IDX 5 1 3 2 2 3 1 4 22 5 20 6 19 7 17 8 16 9 15 10 14 11 6 12
REMARK SMILES IDX 8 13 7 14 9 15 11 16 12 17 10 18 13 20 4 22 21 24 18 26
REMARK H PARENT 10 19 13 21 4 23 21 25 18 27
REMARK Flexibility Score: inf
ROOT
ATOM      1  C   UNL     1     101.312 111.336 122.912  1.00  0.00     0.184 A 
ATOM      2  C   UNL     1     102.267 110.692 123.719  1.00  0.00     0.208 A 
ATOM      3  C   UNL     1     102.493 111.174 125.017  1.00  0.00     0.238 A 
ATOM      4  O   UNL     1     103.339 110.597 125.754  1.00  0.00    -0.285 OA
ATOM      5  C   UNL     1     101.778 112.299 125.476  1.00  0.00     0.111 A 
ATOM      6  C   UNL     1     101.949 112.849 126.769  1.00  0.00     0.134 A 
ATOM      7  C   UNL     1     101.205 113.978 127.149  1.00  0.00     0.093 A 
ATOM      8  C   UNL     1     100.296 114.564 126.261  1.00  0.00     0.123 A 
ATOM      9  C   UNL     1     100.124 114.023 124.985  1.00  0.00     0.094 A 
ATOM     10  C   UNL     1     100.854 112.899 124.588  1.00  0.00     0.146 A 
ATOM     11  O   UNL     1     100.667 112.404 123.370  1.00  0.00    -0.451 OA
ENDROOT
BRANCH   1  12
ATOM     12  C   UNL     1     101.017 110.873 121.540  1.00  0.00     0.063 A 
ATOM     13  C   UNL     1     101.355 111.125 119.146  1.00  0.00     0.047 A 
ATOM     14  C   UNL     1     101.617 111.534 120.456  1.00  0.00     0.020 A 
ATOM     15  C   UNL     1     100.482 110.062 118.901  1.00  0.00     0.119 A 
ATOM     16  C   UNL     1      99.860 109.412 119.975  1.00  0.00     0.093 A 
ATOM     17  C   UNL     1     100.112 109.819 121.293  1.00  0.00     0.130 A 
BRANCH  15  18
ATOM     18  O   UNL     1     100.234 109.664 117.589  1.00  0.00    -0.508 OA
ATOM     19  H   UNL     1     100.867 109.046 117.094  1.00  0.00     0.293 HD
ENDBRANCH  15  18
BRANCH  17  20
ATOM     20  O   UNL     1      99.450 109.197 122.350  1.00  0.00    -0.507 OA
ATOM     21  H   UNL     1      99.876 108.441 122.874  1.00  0.00     0.293 HD
ENDBRANCH  17  20
ENDBRANCH   1  12
BRANCH   2  22
ATOM     22  O   UNL     1     102.991 109.607 123.218  1.00  0.00    -0.502 OA
ATOM     23  H   UNL     1     103.947 109.698 122.893  1.00  0.00     0.293 HD
ENDBRANCH   2  22
BRANCH   6  24
ATOM     24  O   UNL     1     102.848 112.288 127.676  1.00  0.00    -0.507 OA
ATOM     25  H   UNL     1     102.534 111.827 128.522  1.00  0.00     0.293 HD
ENDBRANCH   6  24
BRANCH   8  26
ATOM     26  O   UNL     1      99.558 115.684 126.637  1.00  0.00    -0.508 OA
ATOM     27  H   UNL     1      99.705 116.140 127.530  1.00  0.00     0.293 HD
ENDBRANCH   8  26
TORSDOF 6
ENDMDL
MODEL 3
REMARK VINA RESULT:    -6.756      3.510      6.218
REMARK INTER + INTRA:          -8.556
REMARK INTER:                  -8.485
REMARK INTRA:                  -0.071
REMARK UNBOUND:                -0.417
REMARK SMILES O=c1c(O)c(-c2ccc(O)cc2O)oc2cc(O)cc(O)c12
REMARK SMILES IDX 5 1 3 2 2 3 1 4 22 5 20 6 19 7 17 8 16 9 15 10 14 11 6 12
REMARK SMILES IDX 8 13 7 14 9 15 11 16 12 17 10 18 13 20 4 22 21 24 18 26
REMARK H PARENT 10 19 13 21 4 23 21 25 18 27
REMARK Flexibility Score: inf
ROOT
ATOM      1  C   UNL     1     100.940 115.217 124.850  1.00  0.00     0.184 A 
ATOM      2  C   UNL     1     100.304 115.379 123.606  1.00  0.00     0.208 A 
ATOM      3  C   UNL     1      99.681 116.602 123.318  1.00  0.00     0.238 A 
ATOM      4  O   UNL     1      99.116 116.763 122.201  1.00  0.00    -0.285 OA
ATOM      5  C   UNL     1      99.688 117.632 124.281  1.00  0.00     0.111 A 
ATOM      6  C   UNL     1      99.080 118.893 124.070  1.00  0.00     0.134 A 
ATOM      7  C   UNL     1      99.123 119.864 125.084  1.00  0.00     0.093 A 
ATOM      8  C   UNL     1      99.759 119.596 126.301  1.00  0.00     0.123 A 
ATOM      9  C   UNL     1     100.360 118.354 126.512  1.00  0.00     0.094 A 
ATOM     10  C   UNL     1     100.331 117.374 125.515  1.00  0.00     0.146 A 
ATOM     11  O   UNL     1     100.914 116.203 125.742  1.00  0.00    -0.451 OA
ENDROOT
BRANCH   1  12
ATOM     12  C   UNL     1     101.624 113.960 125.214  1.00  0.00     0.063 A 
ATOM     13  C   UNL     1     103.068 112.117 124.558  1.00  0.00     0.047 A 
ATOM     14  C   UNL     1     102.412 113.312 124.249  1.00  0.00     0.020 A 
ATOM     15  C   UNL     1     102.935 111.548 125.826  1.00  0.00     0.119 A 
ATOM     16  C   UNL     1     102.131 112.174 126.788  1.00  0.00     0.093 A 
ATOM     17  C   UNL     1     101.464 113.370 126.485  1.00  0.00     0.130 A 
BRANCH  15  18
ATOM     18  O   UNL     1     103.598 110.358 126.120  1.00  0.00    -0.508 OA
ATOM     19  H   UNL     1     103.224 109.694 126.788  1.00  0.00     0.293 HD
ENDBRANCH  15  18
BRANCH  17  20
ATOM     20  O   UNL     1     100.628 113.958 127.434  1.00  0.00    -0.507 OA
ATOM     21  H   UNL     1     100.989 114.575 128.151  1.00  0.00     0.293 HD
ENDBRANCH  17  20
ENDBRANCH   1  12
BRANCH   2  22
ATOM     22  O   UNL     1     100.275 114.323 122.691  1.00  0.00    -0.502 OA
ATOM     23  H   UNL     1      99.497 113.677 122.634  1.00  0.00     0.293 HD
ENDBRANCH   2  22
BRANCH   6  24
ATOM     24  O   UNL     1      98.437 119.189 122.869  1.00  0.00    -0.507 OA
ATOM     25  H   UNL     1      97.442 119.044 122.747  1.00  0.00     0.293 HD
ENDBRANCH   6  24
BRANCH   8  26
ATOM     26  O   UNL     1      99.801 120.558 127.306  1.00  0.00    -0.508 OA
ATOM     27  H   UNL     1     100.354 121.402 127.211  1.00  0.00     0.293 HD
ENDBRANCH   8  26
TORSDOF 6
ENDMDL
MODEL 4
REMARK VINA RESULT:    -6.752      3.495      7.217
REMARK INTER + INTRA:          -8.550
REMARK INTER:                  -8.233
REMARK INTRA:                  -0.317
REMARK UNBOUND:                -0.417
REMARK SMILES O=c1c(O)c(-c2ccc(O)cc2O)oc2cc(O)cc(O)c12
REMARK SMILES IDX 5 1 3 2 2 3 1 4 22 5 20 6 19 7 17 8 16 9 15 10 14 11 6 12
REMARK SMILES IDX 8 13 7 14 9 15 11 16 12 17 10 18 13 20 4 22 21 24 18 26
REMARK H PARENT 10 19 13 21 4 23 21 25 18 27
REMARK Flexibility Score: inf
ROOT
ATOM      1  C   UNL     1     100.617 115.181 123.523  1.00  0.00     0.184 A 
ATOM      2  C   UNL     1      99.709 116.240 123.702  1.00  0.00     0.208 A 
ATOM      3  C   UNL     1      99.213 116.905 122.571  1.00  0.00     0.238 A 
ATOM      4  O   UNL     1      98.390 117.851 122.717  1.00  0.00    -0.285 OA
ATOM      5  C   UNL     1      99.647 116.515 121.287  1.00  0.00     0.111 A 
ATOM      6  C   UNL     1      99.199 117.135 120.096  1.00  0.00     0.134 A 
ATOM      7  C   UNL     1      99.685 116.694 118.856  1.00  0.00     0.093 A 
ATOM      8  C   UNL     1     100.610 115.646 118.785  1.00  0.00     0.123 A 
ATOM      9  C   UNL     1     101.054 115.031 119.957  1.00  0.00     0.094 A 
ATOM     10  C   UNL     1     100.581 115.454 121.202  1.00  0.00     0.146 A 
ATOM     11  O   UNL     1     101.017 114.848 122.300  1.00  0.00    -0.451 OA
ENDROOT
BRANCH   1  12
ATOM     12  C   UNL     1     101.168 114.431 124.670  1.00  0.00     0.063 A 
ATOM     13  C   UNL     1     102.458 114.441 126.732  1.00  0.00     0.047 A 
ATOM     14  C   UNL     1     101.917 115.121 125.637  1.00  0.00     0.020 A 
ATOM     15  C   UNL     1     102.270 113.063 126.868  1.00  0.00     0.119 A 
ATOM     16  C   UNL     1     101.544 112.362 125.896  1.00  0.00     0.093 A 
ATOM     17  C   UNL     1     101.003 113.034 124.791  1.00  0.00     0.130 A 
BRANCH  15  18
ATOM     18  O   UNL     1     102.812 112.401 127.967  1.00  0.00    -0.508 OA
ATOM     19  H   UNL     1     103.813 112.292 128.078  1.00  0.00     0.293 HD
ENDBRANCH  15  18
BRANCH  17  20
ATOM     20  O   UNL     1     100.325 112.318 123.805  1.00  0.00    -0.507 OA
ATOM     21  H   UNL     1     100.289 111.306 123.814  1.00  0.00     0.293 HD
ENDBRANCH  17  20
ENDBRANCH   1  12
BRANCH   2  22
ATOM     22  O   UNL     1      99.334 116.632 124.989  1.00  0.00    -0.502 OA
ATOM     23  H   UNL     1      98.690 117.397 125.157  1.00  0.00     0.293 HD
ENDBRANCH   2  22
BRANCH   6  24
ATOM     24  O   UNL     1      98.279 118.183 120.134  1.00  0.00    -0.507 OA
ATOM     25  H   UNL     1      98.476 119.049 120.623  1.00  0.00     0.293 HD
ENDBRANCH   6  24
BRANCH   8  26
ATOM     26  O   UNL     1     101.093 115.208 117.555  1.00  0.00    -0.508 OA
ATOM     27  H   UNL     1     101.441 115.859 116.860  1.00  0.00     0.293 HD
ENDBRANCH   8  26
TORSDOF 6
ENDMDL
MODEL 5
REMARK VINA RESULT:    -6.676      1.560      6.274
REMARK INTER + INTRA:          -8.459
REMARK INTER:                  -8.136
REMARK INTRA:                  -0.322
REMARK UNBOUND:                -0.417
REMARK SMILES O=c1c(O)c(-c2ccc(O)cc2O)oc2cc(O)cc(O)c12
REMARK SMILES IDX 5 1 3 2 2 3 1 4 22 5 20 6 19 7 17 8 16 9 15 10 14 11 6 12
REMARK SMILES IDX 8 13 7 14 9 15 11 16 12 17 10 18 13 20 4 22 21 24 18 26
REMARK H PARENT 10 19 13 21 4 23 21 25 18 27
REMARK Flexibility Score: inf
ROOT
ATOM      1  C   UNL     1     101.349 112.380 124.443  1.00  0.00     0.184 A 
ATOM      2  C   UNL     1     102.401 111.715 125.099  1.00  0.00     0.208 A 
ATOM      3  C   UNL     1     102.788 110.446 124.643  1.00  0.00     0.238 A 
ATOM      4  O   UNL     1     103.737 109.843 125.216  1.00  0.00    -0.285 OA
ATOM      5  C   UNL     1     102.107 109.858 123.557  1.00  0.00     0.111 A 
ATOM      6  C   UNL     1     102.433 108.582 123.038  1.00  0.00     0.134 A 
ATOM      7  C   UNL     1     101.701 108.062 121.959  1.00  0.00     0.093 A 
ATOM      8  C   UNL     1     100.652 108.794 121.391  1.00  0.00     0.123 A 
ATOM      9  C   UNL     1     100.329 110.053 121.899  1.00  0.00     0.094 A 
ATOM     10  C   UNL     1     101.046 110.590 122.972  1.00  0.00     0.146 A 
ATOM     11  O   UNL     1     100.719 111.792 123.432  1.00  0.00    -0.451 OA
ENDROOT
BRANCH   1  12
ATOM     12  C   UNL     1     100.900 113.723 124.865  1.00  0.00     0.063 A 
ATOM     13  C   UNL     1     100.789 116.111 124.420  1.00  0.00     0.047 A 
ATOM     14  C   UNL     1     101.194 114.826 124.048  1.00  0.00     0.020 A 
ATOM     15  C   UNL     1     100.097 116.311 125.617  1.00  0.00     0.119 A 
ATOM     16  C   UNL     1      99.820 115.221 126.451  1.00  0.00     0.093 A 
ATOM     17  C   UNL     1     100.228 113.929 126.089  1.00  0.00     0.130 A 
BRANCH  15  18
ATOM     18  O   UNL     1      99.697 117.598 125.972  1.00  0.00    -0.508 OA
ATOM     19  H   UNL     1     100.135 118.419 125.571  1.00  0.00     0.293 HD
ENDBRANCH  15  18
BRANCH  17  20
ATOM     20  O   UNL     1      99.989 112.858 126.950  1.00  0.00    -0.507 OA
ATOM     21  H   UNL     1      99.115 112.347 126.934  1.00  0.00     0.293 HD
ENDBRANCH  17  20
ENDBRANCH   1  12
BRANCH   2  22
ATOM     22  O   UNL     1     103.025 112.305 126.201  1.00  0.00    -0.502 OA
ATOM     23  H   UNL     1     102.724 113.195 126.582  1.00  0.00     0.293 HD
ENDBRANCH   2  22
BRANCH   6  24
ATOM     24  O   UNL     1     103.472 107.829 123.584  1.00  0.00    -0.507 OA
ATOM     25  H   UNL     1     104.426 108.171 123.604  1.00  0.00     0.293 HD
ENDBRANCH   6  24
BRANCH   8  26
ATOM     26  O   UNL     1      99.926 108.278 120.320  1.00  0.00    -0.508 OA
ATOM     27  H   UNL     1      99.567 107.330 120.331  1.00  0.00     0.293 HD
ENDBRANCH   8  26
TORSDOF 6
ENDMDL
MODEL 6
REMARK VINA RESULT:    -6.572      6.456      8.867
REMARK INTER + INTRA:          -8.334
REMARK INTER:                  -7.953
REMARK INTRA:                  -0.381
REMARK UNBOUND:                -0.417
REMARK SMILES O=c1c(O)c(-c2ccc(O)cc2O)oc2cc(O)cc(O)c12
REMARK SMILES IDX 5 1 3 2 2 3 1 4 22 5 20 6 19 7 17 8 16 9 15 10 14 11 6 12
REMARK SMILES IDX 8 13 7 14 9 15 11 16 12 17 10 18 13 20 4 22 21 24 18 26
REMARK H PARENT 10 19 13 21 4 23 21 25 18 27
REMARK Flexibility Score: inf
ROOT
ATOM      1  C   UNL     1      99.813 107.784 116.751  1.00  0.00     0.184 A 
ATOM      2  C   UNL     1      99.611 108.561 117.905  1.00  0.00     0.208 A 
ATOM      3  C   UNL     1     100.038 108.059 119.143  1.00  0.00     0.238 A 
ATOM      4  O   UNL     1      99.872 108.752 120.185  1.00  0.00    -0.285 OA
ATOM      5  C   UNL     1     100.640 106.786 119.209  1.00  0.00     0.111 A 
ATOM      6  C   UNL     1     101.096 106.206 120.417  1.00  0.00     0.134 A 
ATOM      7  C   UNL     1     101.677 104.928 120.400  1.00  0.00     0.093 A 
ATOM      8  C   UNL     1     101.810 104.222 119.199  1.00  0.00     0.123 A 
ATOM      9  C   UNL     1     101.362 104.790 118.006  1.00  0.00     0.094 A 
ATOM     10  C   UNL     1     100.782 106.062 118.000  1.00  0.00     0.146 A 
ATOM     11  O   UNL     1     100.369 106.580 116.849  1.00  0.00    -0.451 OA
ENDROOT
BRANCH   1  12
ATOM     12  C   UNL     1      99.397 108.257 115.415  1.00  0.00     0.063 A 
ATOM     13  C   UNL     1      97.600 108.846 113.886  1.00  0.00     0.047 A 
ATOM     14  C   UNL     1      98.028 108.406 115.142  1.00  0.00     0.020 A 
ATOM     15  C   UNL     1      98.531 109.129 112.885  1.00  0.00     0.119 A 
ATOM     16  C   UNL     1      99.899 108.962 113.139  1.00  0.00     0.093 A 
ATOM     17  C   UNL     1     100.337 108.514 114.394  1.00  0.00     0.130 A 
BRANCH  15  18
ATOM     18  O   UNL     1      98.089 109.571 111.640  1.00  0.00    -0.508 OA
ATOM     19  H   UNL     1      98.555 109.293 110.783  1.00  0.00     0.293 HD
ENDBRANCH  15  18
BRANCH  17  20
ATOM     20  O   UNL     1     101.697 108.304 114.620  1.00  0.00    -0.507 OA
ATOM     21  H   UNL     1     102.036 107.897 115.484  1.00  0.00     0.293 HD
ENDBRANCH  17  20
ENDBRANCH   1  12
BRANCH   2  22
ATOM     22  O   UNL     1      98.970 109.800 117.813  1.00  0.00    -0.502 OA
ATOM     23  H   UNL     1      98.145 110.024 118.357  1.00  0.00     0.293 HD
ENDBRANCH   2  22
BRANCH   6  24
ATOM     24  O   UNL     1     100.976 106.885 121.630  1.00  0.00    -0.507 OA
ATOM     25  H   UNL     1     100.155 106.789 122.216  1.00  0.00     0.293 HD
ENDBRANCH   6  24
BRANCH   8  26
ATOM     26  O   UNL     1     102.385 102.954 119.182  1.00  0.00    -0.508 OA
ATOM     27  H   UNL     1     102.274 102.332 118.389  1.00  0.00     0.293 HD
ENDBRANCH   8  26
TORSDOF 6
ENDMDL
MODEL 7
REMARK VINA RESULT:    -6.539      2.702      5.048
REMARK INTER + INTRA:          -8.295
REMARK INTER:                  -8.230
REMARK INTRA:                  -0.065
REMARK UNBOUND:                -0.417
REMARK SMILES O=c1c(O)c(-c2ccc(O)cc2O)oc2cc(O)cc(O)c12
REMARK SMILES IDX 5 1 3 2 2 3 1 4 22 5 20 6 19 7 17 8 16 9 15 10 14 11 6 12
REMARK SMILES IDX 8 13 7 14 9 15 11 16 12 17 10 18 13 20 4 22 21 24 18 26
REMARK H PARENT 10 19 13 21 4 23 21 25 18 27
REMARK Flexibility Score: inf
ROOT
ATOM      1  C   UNL     1     101.452 113.502 124.882  1.00  0.00     0.184 A 
ATOM      2  C   UNL     1     100.811 114.079 125.993  1.00  0.00     0.208 A 
ATOM      3  C   UNL     1     100.244 115.355 125.861  1.00  0.00     0.238 A 
ATOM      4  O   UNL     1      99.657 115.879 126.848  1.00  0.00    -0.285 OA
ATOM      5  C   UNL     1     100.344 116.038 124.631  1.00  0.00     0.111 A 
ATOM      6  C   UNL     1      99.803 117.328 124.416  1.00  0.00     0.134 A 
ATOM      7  C   UNL     1      99.953 117.945 123.164  1.00  0.00     0.093 A 
ATOM      8  C   UNL     1     100.633 117.297 122.127  1.00  0.00     0.123 A 
ATOM      9  C   UNL     1     101.167 116.025 122.335  1.00  0.00     0.094 A 
ATOM     10  C   UNL     1     101.028 115.391 123.573  1.00  0.00     0.146 A 
ATOM     11  O   UNL     1     101.542 114.179 123.742  1.00  0.00    -0.451 OA
ENDROOT
BRANCH   1  12
ATOM     12  C   UNL     1     102.059 112.157 124.950  1.00  0.00     0.063 A 
ATOM     13  C   UNL     1     103.415 110.550 126.170  1.00  0.00     0.047 A 
ATOM     14  C   UNL     1     102.821 111.811 126.078  1.00  0.00     0.020 A 
ATOM     15  C   UNL     1     103.267 109.624 125.136  1.00  0.00     0.119 A 
ATOM     16  C   UNL     1     102.528 109.967 123.996  1.00  0.00     0.093 A 
ATOM     17  C   UNL     1     101.934 111.234 123.890  1.00  0.00     0.130 A 
BRANCH  15  18
ATOM     18  O   UNL     1     103.862 108.369 125.245  1.00  0.00    -0.508 OA
ATOM     19  H   UNL     1     104.641 108.098 124.656  1.00  0.00     0.293 HD
ENDBRANCH  15  18
BRANCH  17  20
ATOM     20  O   UNL     1     101.243 111.582 122.731  1.00  0.00    -0.507 OA
ATOM     21  H   UNL     1     100.590 112.356 122.713  1.00  0.00     0.293 HD
ENDBRANCH  17  20
ENDBRANCH   1  12
BRANCH   2  22
ATOM     22  O   UNL     1     100.768 113.395 127.211  1.00  0.00    -0.502 OA
ATOM     23  H   UNL     1     100.345 112.479 127.303  1.00  0.00     0.293 HD
ENDBRANCH   2  22
BRANCH   6  24
ATOM     24  O   UNL     1      99.122 118.000 125.431  1.00  0.00    -0.507 OA
ATOM     25  H   UNL     1      98.750 118.933 125.296  1.00  0.00     0.293 HD
ENDBRANCH   6  24
BRANCH   8  26
ATOM     26  O   UNL     1     100.783 117.910 120.885  1.00  0.00    -0.508 OA
ATOM     27  H   UNL     1     100.735 117.379 120.023  1.00  0.00     0.293 HD
ENDBRANCH   8  26
TORSDOF 6
ENDMDL
MODEL 8
REMARK VINA RESULT:    -6.463      2.101      3.389
REMARK INTER + INTRA:          -8.203
REMARK INTER:                  -7.868
REMARK INTRA:                  -0.335
REMARK UNBOUND:                -0.417
REMARK SMILES O=c1c(O)c(-c2ccc(O)cc2O)oc2cc(O)cc(O)c12
REMARK SMILES IDX 5 1 3 2 2 3 1 4 22 5 20 6 19 7 17 8 16 9 15 10 14 11 6 12
REMARK SMILES IDX 8 13 7 14 9 15 11 16 12 17 10 18 13 20 4 22 21 24 18 26
REMARK H PARENT 10 19 13 21 4 23 21 25 18 27
REMARK Flexibility Score: inf
ROOT
ATOM      1  C   UNL     1     101.642 110.593 122.363  1.00  0.00     0.184 A 
ATOM      2  C   UNL     1     101.127 111.761 121.773  1.00  0.00     0.208 A 
ATOM      3  C   UNL     1     101.064 112.936 122.537  1.00  0.00     0.238 A 
ATOM      4  O   UNL     1     100.614 113.993 122.016  1.00  0.00    -0.285 OA
ATOM      5  C   UNL     1     101.498 112.917 123.879  1.00  0.00     0.111 A 
ATOM      6  C   UNL     1     101.465 114.057 124.719  1.00  0.00     0.134 A 
ATOM      7  C   UNL     1     101.907 113.955 126.047  1.00  0.00     0.093 A 
ATOM      8  C   UNL     1     102.379 112.737 126.550  1.00  0.00     0.123 A 
ATOM      9  C   UNL     1     102.413 111.611 125.725  1.00  0.00     0.094 A 
ATOM     10  C   UNL     1     101.979 111.692 124.398  1.00  0.00     0.146 A 
ATOM     11  O   UNL     1     102.027 110.606 123.635  1.00  0.00    -0.451 OA
ENDROOT
BRANCH   1  12
ATOM     12  C   UNL     1     101.746 109.326 121.611  1.00  0.00     0.063 A 
ATOM     13  C   UNL     1     103.143 107.704 120.458  1.00  0.00     0.047 A 
ATOM     14  C   UNL     1     103.010 108.895 121.177  1.00  0.00     0.020 A 
ATOM     15  C   UNL     1     102.016 106.937 120.151  1.00  0.00     0.119 A 
ATOM     16  C   UNL     1     100.748 107.371 120.559  1.00  0.00     0.093 A 
ATOM     17  C   UNL     1     100.604 108.568 121.276  1.00  0.00     0.130 A 
BRANCH  15  18
ATOM     18  O   UNL     1     102.166 105.750 119.437  1.00  0.00    -0.508 OA
ATOM     19  H   UNL     1     101.981 104.849 119.863  1.00  0.00     0.293 HD
ENDBRANCH  15  18
BRANCH  17  20
ATOM     20  O   UNL     1      99.332 109.014 121.633  1.00  0.00    -0.507 OA
ATOM     21  H   UNL     1      99.075 109.992 121.572  1.00  0.00     0.293 HD
ENDBRANCH  17  20
ENDBRANCH   1  12
BRANCH   2  22
ATOM     22  O   UNL     1     100.663 111.735 120.455  1.00  0.00    -0.502 OA
ATOM     23  H   UNL     1      99.844 112.254 120.158  1.00  0.00     0.293 HD
ENDBRANCH   2  22
BRANCH   6  24
ATOM     24  O   UNL     1     101.000 115.284 124.247  1.00  0.00    -0.507 OA
ATOM     25  H   UNL     1     101.381 116.162 124.578  1.00  0.00     0.293 HD
ENDBRANCH   6  24
BRANCH   8  26
ATOM     26  O   UNL     1     102.816 112.635 127.868  1.00  0.00    -0.508 OA
ATOM     27  H   UNL     1     102.746 113.415 128.512  1.00  0.00     0.293 HD
ENDBRANCH   8  26
TORSDOF 6
ENDMDL
MODEL 9
REMARK VINA RESULT:    -6.437      4.198      5.395
REMARK INTER + INTRA:          -8.172
REMARK INTER:                  -7.752
REMARK INTRA:                  -0.420
REMARK UNBOUND:                -0.417
REMARK SMILES O=c1c(O)c(-c2ccc(O)cc2O)oc2cc(O)cc(O)c12
REMARK SMILES IDX 5 1 3 2 2 3 1 4 22 5 20 6 19 7 17 8 16 9 15 10 14 11 6 12
REMARK SMILES IDX 8 13 7 14 9 15 11 16 12 17 10 18 13 20 4 22 21 24 18 26
REMARK H PARENT 10 19 13 21 4 23 21 25 18 27
REMARK Flexibility Score: inf
ROOT
ATOM      1  C   UNL     1     100.507 116.259 121.822  1.00  0.00     0.184 A 
ATOM      2  C   UNL     1     100.709 115.073 122.551  1.00  0.00     0.208 A 
ATOM      3  C   UNL     1     100.614 115.112 123.950  1.00  0.00     0.238 A 
ATOM      4  O   UNL     1     100.784 114.052 124.613  1.00  0.00    -0.285 OA
ATOM      5  C   UNL     1     100.339 116.335 124.595  1.00  0.00     0.111 A 
ATOM      6  C   UNL     1     100.230 116.461 126.001  1.00  0.00     0.134 A 
ATOM      7  C   UNL     1      99.963 117.717 126.568  1.00  0.00     0.093 A 
ATOM      8  C   UNL     1      99.803 118.846 125.757  1.00  0.00     0.123 A 
ATOM      9  C   UNL     1      99.909 118.725 124.370  1.00  0.00     0.094 A 
ATOM     10  C   UNL     1     100.173 117.484 123.785  1.00  0.00     0.146 A 
ATOM     11  O   UNL     1     100.264 117.398 122.463  1.00  0.00    -0.451 OA
ENDROOT
BRANCH   1  12
ATOM     12  C   UNL     1     100.581 116.285 120.347  1.00  0.00     0.063 A 
ATOM     13  C   UNL     1     101.946 116.393 118.338  1.00  0.00     0.047 A 
ATOM     14  C   UNL     1     101.841 116.360 119.731  1.00  0.00     0.020 A 
ATOM     15  C   UNL     1     100.797 116.364 117.544  1.00  0.00     0.119 A 
ATOM     16  C   UNL     1      99.535 116.313 118.150  1.00  0.00     0.093 A 
ATOM     17  C   UNL     1      99.419 116.287 119.547  1.00  0.00     0.130 A 
BRANCH  15  18
ATOM     18  O   UNL     1     100.919 116.394 116.157  1.00  0.00    -0.508 OA
ATOM     19  H   UNL     1     100.240 116.871 115.575  1.00  0.00     0.293 HD
ENDBRANCH  15  18
BRANCH  17  20
ATOM     20  O   UNL     1      98.156 116.285 120.139  1.00  0.00    -0.507 OA
ATOM     21  H   UNL     1      97.778 117.111 120.588  1.00  0.00     0.293 HD
ENDBRANCH  17  20
ENDBRANCH   1  12
BRANCH   2  22
ATOM     22  O   UNL     1     101.025 113.886 121.884  1.00  0.00    -0.502 OA
ATOM     23  H   UNL     1     101.101 112.997 122.366  1.00  0.00     0.293 HD
ENDBRANCH   2  22
BRANCH   6  24
ATOM     24  O   UNL     1     100.386 115.354 126.836  1.00  0.00    -0.507 OA
ATOM     25  H   UNL     1      99.669 115.081 127.497  1.00  0.00     0.293 HD
ENDBRANCH   6  24
BRANCH   8  26
ATOM     26  O   UNL     1      99.539 120.092 126.319  1.00  0.00    -0.508 OA
ATOM     27  H   UNL     1      98.700 120.612 126.086  1.00  0.00     0.293 HD
ENDBRANCH   8  26
TORSDOF 6
ENDMDL
