MODEL 1
REMARK VINA RESULT:    -3.327      0.000      0.000
REMARK INTER + INTRA:          -6.040
REMARK INTER:                  -5.271
REMARK INTRA:                  -0.769
REMARK UNBOUND:                -0.769
REMARK SMILES CCCCCCCCCCCC(=O)[O-]
REMARK SMILES IDX 7 1 8 2 9 3 10 4 11 5 12 6 13 7 14 8 6 9 5 10 4 11 3 12 2 13
REMARK SMILES IDX 1 14
REMARK H PARENT
REMARK Flexibility Score: inf
ROOT
ATOM      1  C   UNL     1      -1.687  60.295  -4.182  1.00  0.00     0.000 C 
ENDROOT
BRANCH   1   2
ATOM      2  C   UNL     1      -0.525  59.811  -5.066  1.00  0.00     0.000 C 
BRANCH   2   3
ATOM      3  C   UNL     1       0.828  60.421  -4.659  1.00  0.00     0.000 C 
BRANCH   3   4
ATOM      4  C   UNL     1       2.067  59.657  -5.170  1.00  0.00     0.006 C 
BRANCH   4   5
ATOM      5  C   UNL     1       1.982  59.218  -6.641  1.00  0.00     0.053 C 
BRANCH   5   6
ATOM      6  C   UNL     1       2.986  59.928  -7.496  1.00  0.00     0.041 C 
ATOM      7  O   UNL     1       2.688  61.019  -8.050  1.00  0.00    -0.550 OA
ATOM      8  O   UNL     1       4.239  59.368  -7.708  1.00  0.00    -0.550 OA
ENDBRANCH   5   6
ENDBRANCH   4   5
ENDBRANCH   3   4
ENDBRANCH   2   3
ENDBRANCH   1   2
BRANCH   1   9
ATOM      9  C   UNL     1      -2.585  59.143  -3.705  1.00  0.00     0.000 C 
BRANCH   9  10
ATOM     10  C   UNL     1      -4.052  59.320  -4.136  1.00  0.00    -0.000 C 
BRANCH  10  11
ATOM     11  C   UNL     1      -4.251  59.064  -5.646  1.00  0.00    -0.000 C 
BRANCH  11  12
ATOM     12  C   UNL     1      -4.565  60.339  -6.452  1.00  0.00    -0.000 C 
BRANCH  12  13
ATOM     13  C   UNL     1      -3.889  60.409  -7.830  1.00  0.00    -0.003 C 
ATOM     14  C   UNL     1      -2.992  59.204  -8.114  1.00  0.00     0.004 C 
ENDBRANCH  12  13
ENDBRANCH  11  12
ENDBRANCH  10  11
ENDBRANCH   9  10
ENDBRANCH   1   9
TORSDOF 10
ENDMDL
MODEL 2
REMARK VINA RESULT:    -3.173      2.515      5.762
REMARK INTER + INTRA:          -5.797
REMARK INTER:                  -5.129
REMARK INTRA:                  -0.668
REMARK UNBOUND:                -0.769
REMARK SMILES CCCCCCCCCCCC(=O)[O-]
REMARK SMILES IDX 7 1 8 2 9 3 10 4 11 5 12 6 13 7 14 8 6 9 5 10 4 11 3 12 2 13
REMARK SMILES IDX 1 14
REMARK H PARENT
REMARK Flexibility Score: inf
ROOT
ATOM      1  C   UNL     1      -1.587  59.722  -4.249  1.00  0.00     0.000 C 
ENDROOT
BRANCH   1   2
ATOM      2  C   UNL     1      -2.519  60.940  -4.367  1.00  0.00     0.000 C 
BRANCH   2   3
ATOM      3  C   UNL     1      -3.957  60.556  -4.755  1.00  0.00     0.000 C 
BRANCH   3   4
ATOM      4  C   UNL     1      -4.150  59.080  -5.162  1.00  0.00     0.006 C 
BRANCH   4   5
ATOM      5  C   UNL     1      -4.662  58.877  -6.597  1.00  0.00     0.053 C 
BRANCH   5   6
ATOM      6  C   UNL     1      -3.858  59.654  -7.594  1.00  0.00     0.041 C 
ATOM      7  O   UNL     1      -4.337  60.690  -8.125  1.00  0.00    -0.550 OA
ATOM      8  O   UNL     1      -2.593  59.214  -7.961  1.00  0.00    -0.550 OA
ENDBRANCH   5   6
ENDBRANCH   4   5
ENDBRANCH   3   4
ENDBRANCH   2   3
ENDBRANCH   1   2
BRANCH   1   9
ATOM      9  C   UNL     1      -0.456  59.739  -5.289  1.00  0.00     0.000 C 
BRANCH   9  10
ATOM     10  C   UNL     1       0.838  60.368  -4.745  1.00  0.00    -0.000 C 
BRANCH  10  11
ATOM     11  C   UNL     1       2.096  59.822  -5.456  1.00  0.00    -0.000 C 
BRANCH  11  12
ATOM     12  C   UNL     1       1.875  59.510  -6.948  1.00  0.00    -0.000 C 
BRANCH  12  13
ATOM     13  C   UNL     1       2.610  60.451  -7.916  1.00  0.00    -0.003 C 
ATOM     14  C   UNL     1       4.090  60.103  -8.072  1.00  0.00     0.004 C 
ENDBRANCH  12  13
ENDBRANCH  11  12
ENDBRANCH  10  11
ENDBRANCH   9  10
ENDBRANCH   1   9
TORSDOF 10
ENDMDL
MODEL 3
REMARK VINA RESULT:    -2.875      0.891      1.704
REMARK INTER + INTRA:          -5.324
REMARK INTER:                  -4.789
REMARK INTRA:                  -0.535
REMARK UNBOUND:                -0.769
REMARK SMILES CCCCCCCCCCCC(=O)[O-]
REMARK SMILES IDX 7 1 8 2 9 3 10 4 11 5 12 6 13 7 14 8 6 9 5 10 4 11 3 12 2 13
REMARK SMILES IDX 1 14
REMARK H PARENT
REMARK Flexibility Score: inf
ROOT
ATOM      1  C   UNL     1      -0.234  60.362  -4.906  1.00  0.00     0.000 C 
ENDROOT
BRANCH   1   2
ATOM      2  C   UNL     1       1.239  60.351  -4.462  1.00  0.00     0.000 C 
BRANCH   2   3
ATOM      3  C   UNL     1       2.153  59.602  -5.448  1.00  0.00     0.000 C 
BRANCH   3   4
ATOM      4  C   UNL     1       1.466  59.137  -6.749  1.00  0.00     0.006 C 
BRANCH   4   5
ATOM      5  C   UNL     1       2.405  59.030  -7.962  1.00  0.00     0.053 C 
BRANCH   5   6
ATOM      6  C   UNL     1       3.303  60.223  -8.082  1.00  0.00     0.041 C 
ATOM      7  O   UNL     1       4.553  60.075  -8.113  1.00  0.00    -0.550 OA
ATOM      8  O   UNL     1       2.759  61.500  -8.125  1.00  0.00    -0.550 OA
ENDBRANCH   5   6
ENDBRANCH   4   5
ENDBRANCH   3   4
ENDBRANCH   2   3
ENDBRANCH   1   2
BRANCH   1   9
ATOM      9  C   UNL     1      -1.209  60.402  -3.719  1.00  0.00     0.000 C 
BRANCH   9  10
ATOM     10  C   UNL     1      -2.434  59.496  -3.929  1.00  0.00    -0.000 C 
BRANCH  10  11
ATOM     11  C   UNL     1      -2.949  59.539  -5.385  1.00  0.00    -0.000 C 
BRANCH  11  12
ATOM     12  C   UNL     1      -3.858  60.746  -5.682  1.00  0.00    -0.000 C 
BRANCH  12  13
ATOM     13  C   UNL     1      -4.927  60.494  -6.758  1.00  0.00    -0.003 C 
ATOM     14  C   UNL     1      -4.328  60.143  -8.119  1.00  0.00     0.004 C 
ENDBRANCH  12  13
ENDBRANCH  11  12
ENDBRANCH  10  11
ENDBRANCH   9  10
ENDBRANCH   1   9
TORSDOF 10
ENDMDL
MODEL 4
REMARK VINA RESULT:    -1.747      3.611      7.369
REMARK INTER + INTRA:          -3.536
REMARK INTER:                  -3.385
REMARK INTRA:                  -0.152
REMARK UNBOUND:                -0.769
REMARK SMILES CCCCCCCCCCCC(=O)[O-]
REMARK SMILES IDX 7 1 8 2 9 3 10 4 11 5 12 6 13 7 14 8 6 9 5 10 4 11 3 12 2 13
REMARK SMILES IDX 1 14
REMARK H PARENT
REMARK Flexibility Score: inf
ROOT
ATOM      1  C   UNL     1       1.038  59.721  -6.051  1.00  0.00     0.000 C 
ENDROOT
BRANCH   1   2
ATOM      2  C   UNL     1       1.047  59.801  -4.515  1.00  0.00     0.000 C 
BRANCH   2   3
ATOM      3  C   UNL     1       0.057  60.843  -3.967  1.00  0.00     0.000 C 
BRANCH   3   4
ATOM      4  C   UNL     1      -1.353  60.300  -3.654  1.00  0.00     0.006 C 
BRANCH   4   5
ATOM      5  C   UNL     1      -2.140  59.823  -4.885  1.00  0.00     0.053 C 
BRANCH   5   6
ATOM      6  C   UNL     1      -3.610  60.071  -4.741  1.00  0.00     0.041 C 
ATOM      7  O   UNL     1      -4.185  60.915  -5.479  1.00  0.00    -0.550 OA
ATOM      8  O   UNL     1      -4.337  59.396  -3.770  1.00  0.00    -0.550 OA
ENDBRANCH   5   6
ENDBRANCH   4   5
ENDBRANCH   3   4
ENDBRANCH   2   3
ENDBRANCH   1   2
BRANCH   1   9
ATOM      9  C   UNL     1       2.280  60.368  -6.685  1.00  0.00     0.000 C 
BRANCH   9  10
ATOM     10  C   UNL     1       2.947  59.464  -7.735  1.00  0.00    -0.000 C 
BRANCH  10  11
ATOM     11  C   UNL     1       4.356  59.003  -7.298  1.00  0.00    -0.000 C 
BRANCH  11  12
ATOM     12  C   UNL     1       5.496  59.665  -8.095  1.00  0.00    -0.000 C 
BRANCH  12  13
ATOM     13  C   UNL     1       6.814  58.875  -8.104  1.00  0.00    -0.003 C 
ATOM     14  C   UNL     1       8.028  59.742  -7.770  1.00  0.00     0.004 C 
ENDBRANCH  12  13
ENDBRANCH  11  12
ENDBRANCH  10  11
ENDBRANCH   9  10
ENDBRANCH   1   9
TORSDOF 10
ENDMDL
MODEL 5
REMARK VINA RESULT:    -0.846      1.400      2.030
REMARK INTER + INTRA:          -2.109
REMARK INTER:                  -1.481
REMARK INTRA:                  -0.628
REMARK UNBOUND:                -0.769
REMARK SMILES CCCCCCCCCCCC(=O)[O-]
REMARK SMILES IDX 7 1 8 2 9 3 10 4 11 5 12 6 13 7 14 8 6 9 5 10 4 11 3 12 2 13
REMARK SMILES IDX 1 14
REMARK H PARENT
REMARK Flexibility Score: inf
ROOT
ATOM      1  C   UNL     1       0.628  60.657  -3.987  1.00  0.00     0.000 C 
ENDROOT
BRANCH   1   2
ATOM      2  C   UNL     1       1.444  59.400  -4.333  1.00  0.00     0.000 C 
BRANCH   2   3
ATOM      3  C   UNL     1       2.866  59.728  -4.822  1.00  0.00     0.000 C 
BRANCH   3   4
ATOM      4  C   UNL     1       3.360  58.875  -6.008  1.00  0.00     0.006 C 
BRANCH   4   5
ATOM      5  C   UNL     1       3.622  59.668  -7.298  1.00  0.00     0.053 C 
BRANCH   5   6
ATOM      6  C   UNL     1       2.362  60.248  -7.865  1.00  0.00     0.041 C 
ATOM      7  O   UNL     1       2.282  61.482  -8.101  1.00  0.00    -0.550 OA
ATOM      8  O   UNL     1       1.265  59.429  -8.100  1.00  0.00    -0.550 OA
ENDBRANCH   5   6
ENDBRANCH   4   5
ENDBRANCH   3   4
ENDBRANCH   2   3
ENDBRANCH   1   2
BRANCH   1   9
ATOM      9  C   UNL     1      -0.758  60.323  -3.413  1.00  0.00     0.000 C 
BRANCH   9  10
ATOM     10  C   UNL     1      -1.874  60.423  -4.467  1.00  0.00    -0.000 C 
BRANCH  10  11
ATOM     11  C   UNL     1      -2.298  59.037  -5.001  1.00  0.00    -0.000 C 
BRANCH  11  12
ATOM     12  C   UNL     1      -2.490  58.997  -6.529  1.00  0.00    -0.000 C 
BRANCH  12  13
ATOM     13  C   UNL     1      -3.907  59.352  -7.007  1.00  0.00    -0.003 C 
ATOM     14  C   UNL     1      -3.990  60.744  -7.633  1.00  0.00     0.004 C 
ENDBRANCH  12  13
ENDBRANCH  11  12
ENDBRANCH  10  11
ENDBRANCH   9  10
ENDBRANCH   1   9
TORSDOF 10
ENDMDL
MODEL 6
REMARK VINA RESULT:    -0.819      1.332      1.818
REMARK INTER + INTRA:          -2.067
REMARK INTER:                  -1.495
REMARK INTRA:                  -0.572
REMARK UNBOUND:                -0.769
REMARK SMILES CCCCCCCCCCCC(=O)[O-]
REMARK SMILES IDX 7 1 8 2 9 3 10 4 11 5 12 6 13 7 14 8 6 9 5 10 4 11 3 12 2 13
REMARK SMILES IDX 1 14
REMARK H PARENT
REMARK Flexibility Score: inf
ROOT
ATOM      1  C   UNL     1      -0.624  59.754  -4.818  1.00  0.00     0.000 C 
ENDROOT
BRANCH   1   2
ATOM      2  C   UNL     1      -0.959  59.578  -6.308  1.00  0.00     0.000 C 
BRANCH   2   3
ATOM      3  C   UNL     1       0.163  58.875  -7.092  1.00  0.00     0.000 C 
BRANCH   3   4
ATOM      4  C   UNL     1       1.541  58.876  -6.400  1.00  0.00     0.006 C 
BRANCH   4   5
ATOM      5  C   UNL     1       2.628  59.670  -7.144  1.00  0.00     0.053 C 
BRANCH   5   6
ATOM      6  C   UNL     1       2.463  61.147  -6.966  1.00  0.00     0.041 C 
ATOM      7  O   UNL     1       2.235  61.884  -7.962  1.00  0.00    -0.550 OA
ATOM      8  O   UNL     1       2.592  61.715  -5.706  1.00  0.00    -0.550 OA
ENDBRANCH   5   6
ENDBRANCH   4   5
ENDBRANCH   3   4
ENDBRANCH   2   3
ENDBRANCH   1   2
BRANCH   1   9
ATOM      9  C   UNL     1      -1.834  59.500  -3.905  1.00  0.00     0.000 C 
BRANCH   9  10
ATOM     10  C   UNL     1      -2.848  60.657  -3.932  1.00  0.00    -0.000 C 
BRANCH  10  11
ATOM     11  C   UNL     1      -4.102  60.314  -4.766  1.00  0.00    -0.000 C 
BRANCH  11  12
ATOM     12  C   UNL     1      -3.976  59.000  -5.559  1.00  0.00    -0.000 C 
BRANCH  12  13
ATOM     13  C   UNL     1      -4.642  59.020  -6.944  1.00  0.00    -0.003 C 
ATOM     14  C   UNL     1      -4.254  60.246  -7.771  1.00  0.00     0.004 C 
ENDBRANCH  12  13
ENDBRANCH  11  12
ENDBRANCH  10  11
ENDBRANCH   9  10
ENDBRANCH   1   9
TORSDOF 10
ENDMDL
MODEL 7
REMARK VINA RESULT:    -0.768      2.662      4.114
REMARK INTER + INTRA:          -1.986
REMARK INTER:                  -2.963
REMARK INTRA:                   0.977
REMARK UNBOUND:                -0.769
REMARK SMILES CCCCCCCCCCCC(=O)[O-]
REMARK SMILES IDX 7 1 8 2 9 3 10 4 11 5 12 6 13 7 14 8 6 9 5 10 4 11 3 12 2 13
REMARK SMILES IDX 1 14
REMARK H PARENT
REMARK Flexibility Score: inf
ROOT
ATOM      1  C   UNL     1       1.307  59.047  -7.551  1.00  0.00     0.000 C 
ENDROOT
BRANCH   1   2
ATOM      2  C   UNL     1       1.805  60.499  -7.463  1.00  0.00     0.000 C 
BRANCH   2   3
ATOM      3  C   UNL     1       2.427  60.834  -6.097  1.00  0.00     0.000 C 
BRANCH   3   4
ATOM      4  C   UNL     1       1.750  60.156  -4.888  1.00  0.00     0.006 C 
BRANCH   4   5
ATOM      5  C   UNL     1       0.237  60.403  -4.783  1.00  0.00     0.053 C 
BRANCH   5   6
ATOM      6  C   UNL     1      -0.203  60.590  -3.364  1.00  0.00     0.041 C 
ATOM      7  O   UNL     1      -1.426  60.724  -3.091  1.00  0.00    -0.550 OA
ATOM      8  O   UNL     1       0.740  60.650  -2.346  1.00  0.00    -0.550 OA
ENDBRANCH   5   6
ENDBRANCH   4   5
ENDBRANCH   3   4
ENDBRANCH   2   3
ENDBRANCH   1   2
BRANCH   1   9
ATOM      9  C   UNL     1      -0.116  58.875  -6.997  1.00  0.00     0.000 C 
BRANCH   9  10
ATOM     10  C   UNL     1      -1.189  58.915  -8.100  1.00  0.00    -0.000 C 
BRANCH  10  11
ATOM     11  C   UNL     1      -2.587  59.258  -7.541  1.00  0.00    -0.000 C 
BRANCH  11  12
ATOM     12  C   UNL     1      -2.750  58.933  -6.044  1.00  0.00    -0.000 C 
BRANCH  12  13
ATOM     13  C   UNL     1      -3.643  59.915  -5.269  1.00  0.00    -0.003 C 
ATOM     14  C   UNL     1      -4.183  59.324  -3.966  1.00  0.00     0.004 C 
ENDBRANCH  12  13
ENDBRANCH  11  12
ENDBRANCH  10  11
ENDBRANCH   9  10
ENDBRANCH   1   9
TORSDOF 10
ENDMDL
