MODEL 1
REMARK VINA RESULT:    -0.907      0.000      0.000
REMARK INTER + INTRA:          -3.433
REMARK INTER:                  -2.074
REMARK INTRA:                  -1.359
REMARK UNBOUND:                -1.359
REMARK SMILES CCCCCCCCCCCCCCCCCCCCCCCC(=O)[O-]
REMARK SMILES IDX 13 1 14 2 15 3 16 4 17 5 18 6 19 7 20 8 21 9 22 10 23 11
REMARK SMILES IDX 24 12 25 13 26 14 12 15 11 16 10 17 9 18 8 19 7 20 6 21 5 22
REMARK SMILES IDX 4 23 3 24 2 25 1 26
REMARK H PARENT
REMARK Flexibility Score: inf
ROOT
ATOM      1  C   UNL     1      21.242  22.634 -10.299  1.00  0.00     0.000 C 
ENDROOT
BRANCH   1   2
ATOM      2  C   UNL     1      22.437  23.150 -11.125  1.00  0.00     0.000 C 
BRANCH   2   3
ATOM      3  C   UNL     1      23.557  23.810 -10.302  1.00  0.00     0.000 C 
BRANCH   3   4
ATOM      4  C   UNL     1      24.859  23.985 -11.098  1.00  0.00     0.000 C 
BRANCH   4   5
ATOM      5  C   UNL     1      25.997  24.480 -10.192  1.00  0.00     0.000 C 
BRANCH   5   6
ATOM      6  C   UNL     1      26.944  23.349  -9.758  1.00  0.00     0.000 C 
BRANCH   6   7
ATOM      7  C   UNL     1      28.401  23.817  -9.606  1.00  0.00     0.000 C 
BRANCH   7   8
ATOM      8  C   UNL     1      28.929  24.506 -10.882  1.00  0.00     0.000 C 
BRANCH   8   9
ATOM      9  C   UNL     1      29.123  26.025 -10.726  1.00  0.00     0.000 C 
BRANCH   9  10
ATOM     10  C   UNL     1      28.643  26.553  -9.364  1.00  0.00     0.006 C 
BRANCH  10  11
ATOM     11  C   UNL     1      27.836  27.851  -9.498  1.00  0.00     0.053 C 
BRANCH  11  12
ATOM     12  C   UNL     1      28.200  28.842  -8.435  1.00  0.00     0.041 C 
ATOM     13  O   UNL     1      27.718  30.005  -8.462  1.00  0.00    -0.550 OA
ATOM     14  O   UNL     1      29.045  28.472  -7.396  1.00  0.00    -0.550 OA
ENDBRANCH  11  12
ENDBRANCH  10  11
ENDBRANCH   9  10
ENDBRANCH   8   9
ENDBRANCH   7   8
ENDBRANCH   6   7
ENDBRANCH   5   6
ENDBRANCH   4   5
ENDBRANCH   3   4
ENDBRANCH   2   3
ENDBRANCH   1   2
BRANCH   1  15
ATOM     15  C   UNL     1      20.009  22.216 -11.125  1.00  0.00     0.000 C 
BRANCH  15  16
ATOM     16  C   UNL     1      19.622  20.729 -11.020  1.00  0.00     0.000 C 
BRANCH  16  17
ATOM     17  C   UNL     1      18.170  20.519 -10.559  1.00  0.00     0.000 C 
BRANCH  17  18
ATOM     18  C   UNL     1      17.540  19.232 -11.122  1.00  0.00    -0.000 C 
BRANCH  18  19
ATOM     19  C   UNL     1      18.454  17.992 -11.117  1.00  0.00    -0.000 C 
BRANCH  19  20
ATOM     20  C   UNL     1      17.997  16.913 -10.120  1.00  0.00    -0.000 C 
BRANCH  20  21
ATOM     21  C   UNL     1      16.477  16.932  -9.869  1.00  0.00    -0.000 C 
BRANCH  21  22
ATOM     22  C   UNL     1      16.050  17.296  -8.432  1.00  0.00    -0.000 C 
BRANCH  22  23
ATOM     23  C   UNL     1      14.533  17.234  -8.164  1.00  0.00    -0.000 C 
BRANCH  23  24
ATOM     24  C   UNL     1      13.687  18.232  -8.979  1.00  0.00    -0.000 C 
BRANCH  24  25
ATOM     25  C   UNL     1      14.372  19.580  -9.261  1.00  0.00    -0.003 C 
ATOM     26  C   UNL     1      14.104  20.102 -10.672  1.00  0.00     0.004 C 
ENDBRANCH  24  25
ENDBRANCH  23  24
ENDBRANCH  22  23
ENDBRANCH  21  22
ENDBRANCH  20  21
ENDBRANCH  19  20
ENDBRANCH  18  19
ENDBRANCH  17  18
ENDBRANCH  16  17
ENDBRANCH  15  16
ENDBRANCH   1  15
TORSDOF 22
ENDMDL
MODEL 2
REMARK VINA RESULT:    -0.228     10.203     14.161
REMARK INTER + INTRA:          -1.880
REMARK INTER:                  -1.010
REMARK INTRA:                  -0.870
REMARK UNBOUND:                -1.359
REMARK SMILES CCCCCCCCCCCCCCCCCCCCCCCC(=O)[O-]
REMARK SMILES IDX 13 1 14 2 15 3 16 4 17 5 18 6 19 7 20 8 21 9 22 10 23 11
REMARK SMILES IDX 24 12 25 13 26 14 12 15 11 16 10 17 9 18 8 19 7 20 6 21 5 22
REMARK SMILES IDX 4 23 3 24 2 25 1 26
REMARK H PARENT
REMARK Flexibility Score: inf
ROOT
ATOM      1  C   UNL     1      25.939  24.536  -1.107  1.00  0.00     0.000 C 
ENDROOT
BRANCH   1   2
ATOM      2  C   UNL     1      26.912  25.498  -0.395  1.00  0.00     0.000 C 
BRANCH   2   3
ATOM      3  C   UNL     1      27.022  25.301   1.126  1.00  0.00     0.000 C 
BRANCH   3   4
ATOM      4  C   UNL     1      28.427  24.868   1.571  1.00  0.00     0.000 C 
BRANCH   4   5
ATOM      5  C   UNL     1      28.628  25.110   3.076  1.00  0.00     0.000 C 
BRANCH   5   6
ATOM      6  C   UNL     1      28.826  26.596   3.415  1.00  0.00     0.000 C 
BRANCH   6   7
ATOM      7  C   UNL     1      29.096  27.460   2.172  1.00  0.00     0.000 C 
BRANCH   7   8
ATOM      8  C   UNL     1      29.102  28.968   2.499  1.00  0.00     0.000 C 
BRANCH   8   9
ATOM      9  C   UNL     1      28.864  29.276   3.988  1.00  0.00     0.000 C 
BRANCH   9  10
ATOM     10  C   UNL     1      27.396  29.609   4.303  1.00  0.00     0.006 C 
BRANCH  10  11
ATOM     11  C   UNL     1      26.978  29.119   5.696  1.00  0.00     0.053 C 
BRANCH  11  12
ATOM     12  C   UNL     1      28.055  29.353   6.712  1.00  0.00     0.041 C 
ATOM     13  O   UNL     1      28.542  28.383   7.350  1.00  0.00    -0.550 OA
ATOM     14  O   UNL     1      28.542  30.635   6.929  1.00  0.00    -0.550 OA
ENDBRANCH  11  12
ENDBRANCH  10  11
ENDBRANCH   9  10
ENDBRANCH   8   9
ENDBRANCH   7   8
ENDBRANCH   6   7
ENDBRANCH   5   6
ENDBRANCH   4   5
ENDBRANCH   3   4
ENDBRANCH   2   3
ENDBRANCH   1   2
BRANCH   1  15
ATOM     15  C   UNL     1      26.561  23.698  -2.242  1.00  0.00     0.000 C 
BRANCH  15  16
ATOM     16  C   UNL     1      28.021  23.265  -2.014  1.00  0.00     0.000 C 
BRANCH  16  17
ATOM     17  C   UNL     1      28.980  23.805  -3.089  1.00  0.00     0.000 C 
BRANCH  17  18
ATOM     18  C   UNL     1      28.799  23.117  -4.455  1.00  0.00    -0.000 C 
BRANCH  18  19
ATOM     19  C   UNL     1      29.123  23.989  -5.683  1.00  0.00    -0.000 C 
BRANCH  19  20
ATOM     20  C   UNL     1      29.012  23.221  -7.011  1.00  0.00    -0.000 C 
BRANCH  20  21
ATOM     21  C   UNL     1      28.520  24.101  -8.175  1.00  0.00    -0.000 C 
BRANCH  21  22
ATOM     22  C   UNL     1      28.994  25.569  -8.138  1.00  0.00    -0.000 C 
BRANCH  22  23
ATOM     23  C   UNL     1      28.611  26.412  -9.371  1.00  0.00    -0.000 C 
BRANCH  23  24
ATOM     24  C   UNL     1      28.773  27.934  -9.194  1.00  0.00    -0.000 C 
BRANCH  24  25
ATOM     25  C   UNL     1      28.097  28.786 -10.282  1.00  0.00    -0.003 C 
ATOM     26  C   UNL     1      26.877  29.550  -9.769  1.00  0.00     0.004 C 
ENDBRANCH  24  25
ENDBRANCH  23  24
ENDBRANCH  22  23
ENDBRANCH  21  22
ENDBRANCH  20  21
ENDBRANCH  19  20
ENDBRANCH  18  19
ENDBRANCH  17  18
ENDBRANCH  16  17
ENDBRANCH  15  16
ENDBRANCH   1  15
TORSDOF 22
ENDMDL
MODEL 3
REMARK VINA RESULT:     0.086      8.430     14.039
REMARK INTER + INTRA:          -1.162
REMARK INTER:                  -0.295
REMARK INTRA:                  -0.866
REMARK UNBOUND:                -1.359
REMARK SMILES CCCCCCCCCCCCCCCCCCCCCCCC(=O)[O-]
REMARK SMILES IDX 13 1 14 2 15 3 16 4 17 5 18 6 19 7 20 8 21 9 22 10 23 11
REMARK SMILES IDX 24 12 25 13 26 14 12 15 11 16 10 17 9 18 8 19 7 20 6 21 5 22
REMARK SMILES IDX 4 23 3 24 2 25 1 26
REMARK H PARENT
REMARK Flexibility Score: inf
ROOT
ATOM      1  C   UNL     1      28.273  22.810  -3.529  1.00  0.00     0.000 C 
ENDROOT
BRANCH   1   2
ATOM      2  C   UNL     1      28.813  22.679  -4.967  1.00  0.00     0.000 C 
BRANCH   2   3
ATOM      3  C   UNL     1      28.462  23.850  -5.901  1.00  0.00     0.000 C 
BRANCH   3   4
ATOM      4  C   UNL     1      29.106  23.720  -7.290  1.00  0.00     0.000 C 
BRANCH   4   5
ATOM      5  C   UNL     1      28.195  22.935  -8.247  1.00  0.00     0.000 C 
BRANCH   5   6
ATOM      6  C   UNL     1      28.648  23.037  -9.713  1.00  0.00     0.000 C 
BRANCH   6   7
ATOM      7  C   UNL     1      28.321  24.401 -10.343  1.00  0.00     0.000 C 
BRANCH   7   8
ATOM      8  C   UNL     1      26.835  24.519 -10.743  1.00  0.00     0.000 C 
BRANCH   8   9
ATOM      9  C   UNL     1      26.150  23.159 -10.974  1.00  0.00     0.000 C 
BRANCH   9  10
ATOM     10  C   UNL     1      24.622  23.274 -11.101  1.00  0.00     0.006 C 
BRANCH  10  11
ATOM     11  C   UNL     1      23.896  22.101 -10.429  1.00  0.00     0.053 C 
BRANCH  11  12
ATOM     12  C   UNL     1      22.811  22.574  -9.510  1.00  0.00     0.041 C 
ATOM     13  O   UNL     1      23.041  22.718  -8.280  1.00  0.00    -0.550 OA
ATOM     14  O   UNL     1      21.556  22.888 -10.016  1.00  0.00    -0.550 OA
ENDBRANCH  11  12
ENDBRANCH  10  11
ENDBRANCH   9  10
ENDBRANCH   8   9
ENDBRANCH   7   8
ENDBRANCH   6   7
ENDBRANCH   5   6
ENDBRANCH   4   5
ENDBRANCH   3   4
ENDBRANCH   2   3
ENDBRANCH   1   2
BRANCH   1  15
ATOM     15  C   UNL     1      29.088  23.738  -2.606  1.00  0.00     0.000 C 
BRANCH  15  16
ATOM     16  C   UNL     1      28.554  23.869  -1.168  1.00  0.00     0.000 C 
BRANCH  16  17
ATOM     17  C   UNL     1      28.602  25.313  -0.641  1.00  0.00     0.000 C 
BRANCH  17  18
ATOM     18  C   UNL     1      27.833  25.497   0.680  1.00  0.00    -0.000 C 
BRANCH  18  19
ATOM     19  C   UNL     1      28.459  24.813   1.911  1.00  0.00    -0.000 C 
BRANCH  19  20
ATOM     20  C   UNL     1      28.084  25.501   3.235  1.00  0.00    -0.000 C 
BRANCH  20  21
ATOM     21  C   UNL     1      29.097  26.581   3.658  1.00  0.00    -0.000 C 
BRANCH  21  22
ATOM     22  C   UNL     1      29.124  27.843   2.771  1.00  0.00    -0.000 C 
BRANCH  22  23
ATOM     23  C   UNL     1      28.634  29.135   3.454  1.00  0.00    -0.000 C 
BRANCH  23  24
ATOM     24  C   UNL     1      27.998  28.935   4.844  1.00  0.00    -0.000 C 
BRANCH  24  25
ATOM     25  C   UNL     1      28.911  29.289   6.029  1.00  0.00    -0.003 C 
ATOM     26  C   UNL     1      28.771  30.743   6.478  1.00  0.00     0.004 C 
ENDBRANCH  24  25
ENDBRANCH  23  24
ENDBRANCH  22  23
ENDBRANCH  21  22
ENDBRANCH  20  21
ENDBRANCH  19  20
ENDBRANCH  18  19
ENDBRANCH  17  18
ENDBRANCH  16  17
ENDBRANCH  15  16
ENDBRANCH   1  15
TORSDOF 22
ENDMDL
MODEL 4
REMARK VINA RESULT:     0.107     11.302     13.580
REMARK INTER + INTRA:          -1.114
REMARK INTER:                  -2.297
REMARK INTRA:                   1.183
REMARK UNBOUND:                -1.359
REMARK SMILES CCCCCCCCCCCCCCCCCCCCCCCC(=O)[O-]
REMARK SMILES IDX 13 1 14 2 15 3 16 4 17 5 18 6 19 7 20 8 21 9 22 10 23 11
REMARK SMILES IDX 24 12 25 13 26 14 12 15 11 16 10 17 9 18 8 19 7 20 6 21 5 22
REMARK SMILES IDX 4 23 3 24 2 25 1 26
REMARK H PARENT
REMARK Flexibility Score: inf
ROOT
ATOM      1  C   UNL     1      25.688  24.442  -1.979  1.00  0.00     0.000 C 
ENDROOT
BRANCH   1   2
ATOM      2  C   UNL     1      26.701  25.522  -2.411  1.00  0.00     0.000 C 
BRANCH   2   3
ATOM      3  C   UNL     1      28.179  25.112  -2.284  1.00  0.00     0.000 C 
BRANCH   3   4
ATOM      4  C   UNL     1      28.876  25.761  -1.079  1.00  0.00     0.000 C 
BRANCH   4   5
ATOM      5  C   UNL     1      28.052  25.569   0.204  1.00  0.00     0.000 C 
BRANCH   5   6
ATOM      6  C   UNL     1      28.412  26.587   1.298  1.00  0.00     0.000 C 
BRANCH   6   7
ATOM      7  C   UNL     1      28.829  25.919   2.619  1.00  0.00     0.000 C 
BRANCH   7   8
ATOM      8  C   UNL     1      29.063  26.948   3.745  1.00  0.00     0.000 C 
BRANCH   8   9
ATOM      9  C   UNL     1      29.075  28.407   3.253  1.00  0.00     0.000 C 
BRANCH   9  10
ATOM     10  C   UNL     1      28.961  29.426   4.400  1.00  0.00     0.006 C 
BRANCH  10  11
ATOM     11  C   UNL     1      29.124  28.768   5.776  1.00  0.00     0.053 C 
BRANCH  11  12
ATOM     12  C   UNL     1      28.595  29.641   6.874  1.00  0.00     0.041 C 
ATOM     13  O   UNL     1      28.295  29.142   7.990  1.00  0.00    -0.550 OA
ATOM     14  O   UNL     1      28.465  31.009   6.674  1.00  0.00    -0.550 OA
ENDBRANCH  11  12
ENDBRANCH  10  11
ENDBRANCH   9  10
ENDBRANCH   8   9
ENDBRANCH   7   8
ENDBRANCH   6   7
ENDBRANCH   5   6
ENDBRANCH   4   5
ENDBRANCH   3   4
ENDBRANCH   2   3
ENDBRANCH   1   2
BRANCH   1  15
ATOM     15  C   UNL     1      26.227  22.997  -1.996  1.00  0.00     0.000 C 
BRANCH  15  16
ATOM     16  C   UNL     1      27.454  22.764  -2.896  1.00  0.00     0.000 C 
BRANCH  16  17
ATOM     17  C   UNL     1      28.658  22.191  -2.128  1.00  0.00     0.000 C 
BRANCH  17  18
ATOM     18  C   UNL     1      29.079  20.796  -2.625  1.00  0.00    -0.000 C 
BRANCH  18  19
ATOM     19  C   UNL     1      28.182  20.184  -3.718  1.00  0.00    -0.000 C 
BRANCH  19  20
ATOM     20  C   UNL     1      28.717  18.846  -4.255  1.00  0.00    -0.000 C 
BRANCH  20  21
ATOM     21  C   UNL     1      29.124  17.869  -3.136  1.00  0.00    -0.000 C 
BRANCH  21  22
ATOM     22  C   UNL     1      28.585  18.213  -1.732  1.00  0.00    -0.000 C 
BRANCH  22  23
ATOM     23  C   UNL     1      28.148  17.002  -0.883  1.00  0.00    -0.000 C 
BRANCH  23  24
ATOM     24  C   UNL     1      26.790  17.162  -0.172  1.00  0.00    -0.000 C 
BRANCH  24  25
ATOM     25  C   UNL     1      26.850  17.072   1.362  1.00  0.00    -0.003 C 
ATOM     26  C   UNL     1      25.712  17.823   2.049  1.00  0.00     0.004 C 
ENDBRANCH  24  25
ENDBRANCH  23  24
ENDBRANCH  22  23
ENDBRANCH  21  22
ENDBRANCH  20  21
ENDBRANCH  19  20
ENDBRANCH  18  19
ENDBRANCH  17  18
ENDBRANCH  16  17
ENDBRANCH  15  16
ENDBRANCH   1  15
TORSDOF 22
ENDMDL
MODEL 5
REMARK VINA RESULT:     0.716      9.505     14.017
REMARK INTER + INTRA:           0.277
REMARK INTER:                   1.088
REMARK INTRA:                  -0.811
REMARK UNBOUND:                -1.359
REMARK SMILES CCCCCCCCCCCCCCCCCCCCCCCC(=O)[O-]
REMARK SMILES IDX 13 1 14 2 15 3 16 4 17 5 18 6 19 7 20 8 21 9 22 10 23 11
REMARK SMILES IDX 24 12 25 13 26 14 12 15 11 16 10 17 9 18 8 19 7 20 6 21 5 22
REMARK SMILES IDX 4 23 3 24 2 25 1 26
REMARK H PARENT
REMARK Flexibility Score: inf
ROOT
ATOM      1  C   UNL     1      27.671  23.952  -0.629  1.00  0.00     0.000 C 
ENDROOT
BRANCH   1   2
ATOM      2  C   UNL     1      27.996  23.517  -2.072  1.00  0.00     0.000 C 
BRANCH   2   3
ATOM      3  C   UNL     1      28.027  21.996  -2.300  1.00  0.00     0.000 C 
BRANCH   3   4
ATOM      4  C   UNL     1      28.001  21.615  -3.788  1.00  0.00     0.000 C 
BRANCH   4   5
ATOM      5  C   UNL     1      28.976  22.486  -4.596  1.00  0.00     0.000 C 
BRANCH   5   6
ATOM      6  C   UNL     1      28.259  23.552  -5.439  1.00  0.00     0.000 C 
BRANCH   6   7
ATOM      7  C   UNL     1      29.125  24.077  -6.598  1.00  0.00     0.000 C 
BRANCH   7   8
ATOM      8  C   UNL     1      28.278  24.473  -7.826  1.00  0.00     0.000 C 
BRANCH   8   9
ATOM      9  C   UNL     1      29.116  24.980  -9.014  1.00  0.00     0.000 C 
BRANCH   9  10
ATOM     10  C   UNL     1      28.255  25.388 -10.221  1.00  0.00     0.006 C 
BRANCH  10  11
ATOM     11  C   UNL     1      28.501  26.843 -10.641  1.00  0.00     0.053 C 
BRANCH  11  12
ATOM     12  C   UNL     1      27.594  27.790  -9.914  1.00  0.00     0.041 C 
ATOM     13  O   UNL     1      26.676  28.389 -10.534  1.00  0.00    -0.550 OA
ATOM     14  O   UNL     1      27.743  27.986  -8.547  1.00  0.00    -0.550 OA
ENDBRANCH  11  12
ENDBRANCH  10  11
ENDBRANCH   9  10
ENDBRANCH   8   9
ENDBRANCH   7   8
ENDBRANCH   6   7
ENDBRANCH   5   6
ENDBRANCH   4   5
ENDBRANCH   3   4
ENDBRANCH   2   3
ENDBRANCH   1   2
BRANCH   1  15
ATOM     15  C   UNL     1      28.705  24.895   0.018  1.00  0.00     0.000 C 
BRANCH  15  16
ATOM     16  C   UNL     1      28.137  25.876   1.060  1.00  0.00     0.000 C 
BRANCH  16  17
ATOM     17  C   UNL     1      28.101  25.286   2.480  1.00  0.00     0.000 C 
BRANCH  17  18
ATOM     18  C   UNL     1      28.809  26.176   3.519  1.00  0.00    -0.000 C 
BRANCH  18  19
ATOM     19  C   UNL     1      28.836  27.681   3.192  1.00  0.00    -0.000 C 
BRANCH  19  20
ATOM     20  C   UNL     1      29.121  28.558   4.423  1.00  0.00    -0.000 C 
BRANCH  20  21
ATOM     21  C   UNL     1      27.915  29.421   4.838  1.00  0.00    -0.000 C 
BRANCH  21  22
ATOM     22  C   UNL     1      26.992  28.796   5.904  1.00  0.00    -0.000 C 
BRANCH  22  23
ATOM     23  C   UNL     1      25.687  28.180   5.360  1.00  0.00    -0.000 C 
BRANCH  23  24
ATOM     24  C   UNL     1      24.549  28.051   6.392  1.00  0.00    -0.000 C 
BRANCH  24  25
ATOM     25  C   UNL     1      23.470  27.014   6.036  1.00  0.00    -0.003 C 
ATOM     26  C   UNL     1      22.373  27.579   5.136  1.00  0.00     0.004 C 
ENDBRANCH  24  25
ENDBRANCH  23  24
ENDBRANCH  22  23
ENDBRANCH  21  22
ENDBRANCH  20  21
ENDBRANCH  19  20
ENDBRANCH  18  19
ENDBRANCH  17  18
ENDBRANCH  16  17
ENDBRANCH  15  16
ENDBRANCH   1  15
TORSDOF 22
ENDMDL
MODEL 6
REMARK VINA RESULT:     0.799     10.033     15.561
REMARK INTER + INTRA:           0.468
REMARK INTER:                   1.330
REMARK INTRA:                  -0.862
REMARK UNBOUND:                -1.359
REMARK SMILES CCCCCCCCCCCCCCCCCCCCCCCC(=O)[O-]
REMARK SMILES IDX 13 1 14 2 15 3 16 4 17 5 18 6 19 7 20 8 21 9 22 10 23 11
REMARK SMILES IDX 24 12 25 13 26 14 12 15 11 16 10 17 9 18 8 19 7 20 6 21 5 22
REMARK SMILES IDX 4 23 3 24 2 25 1 26
REMARK H PARENT
REMARK Flexibility Score: inf
ROOT
ATOM      1  C   UNL     1      27.517  23.901  -0.432  1.00  0.00     0.000 C 
ENDROOT
BRANCH   1   2
ATOM      2  C   UNL     1      27.802  23.907  -1.947  1.00  0.00     0.000 C 
BRANCH   2   3
ATOM      3  C   UNL     1      28.444  22.619  -2.491  1.00  0.00     0.000 C 
BRANCH   3   4
ATOM      4  C   UNL     1      27.956  22.260  -3.903  1.00  0.00     0.000 C 
BRANCH   4   5
ATOM      5  C   UNL     1      28.949  22.749  -4.970  1.00  0.00     0.000 C 
BRANCH   5   6
ATOM      6  C   UNL     1      29.064  24.281  -5.013  1.00  0.00     0.000 C 
BRANCH   6   7
ATOM      7  C   UNL     1      29.124  24.833  -6.448  1.00  0.00     0.000 C 
BRANCH   7   8
ATOM      8  C   UNL     1      28.397  23.919  -7.456  1.00  0.00     0.000 C 
BRANCH   8   9
ATOM      9  C   UNL     1      29.003  23.956  -8.870  1.00  0.00     0.000 C 
BRANCH   9  10
ATOM     10  C   UNL     1      27.940  23.875  -9.979  1.00  0.00     0.006 C 
BRANCH  10  11
ATOM     11  C   UNL     1      28.051  25.038 -10.974  1.00  0.00     0.053 C 
BRANCH  11  12
ATOM     12  C   UNL     1      27.903  26.365 -10.293  1.00  0.00     0.041 C 
ATOM     13  O   UNL     1      26.757  26.832 -10.060  1.00  0.00    -0.550 OA
ATOM     14  O   UNL     1      29.029  27.070  -9.887  1.00  0.00    -0.550 OA
ENDBRANCH  11  12
ENDBRANCH  10  11
ENDBRANCH   9  10
ENDBRANCH   8   9
ENDBRANCH   7   8
ENDBRANCH   6   7
ENDBRANCH   5   6
ENDBRANCH   4   5
ENDBRANCH   3   4
ENDBRANCH   2   3
ENDBRANCH   1   2
BRANCH   1  15
ATOM     15  C   UNL     1      28.048  25.126   0.339  1.00  0.00     0.000 C 
BRANCH  15  16
ATOM     16  C   UNL     1      27.257  25.498   1.606  1.00  0.00     0.000 C 
BRANCH  16  17
ATOM     17  C   UNL     1      27.887  24.935   2.891  1.00  0.00     0.000 C 
BRANCH  17  18
ATOM     18  C   UNL     1      28.347  26.034   3.867  1.00  0.00    -0.000 C 
BRANCH  18  19
ATOM     19  C   UNL     1      28.376  27.462   3.289  1.00  0.00    -0.000 C 
BRANCH  19  20
ATOM     20  C   UNL     1      29.106  28.464   4.200  1.00  0.00    -0.000 C 
BRANCH  20  21
ATOM     21  C   UNL     1      28.869  28.198   5.698  1.00  0.00    -0.000 C 
BRANCH  21  22
ATOM     22  C   UNL     1      28.972  29.436   6.612  1.00  0.00    -0.000 C 
BRANCH  22  23
ATOM     23  C   UNL     1      28.787  30.792   5.900  1.00  0.00    -0.000 C 
BRANCH  23  24
ATOM     24  C   UNL     1      29.062  32.030   6.777  1.00  0.00    -0.000 C 
BRANCH  24  25
ATOM     25  C   UNL     1      28.901  31.799   8.289  1.00  0.00    -0.003 C 
ATOM     26  C   UNL     1      28.610  33.084   9.061  1.00  0.00     0.004 C 
ENDBRANCH  24  25
ENDBRANCH  23  24
ENDBRANCH  22  23
ENDBRANCH  21  22
ENDBRANCH  20  21
ENDBRANCH  19  20
ENDBRANCH  18  19
ENDBRANCH  17  18
ENDBRANCH  16  17
ENDBRANCH  15  16
ENDBRANCH   1  15
TORSDOF 22
ENDMDL
MODEL 7
REMARK VINA RESULT:     0.895     11.712     15.549
REMARK INTER + INTRA:           0.688
REMARK INTER:                  -0.771
REMARK INTRA:                   1.459
REMARK UNBOUND:                -1.359
REMARK SMILES CCCCCCCCCCCCCCCCCCCCCCCC(=O)[O-]
REMARK SMILES IDX 13 1 14 2 15 3 16 4 17 5 18 6 19 7 20 8 21 9 22 10 23 11
REMARK SMILES IDX 24 12 25 13 26 14 12 15 11 16 10 17 9 18 8 19 7 20 6 21 5 22
REMARK SMILES IDX 4 23 3 24 2 25 1 26
REMARK H PARENT
REMARK Flexibility Score: inf
ROOT
ATOM      1  C   UNL     1      27.521  25.521   2.947  1.00  0.00     0.000 C 
ENDROOT
BRANCH   1   2
ATOM      2  C   UNL     1      28.117  26.317   4.125  1.00  0.00     0.000 C 
BRANCH   2   3
ATOM      3  C   UNL     1      29.122  27.411   3.726  1.00  0.00     0.000 C 
BRANCH   3   4
ATOM      4  C   UNL     1      28.570  28.367   2.657  1.00  0.00     0.000 C 
BRANCH   4   5
ATOM      5  C   UNL     1      28.694  29.830   3.109  1.00  0.00     0.000 C 
BRANCH   5   6
ATOM      6  C   UNL     1      28.079  30.076   4.496  1.00  0.00     0.000 C 
BRANCH   6   7
ATOM      7  C   UNL     1      29.074  30.705   5.486  1.00  0.00     0.000 C 
BRANCH   7   8
ATOM      8  C   UNL     1      29.041  30.013   6.865  1.00  0.00     0.000 C 
BRANCH   8   9
ATOM      9  C   UNL     1      28.242  28.697   6.876  1.00  0.00     0.000 C 
BRANCH   9  10
ATOM     10  C   UNL     1      26.727  28.917   6.722  1.00  0.00     0.006 C 
BRANCH  10  11
ATOM     11  C   UNL     1      26.209  28.441   5.359  1.00  0.00     0.053 C 
BRANCH  11  12
ATOM     12  C   UNL     1      24.949  27.640   5.494  1.00  0.00     0.041 C 
ATOM     13  O   UNL     1      24.711  26.696   4.696  1.00  0.00    -0.550 OA
ATOM     14  O   UNL     1      24.056  27.914   6.521  1.00  0.00    -0.550 OA
ENDBRANCH  11  12
ENDBRANCH  10  11
ENDBRANCH   9  10
ENDBRANCH   8   9
ENDBRANCH   7   8
ENDBRANCH   6   7
ENDBRANCH   5   6
ENDBRANCH   4   5
ENDBRANCH   3   4
ENDBRANCH   2   3
ENDBRANCH   1   2
BRANCH   1  15
ATOM     15  C   UNL     1      27.907  26.038   1.546  1.00  0.00     0.000 C 
BRANCH  15  16
ATOM     16  C   UNL     1      27.553  25.099   0.379  1.00  0.00     0.000 C 
BRANCH  16  17
ATOM     17  C   UNL     1      28.753  24.805  -0.538  1.00  0.00     0.000 C 
BRANCH  17  18
ATOM     18  C   UNL     1      28.344  24.165  -1.877  1.00  0.00    -0.000 C 
BRANCH  18  19
ATOM     19  C   UNL     1      29.052  22.840  -2.221  1.00  0.00    -0.000 C 
BRANCH  19  20
ATOM     20  C   UNL     1      28.100  21.632  -2.215  1.00  0.00    -0.000 C 
BRANCH  20  21
ATOM     21  C   UNL     1      28.043  20.905  -3.571  1.00  0.00    -0.000 C 
BRANCH  21  22
ATOM     22  C   UNL     1      28.809  19.567  -3.634  1.00  0.00    -0.000 C 
BRANCH  22  23
ATOM     23  C   UNL     1      29.106  18.918  -2.268  1.00  0.00    -0.000 C 
BRANCH  23  24
ATOM     24  C   UNL     1      27.897  18.240  -1.593  1.00  0.00    -0.000 C 
BRANCH  24  25
ATOM     25  C   UNL     1      28.245  17.023  -0.719  1.00  0.00    -0.003 C 
ATOM     26  C   UNL     1      28.577  17.400   0.724  1.00  0.00     0.004 C 
ENDBRANCH  24  25
ENDBRANCH  23  24
ENDBRANCH  22  23
ENDBRANCH  21  22
ENDBRANCH  20  21
ENDBRANCH  19  20
ENDBRANCH  18  19
ENDBRANCH  17  18
ENDBRANCH  16  17
ENDBRANCH  15  16
ENDBRANCH   1  15
TORSDOF 22
ENDMDL
MODEL 8
REMARK VINA RESULT:     1.010     11.583     16.675
REMARK INTER + INTRA:           0.950
REMARK INTER:                   2.292
REMARK INTRA:                  -1.343
REMARK UNBOUND:                -1.359
REMARK SMILES CCCCCCCCCCCCCCCCCCCCCCCC(=O)[O-]
REMARK SMILES IDX 13 1 14 2 15 3 16 4 17 5 18 6 19 7 20 8 21 9 22 10 23 11
REMARK SMILES IDX 24 12 25 13 26 14 12 15 11 16 10 17 9 18 8 19 7 20 6 21 5 22
REMARK SMILES IDX 4 23 3 24 2 25 1 26
REMARK H PARENT
REMARK Flexibility Score: inf
ROOT
ATOM      1  C   UNL     1      26.920  23.625  -0.219  1.00  0.00     0.000 C 
ENDROOT
BRANCH   1   2
ATOM      2  C   UNL     1      26.369  23.333  -1.630  1.00  0.00     0.000 C 
BRANCH   2   3
ATOM      3  C   UNL     1      27.209  23.905  -2.785  1.00  0.00     0.000 C 
BRANCH   3   4
ATOM      4  C   UNL     1      27.624  22.835  -3.807  1.00  0.00     0.000 C 
BRANCH   4   5
ATOM      5  C   UNL     1      28.688  21.896  -3.219  1.00  0.00     0.000 C 
BRANCH   5   6
ATOM      6  C   UNL     1      28.596  20.469  -3.784  1.00  0.00     0.000 C 
BRANCH   6   7
ATOM      7  C   UNL     1      27.867  19.500  -2.837  1.00  0.00     0.000 C 
BRANCH   7   8
ATOM      8  C   UNL     1      28.570  19.382  -1.469  1.00  0.00     0.000 C 
BRANCH   8   9
ATOM      9  C   UNL     1      28.676  17.936  -0.953  1.00  0.00     0.000 C 
BRANCH   9  10
ATOM     10  C   UNL     1      28.952  17.858   0.558  1.00  0.00     0.006 C 
BRANCH  10  11
ATOM     11  C   UNL     1      27.993  16.897   1.273  1.00  0.00     0.053 C 
BRANCH  11  12
ATOM     12  C   UNL     1      26.650  17.522   1.500  1.00  0.00     0.041 C 
ATOM     13  O   UNL     1      26.461  18.272   2.492  1.00  0.00    -0.550 OA
ATOM     14  O   UNL     1      25.618  17.301   0.596  1.00  0.00    -0.550 OA
ENDBRANCH  11  12
ENDBRANCH  10  11
ENDBRANCH   9  10
ENDBRANCH   8   9
ENDBRANCH   7   8
ENDBRANCH   6   7
ENDBRANCH   5   6
ENDBRANCH   4   5
ENDBRANCH   3   4
ENDBRANCH   2   3
ENDBRANCH   1   2
BRANCH   1  15
ATOM     15  C   UNL     1      26.806  25.093   0.237  1.00  0.00     0.000 C 
BRANCH  15  16
ATOM     16  C   UNL     1      27.314  25.380   1.662  1.00  0.00     0.000 C 
BRANCH  16  17
ATOM     17  C   UNL     1      28.808  25.740   1.703  1.00  0.00     0.000 C 
BRANCH  17  18
ATOM     18  C   UNL     1      29.096  27.020   2.510  1.00  0.00    -0.000 C 
BRANCH  18  19
ATOM     19  C   UNL     1      29.078  28.330   1.699  1.00  0.00    -0.000 C 
BRANCH  19  20
ATOM     20  C   UNL     1      29.125  29.586   2.587  1.00  0.00    -0.000 C 
BRANCH  20  21
ATOM     21  C   UNL     1      27.897  29.718   3.507  1.00  0.00    -0.000 C 
BRANCH  21  22
ATOM     22  C   UNL     1      28.153  30.433   4.850  1.00  0.00    -0.000 C 
BRANCH  22  23
ATOM     23  C   UNL     1      28.874  29.585   5.916  1.00  0.00    -0.000 C 
BRANCH  23  24
ATOM     24  C   UNL     1      28.116  29.433   7.250  1.00  0.00    -0.000 C 
BRANCH  24  25
ATOM     25  C   UNL     1      28.974  28.944   8.428  1.00  0.00    -0.003 C 
ATOM     26  C   UNL     1      28.783  27.458   8.729  1.00  0.00     0.004 C 
ENDBRANCH  24  25
ENDBRANCH  23  24
ENDBRANCH  22  23
ENDBRANCH  21  22
ENDBRANCH  20  21
ENDBRANCH  19  20
ENDBRANCH  18  19
ENDBRANCH  17  18
ENDBRANCH  16  17
ENDBRANCH  15  16
ENDBRANCH   1  15
TORSDOF 22
ENDMDL
