MODEL 1
REMARK VINA RESULT:    -2.354      0.000      0.000
REMARK INTER + INTRA:          -5.195
REMARK INTER:                  -4.005
REMARK INTRA:                  -1.189
REMARK UNBOUND:                -1.189
REMARK SMILES CCCCCCCCCCCCCC(=O)[O-]
REMARK SMILES IDX 8 1 9 2 10 3 11 4 12 5 13 6 14 7 15 8 16 9 7 10 6 11 5 12
REMARK SMILES IDX 4 13 3 14 2 15 1 16
REMARK H PARENT
REMARK Flexibility Score: inf
ROOT
ATOM      1  C   UNL     1       3.241 -33.930  21.340  1.00  0.00     0.000 C 
ENDROOT
BRANCH   1   2
ATOM      2  C   UNL     1       4.175 -33.704  20.140  1.00  0.00     0.000 C 
BRANCH   2   3
ATOM      3  C   UNL     1       4.408 -34.987  19.325  1.00  0.00     0.000 C 
BRANCH   3   4
ATOM      4  C   UNL     1       5.505 -35.883  19.926  1.00  0.00     0.000 C 
BRANCH   4   5
ATOM      5  C   UNL     1       5.092 -37.364  20.014  1.00  0.00     0.006 C 
BRANCH   5   6
ATOM      6  C   UNL     1       5.235 -37.969  21.422  1.00  0.00     0.053 C 
BRANCH   6   7
ATOM      7  C   UNL     1       5.477 -39.447  21.396  1.00  0.00     0.041 C 
ATOM      8  O   UNL     1       6.042 -39.980  20.405  1.00  0.00    -0.550 OA
ATOM      9  O   UNL     1       5.049 -40.240  22.452  1.00  0.00    -0.550 OA
ENDBRANCH   6   7
ENDBRANCH   5   6
ENDBRANCH   4   5
ENDBRANCH   3   4
ENDBRANCH   2   3
ENDBRANCH   1   2
BRANCH   1  10
ATOM     10  C   UNL     1       3.995 -34.327  22.622  1.00  0.00     0.000 C 
BRANCH  10  11
ATOM     11  C   UNL     1       5.341 -33.612  22.839  1.00  0.00    -0.000 C 
BRANCH  11  12
ATOM     12  C   UNL     1       6.125 -34.158  24.041  1.00  0.00    -0.000 C 
BRANCH  12  13
ATOM     13  C   UNL     1       6.053 -35.689  24.094  1.00  0.00    -0.000 C 
BRANCH  13  14
ATOM     14  C   UNL     1       5.799 -36.178  25.528  1.00  0.00    -0.000 C 
BRANCH  14  15
ATOM     15  C   UNL     1       5.154 -37.572  25.570  1.00  0.00    -0.003 C 
ATOM     16  C   UNL     1       3.809 -37.578  26.296  1.00  0.00     0.004 C 
ENDBRANCH  14  15
ENDBRANCH  13  14
ENDBRANCH  12  13
ENDBRANCH  11  12
ENDBRANCH  10  11
ENDBRANCH   1  10
TORSDOF 12
ENDMDL
MODEL 2
REMARK VINA RESULT:    -2.345      1.633      4.409
REMARK INTER + INTRA:          -5.179
REMARK INTER:                  -4.122
REMARK INTRA:                  -1.057
REMARK UNBOUND:                -1.189
REMARK SMILES CCCCCCCCCCCCCC(=O)[O-]
REMARK SMILES IDX 8 1 9 2 10 3 11 4 12 5 13 6 14 7 15 8 16 9 7 10 6 11 5 12
REMARK SMILES IDX 4 13 3 14 2 15 1 16
REMARK H PARENT
REMARK Flexibility Score: inf
ROOT
ATOM      1  C   UNL     1       3.666 -34.060  20.989  1.00  0.00     0.000 C 
ENDROOT
BRANCH   1   2
ATOM      2  C   UNL     1       4.063 -34.384  22.439  1.00  0.00     0.000 C 
BRANCH   2   3
ATOM      3  C   UNL     1       5.407 -33.754  22.837  1.00  0.00     0.000 C 
BRANCH   3   4
ATOM      4  C   UNL     1       6.125 -34.537  23.950  1.00  0.00     0.000 C 
BRANCH   4   5
ATOM      5  C   UNL     1       5.641 -35.994  24.069  1.00  0.00     0.006 C 
BRANCH   5   6
ATOM      6  C   UNL     1       5.697 -36.555  25.502  1.00  0.00     0.053 C 
BRANCH   6   7
ATOM      7  C   UNL     1       4.699 -37.648  25.735  1.00  0.00     0.041 C 
ATOM      8  O   UNL     1       4.881 -38.790  25.237  1.00  0.00    -0.550 OA
ATOM      9  O   UNL     1       3.552 -37.395  26.476  1.00  0.00    -0.550 OA
ENDBRANCH   6   7
ENDBRANCH   5   6
ENDBRANCH   4   5
ENDBRANCH   3   4
ENDBRANCH   2   3
ENDBRANCH   1   2
BRANCH   1  10
ATOM     10  C   UNL     1       4.880 -33.798  20.079  1.00  0.00     0.000 C 
BRANCH  10  11
ATOM     11  C   UNL     1       4.946 -34.666  18.808  1.00  0.00    -0.000 C 
BRANCH  11  12
ATOM     12  C   UNL     1       4.443 -36.098  19.033  1.00  0.00    -0.000 C 
BRANCH  12  13
ATOM     13  C   UNL     1       5.333 -36.843  20.035  1.00  0.00    -0.000 C 
BRANCH  13  14
ATOM     14  C   UNL     1       4.898 -38.310  20.173  1.00  0.00    -0.000 C 
BRANCH  14  15
ATOM     15  C   UNL     1       5.076 -38.847  21.602  1.00  0.00    -0.003 C 
ATOM     16  C   UNL     1       5.759 -40.214  21.638  1.00  0.00     0.004 C 
ENDBRANCH  14  15
ENDBRANCH  13  14
ENDBRANCH  12  13
ENDBRANCH  11  12
ENDBRANCH  10  11
ENDBRANCH   1  10
TORSDOF 12
ENDMDL
MODEL 3
REMARK VINA RESULT:    -1.302      0.841      1.620
REMARK INTER + INTRA:          -3.404
REMARK INTER:                  -2.396
REMARK INTRA:                  -1.008
REMARK UNBOUND:                -1.189
REMARK SMILES CCCCCCCCCCCCCC(=O)[O-]
REMARK SMILES IDX 8 1 9 2 10 3 11 4 12 5 13 6 14 7 15 8 16 9 7 10 6 11 5 12
REMARK SMILES IDX 4 13 3 14 2 15 1 16
REMARK H PARENT
REMARK Flexibility Score: inf
ROOT
ATOM      1  C   UNL     1       4.194 -34.018  22.489  1.00  0.00     0.000 C 
ENDROOT
BRANCH   1   2
ATOM      2  C   UNL     1       3.841 -33.958  20.993  1.00  0.00     0.000 C 
BRANCH   2   3
ATOM      3  C   UNL     1       4.986 -34.460  20.098  1.00  0.00     0.000 C 
BRANCH   3   4
ATOM      4  C   UNL     1       4.532 -35.547  19.107  1.00  0.00     0.000 C 
BRANCH   4   5
ATOM      5  C   UNL     1       5.163 -36.922  19.391  1.00  0.00     0.006 C 
BRANCH   5   6
ATOM      6  C   UNL     1       4.583 -37.630  20.629  1.00  0.00     0.053 C 
BRANCH   6   7
ATOM      7  C   UNL     1       5.333 -38.877  20.987  1.00  0.00     0.041 C 
ATOM      8  O   UNL     1       5.351 -39.287  22.177  1.00  0.00    -0.550 OA
ATOM      9  O   UNL     1       6.038 -39.568  20.011  1.00  0.00    -0.550 OA
ENDBRANCH   6   7
ENDBRANCH   5   6
ENDBRANCH   4   5
ENDBRANCH   3   4
ENDBRANCH   2   3
ENDBRANCH   1   2
BRANCH   1  10
ATOM     10  C   UNL     1       5.701 -34.202  22.744  1.00  0.00     0.000 C 
BRANCH  10  11
ATOM     11  C   UNL     1       6.119 -35.609  23.211  1.00  0.00    -0.000 C 
BRANCH  11  12
ATOM     12  C   UNL     1       6.118 -35.760  24.739  1.00  0.00    -0.000 C 
BRANCH  12  13
ATOM     13  C   UNL     1       4.802 -36.373  25.231  1.00  0.00    -0.000 C 
BRANCH  13  14
ATOM     14  C   UNL     1       5.037 -37.765  25.836  1.00  0.00    -0.000 C 
BRANCH  14  15
ATOM     15  C   UNL     1       3.796 -38.312  26.560  1.00  0.00    -0.003 C 
ATOM     16  C   UNL     1       2.817 -37.211  26.965  1.00  0.00     0.004 C 
ENDBRANCH  14  15
ENDBRANCH  13  14
ENDBRANCH  12  13
ENDBRANCH  11  12
ENDBRANCH  10  11
ENDBRANCH   1  10
TORSDOF 12
ENDMDL
MODEL 4
REMARK VINA RESULT:    -1.041      2.028      5.415
REMARK INTER + INTRA:          -2.961
REMARK INTER:                  -2.403
REMARK INTRA:                  -0.558
REMARK UNBOUND:                -1.189
REMARK SMILES CCCCCCCCCCCCCC(=O)[O-]
REMARK SMILES IDX 8 1 9 2 10 3 11 4 12 5 13 6 14 7 15 8 16 9 7 10 6 11 5 12
REMARK SMILES IDX 4 13 3 14 2 15 1 16
REMARK H PARENT
REMARK Flexibility Score: inf
ROOT
ATOM      1  C   UNL     1       4.241 -33.797  22.221  1.00  0.00     0.000 C 
ENDROOT
BRANCH   1   2
ATOM      2  C   UNL     1       5.599 -33.436  22.845  1.00  0.00     0.000 C 
BRANCH   2   3
ATOM      3  C   UNL     1       6.062 -34.468  23.886  1.00  0.00     0.000 C 
BRANCH   3   4
ATOM      4  C   UNL     1       5.232 -35.763  23.850  1.00  0.00     0.000 C 
BRANCH   4   5
ATOM      5  C   UNL     1       5.732 -36.770  22.798  1.00  0.00     0.006 C 
BRANCH   5   6
ATOM      6  C   UNL     1       4.691 -37.111  21.716  1.00  0.00     0.053 C 
BRANCH   6   7
ATOM      7  C   UNL     1       5.073 -38.309  20.903  1.00  0.00     0.041 C 
ATOM      8  O   UNL     1       5.052 -38.256  19.645  1.00  0.00    -0.550 OA
ATOM      9  O   UNL     1       5.422 -39.496  21.534  1.00  0.00    -0.550 OA
ENDBRANCH   6   7
ENDBRANCH   5   6
ENDBRANCH   4   5
ENDBRANCH   3   4
ENDBRANCH   2   3
ENDBRANCH   1   2
BRANCH   1  10
ATOM     10  C   UNL     1       4.254 -33.745  20.683  1.00  0.00     0.000 C 
BRANCH  10  11
ATOM     11  C   UNL     1       5.423 -34.490  20.011  1.00  0.00    -0.000 C 
BRANCH  11  12
ATOM     12  C   UNL     1       5.353 -34.459  18.478  1.00  0.00    -0.000 C 
BRANCH  12  13
ATOM     13  C   UNL     1       3.958 -34.860  17.983  1.00  0.00    -0.000 C 
BRANCH  13  14
ATOM     14  C   UNL     1       4.041 -36.033  16.995  1.00  0.00    -0.000 C 
BRANCH  14  15
ATOM     15  C   UNL     1       3.120 -35.848  15.779  1.00  0.00    -0.003 C 
ATOM     16  C   UNL     1       3.364 -36.891  14.689  1.00  0.00     0.004 C 
ENDBRANCH  14  15
ENDBRANCH  13  14
ENDBRANCH  12  13
ENDBRANCH  11  12
ENDBRANCH  10  11
ENDBRANCH   1  10
TORSDOF 12
ENDMDL
MODEL 5
REMARK VINA RESULT:    -0.952      3.260      4.100
REMARK INTER + INTRA:          -2.808
REMARK INTER:                  -2.196
REMARK INTRA:                  -0.613
REMARK UNBOUND:                -1.189
REMARK SMILES CCCCCCCCCCCCCC(=O)[O-]
REMARK SMILES IDX 8 1 9 2 10 3 11 4 12 5 13 6 14 7 15 8 16 9 7 10 6 11 5 12
REMARK SMILES IDX 4 13 3 14 2 15 1 16
REMARK H PARENT
REMARK Flexibility Score: inf
ROOT
ATOM      1  C   UNL     1       4.402 -35.446  20.725  1.00  0.00     0.000 C 
ENDROOT
BRANCH   1   2
ATOM      2  C   UNL     1       5.709 -34.860  20.165  1.00  0.00     0.000 C 
BRANCH   2   3
ATOM      3  C   UNL     1       5.688 -34.732  18.633  1.00  0.00     0.000 C 
BRANCH   3   4
ATOM      4  C   UNL     1       4.272 -34.861  18.045  1.00  0.00     0.000 C 
BRANCH   4   5
ATOM      5  C   UNL     1       4.195 -35.860  16.876  1.00  0.00     0.006 C 
BRANCH   5   6
ATOM      6  C   UNL     1       3.009 -35.616  15.924  1.00  0.00     0.053 C 
BRANCH   6   7
ATOM      7  C   UNL     1       2.917 -36.644  14.839  1.00  0.00     0.041 C 
ATOM      8  O   UNL     1       3.896 -37.395  14.590  1.00  0.00    -0.550 OA
ATOM      9  O   UNL     1       1.759 -36.751  14.080  1.00  0.00    -0.550 OA
ENDBRANCH   6   7
ENDBRANCH   5   6
ENDBRANCH   4   5
ENDBRANCH   3   4
ENDBRANCH   2   3
ENDBRANCH   1   2
BRANCH   1  10
ATOM     10  C   UNL     1       4.004 -34.837  22.082  1.00  0.00     0.000 C 
BRANCH  10  11
ATOM     11  C   UNL     1       4.866 -33.649  22.546  1.00  0.00    -0.000 C 
BRANCH  11  12
ATOM     12  C   UNL     1       5.894 -34.036  23.618  1.00  0.00    -0.000 C 
BRANCH  12  13
ATOM     13  C   UNL     1       6.111 -35.553  23.650  1.00  0.00    -0.000 C 
BRANCH  13  14
ATOM     14  C   UNL     1       5.993 -36.095  25.083  1.00  0.00    -0.000 C 
BRANCH  14  15
ATOM     15  C   UNL     1       4.621 -36.725  25.366  1.00  0.00    -0.003 C 
ATOM     16  C   UNL     1       4.723 -38.052  26.117  1.00  0.00     0.004 C 
ENDBRANCH  14  15
ENDBRANCH  13  14
ENDBRANCH  12  13
ENDBRANCH  11  12
ENDBRANCH  10  11
ENDBRANCH   1  10
TORSDOF 12
ENDMDL
MODEL 6
REMARK VINA RESULT:    -0.820      2.259      4.412
REMARK INTER + INTRA:          -2.584
REMARK INTER:                  -2.262
REMARK INTRA:                  -0.322
REMARK UNBOUND:                -1.189
REMARK SMILES CCCCCCCCCCCCCC(=O)[O-]
REMARK SMILES IDX 8 1 9 2 10 3 11 4 12 5 13 6 14 7 15 8 16 9 7 10 6 11 5 12
REMARK SMILES IDX 4 13 3 14 2 15 1 16
REMARK H PARENT
REMARK Flexibility Score: inf
ROOT
ATOM      1  C   UNL     1       6.065 -34.344  24.432  1.00  0.00     0.000 C 
ENDROOT
BRANCH   1   2
ATOM      2  C   UNL     1       5.933 -33.758  23.016  1.00  0.00     0.000 C 
BRANCH   2   3
ATOM      3  C   UNL     1       4.481 -33.758  22.512  1.00  0.00     0.000 C 
BRANCH   3   4
ATOM      4  C   UNL     1       4.378 -33.979  20.993  1.00  0.00     0.000 C 
BRANCH   4   5
ATOM      5  C   UNL     1       5.681 -34.518  20.374  1.00  0.00     0.006 C 
BRANCH   5   6
ATOM      6  C   UNL     1       5.758 -34.357  18.845  1.00  0.00     0.053 C 
BRANCH   6   7
ATOM      7  C   UNL     1       4.627 -35.036  18.134  1.00  0.00     0.041 C 
ATOM      8  O   UNL     1       3.899 -34.389  17.336  1.00  0.00    -0.550 OA
ATOM      9  O   UNL     1       4.358 -36.376  18.378  1.00  0.00    -0.550 OA
ENDBRANCH   6   7
ENDBRANCH   5   6
ENDBRANCH   4   5
ENDBRANCH   3   4
ENDBRANCH   2   3
ENDBRANCH   1   2
BRANCH   1  10
ATOM     10  C   UNL     1       5.785 -35.857  24.485  1.00  0.00     0.000 C 
BRANCH  10  11
ATOM     11  C   UNL     1       6.125 -36.632  23.198  1.00  0.00    -0.000 C 
BRANCH  11  12
ATOM     12  C   UNL     1       4.903 -37.316  22.569  1.00  0.00    -0.000 C 
BRANCH  12  13
ATOM     13  C   UNL     1       5.072 -37.456  21.052  1.00  0.00    -0.000 C 
BRANCH  13  14
ATOM     14  C   UNL     1       4.904 -38.918  20.612  1.00  0.00    -0.000 C 
BRANCH  14  15
ATOM     15  C   UNL     1       5.872 -39.867  21.336  1.00  0.00    -0.003 C 
ATOM     16  C   UNL     1       5.201 -40.646  22.467  1.00  0.00     0.004 C 
ENDBRANCH  14  15
ENDBRANCH  13  14
ENDBRANCH  12  13
ENDBRANCH  11  12
ENDBRANCH  10  11
ENDBRANCH   1  10
TORSDOF 12
ENDMDL
MODEL 7
REMARK VINA RESULT:    -0.554      2.606      5.902
REMARK INTER + INTRA:          -2.131
REMARK INTER:                  -0.975
REMARK INTRA:                  -1.156
REMARK UNBOUND:                -1.189
REMARK SMILES CCCCCCCCCCCCCC(=O)[O-]
REMARK SMILES IDX 8 1 9 2 10 3 11 4 12 5 13 6 14 7 15 8 16 9 7 10 6 11 5 12
REMARK SMILES IDX 4 13 3 14 2 15 1 16
REMARK H PARENT
REMARK Flexibility Score: inf
ROOT
ATOM      1  C   UNL     1       4.681 -37.920  24.047  1.00  0.00     0.000 C 
ENDROOT
BRANCH   1   2
ATOM      2  C   UNL     1       5.350 -37.407  25.333  1.00  0.00     0.000 C 
BRANCH   2   3
ATOM      3  C   UNL     1       5.984 -36.018  25.153  1.00  0.00     0.000 C 
BRANCH   3   4
ATOM      4  C   UNL     1       5.997 -35.555  23.686  1.00  0.00     0.000 C 
BRANCH   4   5
ATOM      5  C   UNL     1       5.446 -34.130  23.499  1.00  0.00     0.006 C 
BRANCH   5   6
ATOM      6  C   UNL     1       5.165 -33.757  22.032  1.00  0.00     0.053 C 
BRANCH   6   7
ATOM      7  C   UNL     1       3.705 -33.792  21.696  1.00  0.00     0.041 C 
ATOM      8  O   UNL     1       3.148 -32.786  21.183  1.00  0.00    -0.550 OA
ATOM      9  O   UNL     1       2.954 -34.924  21.980  1.00  0.00    -0.550 OA
ENDBRANCH   6   7
ENDBRANCH   5   6
ENDBRANCH   4   5
ENDBRANCH   3   4
ENDBRANCH   2   3
ENDBRANCH   1   2
BRANCH   1  10
ATOM     10  C   UNL     1       5.206 -39.298  23.604  1.00  0.00     0.000 C 
BRANCH  10  11
ATOM     11  C   UNL     1       5.238 -39.528  22.081  1.00  0.00    -0.000 C 
BRANCH  11  12
ATOM     12  C   UNL     1       4.379 -38.522  21.303  1.00  0.00    -0.000 C 
BRANCH  12  13
ATOM     13  C   UNL     1       5.095 -38.058  20.029  1.00  0.00    -0.000 C 
BRANCH  13  14
ATOM     14  C   UNL     1       5.215 -36.527  19.992  1.00  0.00    -0.000 C 
BRANCH  14  15
ATOM     15  C   UNL     1       4.562 -35.914  18.743  1.00  0.00    -0.003 C 
ATOM     16  C   UNL     1       5.025 -34.481  18.478  1.00  0.00     0.004 C 
ENDBRANCH  14  15
ENDBRANCH  13  14
ENDBRANCH  12  13
ENDBRANCH  11  12
ENDBRANCH  10  11
ENDBRANCH   1  10
TORSDOF 12
ENDMDL
MODEL 8
REMARK VINA RESULT:    -0.485      2.418      4.704
REMARK INTER + INTRA:          -2.015
REMARK INTER:                  -1.538
REMARK INTRA:                  -0.477
REMARK UNBOUND:                -1.189
REMARK SMILES CCCCCCCCCCCCCC(=O)[O-]
REMARK SMILES IDX 8 1 9 2 10 3 11 4 12 5 13 6 14 7 15 8 16 9 7 10 6 11 5 12
REMARK SMILES IDX 4 13 3 14 2 15 1 16
REMARK H PARENT
REMARK Flexibility Score: inf
ROOT
ATOM      1  C   UNL     1       4.986 -39.575  23.840  1.00  0.00     0.000 C 
ENDROOT
BRANCH   1   2
ATOM      2  C   UNL     1       4.992 -40.211  22.441  1.00  0.00     0.000 C 
BRANCH   2   3
ATOM      3  C   UNL     1       5.555 -39.267  21.366  1.00  0.00     0.000 C 
BRANCH   3   4
ATOM      4  C   UNL     1       4.456 -38.476  20.635  1.00  0.00     0.000 C 
BRANCH   4   5
ATOM      5  C   UNL     1       5.013 -37.521  19.564  1.00  0.00     0.006 C 
BRANCH   5   6
ATOM      6  C   UNL     1       4.891 -36.031  19.932  1.00  0.00     0.053 C 
BRANCH   6   7
ATOM      7  C   UNL     1       4.999 -35.129  18.741  1.00  0.00     0.041 C 
ATOM      8  O   UNL     1       4.199 -35.252  17.777  1.00  0.00    -0.550 OA
ATOM      9  O   UNL     1       6.005 -34.174  18.682  1.00  0.00    -0.550 OA
ENDBRANCH   6   7
ENDBRANCH   5   6
ENDBRANCH   4   5
ENDBRANCH   3   4
ENDBRANCH   2   3
ENDBRANCH   1   2
BRANCH   1  10
ATOM     10  C   UNL     1       5.356 -38.080  23.822  1.00  0.00     0.000 C 
BRANCH  10  11
ATOM     11  C   UNL     1       5.315 -37.378  25.192  1.00  0.00    -0.000 C 
BRANCH  11  12
ATOM     12  C   UNL     1       5.918 -35.967  25.162  1.00  0.00    -0.000 C 
BRANCH  12  13
ATOM     13  C   UNL     1       6.013 -35.440  23.725  1.00  0.00    -0.000 C 
BRANCH  13  14
ATOM     14  C   UNL     1       4.647 -34.938  23.233  1.00  0.00    -0.000 C 
BRANCH  14  15
ATOM     15  C   UNL     1       4.757 -33.654  22.395  1.00  0.00    -0.003 C 
ATOM     16  C   UNL     1       3.496 -33.373  21.578  1.00  0.00     0.004 C 
ENDBRANCH  14  15
ENDBRANCH  13  14
ENDBRANCH  12  13
ENDBRANCH  11  12
ENDBRANCH  10  11
ENDBRANCH   1  10
TORSDOF 12
ENDMDL
MODEL 9
REMARK VINA RESULT:    -0.417      3.755      7.068
REMARK INTER + INTRA:          -1.899
REMARK INTER:                  -1.167
REMARK INTRA:                  -0.732
REMARK UNBOUND:                -1.189
REMARK SMILES CCCCCCCCCCCCCC(=O)[O-]
REMARK SMILES IDX 8 1 9 2 10 3 11 4 12 5 13 6 14 7 15 8 16 9 7 10 6 11 5 12
REMARK SMILES IDX 4 13 3 14 2 15 1 16
REMARK H PARENT
REMARK Flexibility Score: inf
ROOT
ATOM      1  C   UNL     1       5.090 -36.767  19.603  1.00  0.00     0.000 C 
ENDROOT
BRANCH   1   2
ATOM      2  C   UNL     1       4.524 -36.922  21.024  1.00  0.00     0.000 C 
BRANCH   2   3
ATOM      3  C   UNL     1       5.617 -37.219  22.064  1.00  0.00     0.000 C 
BRANCH   3   4
ATOM      4  C   UNL     1       6.028 -35.972  22.866  1.00  0.00     0.000 C 
BRANCH   4   5
ATOM      5  C   UNL     1       4.833 -35.080  23.249  1.00  0.00     0.006 C 
BRANCH   5   6
ATOM      6  C   UNL     1       4.766 -33.757  22.466  1.00  0.00     0.053 C 
BRANCH   6   7
ATOM      7  C   UNL     1       3.488 -33.601  21.699  1.00  0.00     0.041 C 
ATOM      8  O   UNL     1       3.303 -32.591  20.971  1.00  0.00    -0.550 OA
ATOM      9  O   UNL     1       2.488 -34.557  21.815  1.00  0.00    -0.550 OA
ENDBRANCH   6   7
ENDBRANCH   5   6
ENDBRANCH   4   5
ENDBRANCH   3   4
ENDBRANCH   2   3
ENDBRANCH   1   2
BRANCH   1  10
ATOM     10  C   UNL     1       5.234 -35.296  19.170  1.00  0.00     0.000 C 
BRANCH  10  11
ATOM     11  C   UNL     1       4.309 -34.858  18.020  1.00  0.00    -0.000 C 
BRANCH  11  12
ATOM     12  C   UNL     1       3.884 -36.022  17.115  1.00  0.00    -0.000 C 
BRANCH  12  13
ATOM     13  C   UNL     1       3.109 -35.515  15.893  1.00  0.00    -0.000 C 
BRANCH  13  14
ATOM     14  C   UNL     1       2.632 -36.685  15.019  1.00  0.00    -0.000 C 
BRANCH  14  15
ATOM     15  C   UNL     1       3.710 -37.163  14.033  1.00  0.00    -0.003 C 
ATOM     16  C   UNL     1       4.061 -38.640  14.212  1.00  0.00     0.004 C 
ENDBRANCH  14  15
ENDBRANCH  13  14
ENDBRANCH  12  13
ENDBRANCH  11  12
ENDBRANCH  10  11
ENDBRANCH   1  10
TORSDOF 12
ENDMDL
