MODEL 1
REMARK VINA RESULT:    -3.180      0.000      0.000
REMARK INTER + INTRA:          -8.980
REMARK INTER:                  -6.155
REMARK INTRA:                  -2.825
REMARK UNBOUND:                -2.825
REMARK SMILES CCCCCCCCCCCCCCCCCC(=O)[O-]
REMARK SMILES IDX 10 1 11 2 12 3 13 4 14 5 15 6 16 7 17 8 18 9 19 10 20 11
REMARK SMILES IDX 9 12 8 13 7 14 6 15 5 16 4 17 3 18 2 19 1 20
REMARK H PARENT
REMARK Flexibility Score: inf
ROOT
ATOM      1  C   UNL     1      60.488  33.341  59.259  1.00  0.00     0.000 C 
ENDROOT
BRANCH   1   2
ATOM      2  C   UNL     1      60.528  32.797  60.698  1.00  0.00     0.000 C 
BRANCH   2   3
ATOM      3  C   UNL     1      61.628  31.751  60.972  1.00  0.00     0.000 C 
BRANCH   3   4
ATOM      4  C   UNL     1      61.141  30.429  61.595  1.00  0.00     0.000 C 
BRANCH   4   5
ATOM      5  C   UNL     1      62.279  29.420  61.823  1.00  0.00     0.000 C 
BRANCH   5   6
ATOM      6  C   UNL     1      63.663  29.986  61.461  1.00  0.00     0.000 C 
BRANCH   6   7
ATOM      7  C   UNL     1      64.608  29.003  60.740  1.00  0.00     0.006 C 
BRANCH   7   8
ATOM      8  C   UNL     1      66.061  29.487  60.616  1.00  0.00     0.053 C 
BRANCH   8   9
ATOM      9  C   UNL     1      67.035  28.349  60.625  1.00  0.00     0.041 C 
ATOM     10  O   UNL     1      66.682  27.212  60.216  1.00  0.00    -0.550 OA
ATOM     11  O   UNL     1      68.321  28.536  61.116  1.00  0.00    -0.550 OA
ENDBRANCH   8   9
ENDBRANCH   7   8
ENDBRANCH   6   7
ENDBRANCH   5   6
ENDBRANCH   4   5
ENDBRANCH   3   4
ENDBRANCH   2   3
ENDBRANCH   1   2
BRANCH   1  12
ATOM     12  C   UNL     1      60.644  34.867  59.193  1.00  0.00     0.000 C 
BRANCH  12  13
ATOM     13  C   UNL     1      61.235  35.414  60.498  1.00  0.00    -0.000 C 
BRANCH  13  14
ATOM     14  C   UNL     1      62.698  35.831  60.309  1.00  0.00    -0.000 C 
BRANCH  14  15
ATOM     15  C   UNL     1      63.572  35.308  61.460  1.00  0.00    -0.000 C 
BRANCH  15  16
ATOM     16  C   UNL     1      64.344  34.032  61.087  1.00  0.00    -0.000 C 
BRANCH  16  17
ATOM     17  C   UNL     1      64.680  33.965  59.588  1.00  0.00    -0.000 C 
BRANCH  17  18
ATOM     18  C   UNL     1      64.669  32.527  59.036  1.00  0.00    -0.000 C 
BRANCH  18  19
ATOM     19  C   UNL     1      63.723  32.295  57.845  1.00  0.00    -0.003 C 
ATOM     20  C   UNL     1      63.163  30.873  57.791  1.00  0.00     0.004 C 
ENDBRANCH  18  19
ENDBRANCH  17  18
ENDBRANCH  16  17
ENDBRANCH  15  16
ENDBRANCH  14  15
ENDBRANCH  13  14
ENDBRANCH  12  13
ENDBRANCH   1  12
TORSDOF 16
ENDMDL
MODEL 2
REMARK VINA RESULT:    -3.176      2.760      3.483
REMARK INTER + INTRA:          -8.971
REMARK INTER:                  -6.423
REMARK INTRA:                  -2.549
REMARK UNBOUND:                -2.825
REMARK SMILES CCCCCCCCCCCCCCCCCC(=O)[O-]
REMARK SMILES IDX 10 1 11 2 12 3 13 4 14 5 15 6 16 7 17 8 18 9 19 10 20 11
REMARK SMILES IDX 9 12 8 13 7 14 6 15 5 16 4 17 3 18 2 19 1 20
REMARK H PARENT
REMARK Flexibility Score: inf
ROOT
ATOM      1  C   UNL     1      61.037  32.801  60.130  1.00  0.00     0.000 C 
ENDROOT
BRANCH   1   2
ATOM      2  C   UNL     1      60.535  31.565  59.362  1.00  0.00     0.000 C 
BRANCH   2   3
ATOM      3  C   UNL     1      60.896  30.207  60.000  1.00  0.00     0.000 C 
BRANCH   3   4
ATOM      4  C   UNL     1      61.243  30.254  61.500  1.00  0.00     0.000 C 
BRANCH   4   5
ATOM      5  C   UNL     1      62.450  29.374  61.863  1.00  0.00     0.000 C 
BRANCH   5   6
ATOM      6  C   UNL     1      62.802  28.356  60.763  1.00  0.00     0.000 C 
BRANCH   6   7
ATOM      7  C   UNL     1      62.843  26.883  61.219  1.00  0.00     0.006 C 
BRANCH   7   8
ATOM      8  C   UNL     1      61.528  26.361  61.816  1.00  0.00     0.053 C 
BRANCH   8   9
ATOM      9  C   UNL     1      60.388  26.478  60.851  1.00  0.00     0.041 C 
ATOM     10  O   UNL     1      59.360  27.134  61.162  1.00  0.00    -0.550 OA
ATOM     11  O   UNL     1      60.447  25.833  59.622  1.00  0.00    -0.550 OA
ENDBRANCH   8   9
ENDBRANCH   7   8
ENDBRANCH   6   7
ENDBRANCH   5   6
ENDBRANCH   4   5
ENDBRANCH   3   4
ENDBRANCH   2   3
ENDBRANCH   1   2
BRANCH   1  12
ATOM     12  C   UNL     1      60.004  33.937  60.173  1.00  0.00     0.000 C 
BRANCH  12  13
ATOM     13  C   UNL     1      60.675  35.277  60.495  1.00  0.00    -0.000 C 
BRANCH  13  14
ATOM     14  C   UNL     1      62.162  35.254  60.121  1.00  0.00    -0.000 C 
BRANCH  14  15
ATOM     15  C   UNL     1      63.029  35.762  61.284  1.00  0.00    -0.000 C 
BRANCH  15  16
ATOM     16  C   UNL     1      64.267  34.885  61.529  1.00  0.00    -0.000 C 
BRANCH  16  17
ATOM     17  C   UNL     1      64.506  33.874  60.395  1.00  0.00    -0.000 C 
BRANCH  17  18
ATOM     18  C   UNL     1      64.492  32.413  60.883  1.00  0.00    -0.000 C 
BRANCH  18  19
ATOM     19  C   UNL     1      64.740  31.359  59.790  1.00  0.00    -0.003 C 
ATOM     20  C   UNL     1      64.191  31.771  58.424  1.00  0.00     0.004 C 
ENDBRANCH  18  19
ENDBRANCH  17  18
ENDBRANCH  16  17
ENDBRANCH  15  16
ENDBRANCH  14  15
ENDBRANCH  13  14
ENDBRANCH  12  13
ENDBRANCH   1  12
TORSDOF 16
ENDMDL
MODEL 3
REMARK VINA RESULT:    -3.071     10.117     12.872
REMARK INTER + INTRA:          -8.768
REMARK INTER:                  -7.072
REMARK INTRA:                  -1.696
REMARK UNBOUND:                -2.825
REMARK SMILES CCCCCCCCCCCCCCCCCC(=O)[O-]
REMARK SMILES IDX 10 1 11 2 12 3 13 4 14 5 15 6 16 7 17 8 18 9 19 10 20 11
REMARK SMILES IDX 9 12 8 13 7 14 6 15 5 16 4 17 3 18 2 19 1 20
REMARK H PARENT
REMARK Flexibility Score: inf
ROOT
ATOM      1  C   UNL     1      61.323  26.315  51.232  1.00  0.00     0.000 C 
ENDROOT
BRANCH   1   2
ATOM      2  C   UNL     1      62.847  26.130  51.114  1.00  0.00     0.000 C 
BRANCH   2   3
ATOM      3  C   UNL     1      63.410  26.231  49.681  1.00  0.00     0.000 C 
BRANCH   3   4
ATOM      4  C   UNL     1      63.267  27.611  49.013  1.00  0.00     0.000 C 
BRANCH   4   5
ATOM      5  C   UNL     1      64.354  28.605  49.454  1.00  0.00     0.000 C 
BRANCH   5   6
ATOM      6  C   UNL     1      63.862  30.064  49.467  1.00  0.00     0.000 C 
BRANCH   6   7
ATOM      7  C   UNL     1      62.493  30.291  50.139  1.00  0.00     0.006 C 
BRANCH   7   8
ATOM      8  C   UNL     1      62.381  31.599  50.937  1.00  0.00     0.053 C 
BRANCH   8   9
ATOM      9  C   UNL     1      62.838  32.783  50.141  1.00  0.00     0.041 C 
ATOM     10  O   UNL     1      63.846  33.441  50.508  1.00  0.00    -0.550 OA
ATOM     11  O   UNL     1      62.130  33.179  49.013  1.00  0.00    -0.550 OA
ENDBRANCH   8   9
ENDBRANCH   7   8
ENDBRANCH   6   7
ENDBRANCH   5   6
ENDBRANCH   4   5
ENDBRANCH   3   4
ENDBRANCH   2   3
ENDBRANCH   1   2
BRANCH   1  12
ATOM     12  C   UNL     1      60.536  25.415  50.268  1.00  0.00     0.000 C 
BRANCH  12  13
ATOM     13  C   UNL     1      59.246  26.102  49.806  1.00  0.00    -0.000 C 
BRANCH  13  14
ATOM     14  C   UNL     1      59.509  27.558  49.405  1.00  0.00    -0.000 C 
BRANCH  14  15
ATOM     15  C   UNL     1      58.458  28.495  50.019  1.00  0.00    -0.000 C 
BRANCH  15  16
ATOM     16  C   UNL     1      57.364  27.738  50.790  1.00  0.00    -0.000 C 
BRANCH  16  17
ATOM     17  C   UNL     1      55.998  28.439  50.715  1.00  0.00    -0.000 C 
BRANCH  17  18
ATOM     18  C   UNL     1      54.840  27.466  50.426  1.00  0.00    -0.000 C 
BRANCH  18  19
ATOM     19  C   UNL     1      55.244  25.984  50.332  1.00  0.00    -0.003 C 
ATOM     20  C   UNL     1      54.259  25.144  49.519  1.00  0.00     0.004 C 
ENDBRANCH  18  19
ENDBRANCH  17  18
ENDBRANCH  16  17
ENDBRANCH  15  16
ENDBRANCH  14  15
ENDBRANCH  13  14
ENDBRANCH  12  13
ENDBRANCH   1  12
TORSDOF 16
ENDMDL
MODEL 4
REMARK VINA RESULT:    -3.060      2.010      4.802
REMARK INTER + INTRA:          -8.748
REMARK INTER:                  -6.228
REMARK INTRA:                  -2.519
REMARK UNBOUND:                -2.825
REMARK SMILES CCCCCCCCCCCCCCCCCC(=O)[O-]
REMARK SMILES IDX 10 1 11 2 12 3 13 4 14 5 15 6 16 7 17 8 18 9 19 10 20 11
REMARK SMILES IDX 9 12 8 13 7 14 6 15 5 16 4 17 3 18 2 19 1 20
REMARK H PARENT
REMARK Flexibility Score: inf
ROOT
ATOM      1  C   UNL     1      60.427  33.347  59.482  1.00  0.00     0.000 C 
ENDROOT
BRANCH   1   2
ATOM      2  C   UNL     1      61.227  34.654  59.338  1.00  0.00     0.000 C 
BRANCH   2   3
ATOM      3  C   UNL     1      61.302  35.521  60.611  1.00  0.00     0.000 C 
BRANCH   3   4
ATOM      4  C   UNL     1      62.702  35.655  61.237  1.00  0.00     0.000 C 
BRANCH   4   5
ATOM      5  C   UNL     1      63.790  34.927  60.430  1.00  0.00     0.000 C 
BRANCH   5   6
ATOM      6  C   UNL     1      64.493  33.819  61.235  1.00  0.00     0.000 C 
BRANCH   6   7
ATOM      7  C   UNL     1      64.514  32.430  60.565  1.00  0.00     0.006 C 
BRANCH   7   8
ATOM      8  C   UNL     1      64.181  32.439  59.065  1.00  0.00     0.053 C 
BRANCH   8   9
ATOM      9  C   UNL     1      65.403  32.262  58.218  1.00  0.00     0.041 C 
ATOM     10  O   UNL     1      66.282  31.421  58.542  1.00  0.00    -0.550 OA
ATOM     11  O   UNL     1      65.589  33.050  57.089  1.00  0.00    -0.550 OA
ENDBRANCH   8   9
ENDBRANCH   7   8
ENDBRANCH   6   7
ENDBRANCH   5   6
ENDBRANCH   4   5
ENDBRANCH   3   4
ENDBRANCH   2   3
ENDBRANCH   1   2
BRANCH   1  12
ATOM     12  C   UNL     1      60.734  32.600  60.788  1.00  0.00     0.000 C 
BRANCH  12  13
ATOM     13  C   UNL     1      61.089  31.135  60.512  1.00  0.00    -0.000 C 
BRANCH  13  14
ATOM     14  C   UNL     1      61.353  30.375  61.817  1.00  0.00    -0.000 C 
BRANCH  14  15
ATOM     15  C   UNL     1      62.644  29.546  61.718  1.00  0.00    -0.000 C 
BRANCH  15  16
ATOM     16  C   UNL     1      62.376  28.069  61.383  1.00  0.00    -0.000 C 
BRANCH  16  17
ATOM     17  C   UNL     1      63.507  27.440  60.552  1.00  0.00    -0.000 C 
BRANCH  17  18
ATOM     18  C   UNL     1      64.326  28.483  59.769  1.00  0.00    -0.000 C 
BRANCH  18  19
ATOM     19  C   UNL     1      65.836  28.199  59.689  1.00  0.00    -0.003 C 
ATOM     20  C   UNL     1      66.614  28.745  60.886  1.00  0.00     0.004 C 
ENDBRANCH  18  19
ENDBRANCH  17  18
ENDBRANCH  16  17
ENDBRANCH  15  16
ENDBRANCH  14  15
ENDBRANCH  13  14
ENDBRANCH  12  13
ENDBRANCH   1  12
TORSDOF 16
ENDMDL
MODEL 5
REMARK VINA RESULT:    -3.029      2.091      3.887
REMARK INTER + INTRA:          -8.687
REMARK INTER:                  -6.138
REMARK INTRA:                  -2.549
REMARK UNBOUND:                -2.825
REMARK SMILES CCCCCCCCCCCCCCCCCC(=O)[O-]
REMARK SMILES IDX 10 1 11 2 12 3 13 4 14 5 15 6 16 7 17 8 18 9 19 10 20 11
REMARK SMILES IDX 9 12 8 13 7 14 6 15 5 16 4 17 3 18 2 19 1 20
REMARK H PARENT
REMARK Flexibility Score: inf
ROOT
ATOM      1  C   UNL     1      64.009  31.649  59.703  1.00  0.00     0.000 C 
ENDROOT
BRANCH   1   2
ATOM      2  C   UNL     1      64.405  30.988  61.036  1.00  0.00     0.000 C 
BRANCH   2   3
ATOM      3  C   UNL     1      63.458  29.870  61.519  1.00  0.00     0.000 C 
BRANCH   3   4
ATOM      4  C   UNL     1      61.990  30.291  61.720  1.00  0.00     0.000 C 
BRANCH   4   5
ATOM      5  C   UNL     1      60.994  29.331  61.048  1.00  0.00     0.000 C 
BRANCH   5   6
ATOM      6  C   UNL     1      61.478  28.831  59.675  1.00  0.00     0.000 C 
BRANCH   6   7
ATOM      7  C   UNL     1      61.775  27.321  59.592  1.00  0.00     0.006 C 
BRANCH   7   8
ATOM      8  C   UNL     1      61.333  26.513  60.821  1.00  0.00     0.053 C 
BRANCH   8   9
ATOM      9  C   UNL     1      62.500  26.059  61.644  1.00  0.00     0.041 C 
ATOM     10  O   UNL     1      62.315  25.561  62.785  1.00  0.00    -0.550 OA
ATOM     11  O   UNL     1      63.794  26.218  61.164  1.00  0.00    -0.550 OA
ENDBRANCH   8   9
ENDBRANCH   7   8
ENDBRANCH   6   7
ENDBRANCH   5   6
ENDBRANCH   4   5
ENDBRANCH   3   4
ENDBRANCH   2   3
ENDBRANCH   1   2
BRANCH   1  12
ATOM     12  C   UNL     1      64.286  33.159  59.681  1.00  0.00     0.000 C 
BRANCH  12  13
ATOM     13  C   UNL     1      64.337  33.728  61.104  1.00  0.00    -0.000 C 
BRANCH  13  14
ATOM     14  C   UNL     1      63.542  35.035  61.205  1.00  0.00    -0.000 C 
BRANCH  14  15
ATOM     15  C   UNL     1      63.381  35.688  59.823  1.00  0.00    -0.000 C 
BRANCH  15  16
ATOM     16  C   UNL     1      61.917  36.024  59.492  1.00  0.00    -0.000 C 
BRANCH  16  17
ATOM     17  C   UNL     1      60.969  35.753  60.672  1.00  0.00    -0.000 C 
BRANCH  17  18
ATOM     18  C   UNL     1      59.898  34.696  60.349  1.00  0.00    -0.000 C 
BRANCH  18  19
ATOM     19  C   UNL     1      60.388  33.237  60.393  1.00  0.00    -0.003 C 
ATOM     20  C   UNL     1      60.440  32.580  59.015  1.00  0.00     0.004 C 
ENDBRANCH  18  19
ENDBRANCH  17  18
ENDBRANCH  16  17
ENDBRANCH  15  16
ENDBRANCH  14  15
ENDBRANCH  13  14
ENDBRANCH  12  13
ENDBRANCH   1  12
TORSDOF 16
ENDMDL
MODEL 6
REMARK VINA RESULT:    -3.026     11.218     13.835
REMARK INTER + INTRA:          -8.681
REMARK INTER:                  -6.212
REMARK INTRA:                  -2.469
REMARK UNBOUND:                -2.825
REMARK SMILES CCCCCCCCCCCCCCCCCC(=O)[O-]
REMARK SMILES IDX 10 1 11 2 12 3 13 4 14 5 15 6 16 7 17 8 18 9 19 10 20 11
REMARK SMILES IDX 9 12 8 13 7 14 6 15 5 16 4 17 3 18 2 19 1 20
REMARK H PARENT
REMARK Flexibility Score: inf
ROOT
ATOM      1  C   UNL     1      58.067  25.368  53.162  1.00  0.00     0.000 C 
ENDROOT
BRANCH   1   2
ATOM      2  C   UNL     1      56.927  24.951  52.216  1.00  0.00     0.000 C 
BRANCH   2   3
ATOM      3  C   UNL     1      55.503  25.176  52.766  1.00  0.00     0.000 C 
BRANCH   3   4
ATOM      4  C   UNL     1      54.361  24.889  51.774  1.00  0.00     0.000 C 
BRANCH   4   5
ATOM      5  C   UNL     1      54.763  25.132  50.310  1.00  0.00     0.000 C 
BRANCH   5   6
ATOM      6  C   UNL     1      53.631  25.755  49.474  1.00  0.00     0.000 C 
BRANCH   6   7
ATOM      7  C   UNL     1      52.956  26.993  50.098  1.00  0.00     0.006 C 
BRANCH   7   8
ATOM      8  C   UNL     1      53.891  28.195  50.307  1.00  0.00     0.053 C 
BRANCH   8   9
ATOM      9  C   UNL     1      53.645  28.876  51.618  1.00  0.00     0.041 C 
ATOM     10  O   UNL     1      53.926  28.291  52.697  1.00  0.00    -0.550 OA
ATOM     11  O   UNL     1      53.075  30.142  51.649  1.00  0.00    -0.550 OA
ENDBRANCH   8   9
ENDBRANCH   7   8
ENDBRANCH   6   7
ENDBRANCH   5   6
ENDBRANCH   4   5
ENDBRANCH   3   4
ENDBRANCH   2   3
ENDBRANCH   1   2
BRANCH   1  12
ATOM     12  C   UNL     1      59.421  24.759  52.770  1.00  0.00     0.000 C 
BRANCH  12  13
ATOM     13  C   UNL     1      59.377  24.197  51.344  1.00  0.00    -0.000 C 
BRANCH  13  14
ATOM     14  C   UNL     1      60.179  25.079  50.379  1.00  0.00    -0.000 C 
BRANCH  14  15
ATOM     15  C   UNL     1      59.259  26.068  49.646  1.00  0.00    -0.000 C 
BRANCH  15  16
ATOM     16  C   UNL     1      59.865  27.478  49.543  1.00  0.00    -0.000 C 
BRANCH  16  17
ATOM     17  C   UNL     1      58.801  28.584  49.647  1.00  0.00    -0.000 C 
BRANCH  17  18
ATOM     18  C   UNL     1      57.530  28.124  50.384  1.00  0.00    -0.000 C 
BRANCH  18  19
ATOM     19  C   UNL     1      57.364  28.684  51.808  1.00  0.00    -0.003 C 
ATOM     20  C   UNL     1      58.545  29.544  52.255  1.00  0.00     0.004 C 
ENDBRANCH  18  19
ENDBRANCH  17  18
ENDBRANCH  16  17
ENDBRANCH  15  16
ENDBRANCH  14  15
ENDBRANCH  13  14
ENDBRANCH  12  13
ENDBRANCH   1  12
TORSDOF 16
ENDMDL
MODEL 7
REMARK VINA RESULT:    -2.966     11.378     13.302
REMARK INTER + INTRA:          -8.565
REMARK INTER:                  -5.856
REMARK INTRA:                  -2.709
REMARK UNBOUND:                -2.825
REMARK SMILES CCCCCCCCCCCCCCCCCC(=O)[O-]
REMARK SMILES IDX 10 1 11 2 12 3 13 4 14 5 15 6 16 7 17 8 18 9 19 10 20 11
REMARK SMILES IDX 9 12 8 13 7 14 6 15 5 16 4 17 3 18 2 19 1 20
REMARK H PARENT
REMARK Flexibility Score: inf
ROOT
ATOM      1  C   UNL     1      55.374  28.918  50.835  1.00  0.00     0.000 C 
ENDROOT
BRANCH   1   2
ATOM      2  C   UNL     1      56.243  28.786  52.098  1.00  0.00     0.000 C 
BRANCH   2   3
ATOM      3  C   UNL     1      57.649  28.195  51.868  1.00  0.00     0.000 C 
BRANCH   3   4
ATOM      4  C   UNL     1      58.517  28.941  50.838  1.00  0.00     0.000 C 
BRANCH   4   5
ATOM      5  C   UNL     1      58.874  28.076  49.617  1.00  0.00     0.000 C 
BRANCH   5   6
ATOM      6  C   UNL     1      59.674  26.816  49.990  1.00  0.00     0.000 C 
BRANCH   6   7
ATOM      7  C   UNL     1      58.892  25.490  49.904  1.00  0.00     0.006 C 
BRANCH   7   8
ATOM      8  C   UNL     1      58.798  24.715  51.227  1.00  0.00     0.053 C 
BRANCH   8   9
ATOM      9  C   UNL     1      59.678  23.503  51.230  1.00  0.00     0.041 C 
ATOM     10  O   UNL     1      59.786  22.802  52.270  1.00  0.00    -0.550 OA
ATOM     11  O   UNL     1      60.407  23.167  50.096  1.00  0.00    -0.550 OA
ENDBRANCH   8   9
ENDBRANCH   7   8
ENDBRANCH   6   7
ENDBRANCH   5   6
ENDBRANCH   4   5
ENDBRANCH   3   4
ENDBRANCH   2   3
ENDBRANCH   1   2
BRANCH   1  12
ATOM     12  C   UNL     1      53.873  28.767  51.125  1.00  0.00     0.000 C 
BRANCH  12  13
ATOM     13  C   UNL     1      53.175  27.979  50.010  1.00  0.00    -0.000 C 
BRANCH  13  14
ATOM     14  C   UNL     1      53.001  26.507  50.401  1.00  0.00    -0.000 C 
BRANCH  14  15
ATOM     15  C   UNL     1      54.035  25.622  49.687  1.00  0.00    -0.000 C 
BRANCH  15  16
ATOM     16  C   UNL     1      55.218  25.242  50.593  1.00  0.00    -0.000 C 
BRANCH  16  17
ATOM     17  C   UNL     1      54.764  24.765  51.983  1.00  0.00    -0.000 C 
BRANCH  17  18
ATOM     18  C   UNL     1      55.641  25.320  53.121  1.00  0.00    -0.000 C 
BRANCH  18  19
ATOM     19  C   UNL     1      54.889  26.151  54.177  1.00  0.00    -0.003 C 
ATOM     20  C   UNL     1      53.378  26.186  53.947  1.00  0.00     0.004 C 
ENDBRANCH  18  19
ENDBRANCH  17  18
ENDBRANCH  16  17
ENDBRANCH  15  16
ENDBRANCH  14  15
ENDBRANCH  13  14
ENDBRANCH  12  13
ENDBRANCH   1  12
TORSDOF 16
ENDMDL
MODEL 8
REMARK VINA RESULT:    -2.958      3.330      6.233
REMARK INTER + INTRA:          -8.549
REMARK INTER:                  -5.542
REMARK INTRA:                  -3.008
REMARK UNBOUND:                -2.825
REMARK SMILES CCCCCCCCCCCCCCCCCC(=O)[O-]
REMARK SMILES IDX 10 1 11 2 12 3 13 4 14 5 15 6 16 7 17 8 18 9 19 10 20 11
REMARK SMILES IDX 9 12 8 13 7 14 6 15 5 16 4 17 3 18 2 19 1 20
REMARK H PARENT
REMARK Flexibility Score: inf
ROOT
ATOM      1  C   UNL     1      61.465  31.152  60.196  1.00  0.00     0.000 C 
ENDROOT
BRANCH   1   2
ATOM      2  C   UNL     1      62.520  32.033  60.890  1.00  0.00     0.000 C 
BRANCH   2   3
ATOM      3  C   UNL     1      63.374  32.901  59.943  1.00  0.00     0.000 C 
BRANCH   3   4
ATOM      4  C   UNL     1      64.193  34.012  60.626  1.00  0.00     0.000 C 
BRANCH   4   5
ATOM      5  C   UNL     1      63.630  35.419  60.360  1.00  0.00     0.000 C 
BRANCH   5   6
ATOM      6  C   UNL     1      62.410  35.751  61.237  1.00  0.00     0.000 C 
BRANCH   6   7
ATOM      7  C   UNL     1      61.096  36.000  60.470  1.00  0.00     0.006 C 
BRANCH   7   8
ATOM      8  C   UNL     1      60.103  34.827  60.504  1.00  0.00     0.053 C 
BRANCH   8   9
ATOM      9  C   UNL     1      59.856  34.261  59.140  1.00  0.00     0.041 C 
ATOM     10  O   UNL     1      58.811  33.599  58.909  1.00  0.00    -0.550 OA
ATOM     11  O   UNL     1      60.797  34.435  58.132  1.00  0.00    -0.550 OA
ENDBRANCH   8   9
ENDBRANCH   7   8
ENDBRANCH   6   7
ENDBRANCH   5   6
ENDBRANCH   4   5
ENDBRANCH   3   4
ENDBRANCH   2   3
ENDBRANCH   1   2
BRANCH   1  12
ATOM     12  C   UNL     1      61.124  29.887  60.998  1.00  0.00     0.000 C 
BRANCH  12  13
ATOM     13  C   UNL     1      62.378  29.302  61.658  1.00  0.00    -0.000 C 
BRANCH  13  14
ATOM     14  C   UNL     1      62.782  27.978  60.998  1.00  0.00    -0.000 C 
BRANCH  14  15
ATOM     15  C   UNL     1      64.279  27.973  60.648  1.00  0.00    -0.000 C 
BRANCH  15  16
ATOM     16  C   UNL     1      64.979  29.291  61.019  1.00  0.00    -0.000 C 
BRANCH  16  17
ATOM     17  C   UNL     1      65.542  30.024  59.789  1.00  0.00    -0.000 C 
BRANCH  17  18
ATOM     18  C   UNL     1      65.185  29.328  58.463  1.00  0.00    -0.000 C 
BRANCH  18  19
ATOM     19  C   UNL     1      64.118  30.046  57.617  1.00  0.00    -0.003 C 
ATOM     20  C   UNL     1      62.863  29.202  57.394  1.00  0.00     0.004 C 
ENDBRANCH  18  19
ENDBRANCH  17  18
ENDBRANCH  16  17
ENDBRANCH  15  16
ENDBRANCH  14  15
ENDBRANCH  13  14
ENDBRANCH  12  13
ENDBRANCH   1  12
TORSDOF 16
ENDMDL
MODEL 9
REMARK VINA RESULT:    -2.906      2.558      4.587
REMARK INTER + INTRA:          -8.449
REMARK INTER:                  -5.770
REMARK INTRA:                  -2.679
REMARK UNBOUND:                -2.825
REMARK SMILES CCCCCCCCCCCCCCCCCC(=O)[O-]
REMARK SMILES IDX 10 1 11 2 12 3 13 4 14 5 15 6 16 7 17 8 18 9 19 10 20 11
REMARK SMILES IDX 9 12 8 13 7 14 6 15 5 16 4 17 3 18 2 19 1 20
REMARK H PARENT
REMARK Flexibility Score: inf
ROOT
ATOM      1  C   UNL     1      61.476  35.841  60.876  1.00  0.00     0.000 C 
ENDROOT
BRANCH   1   2
ATOM      2  C   UNL     1      62.935  35.969  60.404  1.00  0.00     0.000 C 
BRANCH   2   3
ATOM      3  C   UNL     1      63.993  35.916  61.526  1.00  0.00     0.000 C 
BRANCH   3   4
ATOM      4  C   UNL     1      64.731  34.573  61.673  1.00  0.00     0.000 C 
BRANCH   4   5
ATOM      5  C   UNL     1      64.422  33.592  60.530  1.00  0.00     0.000 C 
BRANCH   5   6
ATOM      6  C   UNL     1      64.088  32.175  61.030  1.00  0.00     0.000 C 
BRANCH   6   7
ATOM      7  C   UNL     1      62.898  31.492  60.325  1.00  0.00     0.006 C 
BRANCH   7   8
ATOM      8  C   UNL     1      61.773  31.037  61.266  1.00  0.00     0.053 C 
BRANCH   8   9
ATOM      9  C   UNL     1      61.558  29.556  61.209  1.00  0.00     0.041 C 
ATOM     10  O   UNL     1      62.399  28.774  61.723  1.00  0.00    -0.550 OA
ATOM     11  O   UNL     1      60.445  29.038  60.558  1.00  0.00    -0.550 OA
ENDBRANCH   8   9
ENDBRANCH   7   8
ENDBRANCH   6   7
ENDBRANCH   5   6
ENDBRANCH   4   5
ENDBRANCH   3   4
ENDBRANCH   2   3
ENDBRANCH   1   2
BRANCH   1  12
ATOM     12  C   UNL     1      60.845  34.491  60.504  1.00  0.00     0.000 C 
BRANCH  12  13
ATOM     13  C   UNL     1      59.370  34.661  60.123  1.00  0.00    -0.000 C 
BRANCH  13  14
ATOM     14  C   UNL     1      59.226  35.149  58.676  1.00  0.00    -0.000 C 
BRANCH  14  15
ATOM     15  C   UNL     1      58.721  34.020  57.764  1.00  0.00    -0.000 C 
BRANCH  15  16
ATOM     16  C   UNL     1      58.761  32.643  58.446  1.00  0.00    -0.000 C 
BRANCH  16  17
ATOM     17  C   UNL     1      59.945  31.785  57.970  1.00  0.00    -0.000 C 
BRANCH  17  18
ATOM     18  C   UNL     1      60.684  32.400  56.767  1.00  0.00    -0.000 C 
BRANCH  18  19
ATOM     19  C   UNL     1      62.199  32.592  56.963  1.00  0.00    -0.003 C 
ATOM     20  C   UNL     1      62.587  34.042  57.251  1.00  0.00     0.004 C 
ENDBRANCH  18  19
ENDBRANCH  17  18
ENDBRANCH  16  17
ENDBRANCH  15  16
ENDBRANCH  14  15
ENDBRANCH  13  14
ENDBRANCH  12  13
ENDBRANCH   1  12
TORSDOF 16
ENDMDL
