MODEL 1
REMARK VINA RESULT:    -3.191      0.000      0.000
REMARK INTER + INTRA:          -7.226
REMARK INTER:                  -5.429
REMARK INTRA:                  -1.796
REMARK UNBOUND:                -1.796
REMARK SMILES CCCCCCCCCCCCCC(=O)[O-]
REMARK SMILES IDX 8 1 9 2 10 3 11 4 12 5 13 6 14 7 15 8 16 9 7 10 6 11 5 12
REMARK SMILES IDX 4 13 3 14 2 15 1 16
REMARK H PARENT
REMARK Flexibility Score: inf
ROOT
ATOM      1  C   UNL     1      64.085  32.987  60.498  1.00  0.00     0.000 C 
ENDROOT
BRANCH   1   2
ATOM      2  C   UNL     1      64.444  34.346  61.117  1.00  0.00     0.000 C 
BRANCH   2   3
ATOM      3  C   UNL     1      63.896  35.530  60.302  1.00  0.00     0.000 C 
BRANCH   3   4
ATOM      4  C   UNL     1      63.166  36.561  61.176  1.00  0.00     0.000 C 
BRANCH   4   5
ATOM      5  C   UNL     1      61.830  37.017  60.561  1.00  0.00     0.006 C 
BRANCH   5   6
ATOM      6  C   UNL     1      60.856  35.850  60.363  1.00  0.00     0.053 C 
BRANCH   6   7
ATOM      7  C   UNL     1      60.372  35.765  58.947  1.00  0.00     0.041 C 
ATOM      8  O   UNL     1      59.139  35.803  58.695  1.00  0.00    -0.550 OA
ATOM      9  O   UNL     1      61.286  35.680  57.904  1.00  0.00    -0.550 OA
ENDBRANCH   6   7
ENDBRANCH   5   6
ENDBRANCH   4   5
ENDBRANCH   3   4
ENDBRANCH   2   3
ENDBRANCH   1   2
BRANCH   1  10
ATOM     10  C   UNL     1      63.383  33.128  59.135  1.00  0.00     0.000 C 
BRANCH  10  11
ATOM     11  C   UNL     1      62.046  32.372  59.081  1.00  0.00    -0.000 C 
BRANCH  11  12
ATOM     12  C   UNL     1      61.362  32.283  60.456  1.00  0.00    -0.000 C 
BRANCH  12  13
ATOM     13  C   UNL     1      61.018  30.839  60.853  1.00  0.00    -0.000 C 
BRANCH  13  14
ATOM     14  C   UNL     1      61.989  29.813  60.250  1.00  0.00    -0.000 C 
BRANCH  14  15
ATOM     15  C   UNL     1      63.122  29.488  61.231  1.00  0.00    -0.003 C 
ATOM     16  C   UNL     1      64.438  29.254  60.495  1.00  0.00     0.004 C 
ENDBRANCH  14  15
ENDBRANCH  13  14
ENDBRANCH  12  13
ENDBRANCH  11  12
ENDBRANCH  10  11
ENDBRANCH   1  10
TORSDOF 12
ENDMDL
MODEL 2
REMARK VINA RESULT:    -3.185      2.165      4.109
REMARK INTER + INTRA:          -7.216
REMARK INTER:                  -5.423
REMARK INTRA:                  -1.794
REMARK UNBOUND:                -1.796
REMARK SMILES CCCCCCCCCCCCCC(=O)[O-]
REMARK SMILES IDX 8 1 9 2 10 3 11 4 12 5 13 6 14 7 15 8 16 9 7 10 6 11 5 12
REMARK SMILES IDX 4 13 3 14 2 15 1 16
REMARK H PARENT
REMARK Flexibility Score: inf
ROOT
ATOM      1  C   UNL     1      60.767  30.697  61.367  1.00  0.00     0.000 C 
ENDROOT
BRANCH   1   2
ATOM      2  C   UNL     1      60.551  30.781  59.848  1.00  0.00     0.000 C 
BRANCH   2   3
ATOM      3  C   UNL     1      61.140  32.066  59.238  1.00  0.00     0.000 C 
BRANCH   3   4
ATOM      4  C   UNL     1      61.546  33.093  60.305  1.00  0.00     0.000 C 
BRANCH   4   5
ATOM      5  C   UNL     1      61.918  34.458  59.699  1.00  0.00     0.006 C 
BRANCH   5   6
ATOM      6  C   UNL     1      62.530  35.405  60.739  1.00  0.00     0.053 C 
BRANCH   6   7
ATOM      7  C   UNL     1      64.028  35.364  60.713  1.00  0.00     0.041 C 
ATOM      8  O   UNL     1      64.655  34.609  61.502  1.00  0.00    -0.550 OA
ATOM      9  O   UNL     1      64.729  36.133  59.793  1.00  0.00    -0.550 OA
ENDBRANCH   6   7
ENDBRANCH   5   6
ENDBRANCH   4   5
ENDBRANCH   3   4
ENDBRANCH   2   3
ENDBRANCH   1   2
BRANCH   1  10
ATOM     10  C   UNL     1      61.866  29.691  61.752  1.00  0.00     0.000 C 
BRANCH  10  11
ATOM     11  C   UNL     1      61.889  28.462  60.829  1.00  0.00    -0.000 C 
BRANCH  11  12
ATOM     12  C   UNL     1      63.316  28.061  60.416  1.00  0.00    -0.000 C 
BRANCH  12  13
ATOM     13  C   UNL     1      64.321  29.213  60.569  1.00  0.00    -0.000 C 
BRANCH  13  14
ATOM     14  C   UNL     1      64.398  30.101  59.318  1.00  0.00    -0.000 C 
BRANCH  14  15
ATOM     15  C   UNL     1      64.776  31.540  59.690  1.00  0.00    -0.003 C 
ATOM     16  C   UNL     1      64.847  32.429  58.452  1.00  0.00     0.004 C 
ENDBRANCH  14  15
ENDBRANCH  13  14
ENDBRANCH  12  13
ENDBRANCH  11  12
ENDBRANCH  10  11
ENDBRANCH   1  10
TORSDOF 12
ENDMDL
MODEL 3
REMARK VINA RESULT:    -3.166      2.958      5.584
REMARK INTER + INTRA:          -7.183
REMARK INTER:                  -5.194
REMARK INTRA:                  -1.990
REMARK UNBOUND:                -1.796
REMARK SMILES CCCCCCCCCCCCCC(=O)[O-]
REMARK SMILES IDX 8 1 9 2 10 3 11 4 12 5 13 6 14 7 15 8 16 9 7 10 6 11 5 12
REMARK SMILES IDX 4 13 3 14 2 15 1 16
REMARK H PARENT
REMARK Flexibility Score: inf
ROOT
ATOM      1  C   UNL     1      62.205  36.396  60.573  1.00  0.00     0.000 C 
ENDROOT
BRANCH   1   2
ATOM      2  C   UNL     1      61.912  34.889  60.638  1.00  0.00     0.000 C 
BRANCH   2   3
ATOM      3  C   UNL     1      61.245  34.362  59.354  1.00  0.00     0.000 C 
BRANCH   3   4
ATOM      4  C   UNL     1      61.558  32.881  59.092  1.00  0.00     0.000 C 
BRANCH   4   5
ATOM      5  C   UNL     1      62.371  32.238  60.231  1.00  0.00     0.006 C 
BRANCH   5   6
ATOM      6  C   UNL     1      62.405  30.709  60.125  1.00  0.00     0.053 C 
BRANCH   6   7
ATOM      7  C   UNL     1      61.574  30.061  61.190  1.00  0.00     0.041 C 
ATOM      8  O   UNL     1      60.738  30.740  61.843  1.00  0.00    -0.550 OA
ATOM      9  O   UNL     1      61.697  28.699  61.437  1.00  0.00    -0.550 OA
ENDBRANCH   6   7
ENDBRANCH   5   6
ENDBRANCH   4   5
ENDBRANCH   3   4
ENDBRANCH   2   3
ENDBRANCH   1   2
BRANCH   1  10
ATOM     10  C   UNL     1      63.591  36.750  61.140  1.00  0.00     0.000 C 
BRANCH  10  11
ATOM     11  C   UNL     1      64.502  35.520  61.282  1.00  0.00    -0.000 C 
BRANCH  11  12
ATOM     12  C   UNL     1      65.897  35.745  60.672  1.00  0.00    -0.000 C 
BRANCH  12  13
ATOM     13  C   UNL     1      65.900  35.613  59.141  1.00  0.00    -0.000 C 
BRANCH  13  14
ATOM     14  C   UNL     1      65.086  34.407  58.650  1.00  0.00    -0.000 C 
BRANCH  14  15
ATOM     15  C   UNL     1      64.234  34.781  57.431  1.00  0.00    -0.003 C 
ATOM     16  C   UNL     1      63.986  36.285  57.372  1.00  0.00     0.004 C 
ENDBRANCH  14  15
ENDBRANCH  13  14
ENDBRANCH  12  13
ENDBRANCH  11  12
ENDBRANCH  10  11
ENDBRANCH   1  10
TORSDOF 12
ENDMDL
MODEL 4
REMARK VINA RESULT:    -3.151      3.270      6.164
REMARK INTER + INTRA:          -7.158
REMARK INTER:                  -5.970
REMARK INTRA:                  -1.188
REMARK UNBOUND:                -1.796
REMARK SMILES CCCCCCCCCCCCCC(=O)[O-]
REMARK SMILES IDX 8 1 9 2 10 3 11 4 12 5 13 6 14 7 15 8 16 9 7 10 6 11 5 12
REMARK SMILES IDX 4 13 3 14 2 15 1 16
REMARK H PARENT
REMARK Flexibility Score: inf
ROOT
ATOM      1  C   UNL     1      61.769  32.500  58.735  1.00  0.00     0.000 C 
ENDROOT
BRANCH   1   2
ATOM      2  C   UNL     1      60.377  31.865  58.874  1.00  0.00     0.000 C 
BRANCH   2   3
ATOM      3  C   UNL     1      60.383  30.621  59.781  1.00  0.00     0.000 C 
BRANCH   3   4
ATOM      4  C   UNL     1      61.113  30.864  61.110  1.00  0.00     0.000 C 
BRANCH   4   5
ATOM      5  C   UNL     1      62.193  29.804  61.393  1.00  0.00     0.006 C 
BRANCH   5   6
ATOM      6  C   UNL     1      63.609  30.343  61.160  1.00  0.00     0.053 C 
BRANCH   6   7
ATOM      7  C   UNL     1      64.528  29.280  60.640  1.00  0.00     0.041 C 
ATOM      8  O   UNL     1      65.697  29.575  60.275  1.00  0.00    -0.550 OA
ATOM      9  O   UNL     1      64.106  27.958  60.593  1.00  0.00    -0.550 OA
ENDBRANCH   6   7
ENDBRANCH   5   6
ENDBRANCH   4   5
ENDBRANCH   3   4
ENDBRANCH   2   3
ENDBRANCH   1   2
BRANCH   1  10
ATOM     10  C   UNL     1      61.749  34.020  58.970  1.00  0.00     0.000 C 
BRANCH  10  11
ATOM     11  C   UNL     1      61.955  34.391  60.447  1.00  0.00    -0.000 C 
BRANCH  11  12
ATOM     12  C   UNL     1      61.954  35.912  60.680  1.00  0.00    -0.000 C 
BRANCH  12  13
ATOM     13  C   UNL     1      63.343  36.452  61.054  1.00  0.00    -0.000 C 
BRANCH  13  14
ATOM     14  C   UNL     1      64.361  35.334  61.319  1.00  0.00    -0.000 C 
BRANCH  14  15
ATOM     15  C   UNL     1      65.698  35.634  60.629  1.00  0.00    -0.003 C 
ATOM     16  C   UNL     1      65.553  35.606  59.111  1.00  0.00     0.004 C 
ENDBRANCH  14  15
ENDBRANCH  13  14
ENDBRANCH  12  13
ENDBRANCH  11  12
ENDBRANCH  10  11
ENDBRANCH   1  10
TORSDOF 12
ENDMDL
MODEL 5
REMARK VINA RESULT:    -3.146      3.200      6.076
REMARK INTER + INTRA:          -7.149
REMARK INTER:                  -5.666
REMARK INTRA:                  -1.483
REMARK UNBOUND:                -1.796
REMARK SMILES CCCCCCCCCCCCCC(=O)[O-]
REMARK SMILES IDX 8 1 9 2 10 3 11 4 12 5 13 6 14 7 15 8 16 9 7 10 6 11 5 12
REMARK SMILES IDX 4 13 3 14 2 15 1 16
REMARK H PARENT
REMARK Flexibility Score: inf
ROOT
ATOM      1  C   UNL     1      64.281  33.239  59.689  1.00  0.00     0.000 C 
ENDROOT
BRANCH   1   2
ATOM      2  C   UNL     1      62.869  32.866  59.212  1.00  0.00     0.000 C 
BRANCH   2   3
ATOM      3  C   UNL     1      61.894  32.631  60.380  1.00  0.00     0.000 C 
BRANCH   3   4
ATOM      4  C   UNL     1      60.839  31.562  60.062  1.00  0.00     0.000 C 
BRANCH   4   5
ATOM      5  C   UNL     1      60.880  30.380  61.047  1.00  0.00     0.006 C 
BRANCH   5   6
ATOM      6  C   UNL     1      62.315  29.972  61.402  1.00  0.00     0.053 C 
BRANCH   6   7
ATOM      7  C   UNL     1      62.561  28.518  61.136  1.00  0.00     0.041 C 
ATOM      8  O   UNL     1      61.659  27.671  61.369  1.00  0.00    -0.550 OA
ATOM      9  O   UNL     1      63.773  28.105  60.599  1.00  0.00    -0.550 OA
ENDBRANCH   6   7
ENDBRANCH   5   6
ENDBRANCH   4   5
ENDBRANCH   3   4
ENDBRANCH   2   3
ENDBRANCH   1   2
BRANCH   1  10
ATOM     10  C   UNL     1      64.267  34.023  61.013  1.00  0.00     0.000 C 
BRANCH  10  11
ATOM     11  C   UNL     1      65.075  35.328  60.933  1.00  0.00    -0.000 C 
BRANCH  11  12
ATOM     12  C   UNL     1      64.176  36.574  60.849  1.00  0.00    -0.000 C 
BRANCH  12  13
ATOM     13  C   UNL     1      62.684  36.237  60.994  1.00  0.00    -0.000 C 
BRANCH  13  14
ATOM     14  C   UNL     1      61.880  36.558  59.725  1.00  0.00    -0.000 C 
BRANCH  14  15
ATOM     15  C   UNL     1      60.458  35.993  59.820  1.00  0.00    -0.003 C 
ATOM     16  C   UNL     1      60.044  35.318  58.516  1.00  0.00     0.004 C 
ENDBRANCH  14  15
ENDBRANCH  13  14
ENDBRANCH  12  13
ENDBRANCH  11  12
ENDBRANCH  10  11
ENDBRANCH   1  10
TORSDOF 12
ENDMDL
MODEL 6
REMARK VINA RESULT:    -3.146     10.783     12.548
REMARK INTER + INTRA:          -7.149
REMARK INTER:                  -5.093
REMARK INTRA:                  -2.056
REMARK UNBOUND:                -1.796
REMARK SMILES CCCCCCCCCCCCCC(=O)[O-]
REMARK SMILES IDX 8 1 9 2 10 3 11 4 12 5 13 6 14 7 15 8 16 9 7 10 6 11 5 12
REMARK SMILES IDX 4 13 3 14 2 15 1 16
REMARK H PARENT
REMARK Flexibility Score: inf
ROOT
ATOM      1  C   UNL     1      60.239  26.122  49.575  1.00  0.00     0.000 C 
ENDROOT
BRANCH   1   2
ATOM      2  C   UNL     1      58.751  25.862  49.852  1.00  0.00     0.000 C 
BRANCH   2   3
ATOM      3  C   UNL     1      58.375  26.095  51.327  1.00  0.00     0.000 C 
BRANCH   3   4
ATOM      4  C   UNL     1      56.997  26.755  51.487  1.00  0.00     0.000 C 
BRANCH   4   5
ATOM      5  C   UNL     1      56.367  27.144  50.138  1.00  0.00     0.006 C 
BRANCH   5   6
ATOM      6  C   UNL     1      55.550  28.438  50.232  1.00  0.00     0.053 C 
BRANCH   6   7
ATOM      7  C   UNL     1      54.148  28.245  49.739  1.00  0.00     0.041 C 
ATOM      8  O   UNL     1      53.338  29.209  49.738  1.00  0.00    -0.550 OA
ATOM      9  O   UNL     1      53.748  27.009  49.247  1.00  0.00    -0.550 OA
ENDBRANCH   6   7
ENDBRANCH   5   6
ENDBRANCH   4   5
ENDBRANCH   3   4
ENDBRANCH   2   3
ENDBRANCH   1   2
BRANCH   1  10
ATOM     10  C   UNL     1      60.639  27.585  49.835  1.00  0.00     0.000 C 
BRANCH  10  11
ATOM     11  C   UNL     1      59.947  28.565  48.875  1.00  0.00    -0.000 C 
BRANCH  11  12
ATOM     12  C   UNL     1      59.065  29.589  49.610  1.00  0.00    -0.000 C 
BRANCH  12  13
ATOM     13  C   UNL     1      59.482  29.783  51.076  1.00  0.00    -0.000 C 
BRANCH  13  14
ATOM     14  C   UNL     1      58.308  30.195  51.976  1.00  0.00    -0.000 C 
BRANCH  14  15
ATOM     15  C   UNL     1      58.713  30.166  53.454  1.00  0.00    -0.003 C 
ATOM     16  C   UNL     1      59.028  28.745  53.912  1.00  0.00     0.004 C 
ENDBRANCH  14  15
ENDBRANCH  13  14
ENDBRANCH  12  13
ENDBRANCH  11  12
ENDBRANCH  10  11
ENDBRANCH   1  10
TORSDOF 12
ENDMDL
MODEL 7
REMARK VINA RESULT:    -3.111      1.911      3.347
REMARK INTER + INTRA:          -7.089
REMARK INTER:                  -5.261
REMARK INTRA:                  -1.828
REMARK UNBOUND:                -1.796
REMARK SMILES CCCCCCCCCCCCCC(=O)[O-]
REMARK SMILES IDX 8 1 9 2 10 3 11 4 12 5 13 6 14 7 15 8 16 9 7 10 6 11 5 12
REMARK SMILES IDX 4 13 3 14 2 15 1 16
REMARK H PARENT
REMARK Flexibility Score: inf
ROOT
ATOM      1  C   UNL     1      61.843  34.309  60.359  1.00  0.00     0.000 C 
ENDROOT
BRANCH   1   2
ATOM      2  C   UNL     1      61.282  35.737  60.271  1.00  0.00     0.000 C 
BRANCH   2   3
ATOM      3  C   UNL     1      62.252  36.789  60.838  1.00  0.00     0.000 C 
BRANCH   3   4
ATOM      4  C   UNL     1      63.576  36.173  61.317  1.00  0.00     0.000 C 
BRANCH   4   5
ATOM      5  C   UNL     1      64.801  36.790  60.620  1.00  0.00     0.006 C 
BRANCH   5   6
ATOM      6  C   UNL     1      65.717  35.722  60.009  1.00  0.00     0.053 C 
BRANCH   6   7
ATOM      7  C   UNL     1      65.372  35.449  58.577  1.00  0.00     0.041 C 
ATOM      8  O   UNL     1      65.928  34.503  57.960  1.00  0.00    -0.550 OA
ATOM      9  O   UNL     1      64.409  36.218  57.935  1.00  0.00    -0.550 OA
ENDBRANCH   6   7
ENDBRANCH   5   6
ENDBRANCH   4   5
ENDBRANCH   3   4
ENDBRANCH   2   3
ENDBRANCH   1   2
BRANCH   1  10
ATOM     10  C   UNL     1      62.122  33.700  58.974  1.00  0.00     0.000 C 
BRANCH  10  11
ATOM     11  C   UNL     1      63.149  32.558  59.029  1.00  0.00    -0.000 C 
BRANCH  11  12
ATOM     12  C   UNL     1      63.775  32.394  60.425  1.00  0.00    -0.000 C 
BRANCH  12  13
ATOM     13  C   UNL     1      64.203  30.947  60.714  1.00  0.00    -0.000 C 
BRANCH  13  14
ATOM     14  C   UNL     1      63.054  29.943  60.537  1.00  0.00    -0.000 C 
BRANCH  14  15
ATOM     15  C   UNL     1      61.958  30.175  61.584  1.00  0.00    -0.003 C 
ATOM     16  C   UNL     1      60.618  30.479  60.921  1.00  0.00     0.004 C 
ENDBRANCH  14  15
ENDBRANCH  13  14
ENDBRANCH  12  13
ENDBRANCH  11  12
ENDBRANCH  10  11
ENDBRANCH   1  10
TORSDOF 12
ENDMDL
MODEL 8
REMARK VINA RESULT:    -3.089      2.193      3.489
REMARK INTER + INTRA:          -7.053
REMARK INTER:                  -5.115
REMARK INTRA:                  -1.937
REMARK UNBOUND:                -1.796
REMARK SMILES CCCCCCCCCCCCCC(=O)[O-]
REMARK SMILES IDX 8 1 9 2 10 3 11 4 12 5 13 6 14 7 15 8 16 9 7 10 6 11 5 12
REMARK SMILES IDX 4 13 3 14 2 15 1 16
REMARK H PARENT
REMARK Flexibility Score: inf
ROOT
ATOM      1  C   UNL     1      61.860  31.448  58.001  1.00  0.00     0.000 C 
ENDROOT
BRANCH   1   2
ATOM      2  C   UNL     1      62.572  32.773  58.312  1.00  0.00     0.000 C 
BRANCH   2   3
ATOM      3  C   UNL     1      61.664  33.772  59.051  1.00  0.00     0.000 C 
BRANCH   3   4
ATOM      4  C   UNL     1      62.168  34.094  60.466  1.00  0.00     0.000 C 
BRANCH   4   5
ATOM      5  C   UNL     1      63.653  33.736  60.660  1.00  0.00     0.006 C 
BRANCH   5   6
ATOM      6  C   UNL     1      64.449  34.890  61.281  1.00  0.00     0.053 C 
BRANCH   6   7
ATOM      7  C   UNL     1      65.164  35.695  60.239  1.00  0.00     0.041 C 
ATOM      8  O   UNL     1      66.421  35.673  60.172  1.00  0.00    -0.550 OA
ATOM      9  O   UNL     1      64.438  36.442  59.320  1.00  0.00    -0.550 OA
ENDBRANCH   6   7
ENDBRANCH   5   6
ENDBRANCH   4   5
ENDBRANCH   3   4
ENDBRANCH   2   3
ENDBRANCH   1   2
BRANCH   1  10
ATOM     10  C   UNL     1      60.455  31.374  58.625  1.00  0.00     0.000 C 
BRANCH  10  11
ATOM     11  C   UNL     1      60.333  30.253  59.670  1.00  0.00    -0.000 C 
BRANCH  11  12
ATOM     12  C   UNL     1      60.690  30.729  61.089  1.00  0.00    -0.000 C 
BRANCH  12  13
ATOM     13  C   UNL     1      62.085  30.265  61.534  1.00  0.00    -0.000 C 
BRANCH  13  14
ATOM     14  C   UNL     1      62.415  28.843  61.056  1.00  0.00    -0.000 C 
BRANCH  14  15
ATOM     15  C   UNL     1      63.853  28.762  60.528  1.00  0.00    -0.003 C 
ATOM     16  C   UNL     1      64.499  30.143  60.476  1.00  0.00     0.004 C 
ENDBRANCH  14  15
ENDBRANCH  13  14
ENDBRANCH  12  13
ENDBRANCH  11  12
ENDBRANCH  10  11
ENDBRANCH   1  10
TORSDOF 12
ENDMDL
MODEL 9
REMARK VINA RESULT:    -3.067      3.399      6.054
REMARK INTER + INTRA:          -7.015
REMARK INTER:                  -5.535
REMARK INTRA:                  -1.480
REMARK UNBOUND:                -1.796
REMARK SMILES CCCCCCCCCCCCCC(=O)[O-]
REMARK SMILES IDX 8 1 9 2 10 3 11 4 12 5 13 6 14 7 15 8 16 9 7 10 6 11 5 12
REMARK SMILES IDX 4 13 3 14 2 15 1 16
REMARK H PARENT
REMARK Flexibility Score: inf
ROOT
ATOM      1  C   UNL     1      61.153  33.600  58.913  1.00  0.00     0.000 C 
ENDROOT
BRANCH   1   2
ATOM      2  C   UNL     1      62.288  32.565  58.910  1.00  0.00     0.000 C 
BRANCH   2   3
ATOM      3  C   UNL     1      62.415  31.824  60.254  1.00  0.00     0.000 C 
BRANCH   3   4
ATOM      4  C   UNL     1      61.054  31.585  60.926  1.00  0.00     0.000 C 
BRANCH   4   5
ATOM      5  C   UNL     1      60.820  30.104  61.274  1.00  0.00     0.006 C 
BRANCH   5   6
ATOM      6  C   UNL     1      62.135  29.330  61.424  1.00  0.00     0.053 C 
BRANCH   6   7
ATOM      7  C   UNL     1      62.016  27.929  60.905  1.00  0.00     0.041 C 
ATOM      8  O   UNL     1      61.900  26.964  61.706  1.00  0.00    -0.550 OA
ATOM      9  O   UNL     1      61.997  27.694  59.536  1.00  0.00    -0.550 OA
ENDBRANCH   6   7
ENDBRANCH   5   6
ENDBRANCH   4   5
ENDBRANCH   3   4
ENDBRANCH   2   3
ENDBRANCH   1   2
BRANCH   1  10
ATOM     10  C   UNL     1      61.670  35.042  59.057  1.00  0.00     0.000 C 
BRANCH  10  11
ATOM     11  C   UNL     1      61.647  35.533  60.513  1.00  0.00    -0.000 C 
BRANCH  11  12
ATOM     12  C   UNL     1      63.000  36.114  60.961  1.00  0.00    -0.000 C 
BRANCH  12  13
ATOM     13  C   UNL     1      64.081  35.034  61.126  1.00  0.00    -0.000 C 
BRANCH  13  14
ATOM     14  C   UNL     1      65.478  35.531  60.726  1.00  0.00    -0.000 C 
BRANCH  14  15
ATOM     15  C   UNL     1      65.536  35.855  59.228  1.00  0.00    -0.003 C 
ATOM     16  C   UNL     1      65.385  34.593  58.384  1.00  0.00     0.004 C 
ENDBRANCH  14  15
ENDBRANCH  13  14
ENDBRANCH  12  13
ENDBRANCH  11  12
ENDBRANCH  10  11
ENDBRANCH   1  10
TORSDOF 12
ENDMDL
