MODEL 1
REMARK VINA RESULT:    -5.117      0.000      0.000
REMARK INTER + INTRA:         -10.265
REMARK INTER:                  -8.707
REMARK INTRA:                  -1.558
REMARK UNBOUND:                -1.558
REMARK SMILES CCCCCCCCCCCCCC(=O)[O-]
REMARK SMILES IDX 8 1 9 2 10 3 11 4 12 5 13 6 14 7 15 8 16 9 7 10 6 11 5 12
REMARK SMILES IDX 4 13 3 14 2 15 1 16
REMARK H PARENT
REMARK Flexibility Score: inf
ROOT
ATOM      1  C   UNL     1     -19.530  56.267  -2.664  1.00  0.00     0.000 C 
ENDROOT
BRANCH   1   2
ATOM      2  C   UNL     1     -18.265  56.689  -3.429  1.00  0.00     0.000 C 
BRANCH   2   3
ATOM      3  C   UNL     1     -17.117  55.681  -3.278  1.00  0.00     0.000 C 
BRANCH   3   4
ATOM      4  C   UNL     1     -17.528  54.514  -2.372  1.00  0.00     0.000 C 
BRANCH   4   5
ATOM      5  C   UNL     1     -16.658  54.466  -1.107  1.00  0.00     0.006 C 
BRANCH   5   6
ATOM      6  C   UNL     1     -17.403  54.983   0.131  1.00  0.00     0.053 C 
BRANCH   6   7
ATOM      7  C   UNL     1     -17.176  56.448   0.343  1.00  0.00     0.041 C 
ATOM      8  O   UNL     1     -18.155  57.225   0.494  1.00  0.00    -0.550 OA
ATOM      9  O   UNL     1     -15.882  56.949   0.407  1.00  0.00    -0.550 OA
ENDBRANCH   6   7
ENDBRANCH   5   6
ENDBRANCH   4   5
ENDBRANCH   3   4
ENDBRANCH   2   3
ENDBRANCH   1   2
BRANCH   1  10
ATOM     10  C   UNL     1     -20.822  56.653  -3.397  1.00  0.00     0.000 C 
BRANCH  10  11
ATOM     11  C   UNL     1     -21.858  55.525  -3.316  1.00  0.00    -0.000 C 
BRANCH  11  12
ATOM     12  C   UNL     1     -22.562  55.522  -1.950  1.00  0.00    -0.000 C 
BRANCH  12  13
ATOM     13  C   UNL     1     -22.720  54.108  -1.366  1.00  0.00    -0.000 C 
BRANCH  13  14
ATOM     14  C   UNL     1     -21.434  53.601  -0.689  1.00  0.00    -0.000 C 
BRANCH  14  15
ATOM     15  C   UNL     1     -20.649  52.623  -1.578  1.00  0.00    -0.003 C 
ATOM     16  C   UNL     1     -19.762  51.673  -0.774  1.00  0.00     0.004 C 
ENDBRANCH  14  15
ENDBRANCH  13  14
ENDBRANCH  12  13
ENDBRANCH  11  12
ENDBRANCH  10  11
ENDBRANCH   1  10
TORSDOF 12
ENDMDL
MODEL 2
REMARK VINA RESULT:    -4.963      2.134      4.936
REMARK INTER + INTRA:         -10.003
REMARK INTER:                  -8.502
REMARK INTRA:                  -1.500
REMARK UNBOUND:                -1.558
REMARK SMILES CCCCCCCCCCCCCC(=O)[O-]
REMARK SMILES IDX 8 1 9 2 10 3 11 4 12 5 13 6 14 7 15 8 16 9 7 10 6 11 5 12
REMARK SMILES IDX 4 13 3 14 2 15 1 16
REMARK H PARENT
REMARK Flexibility Score: inf
ROOT
ATOM      1  C   UNL     1     -19.416  55.771  -3.233  1.00  0.00     0.000 C 
ENDROOT
BRANCH   1   2
ATOM      2  C   UNL     1     -20.805  56.429  -3.263  1.00  0.00     0.000 C 
BRANCH   2   3
ATOM      3  C   UNL     1     -21.931  55.452  -2.896  1.00  0.00     0.000 C 
BRANCH   3   4
ATOM      4  C   UNL     1     -21.937  55.164  -1.389  1.00  0.00     0.000 C 
BRANCH   4   5
ATOM      5  C   UNL     1     -22.105  53.662  -1.115  1.00  0.00     0.006 C 
BRANCH   5   6
ATOM      6  C   UNL     1     -20.998  52.825  -1.769  1.00  0.00     0.053 C 
BRANCH   6   7
ATOM      7  C   UNL     1     -20.014  52.321  -0.759  1.00  0.00     0.041 C 
ATOM      8  O   UNL     1     -19.513  53.108   0.087  1.00  0.00    -0.550 OA
ATOM      9  O   UNL     1     -19.674  50.974  -0.732  1.00  0.00    -0.550 OA
ENDBRANCH   6   7
ENDBRANCH   5   6
ENDBRANCH   4   5
ENDBRANCH   3   4
ENDBRANCH   2   3
ENDBRANCH   1   2
BRANCH   1  10
ATOM     10  C   UNL     1     -18.301  56.719  -3.697  1.00  0.00     0.000 C 
BRANCH  10  11
ATOM     11  C   UNL     1     -16.974  56.389  -3.002  1.00  0.00    -0.000 C 
BRANCH  11  12
ATOM     12  C   UNL     1     -17.081  55.078  -2.207  1.00  0.00    -0.000 C 
BRANCH  12  13
ATOM     13  C   UNL     1     -16.974  55.293  -0.689  1.00  0.00    -0.000 C 
BRANCH  13  14
ATOM     14  C   UNL     1     -16.701  56.762  -0.318  1.00  0.00    -0.000 C 
BRANCH  14  15
ATOM     15  C   UNL     1     -17.797  57.353   0.583  1.00  0.00    -0.003 C 
ATOM     16  C   UNL     1     -19.126  56.608   0.467  1.00  0.00     0.004 C 
ENDBRANCH  14  15
ENDBRANCH  13  14
ENDBRANCH  12  13
ENDBRANCH  11  12
ENDBRANCH  10  11
ENDBRANCH   1  10
TORSDOF 12
ENDMDL
MODEL 3
REMARK VINA RESULT:    -4.927      2.377      5.525
REMARK INTER + INTRA:          -9.941
REMARK INTER:                  -8.489
REMARK INTRA:                  -1.451
REMARK UNBOUND:                -1.558
REMARK SMILES CCCCCCCCCCCCCC(=O)[O-]
REMARK SMILES IDX 8 1 9 2 10 3 11 4 12 5 13 6 14 7 15 8 16 9 7 10 6 11 5 12
REMARK SMILES IDX 4 13 3 14 2 15 1 16
REMARK H PARENT
REMARK Flexibility Score: inf
ROOT
ATOM      1  C   UNL     1     -17.349  55.753  -3.090  1.00  0.00     0.000 C 
ENDROOT
BRANCH   1   2
ATOM      2  C   UNL     1     -18.608  56.635  -3.123  1.00  0.00     0.000 C 
BRANCH   2   3
ATOM      3  C   UNL     1     -19.904  55.815  -3.186  1.00  0.00     0.000 C 
BRANCH   3   4
ATOM      4  C   UNL     1     -20.703  55.951  -1.884  1.00  0.00     0.000 C 
BRANCH   4   5
ATOM      5  C   UNL     1     -21.820  54.899  -1.810  1.00  0.00     0.006 C 
BRANCH   5   6
ATOM      6  C   UNL     1     -21.636  53.939  -0.628  1.00  0.00     0.053 C 
BRANCH   6   7
ATOM      7  C   UNL     1     -20.498  52.991  -0.854  1.00  0.00     0.041 C 
ATOM      8  O   UNL     1     -19.721  52.697   0.091  1.00  0.00    -0.550 OA
ATOM      9  O   UNL     1     -20.319  52.408  -2.102  1.00  0.00    -0.550 OA
ENDBRANCH   6   7
ENDBRANCH   5   6
ENDBRANCH   4   5
ENDBRANCH   3   4
ENDBRANCH   2   3
ENDBRANCH   1   2
BRANCH   1  10
ATOM     10  C   UNL     1     -17.457  54.605  -2.076  1.00  0.00     0.000 C 
BRANCH  10  11
ATOM     11  C   UNL     1     -16.692  54.935  -0.789  1.00  0.00    -0.000 C 
BRANCH  11  12
ATOM     12  C   UNL     1     -17.631  55.529   0.272  1.00  0.00    -0.000 C 
BRANCH  12  13
ATOM     13  C   UNL     1     -17.450  57.046   0.444  1.00  0.00    -0.000 C 
BRANCH  13  14
ATOM     14  C   UNL     1     -16.031  57.517   0.079  1.00  0.00    -0.000 C 
BRANCH  14  15
ATOM     15  C   UNL     1     -15.715  58.916   0.632  1.00  0.00    -0.003 C 
ATOM     16  C   UNL     1     -14.275  59.046   1.127  1.00  0.00     0.004 C 
ENDBRANCH  14  15
ENDBRANCH  13  14
ENDBRANCH  12  13
ENDBRANCH  11  12
ENDBRANCH  10  11
ENDBRANCH   1  10
TORSDOF 12
ENDMDL
MODEL 4
REMARK VINA RESULT:    -4.883      1.600      3.680
REMARK INTER + INTRA:          -9.867
REMARK INTER:                  -8.144
REMARK INTRA:                  -1.723
REMARK UNBOUND:                -1.558
REMARK SMILES CCCCCCCCCCCCCC(=O)[O-]
REMARK SMILES IDX 8 1 9 2 10 3 11 4 12 5 13 6 14 7 15 8 16 9 7 10 6 11 5 12
REMARK SMILES IDX 4 13 3 14 2 15 1 16
REMARK H PARENT
REMARK Flexibility Score: inf
ROOT
ATOM      1  C   UNL     1     -22.207  54.798   0.137  1.00  0.00     0.000 C 
ENDROOT
BRANCH   1   2
ATOM      2  C   UNL     1     -21.592  56.141  -0.291  1.00  0.00     0.000 C 
BRANCH   2   3
ATOM      3  C   UNL     1     -20.315  56.483   0.491  1.00  0.00     0.000 C 
BRANCH   3   4
ATOM      4  C   UNL     1     -19.067  56.256  -0.371  1.00  0.00     0.000 C 
BRANCH   4   5
ATOM      5  C   UNL     1     -17.914  55.685   0.469  1.00  0.00     0.006 C 
BRANCH   5   6
ATOM      6  C   UNL     1     -16.543  56.157  -0.032  1.00  0.00     0.053 C 
BRANCH   6   7
ATOM      7  C   UNL     1     -16.157  57.475   0.567  1.00  0.00     0.041 C 
ATOM      8  O   UNL     1     -16.638  57.833   1.674  1.00  0.00    -0.550 OA
ATOM      9  O   UNL     1     -15.240  58.291  -0.083  1.00  0.00    -0.550 OA
ENDBRANCH   6   7
ENDBRANCH   5   6
ENDBRANCH   4   5
ENDBRANCH   3   4
ENDBRANCH   2   3
ENDBRANCH   1   2
BRANCH   1  10
ATOM     10  C   UNL     1     -21.847  53.651  -0.817  1.00  0.00     0.000 C 
BRANCH  10  11
ATOM     11  C   UNL     1     -20.730  52.779  -0.231  1.00  0.00    -0.000 C 
BRANCH  11  12
ATOM     12  C   UNL     1     -19.642  52.501  -1.280  1.00  0.00    -0.000 C 
BRANCH  12  13
ATOM     13  C   UNL     1     -19.845  53.305  -2.575  1.00  0.00    -0.000 C 
BRANCH  13  14
ATOM     14  C   UNL     1     -18.541  53.943  -3.085  1.00  0.00    -0.000 C 
BRANCH  14  15
ATOM     15  C   UNL     1     -18.745  55.386  -3.573  1.00  0.00    -0.003 C 
ATOM     16  C   UNL     1     -17.427  56.126  -3.801  1.00  0.00     0.004 C 
ENDBRANCH  14  15
ENDBRANCH  13  14
ENDBRANCH  12  13
ENDBRANCH  11  12
ENDBRANCH  10  11
ENDBRANCH   1  10
TORSDOF 12
ENDMDL
MODEL 5
REMARK VINA RESULT:    -4.874      2.928      5.709
REMARK INTER + INTRA:          -9.852
REMARK INTER:                  -8.639
REMARK INTRA:                  -1.213
REMARK UNBOUND:                -1.558
REMARK SMILES CCCCCCCCCCCCCC(=O)[O-]
REMARK SMILES IDX 8 1 9 2 10 3 11 4 12 5 13 6 14 7 15 8 16 9 7 10 6 11 5 12
REMARK SMILES IDX 4 13 3 14 2 15 1 16
REMARK H PARENT
REMARK Flexibility Score: inf
ROOT
ATOM      1  C   UNL     1     -18.671  55.324  -3.094  1.00  0.00     0.000 C 
ENDROOT
BRANCH   1   2
ATOM      2  C   UNL     1     -18.634  53.787  -3.087  1.00  0.00     0.000 C 
BRANCH   2   3
ATOM      3  C   UNL     1     -19.930  53.167  -2.544  1.00  0.00     0.000 C 
BRANCH   3   4
ATOM      4  C   UNL     1     -19.682  52.464  -1.204  1.00  0.00     0.000 C 
BRANCH   4   5
ATOM      5  C   UNL     1     -20.778  52.814  -0.186  1.00  0.00     0.006 C 
BRANCH   5   6
ATOM      6  C   UNL     1     -21.450  54.158  -0.497  1.00  0.00     0.053 C 
BRANCH   6   7
ATOM      7  C   UNL     1     -22.842  54.224   0.054  1.00  0.00     0.041 C 
ATOM      8  O   UNL     1     -23.721  54.912  -0.527  1.00  0.00    -0.550 OA
ATOM      9  O   UNL     1     -23.174  53.498   1.191  1.00  0.00    -0.550 OA
ENDBRANCH   6   7
ENDBRANCH   5   6
ENDBRANCH   4   5
ENDBRANCH   3   4
ENDBRANCH   2   3
ENDBRANCH   1   2
BRANCH   1  10
ATOM     10  C   UNL     1     -17.539  55.947  -2.263  1.00  0.00     0.000 C 
BRANCH  10  11
ATOM     11  C   UNL     1     -16.882  54.898  -1.356  1.00  0.00    -0.000 C 
BRANCH  11  12
ATOM     12  C   UNL     1     -16.593  55.479   0.036  1.00  0.00    -0.000 C 
BRANCH  12  13
ATOM     13  C   UNL     1     -17.496  56.674   0.382  1.00  0.00    -0.000 C 
BRANCH  13  14
ATOM     14  C   UNL     1     -16.714  57.849   0.994  1.00  0.00    -0.000 C 
BRANCH  14  15
ATOM     15  C   UNL     1     -15.473  58.223   0.168  1.00  0.00    -0.003 C 
ATOM     16  C   UNL     1     -14.452  59.036   0.965  1.00  0.00     0.004 C 
ENDBRANCH  14  15
ENDBRANCH  13  14
ENDBRANCH  12  13
ENDBRANCH  11  12
ENDBRANCH  10  11
ENDBRANCH   1  10
TORSDOF 12
ENDMDL
MODEL 6
REMARK VINA RESULT:    -4.868      1.022      3.323
REMARK INTER + INTRA:          -9.841
REMARK INTER:                  -7.917
REMARK INTRA:                  -1.923
REMARK UNBOUND:                -1.558
REMARK SMILES CCCCCCCCCCCCCC(=O)[O-]
REMARK SMILES IDX 8 1 9 2 10 3 11 4 12 5 13 6 14 7 15 8 16 9 7 10 6 11 5 12
REMARK SMILES IDX 4 13 3 14 2 15 1 16
REMARK H PARENT
REMARK Flexibility Score: inf
ROOT
ATOM      1  C   UNL     1     -21.883  53.636  -0.270  1.00  0.00     0.000 C 
ENDROOT
BRANCH   1   2
ATOM      2  C   UNL     1     -21.226  52.936  -1.470  1.00  0.00     0.000 C 
BRANCH   2   3
ATOM      3  C   UNL     1     -19.708  52.777  -1.304  1.00  0.00     0.000 C 
BRANCH   3   4
ATOM      4  C   UNL     1     -19.202  53.572  -0.094  1.00  0.00     0.000 C 
BRANCH   4   5
ATOM      5  C   UNL     1     -17.749  54.024  -0.301  1.00  0.00     0.006 C 
BRANCH   5   6
ATOM      6  C   UNL     1     -17.313  55.068   0.735  1.00  0.00     0.053 C 
BRANCH   6   7
ATOM      7  C   UNL     1     -17.593  56.464   0.269  1.00  0.00     0.041 C 
ATOM      8  O   UNL     1     -18.655  57.046   0.614  1.00  0.00    -0.550 OA
ATOM      9  O   UNL     1     -16.666  57.132  -0.520  1.00  0.00    -0.550 OA
ENDBRANCH   6   7
ENDBRANCH   5   6
ENDBRANCH   4   5
ENDBRANCH   3   4
ENDBRANCH   2   3
ENDBRANCH   1   2
BRANCH   1  10
ATOM     10  C   UNL     1     -22.789  54.803  -0.688  1.00  0.00     0.000 C 
BRANCH  10  11
ATOM     11  C   UNL     1     -21.966  56.070  -0.953  1.00  0.00    -0.000 C 
BRANCH  11  12
ATOM     12  C   UNL     1     -22.242  56.620  -2.361  1.00  0.00    -0.000 C 
BRANCH  12  13
ATOM     13  C   UNL     1     -21.112  56.304  -3.355  1.00  0.00    -0.000 C 
BRANCH  13  14
ATOM     14  C   UNL     1     -19.730  56.251  -2.680  1.00  0.00    -0.000 C 
BRANCH  14  15
ATOM     15  C   UNL     1     -18.700  55.470  -3.510  1.00  0.00    -0.003 C 
ATOM     16  C   UNL     1     -17.489  56.317  -3.904  1.00  0.00     0.004 C 
ENDBRANCH  14  15
ENDBRANCH  13  14
ENDBRANCH  12  13
ENDBRANCH  11  12
ENDBRANCH  10  11
ENDBRANCH   1  10
TORSDOF 12
ENDMDL
MODEL 7
REMARK VINA RESULT:    -4.755      2.838      5.413
REMARK INTER + INTRA:          -9.648
REMARK INTER:                  -7.723
REMARK INTRA:                  -1.926
REMARK UNBOUND:                -1.558
REMARK SMILES CCCCCCCCCCCCCC(=O)[O-]
REMARK SMILES IDX 8 1 9 2 10 3 11 4 12 5 13 6 14 7 15 8 16 9 7 10 6 11 5 12
REMARK SMILES IDX 4 13 3 14 2 15 1 16
REMARK H PARENT
REMARK Flexibility Score: inf
ROOT
ATOM      1  C   UNL     1     -20.810  55.615  -2.819  1.00  0.00     0.000 C 
ENDROOT
BRANCH   1   2
ATOM      2  C   UNL     1     -20.333  54.190  -2.495  1.00  0.00     0.000 C 
BRANCH   2   3
ATOM      3  C   UNL     1     -21.272  53.457  -1.526  1.00  0.00     0.000 C 
BRANCH   3   4
ATOM      4  C   UNL     1     -21.589  54.328  -0.304  1.00  0.00     0.000 C 
BRANCH   4   5
ATOM      5  C   UNL     1     -22.979  54.001   0.261  1.00  0.00     0.006 C 
BRANCH   5   6
ATOM      6  C   UNL     1     -23.920  55.212   0.225  1.00  0.00     0.053 C 
BRANCH   6   7
ATOM      7  C   UNL     1     -24.142  55.701  -1.174  1.00  0.00     0.041 C 
ATOM      8  O   UNL     1     -23.894  56.899  -1.473  1.00  0.00    -0.550 OA
ATOM      9  O   UNL     1     -24.592  54.825  -2.153  1.00  0.00    -0.550 OA
ENDBRANCH   6   7
ENDBRANCH   5   6
ENDBRANCH   4   5
ENDBRANCH   3   4
ENDBRANCH   2   3
ENDBRANCH   1   2
BRANCH   1  10
ATOM     10  C   UNL     1     -19.683  56.509  -3.356  1.00  0.00     0.000 C 
BRANCH  10  11
ATOM     11  C   UNL     1     -18.454  55.674  -3.735  1.00  0.00    -0.000 C 
BRANCH  11  12
ATOM     12  C   UNL     1     -17.157  56.382  -3.311  1.00  0.00    -0.000 C 
BRANCH  12  13
ATOM     13  C   UNL     1     -17.066  56.595  -1.791  1.00  0.00    -0.000 C 
BRANCH  13  14
ATOM     14  C   UNL     1     -17.061  55.270  -1.008  1.00  0.00    -0.000 C 
BRANCH  14  15
ATOM     15  C   UNL     1     -18.003  55.302   0.206  1.00  0.00    -0.003 C 
ATOM     16  C   UNL     1     -18.746  56.630   0.345  1.00  0.00     0.004 C 
ENDBRANCH  14  15
ENDBRANCH  13  14
ENDBRANCH  12  13
ENDBRANCH  11  12
ENDBRANCH  10  11
ENDBRANCH   1  10
TORSDOF 12
ENDMDL
MODEL 8
REMARK VINA RESULT:    -4.723      2.752      5.564
REMARK INTER + INTRA:          -9.595
REMARK INTER:                  -8.024
REMARK INTRA:                  -1.571
REMARK UNBOUND:                -1.558
REMARK SMILES CCCCCCCCCCCCCC(=O)[O-]
REMARK SMILES IDX 8 1 9 2 10 3 11 4 12 5 13 6 14 7 15 8 16 9 7 10 6 11 5 12
REMARK SMILES IDX 4 13 3 14 2 15 1 16
REMARK H PARENT
REMARK Flexibility Score: inf
ROOT
ATOM      1  C   UNL     1     -18.262  54.041  -2.768  1.00  0.00     0.000 C 
ENDROOT
BRANCH   1   2
ATOM      2  C   UNL     1     -19.612  53.318  -2.636  1.00  0.00     0.000 C 
BRANCH   2   3
ATOM      3  C   UNL     1     -20.085  53.207  -1.180  1.00  0.00     0.000 C 
BRANCH   3   4
ATOM      4  C   UNL     1     -21.161  54.255  -0.872  1.00  0.00     0.000 C 
BRANCH   4   5
ATOM      5  C   UNL     1     -21.801  54.784  -2.164  1.00  0.00     0.006 C 
BRANCH   5   6
ATOM      6  C   UNL     1     -21.732  56.313  -2.263  1.00  0.00     0.053 C 
BRANCH   6   7
ATOM      7  C   UNL     1     -23.070  56.946  -2.036  1.00  0.00     0.041 C 
ATOM      8  O   UNL     1     -23.219  58.187  -2.188  1.00  0.00    -0.550 OA
ATOM      9  O   UNL     1     -24.160  56.159  -1.687  1.00  0.00    -0.550 OA
ENDBRANCH   6   7
ENDBRANCH   5   6
ENDBRANCH   4   5
ENDBRANCH   3   4
ENDBRANCH   2   3
ENDBRANCH   1   2
BRANCH   1  10
ATOM     10  C   UNL     1     -18.349  55.304  -3.638  1.00  0.00     0.000 C 
BRANCH  10  11
ATOM     11  C   UNL     1     -17.966  56.552  -2.834  1.00  0.00    -0.000 C 
BRANCH  11  12
ATOM     12  C   UNL     1     -17.394  56.167  -1.460  1.00  0.00    -0.000 C 
BRANCH  12  13
ATOM     13  C   UNL     1     -18.241  56.700  -0.293  1.00  0.00    -0.000 C 
BRANCH  13  14
ATOM     14  C   UNL     1     -17.404  57.474   0.740  1.00  0.00    -0.000 C 
BRANCH  14  15
ATOM     15  C   UNL     1     -15.925  57.581   0.336  1.00  0.00    -0.003 C 
ATOM     16  C   UNL     1     -15.340  58.970   0.592  1.00  0.00     0.004 C 
ENDBRANCH  14  15
ENDBRANCH  13  14
ENDBRANCH  12  13
ENDBRANCH  11  12
ENDBRANCH  10  11
ENDBRANCH   1  10
TORSDOF 12
ENDMDL
MODEL 9
REMARK VINA RESULT:    -4.714      3.083      5.351
REMARK INTER + INTRA:          -9.580
REMARK INTER:                  -7.580
REMARK INTRA:                  -2.000
REMARK UNBOUND:                -1.558
REMARK SMILES CCCCCCCCCCCCCC(=O)[O-]
REMARK SMILES IDX 8 1 9 2 10 3 11 4 12 5 13 6 14 7 15 8 16 9 7 10 6 11 5 12
REMARK SMILES IDX 4 13 3 14 2 15 1 16
REMARK H PARENT
REMARK Flexibility Score: inf
ROOT
ATOM      1  C   UNL     1     -20.000  53.235  -2.858  1.00  0.00     0.000 C 
ENDROOT
BRANCH   1   2
ATOM      2  C   UNL     1     -19.744  52.400  -1.593  1.00  0.00     0.000 C 
BRANCH   2   3
ATOM      3  C   UNL     1     -20.408  52.998  -0.344  1.00  0.00     0.000 C 
BRANCH   3   4
ATOM      4  C   UNL     1     -21.784  53.585  -0.683  1.00  0.00     0.000 C 
BRANCH   4   5
ATOM      5  C   UNL     1     -21.850  55.078  -0.325  1.00  0.00     0.006 C 
BRANCH   5   6
ATOM      6  C   UNL     1     -22.500  55.913  -1.435  1.00  0.00     0.053 C 
BRANCH   6   7
ATOM      7  C   UNL     1     -23.927  55.519  -1.663  1.00  0.00     0.041 C 
ATOM      8  O   UNL     1     -24.301  55.118  -2.796  1.00  0.00    -0.550 OA
ATOM      9  O   UNL     1     -24.836  55.566  -0.613  1.00  0.00    -0.550 OA
ENDBRANCH   6   7
ENDBRANCH   5   6
ENDBRANCH   4   5
ENDBRANCH   3   4
ENDBRANCH   2   3
ENDBRANCH   1   2
BRANCH   1  10
ATOM     10  C   UNL     1     -18.796  54.105  -3.246  1.00  0.00     0.000 C 
BRANCH  10  11
ATOM     11  C   UNL     1     -19.143  55.596  -3.150  1.00  0.00    -0.000 C 
BRANCH  11  12
ATOM     12  C   UNL     1     -17.869  56.457  -3.137  1.00  0.00    -0.000 C 
BRANCH  12  13
ATOM     13  C   UNL     1     -17.271  56.611  -1.729  1.00  0.00    -0.000 C 
BRANCH  13  14
ATOM     14  C   UNL     1     -18.309  56.375  -0.617  1.00  0.00    -0.000 C 
BRANCH  14  15
ATOM     15  C   UNL     1     -17.775  55.467   0.502  1.00  0.00    -0.003 C 
ATOM     16  C   UNL     1     -16.901  54.329  -0.025  1.00  0.00     0.004 C 
ENDBRANCH  14  15
ENDBRANCH  13  14
ENDBRANCH  12  13
ENDBRANCH  11  12
ENDBRANCH  10  11
ENDBRANCH   1  10
TORSDOF 12
ENDMDL
