MODEL 1
REMARK VINA RESULT:    -3.622      0.000      0.000
REMARK INTER + INTRA:          -8.014
REMARK INTER:                  -6.586
REMARK INTRA:                  -1.429
REMARK UNBOUND:                -1.429
REMARK SMILES CCCCCCCCCCCCCCCC(=O)[O-]
REMARK SMILES IDX 9 1 10 2 11 3 12 4 13 5 14 6 15 7 16 8 17 9 18 10 8 11 7 12
REMARK SMILES IDX 6 13 5 14 4 15 3 16 2 17 1 18
REMARK H PARENT
REMARK Flexibility Score: inf
ROOT
ATOM      1  C   UNL     1      12.408   1.298 -16.755  1.00  0.00     0.000 C 
ENDROOT
BRANCH   1   2
ATOM      2  C   UNL     1      11.879  -0.131 -16.536  1.00  0.00     0.000 C 
BRANCH   2   3
ATOM      3  C   UNL     1      10.377  -0.255 -16.834  1.00  0.00     0.000 C 
BRANCH   3   4
ATOM      4  C   UNL     1      10.084  -0.377 -18.341  1.00  0.00     0.000 C 
BRANCH   4   5
ATOM      5  C   UNL     1      10.467  -1.754 -18.907  1.00  0.00     0.000 C 
BRANCH   5   6
ATOM      6  C   UNL     1       9.940  -1.971 -20.336  1.00  0.00     0.006 C 
BRANCH   6   7
ATOM      7  C   UNL     1      10.767  -1.207 -21.379  1.00  0.00     0.053 C 
BRANCH   7   8
ATOM      8  C   UNL     1      11.108  -2.069 -22.556  1.00  0.00     0.041 C 
ATOM      9  O   UNL     1      10.263  -2.885 -23.009  1.00  0.00    -0.550 OA
ATOM     10  O   UNL     1      12.370  -1.994 -23.130  1.00  0.00    -0.550 OA
ENDBRANCH   7   8
ENDBRANCH   6   7
ENDBRANCH   5   6
ENDBRANCH   4   5
ENDBRANCH   3   4
ENDBRANCH   2   3
ENDBRANCH   1   2
BRANCH   1  11
ATOM     11  C   UNL     1      13.491   1.369 -17.843  1.00  0.00     0.000 C 
BRANCH  11  12
ATOM     12  C   UNL     1      12.903   1.609 -19.245  1.00  0.00    -0.000 C 
BRANCH  12  13
ATOM     13  C   UNL     1      13.252   0.482 -20.232  1.00  0.00    -0.000 C 
BRANCH  13  14
ATOM     14  C   UNL     1      13.706  -0.805 -19.521  1.00  0.00    -0.000 C 
BRANCH  14  15
ATOM     15  C   UNL     1      14.618  -1.674 -20.401  1.00  0.00    -0.000 C 
BRANCH  15  16
ATOM     16  C   UNL     1      16.008  -1.897 -19.777  1.00  0.00    -0.000 C 
BRANCH  16  17
ATOM     17  C   UNL     1      17.144  -1.383 -20.674  1.00  0.00    -0.003 C 
ATOM     18  C   UNL     1      18.502  -1.398 -19.972  1.00  0.00     0.004 C 
ENDBRANCH  16  17
ENDBRANCH  15  16
ENDBRANCH  14  15
ENDBRANCH  13  14
ENDBRANCH  12  13
ENDBRANCH  11  12
ENDBRANCH   1  11
TORSDOF 14
ENDMDL
MODEL 2
REMARK VINA RESULT:    -3.551      2.141      3.981
REMARK INTER + INTRA:          -7.887
REMARK INTER:                  -6.322
REMARK INTRA:                  -1.565
REMARK UNBOUND:                -1.429
REMARK SMILES CCCCCCCCCCCCCCCC(=O)[O-]
REMARK SMILES IDX 9 1 10 2 11 3 12 4 13 5 14 6 15 7 16 8 17 9 18 10 8 11 7 12
REMARK SMILES IDX 6 13 5 14 4 15 3 16 2 17 1 18
REMARK H PARENT
REMARK Flexibility Score: inf
ROOT
ATOM      1  C   UNL     1      10.079  -2.056 -21.029  1.00  0.00     0.000 C 
ENDROOT
BRANCH   1   2
ATOM      2  C   UNL     1       9.874  -2.172 -19.508  1.00  0.00     0.000 C 
BRANCH   2   3
ATOM      3  C   UNL     1      10.276  -0.891 -18.761  1.00  0.00     0.000 C 
BRANCH   3   4
ATOM      4  C   UNL     1      11.456  -1.115 -17.798  1.00  0.00     0.000 C 
BRANCH   4   5
ATOM      5  C   UNL     1      12.067   0.204 -17.297  1.00  0.00     0.000 C 
BRANCH   5   6
ATOM      6  C   UNL     1      11.907   1.351 -18.310  1.00  0.00     0.006 C 
BRANCH   6   7
ATOM      7  C   UNL     1      13.236   2.062 -18.593  1.00  0.00     0.053 C 
BRANCH   7   8
ATOM      8  C   UNL     1      13.258   2.670 -19.962  1.00  0.00     0.041 C 
ATOM      9  O   UNL     1      13.208   3.921 -20.101  1.00  0.00    -0.550 OA
ATOM     10  O   UNL     1      13.300   1.855 -21.085  1.00  0.00    -0.550 OA
ENDBRANCH   7   8
ENDBRANCH   6   7
ENDBRANCH   5   6
ENDBRANCH   4   5
ENDBRANCH   3   4
ENDBRANCH   2   3
ENDBRANCH   1   2
BRANCH   1  11
ATOM     11  C   UNL     1      11.206  -1.081 -21.404  1.00  0.00     0.000 C 
BRANCH  11  12
ATOM     12  C   UNL     1      12.216  -1.697 -22.388  1.00  0.00    -0.000 C 
BRANCH  12  13
ATOM     13  C   UNL     1      13.626  -1.821 -21.786  1.00  0.00    -0.000 C 
BRANCH  13  14
ATOM     14  C   UNL     1      13.710  -1.254 -20.358  1.00  0.00    -0.000 C 
BRANCH  14  15
ATOM     15  C   UNL     1      14.961  -1.735 -19.606  1.00  0.00    -0.000 C 
BRANCH  15  16
ATOM     16  C   UNL     1      16.211  -1.781 -20.503  1.00  0.00    -0.000 C 
BRANCH  16  17
ATOM     17  C   UNL     1      17.514  -1.636 -19.703  1.00  0.00    -0.003 C 
ATOM     18  C   UNL     1      18.672  -1.112 -20.551  1.00  0.00     0.004 C 
ENDBRANCH  16  17
ENDBRANCH  15  16
ENDBRANCH  14  15
ENDBRANCH  13  14
ENDBRANCH  12  13
ENDBRANCH  11  12
ENDBRANCH   1  11
TORSDOF 14
ENDMDL
MODEL 3
REMARK VINA RESULT:    -3.543      4.053      6.234
REMARK INTER + INTRA:          -7.871
REMARK INTER:                  -7.167
REMARK INTRA:                  -0.704
REMARK UNBOUND:                -1.429
REMARK SMILES CCCCCCCCCCCCCCCC(=O)[O-]
REMARK SMILES IDX 9 1 10 2 11 3 12 4 13 5 14 6 15 7 16 8 17 9 18 10 8 11 7 12
REMARK SMILES IDX 6 13 5 14 4 15 3 16 2 17 1 18
REMARK H PARENT
REMARK Flexibility Score: inf
ROOT
ATOM      1  C   UNL     1      13.240   1.974 -17.750  1.00  0.00     0.000 C 
ENDROOT
BRANCH   1   2
ATOM      2  C   UNL     1      12.916   2.082 -19.251  1.00  0.00     0.000 C 
BRANCH   2   3
ATOM      3  C   UNL     1      12.877   3.538 -19.741  1.00  0.00     0.000 C 
BRANCH   3   4
ATOM      4  C   UNL     1      14.080   3.892 -20.634  1.00  0.00     0.000 C 
BRANCH   4   5
ATOM      5  C   UNL     1      14.395   5.397 -20.628  1.00  0.00     0.000 C 
BRANCH   5   6
ATOM      6  C   UNL     1      15.854   5.696 -21.015  1.00  0.00     0.006 C 
BRANCH   6   7
ATOM      7  C   UNL     1      16.011   5.957 -22.519  1.00  0.00     0.053 C 
BRANCH   7   8
ATOM      8  C   UNL     1      16.986   5.008 -23.147  1.00  0.00     0.041 C 
ATOM      9  O   UNL     1      16.595   4.174 -24.006  1.00  0.00    -0.550 OA
ATOM     10  O   UNL     1      18.319   5.022 -22.759  1.00  0.00    -0.550 OA
ENDBRANCH   7   8
ENDBRANCH   6   7
ENDBRANCH   5   6
ENDBRANCH   4   5
ENDBRANCH   3   4
ENDBRANCH   2   3
ENDBRANCH   1   2
BRANCH   1  11
ATOM     11  C   UNL     1      12.567   0.764 -17.084  1.00  0.00     0.000 C 
BRANCH  11  12
ATOM     12  C   UNL     1      11.708  -0.050 -18.068  1.00  0.00    -0.000 C 
BRANCH  12  13
ATOM     13  C   UNL     1      12.306  -1.435 -18.366  1.00  0.00    -0.000 C 
BRANCH  13  14
ATOM     14  C   UNL     1      13.744  -1.353 -18.909  1.00  0.00    -0.000 C 
BRANCH  14  15
ATOM     15  C   UNL     1      13.807  -1.512 -20.437  1.00  0.00    -0.000 C 
BRANCH  15  16
ATOM     16  C   UNL     1      13.026  -0.412 -21.180  1.00  0.00    -0.000 C 
BRANCH  16  17
ATOM     17  C   UNL     1      11.757  -0.949 -21.859  1.00  0.00    -0.003 C 
ATOM     18  C   UNL     1      12.056  -2.025 -22.902  1.00  0.00     0.004 C 
ENDBRANCH  16  17
ENDBRANCH  15  16
ENDBRANCH  14  15
ENDBRANCH  13  14
ENDBRANCH  12  13
ENDBRANCH  11  12
ENDBRANCH   1  11
TORSDOF 14
ENDMDL
MODEL 4
REMARK VINA RESULT:    -3.380      2.136      4.791
REMARK INTER + INTRA:          -7.575
REMARK INTER:                  -6.694
REMARK INTRA:                  -0.881
REMARK UNBOUND:                -1.429
REMARK SMILES CCCCCCCCCCCCCCCC(=O)[O-]
REMARK SMILES IDX 9 1 10 2 11 3 12 4 13 5 14 6 15 7 16 8 17 9 18 10 8 11 7 12
REMARK SMILES IDX 6 13 5 14 4 15 3 16 2 17 1 18
REMARK H PARENT
REMARK Flexibility Score: inf
ROOT
ATOM      1  C   UNL     1      12.571   0.704 -16.326  1.00  0.00     0.000 C 
ENDROOT
BRANCH   1   2
ATOM      2  C   UNL     1      13.314   1.614 -17.320  1.00  0.00     0.000 C 
BRANCH   2   3
ATOM      3  C   UNL     1      12.500   1.880 -18.596  1.00  0.00     0.000 C 
BRANCH   3   4
ATOM      4  C   UNL     1      13.356   2.472 -19.729  1.00  0.00     0.000 C 
BRANCH   4   5
ATOM      5  C   UNL     1      13.372   1.582 -20.983  1.00  0.00     0.000 C 
BRANCH   5   6
ATOM      6  C   UNL     1      12.952   0.133 -20.682  1.00  0.00     0.006 C 
BRANCH   6   7
ATOM      7  C   UNL     1      14.009  -0.882 -21.135  1.00  0.00     0.053 C 
BRANCH   7   8
ATOM      8  C   UNL     1      14.671  -1.551 -19.969  1.00  0.00     0.041 C 
ATOM      9  O   UNL     1      14.007  -1.819 -18.932  1.00  0.00    -0.550 OA
ATOM     10  O   UNL     1      16.026  -1.847 -20.014  1.00  0.00    -0.550 OA
ENDBRANCH   7   8
ENDBRANCH   6   7
ENDBRANCH   5   6
ENDBRANCH   4   5
ENDBRANCH   3   4
ENDBRANCH   2   3
ENDBRANCH   1   2
BRANCH   1  11
ATOM     11  C   UNL     1      12.019  -0.570 -16.985  1.00  0.00     0.000 C 
BRANCH  11  12
ATOM     12  C   UNL     1      10.506  -0.487 -17.253  1.00  0.00    -0.000 C 
BRANCH  12  13
ATOM     13  C   UNL     1      10.157  -0.695 -18.736  1.00  0.00    -0.000 C 
BRANCH  13  14
ATOM     14  C   UNL     1       9.910  -2.174 -19.082  1.00  0.00    -0.000 C 
BRANCH  14  15
ATOM     15  C   UNL     1       9.553  -2.381 -20.563  1.00  0.00    -0.000 C 
BRANCH  15  16
ATOM     16  C   UNL     1      10.638  -1.844 -21.515  1.00  0.00    -0.000 C 
BRANCH  16  17
ATOM     17  C   UNL     1      10.604  -2.528 -22.890  1.00  0.00    -0.003 C 
ATOM     18  C   UNL     1       9.577  -3.657 -22.962  1.00  0.00     0.004 C 
ENDBRANCH  16  17
ENDBRANCH  15  16
ENDBRANCH  14  15
ENDBRANCH  13  14
ENDBRANCH  12  13
ENDBRANCH  11  12
ENDBRANCH   1  11
TORSDOF 14
ENDMDL
MODEL 5
REMARK VINA RESULT:    -3.377      3.562      4.557
REMARK INTER + INTRA:          -7.569
REMARK INTER:                  -6.423
REMARK INTRA:                  -1.146
REMARK UNBOUND:                -1.429
REMARK SMILES CCCCCCCCCCCCCCCC(=O)[O-]
REMARK SMILES IDX 9 1 10 2 11 3 12 4 13 5 14 6 15 7 16 8 17 9 18 10 8 11 7 12
REMARK SMILES IDX 6 13 5 14 4 15 3 16 2 17 1 18
REMARK H PARENT
REMARK Flexibility Score: inf
ROOT
ATOM      1  C   UNL     1      13.039   2.019 -18.434  1.00  0.00     0.000 C 
ENDROOT
BRANCH   1   2
ATOM      2  C   UNL     1      11.915   1.053 -18.021  1.00  0.00     0.000 C 
BRANCH   2   3
ATOM      3  C   UNL     1      12.454  -0.260 -17.433  1.00  0.00     0.000 C 
BRANCH   3   4
ATOM      4  C   UNL     1      12.563  -1.377 -18.488  1.00  0.00     0.000 C 
BRANCH   4   5
ATOM      5  C   UNL     1      13.899  -1.342 -19.247  1.00  0.00     0.000 C 
BRANCH   5   6
ATOM      6  C   UNL     1      13.709  -1.276 -20.772  1.00  0.00     0.006 C 
BRANCH   6   7
ATOM      7  C   UNL     1      12.271  -0.911 -21.160  1.00  0.00     0.053 C 
BRANCH   7   8
ATOM      8  C   UNL     1      11.838  -1.617 -22.409  1.00  0.00     0.041 C 
ATOM      9  O   UNL     1      10.639  -1.976 -22.551  1.00  0.00    -0.550 OA
ATOM     10  O   UNL     1      12.765  -1.908 -23.401  1.00  0.00    -0.550 OA
ENDBRANCH   7   8
ENDBRANCH   6   7
ENDBRANCH   5   6
ENDBRANCH   4   5
ENDBRANCH   3   4
ENDBRANCH   2   3
ENDBRANCH   1   2
BRANCH   1  11
ATOM     11  C   UNL     1      12.860   2.564 -19.860  1.00  0.00     0.000 C 
BRANCH  11  12
ATOM     12  C   UNL     1      13.945   3.586 -20.242  1.00  0.00    -0.000 C 
BRANCH  12  13
ATOM     13  C   UNL     1      13.358   4.956 -20.623  1.00  0.00    -0.000 C 
BRANCH  13  14
ATOM     14  C   UNL     1      14.419   6.071 -20.631  1.00  0.00    -0.000 C 
BRANCH  14  15
ATOM     15  C   UNL     1      15.745   5.618 -21.261  1.00  0.00    -0.000 C 
BRANCH  15  16
ATOM     16  C   UNL     1      15.834   5.953 -22.761  1.00  0.00    -0.000 C 
BRANCH  16  17
ATOM     17  C   UNL     1      16.557   4.862 -23.566  1.00  0.00    -0.003 C 
ATOM     18  C   UNL     1      17.573   5.434 -24.554  1.00  0.00     0.004 C 
ENDBRANCH  16  17
ENDBRANCH  15  16
ENDBRANCH  14  15
ENDBRANCH  13  14
ENDBRANCH  12  13
ENDBRANCH  11  12
ENDBRANCH   1  11
TORSDOF 14
ENDMDL
MODEL 6
REMARK VINA RESULT:    -3.369      2.474      4.219
REMARK INTER + INTRA:          -7.556
REMARK INTER:                  -6.096
REMARK INTRA:                  -1.459
REMARK UNBOUND:                -1.429
REMARK SMILES CCCCCCCCCCCCCCCC(=O)[O-]
REMARK SMILES IDX 9 1 10 2 11 3 12 4 13 5 14 6 15 7 16 8 17 9 18 10 8 11 7 12
REMARK SMILES IDX 6 13 5 14 4 15 3 16 2 17 1 18
REMARK H PARENT
REMARK Flexibility Score: inf
ROOT
ATOM      1  C   UNL     1      10.972  -1.848 -22.419  1.00  0.00     0.000 C 
ENDROOT
BRANCH   1   2
ATOM      2  C   UNL     1      10.284  -2.479 -21.196  1.00  0.00     0.000 C 
BRANCH   2   3
ATOM      3  C   UNL     1       9.739  -1.427 -20.218  1.00  0.00     0.000 C 
BRANCH   3   4
ATOM      4  C   UNL     1      10.085  -1.748 -18.753  1.00  0.00     0.000 C 
BRANCH   4   5
ATOM      5  C   UNL     1      11.600  -1.744 -18.490  1.00  0.00     0.000 C 
BRANCH   5   6
ATOM      6  C   UNL     1      12.019  -0.667 -17.474  1.00  0.00     0.006 C 
BRANCH   6   7
ATOM      7  C   UNL     1      11.713   0.751 -17.974  1.00  0.00     0.053 C 
BRANCH   7   8
ATOM      8  C   UNL     1      12.912   1.644 -17.879  1.00  0.00     0.041 C 
ATOM      9  O   UNL     1      13.666   1.586 -16.872  1.00  0.00    -0.550 OA
ATOM     10  O   UNL     1      13.176   2.563 -18.885  1.00  0.00    -0.550 OA
ENDBRANCH   7   8
ENDBRANCH   6   7
ENDBRANCH   5   6
ENDBRANCH   4   5
ENDBRANCH   3   4
ENDBRANCH   2   3
ENDBRANCH   1   2
BRANCH   1  11
ATOM     11  C   UNL     1      12.484  -1.661 -22.220  1.00  0.00     0.000 C 
BRANCH  11  12
ATOM     12  C   UNL     1      12.833  -0.300 -21.591  1.00  0.00    -0.000 C 
BRANCH  12  13
ATOM     13  C   UNL     1      13.957  -0.403 -20.547  1.00  0.00    -0.000 C 
BRANCH  13  14
ATOM     14  C   UNL     1      14.704  -1.747 -20.615  1.00  0.00    -0.000 C 
BRANCH  14  15
ATOM     15  C   UNL     1      16.007  -1.738 -19.800  1.00  0.00    -0.000 C 
BRANCH  15  16
ATOM     16  C   UNL     1      17.257  -1.558 -20.681  1.00  0.00    -0.000 C 
BRANCH  16  17
ATOM     17  C   UNL     1      18.440  -0.955 -19.909  1.00  0.00    -0.003 C 
ATOM     18  C   UNL     1      19.302  -2.017 -19.227  1.00  0.00     0.004 C 
ENDBRANCH  16  17
ENDBRANCH  15  16
ENDBRANCH  14  15
ENDBRANCH  13  14
ENDBRANCH  12  13
ENDBRANCH  11  12
ENDBRANCH   1  11
TORSDOF 14
ENDMDL
MODEL 7
REMARK VINA RESULT:    -3.299      4.365      6.914
REMARK INTER + INTRA:          -7.428
REMARK INTER:                  -6.014
REMARK INTRA:                  -1.414
REMARK UNBOUND:                -1.429
REMARK SMILES CCCCCCCCCCCCCCCC(=O)[O-]
REMARK SMILES IDX 9 1 10 2 11 3 12 4 13 5 14 6 15 7 16 8 17 9 18 10 8 11 7 12
REMARK SMILES IDX 6 13 5 14 4 15 3 16 2 17 1 18
REMARK H PARENT
REMARK Flexibility Score: inf
ROOT
ATOM      1  C   UNL     1      13.587   1.280 -21.104  1.00  0.00     0.000 C 
ENDROOT
BRANCH   1   2
ATOM      2  C   UNL     1      12.805   2.325 -20.287  1.00  0.00     0.000 C 
BRANCH   2   3
ATOM      3  C   UNL     1      13.624   3.598 -20.024  1.00  0.00     0.000 C 
BRANCH   3   4
ATOM      4  C   UNL     1      12.970   4.854 -20.628  1.00  0.00     0.000 C 
BRANCH   4   5
ATOM      5  C   UNL     1      13.981   5.988 -20.866  1.00  0.00     0.000 C 
BRANCH   5   6
ATOM      6  C   UNL     1      15.434   5.485 -20.899  1.00  0.00     0.006 C 
BRANCH   6   7
ATOM      7  C   UNL     1      16.064   5.628 -22.291  1.00  0.00     0.053 C 
BRANCH   7   8
ATOM      8  C   UNL     1      17.560   5.574 -22.231  1.00  0.00     0.041 C 
ATOM      9  O   UNL     1      18.162   5.856 -21.162  1.00  0.00    -0.550 OA
ATOM     10  O   UNL     1      18.290   5.245 -23.365  1.00  0.00    -0.550 OA
ENDBRANCH   7   8
ENDBRANCH   6   7
ENDBRANCH   5   6
ENDBRANCH   4   5
ENDBRANCH   3   4
ENDBRANCH   2   3
ENDBRANCH   1   2
BRANCH   1  11
ATOM     11  C   UNL     1      13.230  -0.164 -20.717  1.00  0.00     0.000 C 
BRANCH  11  12
ATOM     12  C   UNL     1      12.086  -0.738 -21.572  1.00  0.00    -0.000 C 
BRANCH  12  13
ATOM     13  C   UNL     1      10.952  -1.329 -20.718  1.00  0.00    -0.000 C 
BRANCH  13  14
ATOM     14  C   UNL     1      11.309  -1.392 -19.222  1.00  0.00    -0.000 C 
BRANCH  14  15
ATOM     15  C   UNL     1      10.387  -0.516 -18.359  1.00  0.00    -0.000 C 
BRANCH  15  16
ATOM     16  C   UNL     1      11.103   0.064 -17.126  1.00  0.00    -0.000 C 
BRANCH  16  17
ATOM     17  C   UNL     1      12.629   0.106 -17.298  1.00  0.00    -0.003 C 
ATOM     18  C   UNL     1      13.236   1.436 -16.855  1.00  0.00     0.004 C 
ENDBRANCH  16  17
ENDBRANCH  15  16
ENDBRANCH  14  15
ENDBRANCH  13  14
ENDBRANCH  12  13
ENDBRANCH  11  12
ENDBRANCH   1  11
TORSDOF 14
ENDMDL
MODEL 8
REMARK VINA RESULT:    -3.280      3.075      4.793
REMARK INTER + INTRA:          -7.393
REMARK INTER:                  -5.863
REMARK INTRA:                  -1.530
REMARK UNBOUND:                -1.429
REMARK SMILES CCCCCCCCCCCCCCCC(=O)[O-]
REMARK SMILES IDX 9 1 10 2 11 3 12 4 13 5 14 6 15 7 16 8 17 9 18 10 8 11 7 12
REMARK SMILES IDX 6 13 5 14 4 15 3 16 2 17 1 18
REMARK H PARENT
REMARK Flexibility Score: inf
ROOT
ATOM      1  C   UNL     1      10.499  -0.764 -17.719  1.00  0.00     0.000 C 
ENDROOT
BRANCH   1   2
ATOM      2  C   UNL     1      12.026  -0.661 -17.553  1.00  0.00     0.000 C 
BRANCH   2   3
ATOM      3  C   UNL     1      12.437   0.428 -16.550  1.00  0.00     0.000 C 
BRANCH   3   4
ATOM      4  C   UNL     1      13.167   1.604 -17.224  1.00  0.00     0.000 C 
BRANCH   4   5
ATOM      5  C   UNL     1      12.947   1.641 -18.745  1.00  0.00     0.000 C 
BRANCH   5   6
ATOM      6  C   UNL     1      12.776   3.072 -19.282  1.00  0.00     0.006 C 
BRANCH   6   7
ATOM      7  C   UNL     1      13.764   3.388 -20.413  1.00  0.00     0.053 C 
BRANCH   7   8
ATOM      8  C   UNL     1      13.935   4.864 -20.603  1.00  0.00     0.041 C 
ATOM      9  O   UNL     1      12.938   5.631 -20.541  1.00  0.00    -0.550 OA
ATOM     10  O   UNL     1      15.189   5.388 -20.884  1.00  0.00    -0.550 OA
ENDBRANCH   7   8
ENDBRANCH   6   7
ENDBRANCH   5   6
ENDBRANCH   4   5
ENDBRANCH   3   4
ENDBRANCH   2   3
ENDBRANCH   1   2
BRANCH   1  11
ATOM     11  C   UNL     1      10.052  -0.636 -19.184  1.00  0.00     0.000 C 
BRANCH  11  12
ATOM     12  C   UNL     1       9.845  -2.003 -19.859  1.00  0.00    -0.000 C 
BRANCH  12  13
ATOM     13  C   UNL     1      10.455  -2.062 -21.270  1.00  0.00    -0.000 C 
BRANCH  13  14
ATOM     14  C   UNL     1      11.512  -0.968 -21.502  1.00  0.00    -0.000 C 
BRANCH  14  15
ATOM     15  C   UNL     1      12.938  -1.535 -21.587  1.00  0.00    -0.000 C 
BRANCH  15  16
ATOM     16  C   UNL     1      13.931  -0.779 -20.685  1.00  0.00    -0.000 C 
BRANCH  16  17
ATOM     17  C   UNL     1      14.720  -1.719 -19.762  1.00  0.00    -0.003 C 
ATOM     18  C   UNL     1      16.208  -1.775 -20.108  1.00  0.00     0.004 C 
ENDBRANCH  16  17
ENDBRANCH  15  16
ENDBRANCH  14  15
ENDBRANCH  13  14
ENDBRANCH  12  13
ENDBRANCH  11  12
ENDBRANCH   1  11
TORSDOF 14
ENDMDL
MODEL 9
REMARK VINA RESULT:    -3.271      3.674      5.681
REMARK INTER + INTRA:          -7.376
REMARK INTER:                  -6.061
REMARK INTRA:                  -1.315
REMARK UNBOUND:                -1.429
REMARK SMILES CCCCCCCCCCCCCCCC(=O)[O-]
REMARK SMILES IDX 9 1 10 2 11 3 12 4 13 5 14 6 15 7 16 8 17 9 18 10 8 11 7 12
REMARK SMILES IDX 6 13 5 14 4 15 3 16 2 17 1 18
REMARK H PARENT
REMARK Flexibility Score: inf
ROOT
ATOM      1  C   UNL     1      12.025  -0.024 -17.274  1.00  0.00     0.000 C 
ENDROOT
BRANCH   1   2
ATOM      2  C   UNL     1      12.802   1.281 -17.522  1.00  0.00     0.000 C 
BRANCH   2   3
ATOM      3  C   UNL     1      12.905   1.630 -19.015  1.00  0.00     0.000 C 
BRANCH   3   4
ATOM      4  C   UNL     1      12.926   3.149 -19.265  1.00  0.00     0.000 C 
BRANCH   4   5
ATOM      5  C   UNL     1      13.841   3.541 -20.437  1.00  0.00     0.000 C 
BRANCH   5   6
ATOM      6  C   UNL     1      13.866   5.059 -20.684  1.00  0.00     0.006 C 
BRANCH   6   7
ATOM      7  C   UNL     1      15.259   5.660 -20.452  1.00  0.00     0.053 C 
BRANCH   7   8
ATOM      8  C   UNL     1      16.062   5.702 -21.716  1.00  0.00     0.041 C 
ATOM      9  O   UNL     1      15.538   6.112 -22.786  1.00  0.00    -0.550 OA
ATOM     10  O   UNL     1      17.377   5.257 -21.720  1.00  0.00    -0.550 OA
ENDBRANCH   7   8
ENDBRANCH   6   7
ENDBRANCH   5   6
ENDBRANCH   4   5
ENDBRANCH   3   4
ENDBRANCH   2   3
ENDBRANCH   1   2
BRANCH   1  11
ATOM     11  C   UNL     1      10.750  -0.126 -18.125  1.00  0.00     0.000 C 
BRANCH  11  12
ATOM     12  C   UNL     1      10.606  -1.496 -18.811  1.00  0.00    -0.000 C 
BRANCH  12  13
ATOM     13  C   UNL     1       9.954  -1.395 -20.201  1.00  0.00    -0.000 C 
BRANCH  13  14
ATOM     14  C   UNL     1      10.896  -1.851 -21.329  1.00  0.00    -0.000 C 
BRANCH  14  15
ATOM     15  C   UNL     1      12.034  -0.851 -21.587  1.00  0.00    -0.000 C 
BRANCH  15  16
ATOM     16  C   UNL     1      13.427  -1.491 -21.451  1.00  0.00    -0.000 C 
BRANCH  16  17
ATOM     17  C   UNL     1      13.994  -1.368 -20.028  1.00  0.00    -0.003 C 
ATOM     18  C   UNL     1      15.446  -1.835 -19.929  1.00  0.00     0.004 C 
ENDBRANCH  16  17
ENDBRANCH  15  16
ENDBRANCH  14  15
ENDBRANCH  13  14
ENDBRANCH  12  13
ENDBRANCH  11  12
ENDBRANCH   1  11
TORSDOF 14
ENDMDL
