MODEL 1
REMARK VINA RESULT:    -5.270      0.000      0.000
REMARK INTER + INTRA:          -6.327
REMARK INTER:                  -6.194
REMARK INTRA:                  -0.133
REMARK UNBOUND:                -0.133
REMARK SMILES O=C([O-])C=Cc1ccc(O)c(O)c1
REMARK SMILES IDX 6 1 13 2 7 3 11 4 8 5 9 6 5 7 4 8 2 9 1 10 3 11 12 12 10 14
REMARK H PARENT 12 13 10 15
REMARK Flexibility Score: inf
ROOT
ATOM      1  C   UNL     1       8.112  -6.513  -7.397  1.00  0.00    -0.022 A 
ATOM      2  C   UNL     1       8.128  -5.396  -6.545  1.00  0.00     0.058 A 
ATOM      3  C   UNL     1       7.906  -7.790  -6.841  1.00  0.00     0.012 A 
ATOM      4  C   UNL     1       7.919  -5.540  -5.170  1.00  0.00     0.157 A 
ATOM      5  C   UNL     1       7.697  -7.937  -5.466  1.00  0.00     0.051 A 
ATOM      6  C   UNL     1       7.699  -6.816  -4.627  1.00  0.00     0.157 A 
ENDROOT
BRANCH   1   7
ATOM      7  C   UNL     1       8.350  -6.303  -8.848  1.00  0.00     0.010 C 
ATOM      8  C   UNL     1       8.087  -5.155  -9.488  1.00  0.00     0.025 C 
BRANCH   8   9
ATOM      9  C   UNL     1       8.348  -4.979 -10.927  1.00  0.00     0.064 C 
ATOM     10  O   UNL     1       9.300  -5.578 -11.495  1.00  0.00    -0.545 OA
ATOM     11  O   UNL     1       7.529  -4.140 -11.671  1.00  0.00    -0.545 OA
ENDBRANCH   8   9
ENDBRANCH   1   7
BRANCH   4  12
ATOM     12  O   UNL     1       7.933  -4.405  -4.359  1.00  0.00    -0.504 OA
ATOM     13  H   UNL     1       8.691  -3.734  -4.385  1.00  0.00     0.293 HD
ENDBRANCH   4  12
BRANCH   6  14
ATOM     14  O   UNL     1       7.488  -6.966  -3.256  1.00  0.00    -0.504 OA
ATOM     15  H   UNL     1       8.257  -6.942  -2.595  1.00  0.00     0.293 HD
ENDBRANCH   6  14
TORSDOF 4
ENDMDL
MODEL 2
REMARK VINA RESULT:    -5.024      1.903      2.300
REMARK INTER + INTRA:          -6.037
REMARK INTER:                  -5.908
REMARK INTRA:                  -0.129
REMARK UNBOUND:                -0.133
REMARK SMILES O=C([O-])C=Cc1ccc(O)c(O)c1
REMARK SMILES IDX 6 1 13 2 7 3 11 4 8 5 9 6 5 7 4 8 2 9 1 10 3 11 12 12 10 14
REMARK H PARENT 12 13 10 15
REMARK Flexibility Score: inf
ROOT
ATOM      1  C   UNL     1       9.109  -6.475  -7.347  1.00  0.00    -0.022 A 
ATOM      2  C   UNL     1       8.815  -5.444  -6.438  1.00  0.00     0.058 A 
ATOM      3  C   UNL     1       8.768  -7.799  -7.007  1.00  0.00     0.012 A 
ATOM      4  C   UNL     1       8.172  -5.718  -5.227  1.00  0.00     0.157 A 
ATOM      5  C   UNL     1       8.126  -8.075  -5.796  1.00  0.00     0.051 A 
ATOM      6  C   UNL     1       7.822  -7.039  -4.904  1.00  0.00     0.157 A 
ENDROOT
BRANCH   1   7
ATOM      7  C   UNL     1       9.803  -6.129  -8.613  1.00  0.00     0.010 C 
ATOM      8  C   UNL     1      11.136  -6.104  -8.749  1.00  0.00     0.025 C 
BRANCH   8   9
ATOM      9  C   UNL     1      11.790  -5.768 -10.025  1.00  0.00     0.064 C 
ATOM     10  O   UNL     1      11.160  -5.820 -11.115  1.00  0.00    -0.545 OA
ATOM     11  O   UNL     1      13.125  -5.384 -10.028  1.00  0.00    -0.545 OA
ENDBRANCH   8   9
ENDBRANCH   1   7
BRANCH   4  12
ATOM     12  O   UNL     1       7.888  -4.665  -4.357  1.00  0.00    -0.504 OA
ATOM     13  H   UNL     1       8.413  -3.799  -4.370  1.00  0.00     0.293 HD
ENDBRANCH   4  12
BRANCH   6  14
ATOM     14  O   UNL     1       7.179  -7.318  -3.699  1.00  0.00    -0.504 OA
ATOM     15  H   UNL     1       6.472  -8.041  -3.629  1.00  0.00     0.293 HD
ENDBRANCH   6  14
TORSDOF 4
ENDMDL
MODEL 3
REMARK VINA RESULT:    -4.963      2.494      3.152
REMARK INTER + INTRA:          -5.966
REMARK INTER:                  -5.841
REMARK INTRA:                  -0.125
REMARK UNBOUND:                -0.133
REMARK SMILES O=C([O-])C=Cc1ccc(O)c(O)c1
REMARK SMILES IDX 6 1 13 2 7 3 11 4 8 5 9 6 5 7 4 8 2 9 1 10 3 11 12 12 10 14
REMARK H PARENT 12 13 10 15
REMARK Flexibility Score: inf
ROOT
ATOM      1  C   UNL     1       9.582  -6.823  -8.331  1.00  0.00    -0.022 A 
ATOM      2  C   UNL     1      10.303  -6.020  -7.431  1.00  0.00     0.058 A 
ATOM      3  C   UNL     1       8.196  -6.982  -8.141  1.00  0.00     0.012 A 
ATOM      4  C   UNL     1       9.656  -5.368  -6.375  1.00  0.00     0.157 A 
ATOM      5  C   UNL     1       7.547  -6.331  -7.086  1.00  0.00     0.051 A 
ATOM      6  C   UNL     1       8.271  -5.521  -6.203  1.00  0.00     0.157 A 
ENDROOT
BRANCH   1   7
ATOM      7  C   UNL     1      10.320  -7.501  -9.426  1.00  0.00     0.010 C 
ATOM      8  C   UNL     1      10.929  -6.850 -10.428  1.00  0.00     0.025 C 
BRANCH   8   9
ATOM      9  C   UNL     1      11.663  -7.556 -11.492  1.00  0.00     0.064 C 
ATOM     10  O   UNL     1      11.054  -8.215 -12.377  1.00  0.00    -0.545 OA
ATOM     11  O   UNL     1      13.050  -7.492 -11.523  1.00  0.00    -0.545 OA
ENDBRANCH   8   9
ENDBRANCH   1   7
BRANCH   4  12
ATOM     12  O   UNL     1      10.406  -4.572  -5.509  1.00  0.00    -0.504 OA
ATOM     13  H   UNL     1      11.395  -4.726  -5.356  1.00  0.00     0.293 HD
ENDBRANCH   4  12
BRANCH   6  14
ATOM     14  O   UNL     1       7.621  -4.872  -5.154  1.00  0.00    -0.504 OA
ATOM     15  H   UNL     1       6.879  -5.322  -4.630  1.00  0.00     0.293 HD
ENDBRANCH   6  14
TORSDOF 4
ENDMDL
MODEL 4
REMARK VINA RESULT:    -4.913      3.083      4.329
REMARK INTER + INTRA:          -5.907
REMARK INTER:                  -5.781
REMARK INTRA:                  -0.126
REMARK UNBOUND:                -0.133
REMARK SMILES O=C([O-])C=Cc1ccc(O)c(O)c1
REMARK SMILES IDX 6 1 13 2 7 3 11 4 8 5 9 6 5 7 4 8 2 9 1 10 3 11 12 12 10 14
REMARK H PARENT 12 13 10 15
REMARK Flexibility Score: inf
ROOT
ATOM      1  C   UNL     1       8.744  -5.230 -10.598  1.00  0.00    -0.022 A 
ATOM      2  C   UNL     1      10.133  -5.422 -10.687  1.00  0.00     0.058 A 
ATOM      3  C   UNL     1       8.118  -5.358  -9.342  1.00  0.00     0.012 A 
ATOM      4  C   UNL     1      10.891  -5.710  -9.548  1.00  0.00     0.157 A 
ATOM      5  C   UNL     1       8.875  -5.646  -8.202  1.00  0.00     0.051 A 
ATOM      6  C   UNL     1      10.261  -5.820  -8.297  1.00  0.00     0.157 A 
ENDROOT
BRANCH   1   7
ATOM      7  C   UNL     1       7.986  -4.938 -11.841  1.00  0.00     0.010 C 
ATOM      8  C   UNL     1       7.940  -3.728 -12.418  1.00  0.00     0.025 C 
BRANCH   8   9
ATOM      9  C   UNL     1       7.187  -3.477 -13.658  1.00  0.00     0.064 C 
ATOM     10  O   UNL     1       7.302  -4.238 -14.656  1.00  0.00    -0.545 OA
ATOM     11  O   UNL     1       6.334  -2.384 -13.729  1.00  0.00    -0.545 OA
ENDBRANCH   8   9
ENDBRANCH   1   7
BRANCH   4  12
ATOM     12  O   UNL     1      12.270  -5.883  -9.677  1.00  0.00    -0.504 OA
ATOM     13  H   UNL     1      12.695  -6.801  -9.724  1.00  0.00     0.293 HD
ENDBRANCH   4  12
BRANCH   6  14
ATOM     14  O   UNL     1      11.012  -6.105  -7.158  1.00  0.00    -0.504 OA
ATOM     15  H   UNL     1      10.573  -6.393  -6.291  1.00  0.00     0.293 HD
ENDBRANCH   6  14
TORSDOF 4
ENDMDL
MODEL 5
REMARK VINA RESULT:    -4.904      1.147      2.188
REMARK INTER + INTRA:          -5.896
REMARK INTER:                  -5.756
REMARK INTRA:                  -0.140
REMARK UNBOUND:                -0.133
REMARK SMILES O=C([O-])C=Cc1ccc(O)c(O)c1
REMARK SMILES IDX 6 1 13 2 7 3 11 4 8 5 9 6 5 7 4 8 2 9 1 10 3 11 12 12 10 14
REMARK H PARENT 12 13 10 15
REMARK Flexibility Score: inf
ROOT
ATOM      1  C   UNL     1       7.975  -6.703  -7.165  1.00  0.00    -0.022 A 
ATOM      2  C   UNL     1       7.518  -7.681  -6.266  1.00  0.00     0.058 A 
ATOM      3  C   UNL     1       8.409  -5.463  -6.658  1.00  0.00     0.012 A 
ATOM      4  C   UNL     1       7.515  -7.443  -4.888  1.00  0.00     0.157 A 
ATOM      5  C   UNL     1       8.407  -5.222  -5.281  1.00  0.00     0.051 A 
ATOM      6  C   UNL     1       7.965  -6.208  -4.391  1.00  0.00     0.157 A 
ENDROOT
BRANCH   1   7
ATOM      7  C   UNL     1       7.945  -7.005  -8.618  1.00  0.00     0.010 C 
ATOM      8  C   UNL     1       8.237  -6.109  -9.572  1.00  0.00     0.025 C 
BRANCH   8   9
ATOM      9  C   UNL     1       8.209  -6.448 -11.005  1.00  0.00     0.064 C 
ATOM     10  O   UNL     1       7.874  -5.595 -11.870  1.00  0.00    -0.545 OA
ATOM     11  O   UNL     1       8.559  -7.729 -11.410  1.00  0.00    -0.545 OA
ENDBRANCH   8   9
ENDBRANCH   1   7
BRANCH   4  12
ATOM     12  O   UNL     1       7.064  -8.444  -4.027  1.00  0.00    -0.504 OA
ATOM     13  H   UNL     1       6.860  -8.264  -3.052  1.00  0.00     0.293 HD
ENDBRANCH   4  12
BRANCH   6  14
ATOM     14  O   UNL     1       7.966  -5.966  -3.018  1.00  0.00    -0.504 OA
ATOM     15  H   UNL     1       8.370  -5.121  -2.629  1.00  0.00     0.293 HD
ENDBRANCH   6  14
TORSDOF 4
ENDMDL
MODEL 6
REMARK VINA RESULT:    -4.866     14.111     17.509
REMARK INTER + INTRA:          -5.852
REMARK INTER:                  -5.724
REMARK INTRA:                  -0.128
REMARK UNBOUND:                -0.133
REMARK SMILES O=C([O-])C=Cc1ccc(O)c(O)c1
REMARK SMILES IDX 6 1 13 2 7 3 11 4 8 5 9 6 5 7 4 8 2 9 1 10 3 11 12 12 10 14
REMARK H PARENT 12 13 10 15
REMARK Flexibility Score: inf
ROOT
ATOM      1  C   UNL     1      19.515  -0.609 -18.240  1.00  0.00    -0.022 A 
ATOM      2  C   UNL     1      20.593   0.232 -17.916  1.00  0.00     0.058 A 
ATOM      3  C   UNL     1      19.189  -0.807 -19.595  1.00  0.00     0.012 A 
ATOM      4  C   UNL     1      21.350   0.845 -18.920  1.00  0.00     0.157 A 
ATOM      5  C   UNL     1      19.945  -0.195 -20.601  1.00  0.00     0.051 A 
ATOM      6  C   UNL     1      21.027   0.629 -20.270  1.00  0.00     0.157 A 
ENDROOT
BRANCH   1   7
ATOM      7  C   UNL     1      18.738  -1.225 -17.134  1.00  0.00     0.010 C 
ATOM      8  C   UNL     1      17.993  -0.525 -16.267  1.00  0.00     0.025 C 
BRANCH   8   9
ATOM      9  C   UNL     1      17.226  -1.172 -15.189  1.00  0.00     0.064 C 
ATOM     10  O   UNL     1      16.165  -0.657 -14.744  1.00  0.00    -0.545 OA
ATOM     11  O   UNL     1      17.679  -2.370 -14.653  1.00  0.00    -0.545 OA
ENDBRANCH   8   9
ENDBRANCH   1   7
BRANCH   4  12
ATOM     12  O   UNL     1      22.419   1.665 -18.558  1.00  0.00    -0.504 OA
ATOM     13  H   UNL     1      22.999   2.129 -19.245  1.00  0.00     0.293 HD
ENDBRANCH   4  12
BRANCH   6  14
ATOM     14  O   UNL     1      21.780   1.236 -21.274  1.00  0.00    -0.504 OA
ATOM     15  H   UNL     1      21.577   2.177 -21.594  1.00  0.00     0.293 HD
ENDBRANCH   6  14
TORSDOF 4
ENDMDL
MODEL 7
REMARK VINA RESULT:    -4.815      1.773      6.408
REMARK INTER + INTRA:          -5.792
REMARK INTER:                  -5.657
REMARK INTRA:                  -0.135
REMARK UNBOUND:                -0.133
REMARK SMILES O=C([O-])C=Cc1ccc(O)c(O)c1
REMARK SMILES IDX 6 1 13 2 7 3 11 4 8 5 9 6 5 7 4 8 2 9 1 10 3 11 12 12 10 14
REMARK H PARENT 12 13 10 15
REMARK Flexibility Score: inf
ROOT
ATOM      1  C   UNL     1       8.144  -5.906  -9.842  1.00  0.00    -0.022 A 
ATOM      2  C   UNL     1       8.168  -6.993 -10.730  1.00  0.00     0.058 A 
ATOM      3  C   UNL     1       7.908  -4.615 -10.352  1.00  0.00     0.012 A 
ATOM      4  C   UNL     1       7.937  -6.808 -12.097  1.00  0.00     0.157 A 
ATOM      5  C   UNL     1       7.677  -4.427 -11.719  1.00  0.00     0.051 A 
ATOM      6  C   UNL     1       7.687  -5.518 -12.595  1.00  0.00     0.157 A 
ENDROOT
BRANCH   1   7
ATOM      7  C   UNL     1       8.407  -6.159  -8.402  1.00  0.00     0.010 C 
ATOM      8  C   UNL     1       7.925  -5.394  -7.412  1.00  0.00     0.025 C 
BRANCH   8   9
ATOM      9  C   UNL     1       8.197  -5.683  -5.993  1.00  0.00     0.064 C 
ATOM     10  O   UNL     1       8.772  -4.839  -5.255  1.00  0.00    -0.545 OA
ATOM     11  O   UNL     1       7.811  -6.905  -5.459  1.00  0.00    -0.545 OA
ENDBRANCH   8   9
ENDBRANCH   1   7
BRANCH   4  12
ATOM     12  O   UNL     1       7.960  -7.915 -12.945  1.00  0.00    -0.504 OA
ATOM     13  H   UNL     1       8.508  -8.741 -12.739  1.00  0.00     0.293 HD
ENDBRANCH   4  12
BRANCH   6  14
ATOM     14  O   UNL     1       7.454  -5.327 -13.956  1.00  0.00    -0.504 OA
ATOM     15  H   UNL     1       8.147  -4.894 -14.558  1.00  0.00     0.293 HD
ENDBRANCH   6  14
TORSDOF 4
ENDMDL
MODEL 8
REMARK VINA RESULT:    -4.812      2.167      2.874
REMARK INTER + INTRA:          -5.789
REMARK INTER:                  -5.660
REMARK INTRA:                  -0.128
REMARK UNBOUND:                -0.133
REMARK SMILES O=C([O-])C=Cc1ccc(O)c(O)c1
REMARK SMILES IDX 6 1 13 2 7 3 11 4 8 5 9 6 5 7 4 8 2 9 1 10 3 11 12 12 10 14
REMARK H PARENT 12 13 10 15
REMARK Flexibility Score: inf
ROOT
ATOM      1  C   UNL     1       8.153  -5.828 -10.122  1.00  0.00    -0.022 A 
ATOM      2  C   UNL     1       8.090  -4.971  -9.011  1.00  0.00     0.058 A 
ATOM      3  C   UNL     1       8.192  -7.219  -9.906  1.00  0.00     0.012 A 
ATOM      4  C   UNL     1       8.042  -5.484  -7.710  1.00  0.00     0.157 A 
ATOM      5  C   UNL     1       8.144  -7.735  -8.607  1.00  0.00     0.051 A 
ATOM      6  C   UNL     1       8.065  -6.873  -7.506  1.00  0.00     0.157 A 
ENDROOT
BRANCH   1   7
ATOM      7  C   UNL     1       8.214  -5.229 -11.479  1.00  0.00     0.010 C 
ATOM      8  C   UNL     1       7.508  -4.151 -11.849  1.00  0.00     0.025 C 
BRANCH   8   9
ATOM      9  C   UNL     1       7.603  -3.577 -13.202  1.00  0.00     0.064 C 
ATOM     10  O   UNL     1       7.002  -4.102 -14.177  1.00  0.00    -0.545 OA
ATOM     11  O   UNL     1       8.366  -2.435 -13.407  1.00  0.00    -0.545 OA
ENDBRANCH   8   9
ENDBRANCH   1   7
BRANCH   4  12
ATOM     12  O   UNL     1       7.970  -4.599  -6.634  1.00  0.00    -0.504 OA
ATOM     13  H   UNL     1       8.789  -4.324  -6.107  1.00  0.00     0.293 HD
ENDBRANCH   4  12
BRANCH   6  14
ATOM     14  O   UNL     1       8.015  -7.391  -6.212  1.00  0.00    -0.504 OA
ATOM     15  H   UNL     1       7.132  -7.577  -5.749  1.00  0.00     0.293 HD
ENDBRANCH   6  14
TORSDOF 4
ENDMDL
MODEL 9
REMARK VINA RESULT:    -4.752     16.138     18.814
REMARK INTER + INTRA:          -5.718
REMARK INTER:                  -5.581
REMARK INTRA:                  -0.136
REMARK UNBOUND:                -0.133
REMARK SMILES O=C([O-])C=Cc1ccc(O)c(O)c1
REMARK SMILES IDX 6 1 13 2 7 3 11 4 8 5 9 6 5 7 4 8 2 9 1 10 3 11 12 12 10 14
REMARK H PARENT 12 13 10 15
REMARK Flexibility Score: inf
ROOT
ATOM      1  C   UNL     1      20.895   0.290 -18.498  1.00  0.00    -0.022 A 
ATOM      2  C   UNL     1      21.406   1.012 -19.590  1.00  0.00     0.058 A 
ATOM      3  C   UNL     1      20.246  -0.936 -18.737  1.00  0.00     0.012 A 
ATOM      4  C   UNL     1      21.296   0.514 -20.893  1.00  0.00     0.157 A 
ATOM      5  C   UNL     1      20.135  -1.436 -20.039  1.00  0.00     0.051 A 
ATOM      6  C   UNL     1      20.660  -0.718 -21.119  1.00  0.00     0.157 A 
ENDROOT
BRANCH   1   7
ATOM      7  C   UNL     1      21.029   0.871 -17.138  1.00  0.00     0.010 C 
ATOM      8  C   UNL     1      20.030   0.914 -16.245  1.00  0.00     0.025 C 
BRANCH   8   9
ATOM      9  C   UNL     1      20.202   1.488 -14.900  1.00  0.00     0.064 C 
ATOM     10  O   UNL     1      21.334   1.523 -14.346  1.00  0.00    -0.545 OA
ATOM     11  O   UNL     1      19.099   2.000 -14.230  1.00  0.00    -0.545 OA
ENDBRANCH   8   9
ENDBRANCH   1   7
BRANCH   4  12
ATOM     12  O   UNL     1      21.826   1.256 -21.949  1.00  0.00    -0.504 OA
ATOM     13  H   UNL     1      22.795   1.177 -22.230  1.00  0.00     0.293 HD
ENDBRANCH   4  12
BRANCH   6  14
ATOM     14  O   UNL     1      20.550  -1.219 -22.416  1.00  0.00    -0.504 OA
ATOM     15  H   UNL     1      19.814  -1.867 -22.673  1.00  0.00     0.293 HD
ENDBRANCH   6  14
TORSDOF 4
ENDMDL
