MODEL 1
REMARK VINA RESULT:    -3.968      0.000      0.000
REMARK INTER + INTRA:          -9.023
REMARK INTER:                  -7.216
REMARK INTRA:                  -1.807
REMARK UNBOUND:                -1.807
REMARK SMILES CCCCCCCCCCCCCCCC(=O)[O-]
REMARK SMILES IDX 9 1 10 2 11 3 12 4 13 5 14 6 15 7 16 8 17 9 18 10 8 11 7 12
REMARK SMILES IDX 6 13 5 14 4 15 3 16 2 17 1 18
REMARK H PARENT
REMARK Flexibility Score: inf
ROOT
ATOM      1  C   UNL     1     -40.245 -47.832  35.949  1.00  0.00     0.000 C 
ENDROOT
BRANCH   1   2
ATOM      2  C   UNL     1     -40.659 -48.052  34.485  1.00  0.00     0.000 C 
BRANCH   2   3
ATOM      3  C   UNL     1     -42.150 -47.772  34.242  1.00  0.00     0.000 C 
BRANCH   3   4
ATOM      4  C   UNL     1     -42.855 -49.013  33.673  1.00  0.00     0.000 C 
BRANCH   4   5
ATOM      5  C   UNL     1     -43.293 -50.008  34.763  1.00  0.00     0.000 C 
BRANCH   5   6
ATOM      6  C   UNL     1     -44.367 -49.479  35.732  1.00  0.00     0.006 C 
BRANCH   6   7
ATOM      7  C   UNL     1     -44.769 -50.508  36.798  1.00  0.00     0.053 C 
BRANCH   7   8
ATOM      8  C   UNL     1     -46.069 -50.122  37.430  1.00  0.00     0.041 C 
ATOM      9  O   UNL     1     -47.019 -49.702  36.720  1.00  0.00    -0.550 OA
ATOM     10  O   UNL     1     -46.214 -50.179  38.810  1.00  0.00    -0.550 OA
ENDBRANCH   7   8
ENDBRANCH   6   7
ENDBRANCH   5   6
ENDBRANCH   4   5
ENDBRANCH   3   4
ENDBRANCH   2   3
ENDBRANCH   1   2
BRANCH   1  11
ATOM     11  C   UNL     1     -40.221 -49.141  36.760  1.00  0.00     0.000 C 
BRANCH  11  12
ATOM     12  C   UNL     1     -41.299 -49.174  37.856  1.00  0.00    -0.000 C 
BRANCH  12  13
ATOM     13  C   UNL     1     -42.058 -47.841  37.978  1.00  0.00    -0.000 C 
BRANCH  13  14
ATOM     14  C   UNL     1     -43.203 -47.899  39.005  1.00  0.00    -0.000 C 
BRANCH  14  15
ATOM     15  C   UNL     1     -42.919 -47.188  40.343  1.00  0.00    -0.000 C 
BRANCH  15  16
ATOM     16  C   UNL     1     -41.793 -46.135  40.301  1.00  0.00    -0.000 C 
BRANCH  16  17
ATOM     17  C   UNL     1     -42.236 -44.702  40.645  1.00  0.00    -0.003 C 
ATOM     18  C   UNL     1     -41.294 -44.008  41.628  1.00  0.00     0.004 C 
ENDBRANCH  16  17
ENDBRANCH  15  16
ENDBRANCH  14  15
ENDBRANCH  13  14
ENDBRANCH  12  13
ENDBRANCH  11  12
ENDBRANCH   1  11
TORSDOF 14
ENDMDL
MODEL 2
REMARK VINA RESULT:    -3.951      1.887      3.465
REMARK INTER + INTRA:          -8.992
REMARK INTER:                  -6.945
REMARK INTRA:                  -2.048
REMARK UNBOUND:                -1.807
REMARK SMILES CCCCCCCCCCCCCCCC(=O)[O-]
REMARK SMILES IDX 9 1 10 2 11 3 12 4 13 5 14 6 15 7 16 8 17 9 18 10 8 11 7 12
REMARK SMILES IDX 6 13 5 14 4 15 3 16 2 17 1 18
REMARK H PARENT
REMARK Flexibility Score: inf
ROOT
ATOM      1  C   UNL     1     -42.745 -48.784  33.646  1.00  0.00     0.000 C 
ENDROOT
BRANCH   1   2
ATOM      2  C   UNL     1     -43.318 -49.765  34.682  1.00  0.00     0.000 C 
BRANCH   2   3
ATOM      3  C   UNL     1     -44.036 -49.053  35.839  1.00  0.00     0.000 C 
BRANCH   3   4
ATOM      4  C   UNL     1     -45.018 -50.002  36.543  1.00  0.00     0.000 C 
BRANCH   4   5
ATOM      5  C   UNL     1     -46.166 -49.263  37.253  1.00  0.00     0.000 C 
BRANCH   5   6
ATOM      6  C   UNL     1     -46.796 -50.024  38.434  1.00  0.00     0.006 C 
BRANCH   6   7
ATOM      7  C   UNL     1     -46.233 -51.442  38.599  1.00  0.00     0.053 C 
BRANCH   7   8
ATOM      8  C   UNL     1     -47.324 -52.456  38.456  1.00  0.00     0.041 C 
ATOM      9  O   UNL     1     -47.845 -52.974  39.479  1.00  0.00    -0.550 OA
ATOM     10  O   UNL     1     -47.731 -52.865  37.193  1.00  0.00    -0.550 OA
ENDBRANCH   7   8
ENDBRANCH   6   7
ENDBRANCH   5   6
ENDBRANCH   4   5
ENDBRANCH   3   4
ENDBRANCH   2   3
ENDBRANCH   1   2
BRANCH   1  11
ATOM     11  C   UNL     1     -41.950 -47.637  34.294  1.00  0.00     0.000 C 
BRANCH  11  12
ATOM     12  C   UNL     1     -40.560 -48.084  34.779  1.00  0.00    -0.000 C 
BRANCH  12  13
ATOM     13  C   UNL     1     -40.342 -47.810  36.277  1.00  0.00    -0.000 C 
BRANCH  13  14
ATOM     14  C   UNL     1     -40.535 -49.067  37.146  1.00  0.00    -0.000 C 
BRANCH  14  15
ATOM     15  C   UNL     1     -41.345 -48.849  38.440  1.00  0.00    -0.000 C 
BRANCH  15  16
ATOM     16  C   UNL     1     -42.154 -47.538  38.495  1.00  0.00    -0.000 C 
BRANCH  16  17
ATOM     17  C   UNL     1     -43.370 -47.569  39.439  1.00  0.00    -0.003 C 
ATOM     18  C   UNL     1     -43.631 -48.955  40.026  1.00  0.00     0.004 C 
ENDBRANCH  16  17
ENDBRANCH  15  16
ENDBRANCH  14  15
ENDBRANCH  13  14
ENDBRANCH  12  13
ENDBRANCH  11  12
ENDBRANCH   1  11
TORSDOF 14
ENDMDL
MODEL 3
REMARK VINA RESULT:    -3.816      2.507      4.668
REMARK INTER + INTRA:          -8.746
REMARK INTER:                  -6.268
REMARK INTRA:                  -2.479
REMARK UNBOUND:                -1.807
REMARK SMILES CCCCCCCCCCCCCCCC(=O)[O-]
REMARK SMILES IDX 9 1 10 2 11 3 12 4 13 5 14 6 15 7 16 8 17 9 18 10 8 11 7 12
REMARK SMILES IDX 6 13 5 14 4 15 3 16 2 17 1 18
REMARK H PARENT
REMARK Flexibility Score: inf
ROOT
ATOM      1  C   UNL     1     -42.296 -48.831  38.548  1.00  0.00     0.000 C 
ENDROOT
BRANCH   1   2
ATOM      2  C   UNL     1     -43.811 -48.967  38.769  1.00  0.00     0.000 C 
BRANCH   2   3
ATOM      3  C   UNL     1     -44.627 -47.989  37.909  1.00  0.00     0.000 C 
BRANCH   3   4
ATOM      4  C   UNL     1     -45.792 -48.710  37.215  1.00  0.00     0.000 C 
BRANCH   4   5
ATOM      5  C   UNL     1     -46.346 -49.888  38.037  1.00  0.00     0.000 C 
BRANCH   5   6
ATOM      6  C   UNL     1     -46.840 -51.085  37.204  1.00  0.00     0.006 C 
BRANCH   6   7
ATOM      7  C   UNL     1     -46.112 -52.392  37.545  1.00  0.00     0.053 C 
BRANCH   7   8
ATOM      8  C   UNL     1     -47.033 -53.333  38.253  1.00  0.00     0.041 C 
ATOM      9  O   UNL     1     -48.030 -52.891  38.882  1.00  0.00    -0.550 OA
ATOM     10  O   UNL     1     -46.763 -54.696  38.262  1.00  0.00    -0.550 OA
ENDBRANCH   7   8
ENDBRANCH   6   7
ENDBRANCH   5   6
ENDBRANCH   4   5
ENDBRANCH   3   4
ENDBRANCH   2   3
ENDBRANCH   1   2
BRANCH   1  11
ATOM     11  C   UNL     1     -41.636 -50.159  38.136  1.00  0.00     0.000 C 
BRANCH  11  12
ATOM     12  C   UNL     1     -42.603 -51.088  37.384  1.00  0.00    -0.000 C 
BRANCH  12  13
ATOM     13  C   UNL     1     -42.415 -51.024  35.858  1.00  0.00    -0.000 C 
BRANCH  13  14
ATOM     14  C   UNL     1     -43.565 -50.288  35.146  1.00  0.00    -0.000 C 
BRANCH  14  15
ATOM     15  C   UNL     1     -43.125 -49.242  34.103  1.00  0.00    -0.000 C 
BRANCH  15  16
ATOM     16  C   UNL     1     -42.514 -47.951  34.684  1.00  0.00    -0.000 C 
BRANCH  16  17
ATOM     17  C   UNL     1     -41.004 -47.783  34.438  1.00  0.00    -0.003 C 
ATOM     18  C   UNL     1     -40.184 -47.820  35.727  1.00  0.00     0.004 C 
ENDBRANCH  16  17
ENDBRANCH  15  16
ENDBRANCH  14  15
ENDBRANCH  13  14
ENDBRANCH  12  13
ENDBRANCH  11  12
ENDBRANCH   1  11
TORSDOF 14
ENDMDL
MODEL 4
REMARK VINA RESULT:    -3.808      3.741      6.671
REMARK INTER + INTRA:          -8.732
REMARK INTER:                  -6.223
REMARK INTRA:                  -2.509
REMARK UNBOUND:                -1.807
REMARK SMILES CCCCCCCCCCCCCCCC(=O)[O-]
REMARK SMILES IDX 9 1 10 2 11 3 12 4 13 5 14 6 15 7 16 8 17 9 18 10 8 11 7 12
REMARK SMILES IDX 6 13 5 14 4 15 3 16 2 17 1 18
REMARK H PARENT
REMARK Flexibility Score: inf
ROOT
ATOM      1  C   UNL     1     -46.684 -54.070  38.506  1.00  0.00     0.000 C 
ENDROOT
BRANCH   1   2
ATOM      2  C   UNL     1     -47.639 -53.182  37.693  1.00  0.00     0.000 C 
BRANCH   2   3
ATOM      3  C   UNL     1     -46.933 -51.969  37.066  1.00  0.00     0.000 C 
BRANCH   3   4
ATOM      4  C   UNL     1     -45.436 -52.249  36.867  1.00  0.00     0.000 C 
BRANCH   4   5
ATOM      5  C   UNL     1     -44.592 -50.965  36.764  1.00  0.00     0.000 C 
BRANCH   5   6
ATOM      6  C   UNL     1     -45.404 -49.666  36.610  1.00  0.00     0.006 C 
BRANCH   6   7
ATOM      7  C   UNL     1     -44.657 -48.429  37.129  1.00  0.00     0.053 C 
BRANCH   7   8
ATOM      8  C   UNL     1     -43.307 -48.330  36.493  1.00  0.00     0.041 C 
ATOM      9  O   UNL     1     -43.202 -48.216  35.243  1.00  0.00    -0.550 OA
ATOM     10  O   UNL     1     -42.162 -48.415  37.274  1.00  0.00    -0.550 OA
ENDBRANCH   7   8
ENDBRANCH   6   7
ENDBRANCH   5   6
ENDBRANCH   4   5
ENDBRANCH   3   4
ENDBRANCH   2   3
ENDBRANCH   1   2
BRANCH   1  11
ATOM     11  C   UNL     1     -47.417 -54.907  39.570  1.00  0.00     0.000 C 
BRANCH  11  12
ATOM     12  C   UNL     1     -47.291 -54.307  40.980  1.00  0.00    -0.000 C 
BRANCH  12  13
ATOM     13  C   UNL     1     -48.320 -53.192  41.240  1.00  0.00    -0.000 C 
BRANCH  13  14
ATOM     14  C   UNL     1     -47.670 -51.885  41.728  1.00  0.00    -0.000 C 
BRANCH  14  15
ATOM     15  C   UNL     1     -47.408 -50.835  40.630  1.00  0.00    -0.000 C 
BRANCH  15  16
ATOM     16  C   UNL     1     -45.926 -50.639  40.248  1.00  0.00    -0.000 C 
BRANCH  16  17
ATOM     17  C   UNL     1     -44.930 -51.463  41.083  1.00  0.00    -0.003 C 
ATOM     18  C   UNL     1     -43.941 -52.249  40.223  1.00  0.00     0.004 C 
ENDBRANCH  16  17
ENDBRANCH  15  16
ENDBRANCH  14  15
ENDBRANCH  13  14
ENDBRANCH  12  13
ENDBRANCH  11  12
ENDBRANCH   1  11
TORSDOF 14
ENDMDL
MODEL 5
REMARK VINA RESULT:    -3.794      1.176      2.160
REMARK INTER + INTRA:          -8.706
REMARK INTER:                  -6.794
REMARK INTRA:                  -1.912
REMARK UNBOUND:                -1.807
REMARK SMILES CCCCCCCCCCCCCCCC(=O)[O-]
REMARK SMILES IDX 9 1 10 2 11 3 12 4 13 5 14 6 15 7 16 8 17 9 18 10 8 11 7 12
REMARK SMILES IDX 6 13 5 14 4 15 3 16 2 17 1 18
REMARK H PARENT
REMARK Flexibility Score: inf
ROOT
ATOM      1  C   UNL     1     -40.881 -47.905  34.339  1.00  0.00     0.000 C 
ENDROOT
BRANCH   1   2
ATOM      2  C   UNL     1     -42.409 -47.866  34.509  1.00  0.00     0.000 C 
BRANCH   2   3
ATOM      3  C   UNL     1     -43.065 -49.239  34.296  1.00  0.00     0.000 C 
BRANCH   3   4
ATOM      4  C   UNL     1     -43.936 -49.623  35.502  1.00  0.00     0.000 C 
BRANCH   4   5
ATOM      5  C   UNL     1     -44.181 -48.448  36.466  1.00  0.00     0.000 C 
BRANCH   5   6
ATOM      6  C   UNL     1     -45.368 -48.635  37.429  1.00  0.00     0.006 C 
BRANCH   6   7
ATOM      7  C   UNL     1     -46.436 -49.593  36.882  1.00  0.00     0.053 C 
BRANCH   7   8
ATOM      8  C   UNL     1     -46.675 -50.712  37.845  1.00  0.00     0.041 C 
ATOM      9  O   UNL     1     -46.382 -50.574  39.061  1.00  0.00    -0.550 OA
ATOM     10  O   UNL     1     -47.176 -51.925  37.390  1.00  0.00    -0.550 OA
ENDBRANCH   7   8
ENDBRANCH   6   7
ENDBRANCH   5   6
ENDBRANCH   4   5
ENDBRANCH   3   4
ENDBRANCH   2   3
ENDBRANCH   1   2
BRANCH   1  11
ATOM     11  C   UNL     1     -40.139 -48.014  35.683  1.00  0.00     0.000 C 
BRANCH  11  12
ATOM     12  C   UNL     1     -39.914 -49.473  36.114  1.00  0.00    -0.000 C 
BRANCH  12  13
ATOM     13  C   UNL     1     -39.853 -49.633  37.644  1.00  0.00    -0.000 C 
BRANCH  13  14
ATOM     14  C   UNL     1     -41.247 -49.758  38.286  1.00  0.00    -0.000 C 
BRANCH  14  15
ATOM     15  C   UNL     1     -41.515 -48.794  39.459  1.00  0.00    -0.000 C 
BRANCH  15  16
ATOM     16  C   UNL     1     -41.677 -47.311  39.067  1.00  0.00    -0.000 C 
BRANCH  16  17
ATOM     17  C   UNL     1     -42.922 -46.622  39.653  1.00  0.00    -0.003 C 
ATOM     18  C   UNL     1     -42.602 -45.742  40.861  1.00  0.00     0.004 C 
ENDBRANCH  16  17
ENDBRANCH  15  16
ENDBRANCH  14  15
ENDBRANCH  13  14
ENDBRANCH  12  13
ENDBRANCH  11  12
ENDBRANCH   1  11
TORSDOF 14
ENDMDL
MODEL 6
REMARK VINA RESULT:    -3.739      2.523      5.520
REMARK INTER + INTRA:          -8.605
REMARK INTER:                  -6.014
REMARK INTRA:                  -2.592
REMARK UNBOUND:                -1.807
REMARK SMILES CCCCCCCCCCCCCCCC(=O)[O-]
REMARK SMILES IDX 9 1 10 2 11 3 12 4 13 5 14 6 15 7 16 8 17 9 18 10 8 11 7 12
REMARK SMILES IDX 6 13 5 14 4 15 3 16 2 17 1 18
REMARK H PARENT
REMARK Flexibility Score: inf
ROOT
ATOM      1  C   UNL     1     -43.179 -48.214  35.519  1.00  0.00     0.000 C 
ENDROOT
BRANCH   1   2
ATOM      2  C   UNL     1     -44.097 -49.447  35.568  1.00  0.00     0.000 C 
BRANCH   2   3
ATOM      3  C   UNL     1     -45.175 -49.342  36.657  1.00  0.00     0.000 C 
BRANCH   3   4
ATOM      4  C   UNL     1     -44.717 -48.417  37.795  1.00  0.00     0.000 C 
BRANCH   4   5
ATOM      5  C   UNL     1     -44.111 -49.182  38.985  1.00  0.00     0.000 C 
BRANCH   5   6
ATOM      6  C   UNL     1     -43.122 -48.371  39.842  1.00  0.00     0.006 C 
BRANCH   6   7
ATOM      7  C   UNL     1     -42.548 -47.155  39.102  1.00  0.00     0.053 C 
BRANCH   7   8
ATOM      8  C   UNL     1     -42.567 -45.949  39.987  1.00  0.00     0.041 C 
ATOM      9  O   UNL     1     -43.663 -45.440  40.340  1.00  0.00    -0.550 OA
ATOM     10  O   UNL     1     -41.374 -45.358  40.382  1.00  0.00    -0.550 OA
ENDBRANCH   7   8
ENDBRANCH   6   7
ENDBRANCH   5   6
ENDBRANCH   4   5
ENDBRANCH   3   4
ENDBRANCH   2   3
ENDBRANCH   1   2
BRANCH   1  11
ATOM     11  C   UNL     1     -42.379 -48.124  34.208  1.00  0.00     0.000 C 
BRANCH  11  12
ATOM     12  C   UNL     1     -40.871 -47.945  34.449  1.00  0.00    -0.000 C 
BRANCH  12  13
ATOM     13  C   UNL     1     -40.527 -47.784  35.940  1.00  0.00    -0.000 C 
BRANCH  13  14
ATOM     14  C   UNL     1     -39.753 -48.988  36.507  1.00  0.00    -0.000 C 
BRANCH  14  15
ATOM     15  C   UNL     1     -40.549 -49.875  37.486  1.00  0.00    -0.000 C 
BRANCH  15  16
ATOM     16  C   UNL     1     -41.233 -51.103  36.852  1.00  0.00    -0.000 C 
BRANCH  16  17
ATOM     17  C   UNL     1     -40.567 -51.619  35.564  1.00  0.00    -0.003 C 
ATOM     18  C   UNL     1     -41.551 -51.763  34.403  1.00  0.00     0.004 C 
ENDBRANCH  16  17
ENDBRANCH  15  16
ENDBRANCH  14  15
ENDBRANCH  13  14
ENDBRANCH  12  13
ENDBRANCH  11  12
ENDBRANCH   1  11
TORSDOF 14
ENDMDL
MODEL 7
REMARK VINA RESULT:    -3.731      3.141      6.625
REMARK INTER + INTRA:          -8.591
REMARK INTER:                  -6.389
REMARK INTRA:                  -2.201
REMARK UNBOUND:                -1.807
REMARK SMILES CCCCCCCCCCCCCCCC(=O)[O-]
REMARK SMILES IDX 9 1 10 2 11 3 12 4 13 5 14 6 15 7 16 8 17 9 18 10 8 11 7 12
REMARK SMILES IDX 6 13 5 14 4 15 3 16 2 17 1 18
REMARK H PARENT
REMARK Flexibility Score: inf
ROOT
ATOM      1  C   UNL     1     -44.101 -51.007  40.123  1.00  0.00     0.000 C 
ENDROOT
BRANCH   1   2
ATOM      2  C   UNL     1     -43.015 -49.953  39.852  1.00  0.00     0.000 C 
BRANCH   2   3
ATOM      3  C   UNL     1     -43.462 -48.531  40.222  1.00  0.00     0.000 C 
BRANCH   3   4
ATOM      4  C   UNL     1     -43.750 -47.701  38.961  1.00  0.00     0.000 C 
BRANCH   4   5
ATOM      5  C   UNL     1     -43.146 -48.316  37.685  1.00  0.00     0.000 C 
BRANCH   5   6
ATOM      6  C   UNL     1     -44.092 -48.353  36.472  1.00  0.00     0.006 C 
BRANCH   6   7
ATOM      7  C   UNL     1     -43.928 -49.622  35.624  1.00  0.00     0.053 C 
BRANCH   7   8
ATOM      8  C   UNL     1     -43.012 -49.364  34.470  1.00  0.00     0.041 C 
ATOM      9  O   UNL     1     -42.464 -50.325  33.869  1.00  0.00    -0.550 OA
ATOM     10  O   UNL     1     -42.722 -48.059  34.092  1.00  0.00    -0.550 OA
ENDBRANCH   7   8
ENDBRANCH   6   7
ENDBRANCH   5   6
ENDBRANCH   4   5
ENDBRANCH   3   4
ENDBRANCH   2   3
ENDBRANCH   1   2
BRANCH   1  11
ATOM     11  C   UNL     1     -44.865 -51.410  38.850  1.00  0.00     0.000 C 
BRANCH  11  12
ATOM     12  C   UNL     1     -46.150 -50.589  38.650  1.00  0.00    -0.000 C 
BRANCH  12  13
ATOM     13  C   UNL     1     -46.889 -50.956  37.351  1.00  0.00    -0.000 C 
BRANCH  13  14
ATOM     14  C   UNL     1     -46.889 -52.471  37.074  1.00  0.00    -0.000 C 
BRANCH  14  15
ATOM     15  C   UNL     1     -47.942 -53.279  37.860  1.00  0.00    -0.000 C 
BRANCH  15  16
ATOM     16  C   UNL     1     -47.373 -54.228  38.935  1.00  0.00    -0.000 C 
BRANCH  16  17
ATOM     17  C   UNL     1     -47.425 -53.679  40.372  1.00  0.00    -0.003 C 
ATOM     18  C   UNL     1     -48.700 -52.889  40.661  1.00  0.00     0.004 C 
ENDBRANCH  16  17
ENDBRANCH  15  16
ENDBRANCH  14  15
ENDBRANCH  13  14
ENDBRANCH  12  13
ENDBRANCH  11  12
ENDBRANCH   1  11
TORSDOF 14
ENDMDL
MODEL 8
REMARK VINA RESULT:    -3.730      3.749      7.097
REMARK INTER + INTRA:          -8.590
REMARK INTER:                  -6.685
REMARK INTRA:                  -1.905
REMARK UNBOUND:                -1.807
REMARK SMILES CCCCCCCCCCCCCCCC(=O)[O-]
REMARK SMILES IDX 9 1 10 2 11 3 12 4 13 5 14 6 15 7 16 8 17 9 18 10 8 11 7 12
REMARK SMILES IDX 6 13 5 14 4 15 3 16 2 17 1 18
REMARK H PARENT
REMARK Flexibility Score: inf
ROOT
ATOM      1  C   UNL     1     -45.336 -50.623  40.555  1.00  0.00     0.000 C 
ENDROOT
BRANCH   1   2
ATOM      2  C   UNL     1     -45.125 -50.529  39.035  1.00  0.00     0.000 C 
BRANCH   2   3
ATOM      3  C   UNL     1     -46.375 -50.036  38.290  1.00  0.00     0.000 C 
BRANCH   3   4
ATOM      4  C   UNL     1     -45.991 -49.331  36.981  1.00  0.00     0.000 C 
BRANCH   4   5
ATOM      5  C   UNL     1     -44.956 -48.208  37.183  1.00  0.00     0.000 C 
BRANCH   5   6
ATOM      6  C   UNL     1     -43.643 -48.389  36.401  1.00  0.00     0.006 C 
BRANCH   6   7
ATOM      7  C   UNL     1     -43.754 -49.428  35.277  1.00  0.00     0.053 C 
BRANCH   7   8
ATOM      8  C   UNL     1     -43.011 -48.966  34.063  1.00  0.00     0.041 C 
ATOM      9  O   UNL     1     -42.477 -47.826  34.043  1.00  0.00    -0.550 OA
ATOM     10  O   UNL     1     -42.951 -49.774  32.936  1.00  0.00    -0.550 OA
ENDBRANCH   7   8
ENDBRANCH   6   7
ENDBRANCH   5   6
ENDBRANCH   4   5
ENDBRANCH   3   4
ENDBRANCH   2   3
ENDBRANCH   1   2
BRANCH   1  11
ATOM     11  C   UNL     1     -45.111 -52.046  41.096  1.00  0.00     0.000 C 
BRANCH  11  12
ATOM     12  C   UNL     1     -46.366 -52.625  41.770  1.00  0.00    -0.000 C 
BRANCH  12  13
ATOM     13  C   UNL     1     -47.666 -51.997  41.234  1.00  0.00    -0.000 C 
BRANCH  13  14
ATOM     14  C   UNL     1     -48.460 -52.955  40.327  1.00  0.00    -0.000 C 
BRANCH  14  15
ATOM     15  C   UNL     1     -47.861 -53.172  38.923  1.00  0.00    -0.000 C 
BRANCH  15  16
ATOM     16  C   UNL     1     -47.245 -54.565  38.680  1.00  0.00    -0.000 C 
BRANCH  16  17
ATOM     17  C   UNL     1     -45.766 -54.551  38.254  1.00  0.00    -0.003 C 
ATOM     18  C   UNL     1     -45.476 -53.537  37.148  1.00  0.00     0.004 C 
ENDBRANCH  16  17
ENDBRANCH  15  16
ENDBRANCH  14  15
ENDBRANCH  13  14
ENDBRANCH  12  13
ENDBRANCH  11  12
ENDBRANCH   1  11
TORSDOF 14
ENDMDL
MODEL 9
REMARK VINA RESULT:    -3.669      2.548      4.445
REMARK INTER + INTRA:          -8.479
REMARK INTER:                  -5.939
REMARK INTRA:                  -2.540
REMARK UNBOUND:                -1.807
REMARK SMILES CCCCCCCCCCCCCCCC(=O)[O-]
REMARK SMILES IDX 9 1 10 2 11 3 12 4 13 5 14 6 15 7 16 8 17 9 18 10 8 11 7 12
REMARK SMILES IDX 6 13 5 14 4 15 3 16 2 17 1 18
REMARK H PARENT
REMARK Flexibility Score: inf
ROOT
ATOM      1  C   UNL     1     -42.141 -51.293  35.403  1.00  0.00     0.000 C 
ENDROOT
BRANCH   1   2
ATOM      2  C   UNL     1     -43.337 -50.738  36.195  1.00  0.00     0.000 C 
BRANCH   2   3
ATOM      3  C   UNL     1     -42.949 -50.272  37.607  1.00  0.00     0.000 C 
BRANCH   3   4
ATOM      4  C   UNL     1     -43.471 -48.853  37.878  1.00  0.00     0.000 C 
BRANCH   4   5
ATOM      5  C   UNL     1     -44.567 -48.416  36.889  1.00  0.00     0.000 C 
BRANCH   5   6
ATOM      6  C   UNL     1     -45.995 -48.406  37.466  1.00  0.00     0.006 C 
BRANCH   6   7
ATOM      7  C   UNL     1     -46.875 -49.529  36.902  1.00  0.00     0.053 C 
BRANCH   7   8
ATOM      8  C   UNL     1     -46.739 -50.766  37.733  1.00  0.00     0.041 C 
ATOM      9  O   UNL     1     -46.902 -51.900  37.212  1.00  0.00    -0.550 OA
ATOM     10  O   UNL     1     -46.483 -50.663  39.094  1.00  0.00    -0.550 OA
ENDBRANCH   7   8
ENDBRANCH   6   7
ENDBRANCH   5   6
ENDBRANCH   4   5
ENDBRANCH   3   4
ENDBRANCH   2   3
ENDBRANCH   1   2
BRANCH   1  11
ATOM     11  C   UNL     1     -41.911 -50.543  34.079  1.00  0.00     0.000 C 
BRANCH  11  12
ATOM     12  C   UNL     1     -42.940 -49.424  33.848  1.00  0.00    -0.000 C 
BRANCH  12  13
ATOM     13  C   UNL     1     -42.350 -48.022  34.078  1.00  0.00    -0.000 C 
BRANCH  13  14
ATOM     14  C   UNL     1     -40.856 -48.059  34.450  1.00  0.00    -0.000 C 
BRANCH  14  15
ATOM     15  C   UNL     1     -40.533 -47.646  35.900  1.00  0.00    -0.000 C 
BRANCH  15  16
ATOM     16  C   UNL     1     -39.722 -48.677  36.711  1.00  0.00    -0.000 C 
BRANCH  16  17
ATOM     17  C   UNL     1     -38.826 -49.601  35.868  1.00  0.00    -0.003 C 
ATOM     18  C   UNL     1     -38.110 -50.660  36.705  1.00  0.00     0.004 C 
ENDBRANCH  16  17
ENDBRANCH  15  16
ENDBRANCH  14  15
ENDBRANCH  13  14
ENDBRANCH  12  13
ENDBRANCH  11  12
ENDBRANCH   1  11
TORSDOF 14
ENDMDL
