MODEL 1
REMARK VINA RESULT:    -3.269      0.000      0.000
REMARK INTER + INTRA:          -5.766
REMARK INTER:                  -5.180
REMARK INTRA:                  -0.586
REMARK UNBOUND:                -0.586
REMARK SMILES CCCCCCCCCCCC(=O)[O-]
REMARK SMILES IDX 7 1 8 2 9 3 10 4 11 5 12 6 13 7 14 8 6 9 5 10 4 11 3 12 2 13
REMARK SMILES IDX 1 14
REMARK H PARENT
REMARK Flexibility Score: inf
ROOT
ATOM      1  C   UNL     1      18.220  -4.045  13.327  1.00  0.00     0.000 C 
ENDROOT
BRANCH   1   2
ATOM      2  C   UNL     1      18.333  -5.142  12.258  1.00  0.00     0.000 C 
BRANCH   2   3
ATOM      3  C   UNL     1      16.986  -5.817  11.946  1.00  0.00     0.000 C 
BRANCH   3   4
ATOM      4  C   UNL     1      16.875  -6.428  10.537  1.00  0.00     0.006 C 
BRANCH   4   5
ATOM      5  C   UNL     1      18.140  -6.219   9.694  1.00  0.00     0.053 C 
BRANCH   5   6
ATOM      6  C   UNL     1      17.777  -5.874   8.284  1.00  0.00     0.041 C 
ATOM      7  O   UNL     1      17.212  -6.726   7.549  1.00  0.00    -0.550 OA
ATOM      8  O   UNL     1      18.017  -4.596   7.797  1.00  0.00    -0.550 OA
ENDBRANCH   5   6
ENDBRANCH   4   5
ENDBRANCH   3   4
ENDBRANCH   2   3
ENDBRANCH   1   2
BRANCH   1   9
ATOM      9  C   UNL     1      16.876  -4.129  14.061  1.00  0.00     0.000 C 
BRANCH   9  10
ATOM     10  C   UNL     1      17.063  -4.641  15.494  1.00  0.00    -0.000 C 
BRANCH  10  11
ATOM     11  C   UNL     1      18.460  -4.298  16.024  1.00  0.00    -0.000 C 
BRANCH  11  12
ATOM     12  C   UNL     1      19.345  -5.553  16.094  1.00  0.00    -0.000 C 
BRANCH  12  13
ATOM     13  C   UNL     1      20.842  -5.227  15.982  1.00  0.00    -0.003 C 
ATOM     14  C   UNL     1      21.678  -6.431  15.546  1.00  0.00     0.004 C 
ENDBRANCH  12  13
ENDBRANCH  11  12
ENDBRANCH  10  11
ENDBRANCH   9  10
ENDBRANCH   1   9
TORSDOF 10
ENDMDL
MODEL 2
REMARK VINA RESULT:    -3.250      3.649      6.521
REMARK INTER + INTRA:          -5.736
REMARK INTER:                  -5.227
REMARK INTRA:                  -0.509
REMARK UNBOUND:                -0.586
REMARK SMILES CCCCCCCCCCCC(=O)[O-]
REMARK SMILES IDX 7 1 8 2 9 3 10 4 11 5 12 6 13 7 14 8 6 9 5 10 4 11 3 12 2 13
REMARK SMILES IDX 1 14
REMARK H PARENT
REMARK Flexibility Score: inf
ROOT
ATOM      1  C   UNL     1      18.879  -3.317  13.165  1.00  0.00     0.000 C 
ENDROOT
BRANCH   1   2
ATOM      2  C   UNL     1      19.108  -3.179  14.677  1.00  0.00     0.000 C 
BRANCH   2   3
ATOM      3  C   UNL     1      18.335  -4.226  15.500  1.00  0.00     0.000 C 
BRANCH   3   4
ATOM      4  C   UNL     1      19.202  -5.340  16.114  1.00  0.00     0.006 C 
BRANCH   4   5
ATOM      5  C   UNL     1      20.706  -5.100  15.926  1.00  0.00     0.053 C 
BRANCH   5   6
ATOM      6  C   UNL     1      21.453  -6.394  15.990  1.00  0.00     0.041 C 
ATOM      7  O   UNL     1      20.829  -7.487  15.988  1.00  0.00    -0.550 OA
ATOM      8  O   UNL     1      22.842  -6.395  16.002  1.00  0.00    -0.550 OA
ENDBRANCH   5   6
ENDBRANCH   4   5
ENDBRANCH   3   4
ENDBRANCH   2   3
ENDBRANCH   1   2
BRANCH   1   9
ATOM      9  C   UNL     1      18.968  -4.784  12.727  1.00  0.00     0.000 C 
BRANCH   9  10
ATOM     10  C   UNL     1      17.689  -5.222  12.006  1.00  0.00    -0.000 C 
BRANCH  10  11
ATOM     11  C   UNL     1      17.984  -6.324  10.981  1.00  0.00    -0.000 C 
BRANCH  11  12
ATOM     12  C   UNL     1      16.875  -6.400   9.920  1.00  0.00    -0.000 C 
BRANCH  12  13
ATOM     13  C   UNL     1      17.426  -6.382   8.487  1.00  0.00    -0.003 C 
ATOM     14  C   UNL     1      18.270  -5.141   8.193  1.00  0.00     0.004 C 
ENDBRANCH  12  13
ENDBRANCH  11  12
ENDBRANCH  10  11
ENDBRANCH   9  10
ENDBRANCH   1   9
TORSDOF 10
ENDMDL
MODEL 3
REMARK VINA RESULT:    -3.182      3.352      6.621
REMARK INTER + INTRA:          -5.629
REMARK INTER:                  -5.402
REMARK INTRA:                  -0.227
REMARK UNBOUND:                -0.586
REMARK SMILES CCCCCCCCCCCC(=O)[O-]
REMARK SMILES IDX 7 1 8 2 9 3 10 4 11 5 12 6 13 7 14 8 6 9 5 10 4 11 3 12 2 13
REMARK SMILES IDX 1 14
REMARK H PARENT
REMARK Flexibility Score: inf
ROOT
ATOM      1  C   UNL     1      18.988  -4.417  13.108  1.00  0.00     0.000 C 
ENDROOT
BRANCH   1   2
ATOM      2  C   UNL     1      19.825  -4.815  14.333  1.00  0.00     0.000 C 
BRANCH   2   3
ATOM      3  C   UNL     1      19.271  -4.243  15.650  1.00  0.00     0.000 C 
BRANCH   3   4
ATOM      4  C   UNL     1      17.738  -4.121  15.713  1.00  0.00     0.006 C 
BRANCH   4   5
ATOM      5  C   UNL     1      17.267  -2.717  16.119  1.00  0.00     0.053 C 
BRANCH   5   6
ATOM      6  C   UNL     1      18.101  -1.673  15.447  1.00  0.00     0.041 C 
ATOM      7  O   UNL     1      17.641  -1.027  14.469  1.00  0.00    -0.550 OA
ATOM      8  O   UNL     1      19.368  -1.377  15.933  1.00  0.00    -0.550 OA
ENDBRANCH   5   6
ENDBRANCH   4   5
ENDBRANCH   3   4
ENDBRANCH   2   3
ENDBRANCH   1   2
BRANCH   1   9
ATOM      9  C   UNL     1      18.539  -5.656  12.323  1.00  0.00     0.000 C 
BRANCH   9  10
ATOM     10  C   UNL     1      17.158  -5.438  11.693  1.00  0.00    -0.000 C 
BRANCH  10  11
ATOM     11  C   UNL     1      16.926  -6.407  10.528  1.00  0.00    -0.000 C 
BRANCH  11  12
ATOM     12  C   UNL     1      18.046  -6.289   9.483  1.00  0.00    -0.000 C 
BRANCH  12  13
ATOM     13  C   UNL     1      17.569  -5.640   8.175  1.00  0.00    -0.003 C 
ATOM     14  C   UNL     1      17.050  -6.660   7.162  1.00  0.00     0.004 C 
ENDBRANCH  12  13
ENDBRANCH  11  12
ENDBRANCH  10  11
ENDBRANCH   9  10
ENDBRANCH   1   9
TORSDOF 10
ENDMDL
MODEL 4
REMARK VINA RESULT:    -3.015      8.124      9.649
REMARK INTER + INTRA:          -5.364
REMARK INTER:                  -5.074
REMARK INTRA:                  -0.290
REMARK UNBOUND:                -0.586
REMARK SMILES CCCCCCCCCCCC(=O)[O-]
REMARK SMILES IDX 7 1 8 2 9 3 10 4 11 5 12 6 13 7 14 8 6 9 5 10 4 11 3 12 2 13
REMARK SMILES IDX 1 14
REMARK H PARENT
REMARK Flexibility Score: inf
ROOT
ATOM      1  C   UNL     1      17.495   2.554  15.772  1.00  0.00     0.000 C 
ENDROOT
BRANCH   1   2
ATOM      2  C   UNL     1      17.624   3.865  14.982  1.00  0.00     0.000 C 
BRANCH   2   3
ATOM      3  C   UNL     1      18.971   4.574  15.210  1.00  0.00     0.000 C 
BRANCH   3   4
ATOM      4  C   UNL     1      18.922   6.110  15.120  1.00  0.00     0.006 C 
BRANCH   4   5
ATOM      5  C   UNL     1      18.595   6.616  13.708  1.00  0.00     0.053 C 
BRANCH   5   6
ATOM      6  C   UNL     1      19.852   6.805  12.918  1.00  0.00     0.041 C 
ATOM      7  O   UNL     1      20.540   7.850  13.063  1.00  0.00    -0.550 OA
ATOM      8  O   UNL     1      20.290   5.807  12.058  1.00  0.00    -0.550 OA
ENDBRANCH   5   6
ENDBRANCH   4   5
ENDBRANCH   3   4
ENDBRANCH   2   3
ENDBRANCH   1   2
BRANCH   1   9
ATOM      9  C   UNL     1      17.167   1.381  14.839  1.00  0.00     0.000 C 
BRANCH   9  10
ATOM     10  C   UNL     1      17.209   0.049  15.596  1.00  0.00    -0.000 C 
BRANCH  10  11
ATOM     11  C   UNL     1      17.571  -1.107  14.655  1.00  0.00    -0.000 C 
BRANCH  11  12
ATOM     12  C   UNL     1      18.700  -1.966  15.248  1.00  0.00    -0.000 C 
BRANCH  12  13
ATOM     13  C   UNL     1      18.599  -3.442  14.833  1.00  0.00    -0.003 C 
ATOM     14  C   UNL     1      19.319  -3.736  13.517  1.00  0.00     0.004 C 
ENDBRANCH  12  13
ENDBRANCH  11  12
ENDBRANCH  10  11
ENDBRANCH   9  10
ENDBRANCH   1   9
TORSDOF 10
ENDMDL
MODEL 5
REMARK VINA RESULT:    -2.968     17.918     18.515
REMARK INTER + INTRA:          -5.289
REMARK INTER:                  -5.011
REMARK INTRA:                  -0.279
REMARK UNBOUND:                -0.586
REMARK SMILES CCCCCCCCCCCC(=O)[O-]
REMARK SMILES IDX 7 1 8 2 9 3 10 4 11 5 12 6 13 7 14 8 6 9 5 10 4 11 3 12 2 13
REMARK SMILES IDX 1 14
REMARK H PARENT
REMARK Flexibility Score: inf
ROOT
ATOM      1  C   UNL     1      36.299  -5.641  15.286  1.00  0.00     0.000 C 
ENDROOT
BRANCH   1   2
ATOM      2  C   UNL     1      37.124  -5.919  14.020  1.00  0.00     0.000 C 
BRANCH   2   3
ATOM      3  C   UNL     1      36.636  -7.156  13.245  1.00  0.00     0.000 C 
BRANCH   3   4
ATOM      4  C   UNL     1      36.884  -7.112  11.726  1.00  0.00     0.006 C 
BRANCH   4   5
ATOM      5  C   UNL     1      36.596  -8.451  11.035  1.00  0.00     0.053 C 
BRANCH   5   6
ATOM      6  C   UNL     1      36.113  -8.224   9.637  1.00  0.00     0.041 C 
ATOM      7  O   UNL     1      35.271  -7.319   9.397  1.00  0.00    -0.550 OA
ATOM      8  O   UNL     1      36.629  -8.978   8.591  1.00  0.00    -0.550 OA
ENDBRANCH   5   6
ENDBRANCH   4   5
ENDBRANCH   3   4
ENDBRANCH   2   3
ENDBRANCH   1   2
BRANCH   1   9
ATOM      9  C   UNL     1      36.807  -4.386  16.008  1.00  0.00     0.000 C 
BRANCH   9  10
ATOM     10  C   UNL     1      36.736  -3.158  15.093  1.00  0.00    -0.000 C 
BRANCH  10  11
ATOM     11  C   UNL     1      35.962  -2.016  15.764  1.00  0.00    -0.000 C 
BRANCH  11  12
ATOM     12  C   UNL     1      36.495  -0.649  15.308  1.00  0.00    -0.000 C 
BRANCH  12  13
ATOM     13  C   UNL     1      35.632  -0.015  14.207  1.00  0.00    -0.003 C 
ATOM     14  C   UNL     1      35.663   1.513  14.236  1.00  0.00     0.004 C 
ENDBRANCH  12  13
ENDBRANCH  11  12
ENDBRANCH  10  11
ENDBRANCH   9  10
ENDBRANCH   1   9
TORSDOF 10
ENDMDL
MODEL 6
REMARK VINA RESULT:    -2.759     17.464     18.279
REMARK INTER + INTRA:          -4.958
REMARK INTER:                  -4.358
REMARK INTRA:                  -0.601
REMARK UNBOUND:                -0.586
REMARK SMILES CCCCCCCCCCCC(=O)[O-]
REMARK SMILES IDX 7 1 8 2 9 3 10 4 11 5 12 6 13 7 14 8 6 9 5 10 4 11 3 12 2 13
REMARK SMILES IDX 1 14
REMARK H PARENT
REMARK Flexibility Score: inf
ROOT
ATOM      1  C   UNL     1      35.168  -7.178  15.469  1.00  0.00     0.000 C 
ENDROOT
BRANCH   1   2
ATOM      2  C   UNL     1      36.141  -8.333  15.189  1.00  0.00     0.000 C 
BRANCH   2   3
ATOM      3  C   UNL     1      35.860  -9.044  13.853  1.00  0.00     0.000 C 
BRANCH   3   4
ATOM      4  C   UNL     1      35.986  -8.154  12.603  1.00  0.00     0.006 C 
BRANCH   4   5
ATOM      5  C   UNL     1      35.694  -8.910  11.300  1.00  0.00     0.053 C 
BRANCH   5   6
ATOM      6  C   UNL     1      35.988  -8.043  10.117  1.00  0.00     0.041 C 
ATOM      7  O   UNL     1      35.963  -8.528   8.954  1.00  0.00    -0.550 OA
ATOM      8  O   UNL     1      36.242  -6.689  10.292  1.00  0.00    -0.550 OA
ENDBRANCH   5   6
ENDBRANCH   4   5
ENDBRANCH   3   4
ENDBRANCH   2   3
ENDBRANCH   1   2
BRANCH   1   9
ATOM      9  C   UNL     1      35.925  -5.914  15.898  1.00  0.00     0.000 C 
BRANCH   9  10
ATOM     10  C   UNL     1      37.115  -5.644  14.971  1.00  0.00    -0.000 C 
BRANCH  10  11
ATOM     11  C   UNL     1      36.845  -4.434  14.068  1.00  0.00    -0.000 C 
BRANCH  11  12
ATOM     12  C   UNL     1      36.940  -3.122  14.863  1.00  0.00    -0.000 C 
BRANCH  12  13
ATOM     13  C   UNL     1      36.823  -1.879  13.967  1.00  0.00    -0.003 C 
ATOM     14  C   UNL     1      35.987  -0.768  14.603  1.00  0.00     0.004 C 
ENDBRANCH  12  13
ENDBRANCH  11  12
ENDBRANCH  10  11
ENDBRANCH   9  10
ENDBRANCH   1   9
TORSDOF 10
ENDMDL
MODEL 7
REMARK VINA RESULT:    -2.698     18.308     19.174
REMARK INTER + INTRA:          -4.861
REMARK INTER:                  -4.407
REMARK INTRA:                  -0.454
REMARK UNBOUND:                -0.586
REMARK SMILES CCCCCCCCCCCC(=O)[O-]
REMARK SMILES IDX 7 1 8 2 9 3 10 4 11 5 12 6 13 7 14 8 6 9 5 10 4 11 3 12 2 13
REMARK SMILES IDX 1 14
REMARK H PARENT
REMARK Flexibility Score: inf
ROOT
ATOM      1  C   UNL     1      36.832  -4.619  15.015  1.00  0.00     0.000 C 
ENDROOT
BRANCH   1   2
ATOM      2  C   UNL     1      36.190  -3.774  16.125  1.00  0.00     0.000 C 
BRANCH   2   3
ATOM      3  C   UNL     1      36.667  -2.311  16.118  1.00  0.00     0.000 C 
BRANCH   3   4
ATOM      4  C   UNL     1      35.570  -1.270  15.827  1.00  0.00     0.006 C 
BRANCH   4   5
ATOM      5  C   UNL     1      35.836  -0.462  14.549  1.00  0.00     0.053 C 
BRANCH   5   6
ATOM      6  C   UNL     1      35.767   1.004  14.835  1.00  0.00     0.041 C 
ATOM      7  O   UNL     1      35.559   1.413  16.007  1.00  0.00    -0.550 OA
ATOM      8  O   UNL     1      35.984   1.922  13.815  1.00  0.00    -0.550 OA
ENDBRANCH   5   6
ENDBRANCH   4   5
ENDBRANCH   3   4
ENDBRANCH   2   3
ENDBRANCH   1   2
BRANCH   1   9
ATOM      9  C   UNL     1      36.364  -6.078  15.094  1.00  0.00     0.000 C 
BRANCH   9  10
ATOM     10  C   UNL     1      36.799  -6.864  13.852  1.00  0.00    -0.000 C 
BRANCH  10  11
ATOM     11  C   UNL     1      36.944  -5.938  12.638  1.00  0.00    -0.000 C 
BRANCH  11  12
ATOM     12  C   UNL     1      36.841  -6.732  11.326  1.00  0.00    -0.000 C 
BRANCH  12  13
ATOM     13  C   UNL     1      36.371  -8.179  11.546  1.00  0.00    -0.003 C 
ATOM     14  C   UNL     1      36.132  -8.929  10.236  1.00  0.00     0.004 C 
ENDBRANCH  12  13
ENDBRANCH  11  12
ENDBRANCH  10  11
ENDBRANCH   9  10
ENDBRANCH   1   9
TORSDOF 10
ENDMDL
MODEL 8
REMARK VINA RESULT:    -2.472      5.945      7.821
REMARK INTER + INTRA:          -4.503
REMARK INTER:                  -3.983
REMARK INTRA:                  -0.520
REMARK UNBOUND:                -0.586
REMARK SMILES CCCCCCCCCCCC(=O)[O-]
REMARK SMILES IDX 7 1 8 2 9 3 10 4 11 5 12 6 13 7 14 8 6 9 5 10 4 11 3 12 2 13
REMARK SMILES IDX 1 14
REMARK H PARENT
REMARK Flexibility Score: inf
ROOT
ATOM      1  C   UNL     1      17.797  -1.168  14.298  1.00  0.00     0.000 C 
ENDROOT
BRANCH   1   2
ATOM      2  C   UNL     1      16.979   0.054  14.740  1.00  0.00     0.000 C 
BRANCH   2   3
ATOM      3  C   UNL     1      17.392   0.585  16.125  1.00  0.00     0.000 C 
BRANCH   3   4
ATOM      4  C   UNL     1      18.029   1.986  16.122  1.00  0.00     0.006 C 
BRANCH   4   5
ATOM      5  C   UNL     1      17.401   2.926  15.083  1.00  0.00     0.053 C 
BRANCH   5   6
ATOM      6  C   UNL     1      18.274   4.120  14.865  1.00  0.00     0.041 C 
ATOM      7  O   UNL     1      17.834   5.122  14.242  1.00  0.00    -0.550 OA
ATOM      8  O   UNL     1      19.559   4.149  15.392  1.00  0.00    -0.550 OA
ENDBRANCH   5   6
ENDBRANCH   4   5
ENDBRANCH   3   4
ENDBRANCH   2   3
ENDBRANCH   1   2
BRANCH   1   9
ATOM      9  C   UNL     1      18.209  -2.019  15.506  1.00  0.00     0.000 C 
BRANCH   9  10
ATOM     10  C   UNL     1      17.192  -3.136  15.766  1.00  0.00    -0.000 C 
BRANCH  10  11
ATOM     11  C   UNL     1      17.660  -4.461  15.150  1.00  0.00    -0.000 C 
BRANCH  11  12
ATOM     12  C   UNL     1      17.203  -4.579  13.688  1.00  0.00    -0.000 C 
BRANCH  12  13
ATOM     13  C   UNL     1      18.361  -4.903  12.731  1.00  0.00    -0.003 C 
ATOM     14  C   UNL     1      17.912  -5.701  11.507  1.00  0.00     0.004 C 
ENDBRANCH  12  13
ENDBRANCH  11  12
ENDBRANCH  10  11
ENDBRANCH   9  10
ENDBRANCH   1   9
TORSDOF 10
ENDMDL
