MODEL 1
REMARK VINA RESULT:    -6.750      0.000      0.000
REMARK INTER + INTRA:          -8.436
REMARK INTER:                  -8.131
REMARK INTRA:                  -0.304
REMARK UNBOUND:                -0.304
REMARK SMILES O=c1c(O)c(-c2ccc(O)c(O)c2)oc2cc(O)cc(O)c12
REMARK SMILES IDX 5 1 3 2 2 3 1 4 22 5 20 6 19 7 17 8 16 9 15 10 14 11 6 12
REMARK SMILES IDX 7 13 8 14 9 15 13 16 11 17 10 18 12 20 4 22 21 24 18 26
REMARK H PARENT 10 19 12 21 4 23 21 25 18 27
REMARK Flexibility Score: inf
ROOT
ATOM      1  C   UNL     1      23.815  31.765   7.525  1.00  0.00     0.180 A 
ATOM      2  C   UNL     1      23.548  31.234   8.799  1.00  0.00     0.208 A 
ATOM      3  C   UNL     1      22.495  31.773   9.554  1.00  0.00     0.238 A 
ATOM      4  O   UNL     1      22.295  31.330  10.715  1.00  0.00    -0.285 OA
ATOM      5  C   UNL     1      21.712  32.826   9.021  1.00  0.00     0.111 A 
ATOM      6  C   UNL     1      20.596  33.421   9.682  1.00  0.00     0.134 A 
ATOM      7  C   UNL     1      19.977  34.542   9.116  1.00  0.00     0.093 A 
ATOM      8  C   UNL     1      20.390  35.049   7.885  1.00  0.00     0.123 A 
ATOM      9  C   UNL     1      21.442  34.438   7.202  1.00  0.00     0.094 A 
ATOM     10  C   UNL     1      22.103  33.340   7.757  1.00  0.00     0.146 A 
ATOM     11  O   UNL     1      23.106  32.794   7.080  1.00  0.00    -0.452 OA
ENDROOT
BRANCH   1  12
ATOM     12  C   UNL     1      24.892  31.232   6.659  1.00  0.00     0.025 A 
ATOM     13  C   UNL     1      26.165  31.829   6.622  1.00  0.00     0.016 A 
ATOM     14  C   UNL     1      27.172  31.294   5.815  1.00  0.00     0.051 A 
ATOM     15  C   UNL     1      26.932  30.152   5.046  1.00  0.00     0.157 A 
ATOM     16  C   UNL     1      24.660  30.073   5.901  1.00  0.00     0.062 A 
ATOM     17  C   UNL     1      25.671  29.536   5.090  1.00  0.00     0.158 A 
BRANCH  15  18
ATOM     18  O   UNL     1      27.956  29.643   4.249  1.00  0.00    -0.504 OA
ATOM     19  H   UNL     1      28.930  29.867   4.416  1.00  0.00     0.293 HD
ENDBRANCH  15  18
BRANCH  17  20
ATOM     20  O   UNL     1      25.425  28.392   4.330  1.00  0.00    -0.504 OA
ATOM     21  H   UNL     1      25.928  27.527   4.494  1.00  0.00     0.293 HD
ENDBRANCH  17  20
ENDBRANCH   1  12
BRANCH   2  22
ATOM     22  O   UNL     1      24.347  30.209   9.316  1.00  0.00    -0.502 OA
ATOM     23  H   UNL     1      25.046  30.372  10.030  1.00  0.00     0.293 HD
ENDBRANCH   2  22
BRANCH   6  24
ATOM     24  O   UNL     1      20.044  32.936  10.871  1.00  0.00    -0.507 OA
ATOM     25  H   UNL     1      19.709  31.995  11.008  1.00  0.00     0.293 HD
ENDBRANCH   6  24
BRANCH   8  26
ATOM     26  O   UNL     1      19.739  36.157   7.345  1.00  0.00    -0.508 OA
ATOM     27  H   UNL     1      18.863  36.494   7.724  1.00  0.00     0.293 HD
ENDBRANCH   8  26
TORSDOF 6
ENDMDL
MODEL 2
REMARK VINA RESULT:    -6.564      4.182      5.803
REMARK INTER + INTRA:          -8.211
REMARK INTER:                  -8.089
REMARK INTRA:                  -0.122
REMARK UNBOUND:                -0.304
REMARK SMILES O=c1c(O)c(-c2ccc(O)c(O)c2)oc2cc(O)cc(O)c12
REMARK SMILES IDX 5 1 3 2 2 3 1 4 22 5 20 6 19 7 17 8 16 9 15 10 14 11 6 12
REMARK SMILES IDX 7 13 8 14 9 15 13 16 11 17 10 18 12 20 4 22 21 24 18 26
REMARK H PARENT 10 19 12 21 4 23 21 25 18 27
REMARK Flexibility Score: inf
ROOT
ATOM      1  C   UNL     1      27.255  32.330   7.498  1.00  0.00     0.180 A 
ATOM      2  C   UNL     1      27.708  32.112   8.811  1.00  0.00     0.208 A 
ATOM      3  C   UNL     1      28.317  33.168   9.505  1.00  0.00     0.238 A 
ATOM      4  O   UNL     1      28.768  32.952  10.661  1.00  0.00    -0.285 OA
ATOM      5  C   UNL     1      28.453  34.434   8.885  1.00  0.00     0.111 A 
ATOM      6  C   UNL     1      29.018  35.587   9.510  1.00  0.00     0.134 A 
ATOM      7  C   UNL     1      29.220  36.750   8.757  1.00  0.00     0.093 A 
ATOM      8  C   UNL     1      28.820  36.824   7.424  1.00  0.00     0.123 A 
ATOM      9  C   UNL     1      28.212  35.722   6.821  1.00  0.00     0.094 A 
ATOM     10  C   UNL     1      28.029  34.536   7.535  1.00  0.00     0.146 A 
ATOM     11  O   UNL     1      27.456  33.508   6.921  1.00  0.00    -0.452 OA
ENDROOT
BRANCH   1  12
ATOM     12  C   UNL     1      26.580  31.272   6.711  1.00  0.00     0.025 A 
ATOM     13  C   UNL     1      27.144  30.770   5.525  1.00  0.00     0.016 A 
ATOM     14  C   UNL     1      26.500  29.756   4.812  1.00  0.00     0.051 A 
ATOM     15  C   UNL     1      25.296  29.218   5.276  1.00  0.00     0.157 A 
ATOM     16  C   UNL     1      25.381  30.716   7.186  1.00  0.00     0.062 A 
ATOM     17  C   UNL     1      24.734  29.697   6.471  1.00  0.00     0.158 A 
BRANCH  15  18
ATOM     18  O   UNL     1      24.676  28.208   4.542  1.00  0.00    -0.504 OA
ATOM     19  H   UNL     1      25.203  27.558   3.970  1.00  0.00     0.293 HD
ENDBRANCH  15  18
BRANCH  17  20
ATOM     20  O   UNL     1      23.537  29.161   6.944  1.00  0.00    -0.504 OA
ATOM     21  H   UNL     1      23.247  28.219   6.707  1.00  0.00     0.293 HD
ENDBRANCH  17  20
ENDBRANCH   1  12
BRANCH   2  22
ATOM     22  O   UNL     1      27.584  30.849   9.397  1.00  0.00    -0.502 OA
ATOM     23  H   UNL     1      28.002  30.620  10.291  1.00  0.00     0.293 HD
ENDBRANCH   2  22
BRANCH   6  24
ATOM     24  O   UNL     1      29.368  35.648  10.862  1.00  0.00    -0.507 OA
ATOM     25  H   UNL     1      28.813  35.277  11.617  1.00  0.00     0.293 HD
ENDBRANCH   6  24
BRANCH   8  26
ATOM     26  O   UNL     1      29.023  38.004   6.710  1.00  0.00    -0.508 OA
ATOM     27  H   UNL     1      28.406  38.800   6.816  1.00  0.00     0.293 HD
ENDBRANCH   8  26
TORSDOF 6
ENDMDL
MODEL 3
REMARK VINA RESULT:    -6.518      4.249      5.964
REMARK INTER + INTRA:          -8.156
REMARK INTER:                  -7.840
REMARK INTRA:                  -0.315
REMARK UNBOUND:                -0.304
REMARK SMILES O=c1c(O)c(-c2ccc(O)c(O)c2)oc2cc(O)cc(O)c12
REMARK SMILES IDX 5 1 3 2 2 3 1 4 22 5 20 6 19 7 17 8 16 9 15 10 14 11 6 12
REMARK SMILES IDX 7 13 8 14 9 15 13 16 11 17 10 18 12 20 4 22 21 24 18 26
REMARK H PARENT 10 19 12 21 4 23 21 25 18 27
REMARK Flexibility Score: inf
ROOT
ATOM      1  C   UNL     1      26.597  32.846   6.101  1.00  0.00     0.180 A 
ATOM      2  C   UNL     1      26.138  33.978   5.406  1.00  0.00     0.208 A 
ATOM      3  C   UNL     1      26.490  35.253   5.875  1.00  0.00     0.238 A 
ATOM      4  O   UNL     1      26.032  36.264   5.279  1.00  0.00    -0.285 OA
ATOM      5  C   UNL     1      27.308  35.382   7.023  1.00  0.00     0.111 A 
ATOM      6  C   UNL     1      27.760  36.624   7.563  1.00  0.00     0.134 A 
ATOM      7  C   UNL     1      28.457  36.636   8.776  1.00  0.00     0.093 A 
ATOM      8  C   UNL     1      28.776  35.450   9.436  1.00  0.00     0.123 A 
ATOM      9  C   UNL     1      28.392  34.226   8.886  1.00  0.00     0.094 A 
ATOM     10  C   UNL     1      27.664  34.183   7.695  1.00  0.00     0.146 A 
ATOM     11  O   UNL     1      27.309  32.999   7.211  1.00  0.00    -0.452 OA
ENDROOT
BRANCH   1  12
ATOM     12  C   UNL     1      26.290  31.468   5.653  1.00  0.00     0.025 A 
ATOM     13  C   UNL     1      27.197  30.733   4.869  1.00  0.00     0.016 A 
ATOM     14  C   UNL     1      26.895  29.427   4.479  1.00  0.00     0.051 A 
ATOM     15  C   UNL     1      25.695  28.828   4.874  1.00  0.00     0.157 A 
ATOM     16  C   UNL     1      25.094  30.858   6.066  1.00  0.00     0.062 A 
ATOM     17  C   UNL     1      24.790  29.546   5.674  1.00  0.00     0.158 A 
BRANCH  15  18
ATOM     18  O   UNL     1      25.420  27.524   4.466  1.00  0.00    -0.504 OA
ATOM     19  H   UNL     1      26.148  26.824   4.376  1.00  0.00     0.293 HD
ENDBRANCH  15  18
BRANCH  17  20
ATOM     20  O   UNL     1      23.594  28.954   6.077  1.00  0.00    -0.504 OA
ATOM     21  H   UNL     1      22.861  29.490   6.529  1.00  0.00     0.293 HD
ENDBRANCH  17  20
ENDBRANCH   1  12
BRANCH   2  22
ATOM     22  O   UNL     1      25.313  33.830   4.287  1.00  0.00    -0.502 OA
ATOM     23  H   UNL     1      24.523  33.196   4.274  1.00  0.00     0.293 HD
ENDBRANCH   2  22
BRANCH   6  24
ATOM     24  O   UNL     1      27.573  37.860   6.936  1.00  0.00    -0.507 OA
ATOM     25  H   UNL     1      26.746  38.429   7.023  1.00  0.00     0.293 HD
ENDBRANCH   6  24
BRANCH   8  26
ATOM     26  O   UNL     1      29.486  35.500  10.635  1.00  0.00    -0.508 OA
ATOM     27  H   UNL     1      30.460  35.775  10.662  1.00  0.00     0.293 HD
ENDBRANCH   8  26
TORSDOF 6
ENDMDL
MODEL 4
REMARK VINA RESULT:    -6.305      5.071      6.068
REMARK INTER + INTRA:          -7.899
REMARK INTER:                  -7.726
REMARK INTRA:                  -0.173
REMARK UNBOUND:                -0.304
REMARK SMILES O=c1c(O)c(-c2ccc(O)c(O)c2)oc2cc(O)cc(O)c12
REMARK SMILES IDX 5 1 3 2 2 3 1 4 22 5 20 6 19 7 17 8 16 9 15 10 14 11 6 12
REMARK SMILES IDX 7 13 8 14 9 15 13 16 11 17 10 18 12 20 4 22 21 24 18 26
REMARK H PARENT 10 19 12 21 4 23 21 25 18 27
REMARK Flexibility Score: inf
ROOT
ATOM      1  C   UNL     1      25.803  36.234   6.034  1.00  0.00     0.180 A 
ATOM      2  C   UNL     1      25.163  35.290   5.213  1.00  0.00     0.208 A 
ATOM      3  C   UNL     1      23.781  35.402   4.996  1.00  0.00     0.238 A 
ATOM      4  O   UNL     1      23.204  34.523   4.304  1.00  0.00    -0.285 OA
ATOM      5  C   UNL     1      23.058  36.466   5.589  1.00  0.00     0.111 A 
ATOM      6  C   UNL     1      21.662  36.701   5.404  1.00  0.00     0.134 A 
ATOM      7  C   UNL     1      21.028  37.706   6.143  1.00  0.00     0.093 A 
ATOM      8  C   UNL     1      21.748  38.526   7.009  1.00  0.00     0.123 A 
ATOM      9  C   UNL     1      23.124  38.345   7.153  1.00  0.00     0.094 A 
ATOM     10  C   UNL     1      23.780  37.327   6.456  1.00  0.00     0.146 A 
ATOM     11  O   UNL     1      25.088  37.181   6.628  1.00  0.00    -0.452 OA
ENDROOT
BRANCH   1  12
ATOM     12  C   UNL     1      27.262  36.196   6.290  1.00  0.00     0.025 A 
ATOM     13  C   UNL     1      28.192  36.351   5.247  1.00  0.00     0.016 A 
ATOM     14  C   UNL     1      29.563  36.335   5.516  1.00  0.00     0.051 A 
ATOM     15  C   UNL     1      30.026  36.179   6.826  1.00  0.00     0.157 A 
ATOM     16  C   UNL     1      27.729  36.060   7.607  1.00  0.00     0.062 A 
ATOM     17  C   UNL     1      29.106  36.043   7.878  1.00  0.00     0.158 A 
BRANCH  15  18
ATOM     18  O   UNL     1      31.400  36.165   7.062  1.00  0.00    -0.504 OA
ATOM     19  H   UNL     1      31.822  35.546   7.744  1.00  0.00     0.293 HD
ENDBRANCH  15  18
BRANCH  17  20
ATOM     20  O   UNL     1      29.560  35.894   9.188  1.00  0.00    -0.504 OA
ATOM     21  H   UNL     1      29.110  36.367   9.963  1.00  0.00     0.293 HD
ENDBRANCH  17  20
ENDBRANCH   1  12
BRANCH   2  22
ATOM     22  O   UNL     1      25.891  34.234   4.655  1.00  0.00    -0.502 OA
ATOM     23  H   UNL     1      26.213  33.446   5.203  1.00  0.00     0.293 HD
ENDBRANCH   2  22
BRANCH   6  24
ATOM     24  O   UNL     1      20.868  35.997   4.494  1.00  0.00    -0.507 OA
ATOM     25  H   UNL     1      20.069  35.434   4.744  1.00  0.00     0.293 HD
ENDBRANCH   6  24
BRANCH   8  26
ATOM     26  O   UNL     1      21.086  39.528   7.717  1.00  0.00    -0.508 OA
ATOM     27  H   UNL     1      20.392  39.308   8.422  1.00  0.00     0.293 HD
ENDBRANCH   8  26
TORSDOF 6
ENDMDL
MODEL 5
REMARK VINA RESULT:    -6.268      5.070      6.291
REMARK INTER + INTRA:          -7.855
REMARK INTER:                  -7.927
REMARK INTRA:                   0.072
REMARK UNBOUND:                -0.304
REMARK SMILES O=c1c(O)c(-c2ccc(O)c(O)c2)oc2cc(O)cc(O)c12
REMARK SMILES IDX 5 1 3 2 2 3 1 4 22 5 20 6 19 7 17 8 16 9 15 10 14 11 6 12
REMARK SMILES IDX 7 13 8 14 9 15 13 16 11 17 10 18 12 20 4 22 21 24 18 26
REMARK H PARENT 10 19 12 21 4 23 21 25 18 27
REMARK Flexibility Score: inf
ROOT
ATOM      1  C   UNL     1      19.591  29.415   9.364  1.00  0.00     0.180 A 
ATOM      2  C   UNL     1      18.599  30.318   8.945  1.00  0.00     0.208 A 
ATOM      3  C   UNL     1      18.705  31.667   9.317  1.00  0.00     0.238 A 
ATOM      4  O   UNL     1      17.785  32.460   8.984  1.00  0.00    -0.285 OA
ATOM      5  C   UNL     1      19.809  32.101  10.091  1.00  0.00     0.111 A 
ATOM      6  C   UNL     1      20.038  33.452  10.491  1.00  0.00     0.134 A 
ATOM      7  C   UNL     1      21.093  33.743  11.364  1.00  0.00     0.093 A 
ATOM      8  C   UNL     1      21.964  32.745  11.799  1.00  0.00     0.123 A 
ATOM      9  C   UNL     1      21.785  31.431  11.366  1.00  0.00     0.094 A 
ATOM     10  C   UNL     1      20.720  31.103  10.523  1.00  0.00     0.146 A 
ATOM     11  O   UNL     1      20.579  29.839  10.143  1.00  0.00    -0.452 OA
ENDROOT
BRANCH   1  12
ATOM     12  C   UNL     1      19.562  27.982   8.990  1.00  0.00     0.025 A 
ATOM     13  C   UNL     1      19.736  26.971   9.952  1.00  0.00     0.016 A 
ATOM     14  C   UNL     1      19.681  25.626   9.579  1.00  0.00     0.051 A 
ATOM     15  C   UNL     1      19.439  25.269   8.249  1.00  0.00     0.157 A 
ATOM     16  C   UNL     1      19.299  27.621   7.659  1.00  0.00     0.062 A 
ATOM     17  C   UNL     1      19.244  26.270   7.284  1.00  0.00     0.158 A 
BRANCH  15  18
ATOM     18  O   UNL     1      19.392  23.918   7.907  1.00  0.00    -0.504 OA
ATOM     19  H   UNL     1      19.377  23.186   8.608  1.00  0.00     0.293 HD
ENDBRANCH  15  18
BRANCH  17  20
ATOM     20  O   UNL     1      18.996  25.922   5.957  1.00  0.00    -0.504 OA
ATOM     21  H   UNL     1      19.184  24.988   5.608  1.00  0.00     0.293 HD
ENDBRANCH  17  20
ENDBRANCH   1  12
BRANCH   2  22
ATOM     22  O   UNL     1      17.505  29.866   8.200  1.00  0.00    -0.502 OA
ATOM     23  H   UNL     1      16.827  30.496   7.791  1.00  0.00     0.293 HD
ENDBRANCH   2  22
BRANCH   6  24
ATOM     24  O   UNL     1      19.281  34.537  10.041  1.00  0.00    -0.507 OA
ATOM     25  H   UNL     1      19.288  34.891   9.096  1.00  0.00     0.293 HD
ENDBRANCH   6  24
BRANCH   8  26
ATOM     26  O   UNL     1      23.014  33.075  12.655  1.00  0.00    -0.508 OA
ATOM     27  H   UNL     1      22.895  33.076  13.661  1.00  0.00     0.293 HD
ENDBRANCH   8  26
TORSDOF 6
ENDMDL
MODEL 6
REMARK VINA RESULT:    -5.777      1.654      6.971
REMARK INTER + INTRA:          -7.263
REMARK INTER:                  -6.975
REMARK INTRA:                  -0.288
REMARK UNBOUND:                -0.304
REMARK SMILES O=c1c(O)c(-c2ccc(O)c(O)c2)oc2cc(O)cc(O)c12
REMARK SMILES IDX 5 1 3 2 2 3 1 4 22 5 20 6 19 7 17 8 16 9 15 10 14 11 6 12
REMARK SMILES IDX 7 13 8 14 9 15 13 16 11 17 10 18 12 20 4 22 21 24 18 26
REMARK H PARENT 10 19 12 21 4 23 21 25 18 27
REMARK Flexibility Score: inf
ROOT
ATOM      1  C   UNL     1      21.791  33.984   7.783  1.00  0.00     0.180 A 
ATOM      2  C   UNL     1      21.550  33.017   8.774  1.00  0.00     0.208 A 
ATOM      3  C   UNL     1      22.389  31.895   8.848  1.00  0.00     0.238 A 
ATOM      4  O   UNL     1      22.135  31.006   9.704  1.00  0.00    -0.285 OA
ATOM      5  C   UNL     1      23.468  31.760   7.942  1.00  0.00     0.111 A 
ATOM      6  C   UNL     1      24.407  30.684   7.953  1.00  0.00     0.134 A 
ATOM      7  C   UNL     1      25.355  30.586   6.928  1.00  0.00     0.093 A 
ATOM      8  C   UNL     1      25.443  31.557   5.933  1.00  0.00     0.123 A 
ATOM      9  C   UNL     1      24.570  32.645   5.947  1.00  0.00     0.094 A 
ATOM     10  C   UNL     1      23.589  32.752   6.935  1.00  0.00     0.146 A 
ATOM     11  O   UNL     1      22.771  33.798   6.907  1.00  0.00    -0.452 OA
ENDROOT
BRANCH   1  12
ATOM     12  C   UNL     1      20.965  35.207   7.657  1.00  0.00     0.025 A 
ATOM     13  C   UNL     1      19.938  35.302   6.701  1.00  0.00     0.016 A 
ATOM     14  C   UNL     1      19.157  36.457   6.616  1.00  0.00     0.051 A 
ATOM     15  C   UNL     1      19.377  37.526   7.489  1.00  0.00     0.157 A 
ATOM     16  C   UNL     1      21.171  36.275   8.546  1.00  0.00     0.062 A 
ATOM     17  C   UNL     1      20.387  37.435   8.461  1.00  0.00     0.158 A 
BRANCH  15  18
ATOM     18  O   UNL     1      18.583  38.666   7.379  1.00  0.00    -0.504 OA
ATOM     19  H   UNL     1      18.186  39.126   8.190  1.00  0.00     0.293 HD
ENDBRANCH  15  18
BRANCH  17  20
ATOM     20  O   UNL     1      20.608  38.495   9.339  1.00  0.00    -0.504 OA
ATOM     21  H   UNL     1      20.344  38.439  10.317  1.00  0.00     0.293 HD
ENDBRANCH  17  20
ENDBRANCH   1  12
BRANCH   2  22
ATOM     22  O   UNL     1      20.465  33.158   9.644  1.00  0.00    -0.502 OA
ATOM     23  H   UNL     1      20.002  32.365  10.070  1.00  0.00     0.293 HD
ENDBRANCH   2  22
BRANCH   6  24
ATOM     24  O   UNL     1      24.464  29.710   8.954  1.00  0.00    -0.507 OA
ATOM     25  H   UNL     1      23.699  29.466   9.564  1.00  0.00     0.293 HD
ENDBRANCH   6  24
BRANCH   8  26
ATOM     26  O   UNL     1      26.411  31.435   4.937  1.00  0.00    -0.508 OA
ATOM     27  H   UNL     1      27.185  30.788   5.027  1.00  0.00     0.293 HD
ENDBRANCH   8  26
TORSDOF 6
ENDMDL
MODEL 7
REMARK VINA RESULT:    -5.592      2.420      7.643
REMARK INTER + INTRA:          -7.041
REMARK INTER:                  -6.803
REMARK INTRA:                  -0.238
REMARK UNBOUND:                -0.304
REMARK SMILES O=c1c(O)c(-c2ccc(O)c(O)c2)oc2cc(O)cc(O)c12
REMARK SMILES IDX 5 1 3 2 2 3 1 4 22 5 20 6 19 7 17 8 16 9 15 10 14 11 6 12
REMARK SMILES IDX 7 13 8 14 9 15 13 16 11 17 10 18 12 20 4 22 21 24 18 26
REMARK H PARENT 10 19 12 21 4 23 21 25 18 27
REMARK Flexibility Score: inf
ROOT
ATOM      1  C   UNL     1      22.117  34.903   6.235  1.00  0.00     0.180 A 
ATOM      2  C   UNL     1      23.131  35.143   5.291  1.00  0.00     0.208 A 
ATOM      3  C   UNL     1      24.210  34.250   5.210  1.00  0.00     0.238 A 
ATOM      4  O   UNL     1      25.142  34.499   4.400  1.00  0.00    -0.285 OA
ATOM      5  C   UNL     1      24.255  33.118   6.060  1.00  0.00     0.111 A 
ATOM      6  C   UNL     1      25.280  32.125   6.035  1.00  0.00     0.134 A 
ATOM      7  C   UNL     1      25.291  31.121   7.010  1.00  0.00     0.093 A 
ATOM      8  C   UNL     1      24.280  31.034   7.966  1.00  0.00     0.123 A 
ATOM      9  C   UNL     1      23.241  31.964   7.962  1.00  0.00     0.094 A 
ATOM     10  C   UNL     1      23.221  33.000   7.025  1.00  0.00     0.146 A 
ATOM     11  O   UNL     1      22.220  33.870   7.062  1.00  0.00    -0.452 OA
ENDROOT
BRANCH   1  12
ATOM     12  C   UNL     1      20.935  35.786   6.363  1.00  0.00     0.025 A 
ATOM     13  C   UNL     1      19.947  35.838   5.364  1.00  0.00     0.016 A 
ATOM     14  C   UNL     1      18.829  36.661   5.518  1.00  0.00     0.051 A 
ATOM     15  C   UNL     1      18.671  37.432   6.674  1.00  0.00     0.157 A 
ATOM     16  C   UNL     1      20.764  36.547   7.532  1.00  0.00     0.062 A 
ATOM     17  C   UNL     1      19.642  37.374   7.687  1.00  0.00     0.158 A 
BRANCH  15  18
ATOM     18  O   UNL     1      17.546  38.245   6.798  1.00  0.00    -0.504 OA
ATOM     19  H   UNL     1      17.484  39.150   6.346  1.00  0.00     0.293 HD
ENDBRANCH  15  18
BRANCH  17  20
ATOM     20  O   UNL     1      19.489  38.135   8.845  1.00  0.00    -0.504 OA
ATOM     21  H   UNL     1      20.178  38.117   9.588  1.00  0.00     0.293 HD
ENDBRANCH  17  20
ENDBRANCH   1  12
BRANCH   2  22
ATOM     22  O   UNL     1      23.079  36.278   4.476  1.00  0.00    -0.502 OA
ATOM     23  H   UNL     1      23.580  37.130   4.697  1.00  0.00     0.293 HD
ENDBRANCH   2  22
BRANCH   6  24
ATOM     24  O   UNL     1      26.286  32.067   5.066  1.00  0.00    -0.507 OA
ATOM     25  H   UNL     1      26.526  32.821   4.440  1.00  0.00     0.293 HD
ENDBRANCH   6  24
BRANCH   8  26
ATOM     26  O   UNL     1      24.315  30.010   8.911  1.00  0.00    -0.508 OA
ATOM     27  H   UNL     1      23.735  29.185   8.819  1.00  0.00     0.293 HD
ENDBRANCH   8  26
TORSDOF 6
ENDMDL
MODEL 8
REMARK VINA RESULT:    -5.590      4.792      5.622
REMARK INTER + INTRA:          -7.038
REMARK INTER:                  -6.911
REMARK INTRA:                  -0.127
REMARK UNBOUND:                -0.304
REMARK SMILES O=c1c(O)c(-c2ccc(O)c(O)c2)oc2cc(O)cc(O)c12
REMARK SMILES IDX 5 1 3 2 2 3 1 4 22 5 20 6 19 7 17 8 16 9 15 10 14 11 6 12
REMARK SMILES IDX 7 13 8 14 9 15 13 16 11 17 10 18 12 20 4 22 21 24 18 26
REMARK H PARENT 10 19 12 21 4 23 21 25 18 27
REMARK Flexibility Score: inf
ROOT
ATOM      1  C   UNL     1      19.740  29.989   9.406  1.00  0.00     0.180 A 
ATOM      2  C   UNL     1      20.797  30.512  10.171  1.00  0.00     0.208 A 
ATOM      3  C   UNL     1      20.848  31.894  10.407  1.00  0.00     0.238 A 
ATOM      4  O   UNL     1      21.826  32.362  11.048  1.00  0.00    -0.285 OA
ATOM      5  C   UNL     1      19.834  32.736   9.890  1.00  0.00     0.111 A 
ATOM      6  C   UNL     1      19.763  34.146  10.102  1.00  0.00     0.134 A 
ATOM      7  C   UNL     1      18.788  34.896   9.434  1.00  0.00     0.093 A 
ATOM      8  C   UNL     1      17.842  34.281   8.616  1.00  0.00     0.123 A 
ATOM      9  C   UNL     1      17.865  32.896   8.449  1.00  0.00     0.094 A 
ATOM     10  C   UNL     1      18.847  32.124   9.073  1.00  0.00     0.146 A 
ATOM     11  O   UNL     1      18.840  30.811   8.880  1.00  0.00    -0.452 OA
ENDROOT
BRANCH   1  12
ATOM     12  C   UNL     1      19.605  28.539   9.135  1.00  0.00     0.025 A 
ATOM     13  C   UNL     1      19.502  27.606  10.181  1.00  0.00     0.016 A 
ATOM     14  C   UNL     1      19.351  26.246   9.901  1.00  0.00     0.051 A 
ATOM     15  C   UNL     1      19.287  25.798   8.578  1.00  0.00     0.157 A 
ATOM     16  C   UNL     1      19.519  28.089   7.807  1.00  0.00     0.062 A 
ATOM     17  C   UNL     1      19.368  26.723   7.525  1.00  0.00     0.158 A 
BRANCH  15  18
ATOM     18  O   UNL     1      19.138  24.434   8.330  1.00  0.00    -0.504 OA
ATOM     19  H   UNL     1      18.560  23.841   8.914  1.00  0.00     0.293 HD
ENDBRANCH  15  18
BRANCH  17  20
ATOM     20  O   UNL     1      19.298  26.285   6.203  1.00  0.00    -0.504 OA
ATOM     21  H   UNL     1      19.534  26.895   5.428  1.00  0.00     0.293 HD
ENDBRANCH  17  20
ENDBRANCH   1  12
BRANCH   2  22
ATOM     22  O   UNL     1      21.801  29.666  10.654  1.00  0.00    -0.502 OA
ATOM     23  H   UNL     1      21.635  28.989  11.388  1.00  0.00     0.293 HD
ENDBRANCH   2  22
BRANCH   6  24
ATOM     24  O   UNL     1      20.603  34.846  10.972  1.00  0.00    -0.507 OA
ATOM     25  H   UNL     1      20.334  35.186  11.882  1.00  0.00     0.293 HD
ENDBRANCH   6  24
BRANCH   8  26
ATOM     26  O   UNL     1      16.875  35.058   7.979  1.00  0.00    -0.508 OA
ATOM     27  H   UNL     1      16.059  34.640   7.549  1.00  0.00     0.293 HD
ENDBRANCH   8  26
TORSDOF 6
ENDMDL
MODEL 9
REMARK VINA RESULT:    -5.531      2.103      3.958
REMARK INTER + INTRA:          -6.967
REMARK INTER:                  -7.273
REMARK INTRA:                   0.307
REMARK UNBOUND:                -0.304
REMARK SMILES O=c1c(O)c(-c2ccc(O)c(O)c2)oc2cc(O)cc(O)c12
REMARK SMILES IDX 5 1 3 2 2 3 1 4 22 5 20 6 19 7 17 8 16 9 15 10 14 11 6 12
REMARK SMILES IDX 7 13 8 14 9 15 13 16 11 17 10 18 12 20 4 22 21 24 18 26
REMARK H PARENT 10 19 12 21 4 23 21 25 18 27
REMARK Flexibility Score: inf
ROOT
ATOM      1  C   UNL     1      22.545  33.703   6.525  1.00  0.00     0.180 A 
ATOM      2  C   UNL     1      22.200  34.414   5.362  1.00  0.00     0.208 A 
ATOM      3  C   UNL     1      21.017  35.168   5.352  1.00  0.00     0.238 A 
ATOM      4  O   UNL     1      20.686  35.759   4.290  1.00  0.00    -0.285 OA
ATOM      5  C   UNL     1      20.201  35.217   6.508  1.00  0.00     0.111 A 
ATOM      6  C   UNL     1      19.002  35.982   6.623  1.00  0.00     0.134 A 
ATOM      7  C   UNL     1      18.207  35.852   7.768  1.00  0.00     0.093 A 
ATOM      8  C   UNL     1      18.600  35.037   8.828  1.00  0.00     0.123 A 
ATOM      9  C   UNL     1      19.801  34.330   8.752  1.00  0.00     0.094 A 
ATOM     10  C   UNL     1      20.598  34.411   7.607  1.00  0.00     0.146 A 
ATOM     11  O   UNL     1      21.728  33.716   7.570  1.00  0.00    -0.452 OA
ENDROOT
BRANCH   1  12
ATOM     12  C   UNL     1      23.790  32.905   6.621  1.00  0.00     0.025 A 
ATOM     13  C   UNL     1      24.908  33.195   5.820  1.00  0.00     0.016 A 
ATOM     14  C   UNL     1      26.079  32.443   5.945  1.00  0.00     0.051 A 
ATOM     15  C   UNL     1      26.158  31.404   6.877  1.00  0.00     0.157 A 
ATOM     16  C   UNL     1      23.878  31.874   7.570  1.00  0.00     0.062 A 
ATOM     17  C   UNL     1      25.053  31.119   7.696  1.00  0.00     0.158 A 
BRANCH  15  18
ATOM     18  O   UNL     1      27.339  30.671   6.977  1.00  0.00    -0.504 OA
ATOM     19  H   UNL     1      27.635  30.242   7.846  1.00  0.00     0.293 HD
ENDBRANCH  15  18
BRANCH  17  20
ATOM     20  O   UNL     1      25.126  30.088   8.632  1.00  0.00    -0.504 OA
ATOM     21  H   UNL     1      24.301  29.577   8.925  1.00  0.00     0.293 HD
ENDBRANCH  17  20
ENDBRANCH   1  12
BRANCH   2  22
ATOM     22  O   UNL     1      23.008  34.335   4.224  1.00  0.00    -0.502 OA
ATOM     23  H   UNL     1      22.925  34.985   3.451  1.00  0.00     0.293 HD
ENDBRANCH   2  22
BRANCH   6  24
ATOM     24  O   UNL     1      18.565  36.897   5.660  1.00  0.00    -0.507 OA
ATOM     25  H   UNL     1      17.616  37.225   5.568  1.00  0.00     0.293 HD
ENDBRANCH   6  24
BRANCH   8  26
ATOM     26  O   UNL     1      17.791  34.943   9.960  1.00  0.00    -0.508 OA
ATOM     27  H   UNL     1      16.926  34.417   9.951  1.00  0.00     0.293 HD
ENDBRANCH   8  26
TORSDOF 6
ENDMDL
