MODEL 1
REMARK VINA RESULT:    -4.674      0.000      0.000
REMARK INTER + INTRA:         -13.169
REMARK INTER:                 -10.139
REMARK INTRA:                  -3.030
REMARK UNBOUND:                -3.030
REMARK SMILES CCCCCCCCCCCCCCCCCCCCCC(=O)[O-]
REMARK SMILES IDX 12 1 11 2 10 3 9 4 8 5 7 6 6 7 5 8 4 9 3 10 2 11 1 12 13 13
REMARK SMILES IDX 14 14 15 15 16 16 17 17 18 18 19 19 20 20 21 21 22 22 23 23
REMARK SMILES IDX 24 24
REMARK H PARENT
REMARK Flexibility Score: inf
ROOT
ATOM      1  C   UNL     1      61.149  28.340   9.512  1.00  0.00     0.000 C 
ENDROOT
BRANCH   1   2
ATOM      2  C   UNL     1      62.141  29.398   9.008  1.00  0.00     0.000 C 
BRANCH   2   3
ATOM      3  C   UNL     1      63.610  28.985   9.210  1.00  0.00     0.000 C 
BRANCH   3   4
ATOM      4  C   UNL     1      64.441  29.950  10.080  1.00  0.00    -0.000 C 
BRANCH   4   5
ATOM      5  C   UNL     1      65.341  30.923   9.293  1.00  0.00    -0.000 C 
BRANCH   5   6
ATOM      6  C   UNL     1      65.460  32.335   9.900  1.00  0.00    -0.000 C 
BRANCH   6   7
ATOM      7  C   UNL     1      64.884  32.495  11.323  1.00  0.00    -0.000 C 
BRANCH   7   8
ATOM      8  C   UNL     1      65.613  33.530  12.203  1.00  0.00    -0.000 C 
BRANCH   8   9
ATOM      9  C   UNL     1      64.870  33.856  13.519  1.00  0.00    -0.000 C 
BRANCH   9  10
ATOM     10  C   UNL     1      65.778  33.812  14.763  1.00  0.00    -0.000 C 
BRANCH  10  11
ATOM     11  C   UNL     1      66.716  32.593  14.821  1.00  0.00    -0.003 C 
ATOM     12  C   UNL     1      65.982  31.294  15.150  1.00  0.00     0.004 C 
ENDBRANCH  10  11
ENDBRANCH   9  10
ENDBRANCH   8   9
ENDBRANCH   7   8
ENDBRANCH   6   7
ENDBRANCH   5   6
ENDBRANCH   4   5
ENDBRANCH   3   4
ENDBRANCH   2   3
ENDBRANCH   1   2
BRANCH   1  13
ATOM     13  C   UNL     1      59.785  28.971   9.831  1.00  0.00     0.000 C 
BRANCH  13  14
ATOM     14  C   UNL     1      59.662  29.390  11.309  1.00  0.00     0.000 C 
BRANCH  14  15
ATOM     15  C   UNL     1      59.893  28.240  12.310  1.00  0.00     0.000 C 
BRANCH  15  16
ATOM     16  C   UNL     1      60.887  28.577  13.443  1.00  0.00     0.000 C 
BRANCH  16  17
ATOM     17  C   UNL     1      62.363  28.445  13.026  1.00  0.00     0.000 C 
BRANCH  17  18
ATOM     18  C   UNL     1      63.137  29.762  13.189  1.00  0.00     0.000 C 
BRANCH  18  19
ATOM     19  C   UNL     1      62.245  30.849  13.807  1.00  0.00     0.000 C 
BRANCH  19  20
ATOM     20  C   UNL     1      61.797  31.908  12.784  1.00  0.00     0.006 C 
BRANCH  20  21
ATOM     21  C   UNL     1      61.045  33.101  13.395  1.00  0.00     0.053 C 
BRANCH  21  22
ATOM     22  C   UNL     1      60.265  32.709  14.613  1.00  0.00     0.041 C 
ATOM     23  O   UNL     1      60.652  33.067  15.756  1.00  0.00    -0.550 OA
ATOM     24  O   UNL     1      59.122  31.930  14.486  1.00  0.00    -0.550 OA
ENDBRANCH  21  22
ENDBRANCH  20  21
ENDBRANCH  19  20
ENDBRANCH  18  19
ENDBRANCH  17  18
ENDBRANCH  16  17
ENDBRANCH  15  16
ENDBRANCH  14  15
ENDBRANCH  13  14
ENDBRANCH   1  13
TORSDOF 20
ENDMDL
MODEL 2
REMARK VINA RESULT:    -4.559      1.832      4.930
REMARK INTER + INTRA:         -12.920
REMARK INTER:                  -9.861
REMARK INTRA:                  -3.059
REMARK UNBOUND:                -3.030
REMARK SMILES CCCCCCCCCCCCCCCCCCCCCC(=O)[O-]
REMARK SMILES IDX 12 1 11 2 10 3 9 4 8 5 7 6 6 7 5 8 4 9 3 10 2 11 1 12 13 13
REMARK SMILES IDX 14 14 15 15 16 16 17 17 18 18 19 19 20 20 21 21 22 22 23 23
REMARK SMILES IDX 24 24
REMARK H PARENT
REMARK Flexibility Score: inf
ROOT
ATOM      1  C   UNL     1      61.000  28.361   9.001  1.00  0.00     0.000 C 
ENDROOT
BRANCH   1   2
ATOM      2  C   UNL     1      59.657  28.962   9.440  1.00  0.00     0.000 C 
BRANCH   2   3
ATOM      3  C   UNL     1      59.690  29.519  10.874  1.00  0.00     0.000 C 
BRANCH   3   4
ATOM      4  C   UNL     1      59.269  28.518  11.969  1.00  0.00    -0.000 C 
BRANCH   4   5
ATOM      5  C   UNL     1      60.377  28.149  12.974  1.00  0.00    -0.000 C 
BRANCH   5   6
ATOM      6  C   UNL     1      61.747  28.801  12.701  1.00  0.00    -0.000 C 
BRANCH   6   7
ATOM      7  C   UNL     1      62.469  29.368  13.942  1.00  0.00    -0.000 C 
BRANCH   7   8
ATOM      8  C   UNL     1      61.965  30.748  14.409  1.00  0.00    -0.000 C 
BRANCH   8   9
ATOM      9  C   UNL     1      61.288  31.571  13.290  1.00  0.00    -0.000 C 
BRANCH   9  10
ATOM     10  C   UNL     1      61.029  33.039  13.678  1.00  0.00    -0.000 C 
BRANCH  10  11
ATOM     11  C   UNL     1      61.738  33.488  14.969  1.00  0.00    -0.003 C 
ATOM     12  C   UNL     1      60.812  34.242  15.923  1.00  0.00     0.004 C 
ENDBRANCH  10  11
ENDBRANCH   9  10
ENDBRANCH   8   9
ENDBRANCH   7   8
ENDBRANCH   6   7
ENDBRANCH   5   6
ENDBRANCH   4   5
ENDBRANCH   3   4
ENDBRANCH   2   3
ENDBRANCH   1   2
BRANCH   1  13
ATOM     13  C   UNL     1      62.076  29.451   8.875  1.00  0.00     0.000 C 
BRANCH  13  14
ATOM     14  C   UNL     1      63.442  28.995   9.425  1.00  0.00     0.000 C 
BRANCH  14  15
ATOM     15  C   UNL     1      64.430  30.149   9.687  1.00  0.00     0.000 C 
BRANCH  15  16
ATOM     16  C   UNL     1      64.141  30.950  10.975  1.00  0.00     0.000 C 
BRANCH  16  17
ATOM     17  C   UNL     1      64.863  32.308  11.032  1.00  0.00     0.000 C 
BRANCH  17  18
ATOM     18  C   UNL     1      64.521  33.101  12.302  1.00  0.00     0.000 C 
BRANCH  18  19
ATOM     19  C   UNL     1      65.009  32.362  13.557  1.00  0.00     0.000 C 
BRANCH  19  20
ATOM     20  C   UNL     1      66.146  33.103  14.283  1.00  0.00     0.006 C 
BRANCH  20  21
ATOM     21  C   UNL     1      65.838  34.573  14.608  1.00  0.00     0.053 C 
BRANCH  21  22
ATOM     22  C   UNL     1      65.647  34.795  16.078  1.00  0.00     0.041 C 
ATOM     23  O   UNL     1      66.618  34.671  16.869  1.00  0.00    -0.550 OA
ATOM     24  O   UNL     1      64.391  35.119  16.575  1.00  0.00    -0.550 OA
ENDBRANCH  21  22
ENDBRANCH  20  21
ENDBRANCH  19  20
ENDBRANCH  18  19
ENDBRANCH  17  18
ENDBRANCH  16  17
ENDBRANCH  15  16
ENDBRANCH  14  15
ENDBRANCH  13  14
ENDBRANCH   1  13
TORSDOF 20
ENDMDL
MODEL 3
REMARK VINA RESULT:    -4.452     10.381     13.874
REMARK INTER + INTRA:         -12.688
REMARK INTER:                  -9.758
REMARK INTRA:                  -2.929
REMARK UNBOUND:                -3.030
REMARK SMILES CCCCCCCCCCCCCCCCCCCCCC(=O)[O-]
REMARK SMILES IDX 12 1 11 2 10 3 9 4 8 5 7 6 6 7 5 8 4 9 3 10 2 11 1 12 13 13
REMARK SMILES IDX 14 14 15 15 16 16 17 17 18 18 19 19 20 20 21 21 22 22 23 23
REMARK SMILES IDX 24 24
REMARK H PARENT
REMARK Flexibility Score: inf
ROOT
ATOM      1  C   UNL     1      62.924  30.479  27.965  1.00  0.00     0.000 C 
ENDROOT
BRANCH   1   2
ATOM      2  C   UNL     1      61.978  29.449  28.598  1.00  0.00     0.000 C 
BRANCH   2   3
ATOM      3  C   UNL     1      62.511  28.008  28.502  1.00  0.00     0.000 C 
BRANCH   3   4
ATOM      4  C   UNL     1      61.788  27.115  27.473  1.00  0.00    -0.000 C 
BRANCH   4   5
ATOM      5  C   UNL     1      60.597  27.782  26.758  1.00  0.00    -0.000 C 
BRANCH   5   6
ATOM      6  C   UNL     1      60.743  27.908  25.228  1.00  0.00    -0.000 C 
BRANCH   6   7
ATOM      7  C   UNL     1      61.675  29.038  24.743  1.00  0.00    -0.000 C 
BRANCH   7   8
ATOM      8  C   UNL     1      63.003  28.559  24.123  1.00  0.00    -0.000 C 
BRANCH   8   9
ATOM      9  C   UNL     1      63.208  27.029  24.204  1.00  0.00    -0.000 C 
BRANCH   9  10
ATOM     10  C   UNL     1      64.595  26.623  24.737  1.00  0.00    -0.000 C 
BRANCH  10  11
ATOM     11  C   UNL     1      65.498  25.936  23.696  1.00  0.00    -0.003 C 
ATOM     12  C   UNL     1      66.030  26.904  22.640  1.00  0.00     0.004 C 
ENDBRANCH  10  11
ENDBRANCH   9  10
ENDBRANCH   8   9
ENDBRANCH   7   8
ENDBRANCH   6   7
ENDBRANCH   5   6
ENDBRANCH   4   5
ENDBRANCH   3   4
ENDBRANCH   2   3
ENDBRANCH   1   2
BRANCH   1  13
ATOM     13  C   UNL     1      64.344  29.909  27.825  1.00  0.00     0.000 C 
BRANCH  13  14
ATOM     14  C   UNL     1      65.038  30.370  26.528  1.00  0.00     0.000 C 
BRANCH  14  15
ATOM     15  C   UNL     1      66.232  29.490  26.107  1.00  0.00     0.000 C 
BRANCH  15  16
ATOM     16  C   UNL     1      66.925  29.944  24.804  1.00  0.00     0.000 C 
BRANCH  16  17
ATOM     17  C   UNL     1      65.948  30.189  23.640  1.00  0.00     0.000 C 
BRANCH  17  18
ATOM     18  C   UNL     1      66.656  30.708  22.379  1.00  0.00     0.000 C 
BRANCH  18  19
ATOM     19  C   UNL     1      66.859  32.229  22.453  1.00  0.00     0.000 C 
BRANCH  19  20
ATOM     20  C   UNL     1      66.682  32.922  21.090  1.00  0.00     0.006 C 
BRANCH  20  21
ATOM     21  C   UNL     1      65.992  34.294  21.162  1.00  0.00     0.053 C 
BRANCH  21  22
ATOM     22  C   UNL     1      64.499  34.173  21.124  1.00  0.00     0.041 C 
ATOM     23  O   UNL     1      63.861  34.521  20.096  1.00  0.00    -0.550 OA
ATOM     24  O   UNL     1      63.811  33.695  22.233  1.00  0.00    -0.550 OA
ENDBRANCH  21  22
ENDBRANCH  20  21
ENDBRANCH  19  20
ENDBRANCH  18  19
ENDBRANCH  17  18
ENDBRANCH  16  17
ENDBRANCH  15  16
ENDBRANCH  14  15
ENDBRANCH  13  14
ENDBRANCH   1  13
TORSDOF 20
ENDMDL
MODEL 4
REMARK VINA RESULT:    -4.400     11.124     14.213
REMARK INTER + INTRA:         -12.576
REMARK INTER:                  -9.605
REMARK INTRA:                  -2.971
REMARK UNBOUND:                -3.030
REMARK SMILES CCCCCCCCCCCCCCCCCCCCCC(=O)[O-]
REMARK SMILES IDX 12 1 11 2 10 3 9 4 8 5 7 6 6 7 5 8 4 9 3 10 2 11 1 12 13 13
REMARK SMILES IDX 14 14 15 15 16 16 17 17 18 18 19 19 20 20 21 21 22 22 23 23
REMARK SMILES IDX 24 24
REMARK H PARENT
REMARK Flexibility Score: inf
ROOT
ATOM      1  C   UNL     1      62.242  30.178  29.009  1.00  0.00     0.000 C 
ENDROOT
BRANCH   1   2
ATOM      2  C   UNL     1      63.181  30.778  27.952  1.00  0.00     0.000 C 
BRANCH   2   3
ATOM      3  C   UNL     1      64.459  31.381  28.560  1.00  0.00     0.000 C 
BRANCH   3   4
ATOM      4  C   UNL     1      65.659  30.416  28.639  1.00  0.00    -0.000 C 
BRANCH   4   5
ATOM      5  C   UNL     1      66.797  30.712  27.642  1.00  0.00    -0.000 C 
BRANCH   5   6
ATOM      6  C   UNL     1      66.584  30.150  26.223  1.00  0.00    -0.000 C 
BRANCH   6   7
ATOM      7  C   UNL     1      65.679  28.902  26.135  1.00  0.00    -0.000 C 
BRANCH   7   8
ATOM      8  C   UNL     1      65.875  28.050  24.866  1.00  0.00    -0.000 C 
BRANCH   8   9
ATOM      9  C   UNL     1      65.006  26.772  24.837  1.00  0.00    -0.000 C 
BRANCH   9  10
ATOM     10  C   UNL     1      65.081  26.008  23.501  1.00  0.00    -0.000 C 
BRANCH  10  11
ATOM     11  C   UNL     1      66.068  26.607  22.482  1.00  0.00    -0.003 C 
ATOM     12  C   UNL     1      66.248  25.729  21.244  1.00  0.00     0.004 C 
ENDBRANCH  10  11
ENDBRANCH   9  10
ENDBRANCH   8   9
ENDBRANCH   7   8
ENDBRANCH   6   7
ENDBRANCH   5   6
ENDBRANCH   4   5
ENDBRANCH   3   4
ENDBRANCH   2   3
ENDBRANCH   1   2
BRANCH   1  13
ATOM     13  C   UNL     1      61.483  28.966  28.448  1.00  0.00     0.000 C 
BRANCH  13  14
ATOM     14  C   UNL     1      62.428  27.906  27.847  1.00  0.00     0.000 C 
BRANCH  14  15
ATOM     15  C   UNL     1      61.773  27.020  26.768  1.00  0.00     0.000 C 
BRANCH  15  16
ATOM     16  C   UNL     1      60.774  27.765  25.858  1.00  0.00     0.000 C 
BRANCH  16  17
ATOM     17  C   UNL     1      61.398  28.278  24.547  1.00  0.00     0.000 C 
BRANCH  17  18
ATOM     18  C   UNL     1      61.865  29.737  24.652  1.00  0.00     0.000 C 
BRANCH  18  19
ATOM     19  C   UNL     1      63.287  29.898  24.092  1.00  0.00     0.000 C 
BRANCH  19  20
ATOM     20  C   UNL     1      63.694  31.372  23.910  1.00  0.00     0.006 C 
BRANCH  20  21
ATOM     21  C   UNL     1      65.048  31.572  23.211  1.00  0.00     0.053 C 
BRANCH  21  22
ATOM     22  C   UNL     1      65.100  32.860  22.447  1.00  0.00     0.041 C 
ATOM     23  O   UNL     1      66.137  33.177  21.808  1.00  0.00    -0.550 OA
ATOM     24  O   UNL     1      64.008  33.719  22.457  1.00  0.00    -0.550 OA
ENDBRANCH  21  22
ENDBRANCH  20  21
ENDBRANCH  19  20
ENDBRANCH  18  19
ENDBRANCH  17  18
ENDBRANCH  16  17
ENDBRANCH  15  16
ENDBRANCH  14  15
ENDBRANCH  13  14
ENDBRANCH   1  13
TORSDOF 20
ENDMDL
MODEL 5
REMARK VINA RESULT:    -4.349     11.214     14.177
REMARK INTER + INTRA:         -12.463
REMARK INTER:                  -9.204
REMARK INTRA:                  -3.259
REMARK UNBOUND:                -3.030
REMARK SMILES CCCCCCCCCCCCCCCCCCCCCC(=O)[O-]
REMARK SMILES IDX 12 1 11 2 10 3 9 4 8 5 7 6 6 7 5 8 4 9 3 10 2 11 1 12 13 13
REMARK SMILES IDX 14 14 15 15 16 16 17 17 18 18 19 19 20 20 21 21 22 22 23 23
REMARK SMILES IDX 24 24
REMARK H PARENT
REMARK Flexibility Score: inf
ROOT
ATOM      1  C   UNL     1      60.851  28.042  28.730  1.00  0.00     0.000 C 
ENDROOT
BRANCH   1   2
ATOM      2  C   UNL     1      61.376  29.434  29.109  1.00  0.00     0.000 C 
BRANCH   2   3
ATOM      3  C   UNL     1      62.913  29.516  29.101  1.00  0.00     0.000 C 
BRANCH   3   4
ATOM      4  C   UNL     1      63.488  30.872  28.645  1.00  0.00    -0.000 C 
BRANCH   4   5
ATOM      5  C   UNL     1      64.118  30.871  27.238  1.00  0.00    -0.000 C 
BRANCH   5   6
ATOM      6  C   UNL     1      65.197  29.794  27.009  1.00  0.00    -0.000 C 
BRANCH   6   7
ATOM      7  C   UNL     1      66.472  30.276  26.284  1.00  0.00    -0.000 C 
BRANCH   7   8
ATOM      8  C   UNL     1      66.938  29.373  25.126  1.00  0.00    -0.000 C 
BRANCH   8   9
ATOM      9  C   UNL     1      66.944  30.081  23.752  1.00  0.00    -0.000 C 
BRANCH   9  10
ATOM     10  C   UNL     1      65.573  30.658  23.352  1.00  0.00    -0.000 C 
BRANCH  10  11
ATOM     11  C   UNL     1      65.615  32.120  22.870  1.00  0.00    -0.003 C 
ATOM     12  C   UNL     1      64.243  32.791  22.889  1.00  0.00     0.004 C 
ENDBRANCH  10  11
ENDBRANCH   9  10
ENDBRANCH   8   9
ENDBRANCH   7   8
ENDBRANCH   6   7
ENDBRANCH   5   6
ENDBRANCH   4   5
ENDBRANCH   3   4
ENDBRANCH   2   3
ENDBRANCH   1   2
BRANCH   1  13
ATOM     13  C   UNL     1      61.722  27.403  27.639  1.00  0.00     0.000 C 
BRANCH  13  14
ATOM     14  C   UNL     1      60.935  27.129  26.342  1.00  0.00     0.000 C 
BRANCH  14  15
ATOM     15  C   UNL     1      60.905  28.320  25.362  1.00  0.00     0.000 C 
BRANCH  15  16
ATOM     16  C   UNL     1      62.300  28.821  24.931  1.00  0.00     0.000 C 
BRANCH  16  17
ATOM     17  C   UNL     1      62.719  28.345  23.528  1.00  0.00     0.000 C 
BRANCH  17  18
ATOM     18  C   UNL     1      63.207  26.889  23.524  1.00  0.00     0.000 C 
BRANCH  18  19
ATOM     19  C   UNL     1      64.406  26.711  24.468  1.00  0.00     0.000 C 
BRANCH  19  20
ATOM     20  C   UNL     1      65.647  26.141  23.758  1.00  0.00     0.006 C 
BRANCH  20  21
ATOM     21  C   UNL     1      65.989  26.831  22.428  1.00  0.00     0.053 C 
BRANCH  21  22
ATOM     22  C   UNL     1      66.409  25.848  21.378  1.00  0.00     0.041 C 
ATOM     23  O   UNL     1      66.481  24.621  21.650  1.00  0.00    -0.550 OA
ATOM     24  O   UNL     1      66.741  26.291  20.103  1.00  0.00    -0.550 OA
ENDBRANCH  21  22
ENDBRANCH  20  21
ENDBRANCH  19  20
ENDBRANCH  18  19
ENDBRANCH  17  18
ENDBRANCH  16  17
ENDBRANCH  15  16
ENDBRANCH  14  15
ENDBRANCH  13  14
ENDBRANCH   1  13
TORSDOF 20
ENDMDL
MODEL 6
REMARK VINA RESULT:    -4.298     10.619     13.836
REMARK INTER + INTRA:         -12.354
REMARK INTER:                  -9.673
REMARK INTRA:                  -2.680
REMARK UNBOUND:                -3.030
REMARK SMILES CCCCCCCCCCCCCCCCCCCCCC(=O)[O-]
REMARK SMILES IDX 12 1 11 2 10 3 9 4 8 5 7 6 6 7 5 8 4 9 3 10 2 11 1 12 13 13
REMARK SMILES IDX 14 14 15 15 16 16 17 17 18 18 19 19 20 20 21 21 22 22 23 23
REMARK SMILES IDX 24 24
REMARK H PARENT
REMARK Flexibility Score: inf
ROOT
ATOM      1  C   UNL     1      61.119  28.732  28.885  1.00  0.00     0.000 C 
ENDROOT
BRANCH   1   2
ATOM      2  C   UNL     1      61.126  27.504  27.964  1.00  0.00     0.000 C 
BRANCH   2   3
ATOM      3  C   UNL     1      60.699  27.835  26.523  1.00  0.00     0.000 C 
BRANCH   3   4
ATOM      4  C   UNL     1      61.520  27.130  25.425  1.00  0.00    -0.000 C 
BRANCH   4   5
ATOM      5  C   UNL     1      62.107  28.066  24.350  1.00  0.00    -0.000 C 
BRANCH   5   6
ATOM      6  C   UNL     1      63.479  27.639  23.793  1.00  0.00    -0.000 C 
BRANCH   6   7
ATOM      7  C   UNL     1      63.924  26.206  24.155  1.00  0.00    -0.000 C 
BRANCH   7   8
ATOM      8  C   UNL     1      65.421  25.917  23.927  1.00  0.00    -0.000 C 
BRANCH   8   9
ATOM      9  C   UNL     1      66.001  26.611  22.673  1.00  0.00    -0.000 C 
BRANCH   9  10
ATOM     10  C   UNL     1      66.204  25.656  21.481  1.00  0.00    -0.000 C 
BRANCH  10  11
ATOM     11  C   UNL     1      66.762  26.331  20.216  1.00  0.00    -0.003 C 
ATOM     12  C   UNL     1      66.054  25.878  18.940  1.00  0.00     0.004 C 
ENDBRANCH  10  11
ENDBRANCH   9  10
ENDBRANCH   8   9
ENDBRANCH   7   8
ENDBRANCH   6   7
ENDBRANCH   5   6
ENDBRANCH   4   5
ENDBRANCH   3   4
ENDBRANCH   2   3
ENDBRANCH   1   2
BRANCH   1  13
ATOM     13  C   UNL     1      62.523  29.347  28.992  1.00  0.00     0.000 C 
BRANCH  13  14
ATOM     14  C   UNL     1      62.729  30.517  28.009  1.00  0.00     0.000 C 
BRANCH  14  15
ATOM     15  C   UNL     1      64.200  30.750  27.610  1.00  0.00     0.000 C 
BRANCH  15  16
ATOM     16  C   UNL     1      64.790  29.654  26.697  1.00  0.00     0.000 C 
BRANCH  16  17
ATOM     17  C   UNL     1      66.289  29.840  26.401  1.00  0.00     0.000 C 
BRANCH  17  18
ATOM     18  C   UNL     1      66.691  29.270  25.032  1.00  0.00     0.000 C 
BRANCH  18  19
ATOM     19  C   UNL     1      66.774  30.385  23.978  1.00  0.00     0.000 C 
BRANCH  19  20
ATOM     20  C   UNL     1      65.528  30.449  23.077  1.00  0.00     0.006 C 
BRANCH  20  21
ATOM     21  C   UNL     1      64.500  31.514  23.492  1.00  0.00     0.053 C 
BRANCH  21  22
ATOM     22  C   UNL     1      64.652  32.778  22.703  1.00  0.00     0.041 C 
ATOM     23  O   UNL     1      65.759  33.070  22.179  1.00  0.00    -0.550 OA
ATOM     24  O   UNL     1      63.575  33.645  22.563  1.00  0.00    -0.550 OA
ENDBRANCH  21  22
ENDBRANCH  20  21
ENDBRANCH  19  20
ENDBRANCH  18  19
ENDBRANCH  17  18
ENDBRANCH  16  17
ENDBRANCH  15  16
ENDBRANCH  14  15
ENDBRANCH  13  14
ENDBRANCH   1  13
TORSDOF 20
ENDMDL
MODEL 7
REMARK VINA RESULT:    -4.275      1.888      5.364
REMARK INTER + INTRA:         -12.304
REMARK INTER:                  -9.697
REMARK INTRA:                  -2.607
REMARK UNBOUND:                -3.030
REMARK SMILES CCCCCCCCCCCCCCCCCCCCCC(=O)[O-]
REMARK SMILES IDX 12 1 11 2 10 3 9 4 8 5 7 6 6 7 5 8 4 9 3 10 2 11 1 12 13 13
REMARK SMILES IDX 14 14 15 15 16 16 17 17 18 18 19 19 20 20 21 21 22 22 23 23
REMARK SMILES IDX 24 24
REMARK H PARENT
REMARK Flexibility Score: inf
ROOT
ATOM      1  C   UNL     1      62.954  28.971   9.332  1.00  0.00     0.000 C 
ENDROOT
BRANCH   1   2
ATOM      2  C   UNL     1      61.504  29.188   8.879  1.00  0.00     0.000 C 
BRANCH   2   3
ATOM      3  C   UNL     1      60.479  28.511   9.806  1.00  0.00     0.000 C 
BRANCH   3   4
ATOM      4  C   UNL     1      59.896  29.423  10.905  1.00  0.00    -0.000 C 
BRANCH   4   5
ATOM      5  C   UNL     1      59.275  28.680  12.104  1.00  0.00    -0.000 C 
BRANCH   5   6
ATOM      6  C   UNL     1      60.267  27.847  12.940  1.00  0.00    -0.000 C 
BRANCH   6   7
ATOM      7  C   UNL     1      61.608  28.541  13.261  1.00  0.00    -0.000 C 
BRANCH   7   8
ATOM      8  C   UNL     1      61.534  29.608  14.370  1.00  0.00    -0.000 C 
BRANCH   8   9
ATOM      9  C   UNL     1      62.357  30.880  14.063  1.00  0.00    -0.000 C 
BRANCH   9  10
ATOM     10  C   UNL     1      61.829  32.140  14.774  1.00  0.00    -0.000 C 
BRANCH  10  11
ATOM     11  C   UNL     1      61.223  33.195  13.830  1.00  0.00    -0.003 C 
ATOM     12  C   UNL     1      60.343  32.582  12.742  1.00  0.00     0.004 C 
ENDBRANCH  10  11
ENDBRANCH   9  10
ENDBRANCH   8   9
ENDBRANCH   7   8
ENDBRANCH   6   7
ENDBRANCH   5   6
ENDBRANCH   4   5
ENDBRANCH   3   4
ENDBRANCH   2   3
ENDBRANCH   1   2
BRANCH   1  13
ATOM     13  C   UNL     1      63.742  30.290   9.307  1.00  0.00     0.000 C 
BRANCH  13  14
ATOM     14  C   UNL     1      64.445  30.581  10.647  1.00  0.00     0.000 C 
BRANCH  14  15
ATOM     15  C   UNL     1      64.257  32.026  11.154  1.00  0.00     0.000 C 
BRANCH  15  16
ATOM     16  C   UNL     1      65.506  32.919  11.000  1.00  0.00     0.000 C 
BRANCH  16  17
ATOM     17  C   UNL     1      65.694  33.920  12.154  1.00  0.00     0.000 C 
BRANCH  17  18
ATOM     18  C   UNL     1      64.836  33.571  13.379  1.00  0.00     0.000 C 
BRANCH  18  19
ATOM     19  C   UNL     1      65.673  32.845  14.444  1.00  0.00     0.000 C 
BRANCH  19  20
ATOM     20  C   UNL     1      65.590  33.514  15.828  1.00  0.00     0.006 C 
BRANCH  20  21
ATOM     21  C   UNL     1      65.200  35.000  15.791  1.00  0.00     0.053 C 
BRANCH  21  22
ATOM     22  C   UNL     1      64.794  35.508  17.141  1.00  0.00     0.041 C 
ATOM     23  O   UNL     1      63.602  35.397  17.528  1.00  0.00    -0.550 OA
ATOM     24  O   UNL     1      65.731  36.122  17.963  1.00  0.00    -0.550 OA
ENDBRANCH  21  22
ENDBRANCH  20  21
ENDBRANCH  19  20
ENDBRANCH  18  19
ENDBRANCH  17  18
ENDBRANCH  16  17
ENDBRANCH  15  16
ENDBRANCH  14  15
ENDBRANCH  13  14
ENDBRANCH   1  13
TORSDOF 20
ENDMDL
MODEL 8
REMARK VINA RESULT:    -4.195      2.508      6.591
REMARK INTER + INTRA:         -12.129
REMARK INTER:                  -8.849
REMARK INTRA:                  -3.280
REMARK UNBOUND:                -3.030
REMARK SMILES CCCCCCCCCCCCCCCCCCCCCC(=O)[O-]
REMARK SMILES IDX 12 1 11 2 10 3 9 4 8 5 7 6 6 7 5 8 4 9 3 10 2 11 1 12 13 13
REMARK SMILES IDX 14 14 15 15 16 16 17 17 18 18 19 19 20 20 21 21 22 22 23 23
REMARK SMILES IDX 24 24
REMARK H PARENT
REMARK Flexibility Score: inf
ROOT
ATOM      1  C   UNL     1      62.899  31.519  14.501  1.00  0.00     0.000 C 
ENDROOT
BRANCH   1   2
ATOM      2  C   UNL     1      62.264  32.916  14.462  1.00  0.00     0.000 C 
BRANCH   2   3
ATOM      3  C   UNL     1      60.800  32.921  14.937  1.00  0.00     0.000 C 
BRANCH   3   4
ATOM      4  C   UNL     1      59.859  31.988  14.148  1.00  0.00    -0.000 C 
BRANCH   4   5
ATOM      5  C   UNL     1      60.098  31.961  12.625  1.00  0.00    -0.000 C 
BRANCH   5   6
ATOM      6  C   UNL     1      60.062  30.559  11.985  1.00  0.00    -0.000 C 
BRANCH   6   7
ATOM      7  C   UNL     1      60.447  29.393  12.922  1.00  0.00    -0.000 C 
BRANCH   7   8
ATOM      8  C   UNL     1      61.687  28.591  12.479  1.00  0.00    -0.000 C 
BRANCH   8   9
ATOM      9  C   UNL     1      62.006  28.726  10.973  1.00  0.00    -0.000 C 
BRANCH   9  10
ATOM     10  C   UNL     1      63.491  29.017  10.683  1.00  0.00    -0.000 C 
BRANCH  10  11
ATOM     11  C   UNL     1      63.802  29.324   9.207  1.00  0.00    -0.003 C 
ATOM     12  C   UNL     1      64.697  30.550   9.032  1.00  0.00     0.004 C 
ENDBRANCH  10  11
ENDBRANCH   9  10
ENDBRANCH   8   9
ENDBRANCH   7   8
ENDBRANCH   6   7
ENDBRANCH   5   6
ENDBRANCH   4   5
ENDBRANCH   3   4
ENDBRANCH   2   3
ENDBRANCH   1   2
BRANCH   1  13
ATOM     13  C   UNL     1      63.989  31.379  13.427  1.00  0.00     0.000 C 
BRANCH  13  14
ATOM     14  C   UNL     1      63.769  32.335  12.237  1.00  0.00     0.000 C 
BRANCH  14  15
ATOM     15  C   UNL     1      64.980  33.235  11.922  1.00  0.00     0.000 C 
BRANCH  15  16
ATOM     16  C   UNL     1      65.909  33.492  13.128  1.00  0.00     0.000 C 
BRANCH  16  17
ATOM     17  C   UNL     1      65.521  34.733  13.953  1.00  0.00     0.000 C 
BRANCH  17  18
ATOM     18  C   UNL     1      65.486  34.447  15.461  1.00  0.00     0.000 C 
BRANCH  18  19
ATOM     19  C   UNL     1      66.417  33.278  15.818  1.00  0.00     0.000 C 
BRANCH  19  20
ATOM     20  C   UNL     1      66.650  33.141  17.334  1.00  0.00     0.006 C 
BRANCH  20  21
ATOM     21  C   UNL     1      66.501  34.454  18.119  1.00  0.00     0.053 C 
BRANCH  21  22
ATOM     22  C   UNL     1      65.675  34.277  19.356  1.00  0.00     0.041 C 
ATOM     23  O   UNL     1      66.055  33.495  20.266  1.00  0.00    -0.550 OA
ATOM     24  O   UNL     1      64.474  34.962  19.494  1.00  0.00    -0.550 OA
ENDBRANCH  21  22
ENDBRANCH  20  21
ENDBRANCH  19  20
ENDBRANCH  18  19
ENDBRANCH  17  18
ENDBRANCH  16  17
ENDBRANCH  15  16
ENDBRANCH  14  15
ENDBRANCH  13  14
ENDBRANCH   1  13
TORSDOF 20
ENDMDL
MODEL 9
REMARK VINA RESULT:    -4.155      2.564      5.897
REMARK INTER + INTRA:         -12.042
REMARK INTER:                  -8.733
REMARK INTRA:                  -3.309
REMARK UNBOUND:                -3.030
REMARK SMILES CCCCCCCCCCCCCCCCCCCCCC(=O)[O-]
REMARK SMILES IDX 12 1 11 2 10 3 9 4 8 5 7 6 6 7 5 8 4 9 3 10 2 11 1 12 13 13
REMARK SMILES IDX 14 14 15 15 16 16 17 17 18 18 19 19 20 20 21 21 22 22 23 23
REMARK SMILES IDX 24 24
REMARK H PARENT
REMARK Flexibility Score: inf
ROOT
ATOM      1  C   UNL     1      63.887  29.429  12.919  1.00  0.00     0.000 C 
ENDROOT
BRANCH   1   2
ATOM      2  C   UNL     1      64.117  30.619  11.976  1.00  0.00     0.000 C 
BRANCH   2   3
ATOM      3  C   UNL     1      63.576  30.369  10.556  1.00  0.00     0.000 C 
BRANCH   3   4
ATOM      4  C   UNL     1      62.678  29.124  10.413  1.00  0.00    -0.000 C 
BRANCH   4   5
ATOM      5  C   UNL     1      61.322  29.377   9.725  1.00  0.00    -0.000 C 
BRANCH   5   6
ATOM      6  C   UNL     1      60.126  29.539  10.684  1.00  0.00    -0.000 C 
BRANCH   6   7
ATOM      7  C   UNL     1      60.412  29.201  12.163  1.00  0.00    -0.000 C 
BRANCH   7   8
ATOM      8  C   UNL     1      60.224  30.376  13.143  1.00  0.00    -0.000 C 
BRANCH   8   9
ATOM      9  C   UNL     1      60.453  31.762  12.498  1.00  0.00    -0.000 C 
BRANCH   9  10
ATOM     10  C   UNL     1      61.370  32.682  13.327  1.00  0.00    -0.000 C 
BRANCH  10  11
ATOM     11  C   UNL     1      61.162  32.578  14.849  1.00  0.00    -0.003 C 
ATOM     12  C   UNL     1      60.936  33.937  15.511  1.00  0.00     0.004 C 
ENDBRANCH  10  11
ENDBRANCH   9  10
ENDBRANCH   8   9
ENDBRANCH   7   8
ENDBRANCH   6   7
ENDBRANCH   5   6
ENDBRANCH   4   5
ENDBRANCH   3   4
ENDBRANCH   2   3
ENDBRANCH   1   2
BRANCH   1  13
ATOM     13  C   UNL     1      64.329  29.768  14.351  1.00  0.00     0.000 C 
BRANCH  13  14
ATOM     14  C   UNL     1      64.722  31.250  14.510  1.00  0.00     0.000 C 
BRANCH  14  15
ATOM     15  C   UNL     1      66.094  31.469  15.177  1.00  0.00     0.000 C 
BRANCH  15  16
ATOM     16  C   UNL     1      66.827  32.747  14.716  1.00  0.00     0.000 C 
BRANCH  16  17
ATOM     17  C   UNL     1      65.966  33.664  13.829  1.00  0.00     0.000 C 
BRANCH  17  18
ATOM     18  C   UNL     1      65.559  34.960  14.546  1.00  0.00     0.000 C 
BRANCH  18  19
ATOM     19  C   UNL     1      64.467  34.688  15.590  1.00  0.00     0.000 C 
BRANCH  19  20
ATOM     20  C   UNL     1      64.746  35.372  16.941  1.00  0.00     0.006 C 
BRANCH  20  21
ATOM     21  C   UNL     1      65.912  34.758  17.732  1.00  0.00     0.053 C 
BRANCH  21  22
ATOM     22  C   UNL     1      65.613  34.677  19.198  1.00  0.00     0.041 C 
ATOM     23  O   UNL     1      64.444  34.880  19.620  1.00  0.00    -0.550 OA
ATOM     24  O   UNL     1      66.632  34.398  20.101  1.00  0.00    -0.550 OA
ENDBRANCH  21  22
ENDBRANCH  20  21
ENDBRANCH  19  20
ENDBRANCH  18  19
ENDBRANCH  17  18
ENDBRANCH  16  17
ENDBRANCH  15  16
ENDBRANCH  14  15
ENDBRANCH  13  14
ENDBRANCH   1  13
TORSDOF 20
ENDMDL
