MODEL 1
REMARK VINA RESULT:     4.225      0.000      0.000
REMARK INTER + INTRA:           7.964
REMARK INTER:                  10.647
REMARK INTRA:                  -2.683
REMARK UNBOUND:                -2.683
REMARK SMILES CCCCCCCCCCCCCCCCCCCCCCCCCCCC(=O)[O-]
REMARK SMILES IDX 15 1 16 2 17 3 18 4 19 5 20 6 21 7 22 8 23 9 24 10 25 11
REMARK SMILES IDX 26 12 27 13 28 14 29 15 30 16 14 17 13 18 12 19 11 20 10 21
REMARK SMILES IDX 9 22 8 23 7 24 6 25 5 26 4 27 3 28 2 29 1 30
REMARK H PARENT
REMARK Flexibility Score: inf
ROOT
ATOM      1  C   UNL     1       5.580 -34.266  18.291  1.00  0.00     0.000 C 
ENDROOT
BRANCH   1   2
ATOM      2  C   UNL     1       4.189 -34.573  17.693  1.00  0.00     0.000 C 
BRANCH   2   3
ATOM      3  C   UNL     1       3.905 -36.061  17.401  1.00  0.00     0.000 C 
BRANCH   3   4
ATOM      4  C   UNL     1       3.257 -36.323  16.030  1.00  0.00     0.000 C 
BRANCH   4   5
ATOM      5  C   UNL     1       2.026 -37.240  16.135  1.00  0.00     0.000 C 
BRANCH   5   6
ATOM      6  C   UNL     1       0.950 -36.677  17.085  1.00  0.00     0.000 C 
BRANCH   6   7
ATOM      7  C   UNL     1       0.694 -37.526  18.351  1.00  0.00     0.000 C 
BRANCH   7   8
ATOM      8  C   UNL     1       1.869 -38.422  18.787  1.00  0.00     0.000 C 
BRANCH   8   9
ATOM      9  C   UNL     1       2.264 -38.209  20.259  1.00  0.00     0.000 C 
BRANCH   9  10
ATOM     10  C   UNL     1       3.656 -37.568  20.416  1.00  0.00     0.000 C 
BRANCH  10  11
ATOM     11  C   UNL     1       4.809 -38.335  19.736  1.00  0.00     0.000 C 
BRANCH  11  12
ATOM     12  C   UNL     1       5.703 -39.168  20.678  1.00  0.00     0.006 C 
BRANCH  12  13
ATOM     13  C   UNL     1       5.294 -39.086  22.161  1.00  0.00     0.053 C 
BRANCH  13  14
ATOM     14  C   UNL     1       5.421 -40.405  22.864  1.00  0.00     0.041 C 
ATOM     15  O   UNL     1       5.392 -40.458  24.121  1.00  0.00    -0.550 OA
ATOM     16  O   UNL     1       5.525 -41.579  22.128  1.00  0.00    -0.550 OA
ENDBRANCH  13  14
ENDBRANCH  12  13
ENDBRANCH  11  12
ENDBRANCH  10  11
ENDBRANCH   9  10
ENDBRANCH   8   9
ENDBRANCH   7   8
ENDBRANCH   6   7
ENDBRANCH   5   6
ENDBRANCH   4   5
ENDBRANCH   3   4
ENDBRANCH   2   3
ENDBRANCH   1   2
BRANCH   1  17
ATOM     17  C   UNL     1       6.069 -35.258  19.369  1.00  0.00     0.000 C 
BRANCH  17  18
ATOM     18  C   UNL     1       6.124 -34.681  20.798  1.00  0.00     0.000 C 
BRANCH  18  19
ATOM     19  C   UNL     1       6.125 -35.783  21.874  1.00  0.00     0.000 C 
BRANCH  19  20
ATOM     20  C   UNL     1       5.162 -35.493  23.043  1.00  0.00     0.000 C 
BRANCH  20  21
ATOM     21  C   UNL     1       5.700 -34.531  24.116  1.00  0.00     0.000 C 
BRANCH  21  22
ATOM     22  C   UNL     1       6.057 -35.237  25.433  1.00  0.00    -0.000 C 
BRANCH  22  23
ATOM     23  C   UNL     1       6.081 -36.762  25.252  1.00  0.00    -0.000 C 
BRANCH  23  24
ATOM     24  C   UNL     1       5.178 -37.504  26.256  1.00  0.00    -0.000 C 
BRANCH  24  25
ATOM     25  C   UNL     1       3.670 -37.434  25.952  1.00  0.00    -0.000 C 
BRANCH  25  26
ATOM     26  C   UNL     1       2.823 -38.230  26.961  1.00  0.00    -0.000 C 
BRANCH  26  27
ATOM     27  C   UNL     1       1.573 -37.461  27.423  1.00  0.00    -0.000 C 
BRANCH  27  28
ATOM     28  C   UNL     1       1.727 -35.926  27.458  1.00  0.00    -0.000 C 
BRANCH  28  29
ATOM     29  C   UNL     1       2.311 -35.380  28.777  1.00  0.00    -0.003 C 
ATOM     30  C   UNL     1       1.263 -34.647  29.620  1.00  0.00     0.004 C 
ENDBRANCH  28  29
ENDBRANCH  27  28
ENDBRANCH  26  27
ENDBRANCH  25  26
ENDBRANCH  24  25
ENDBRANCH  23  24
ENDBRANCH  22  23
ENDBRANCH  21  22
ENDBRANCH  20  21
ENDBRANCH  19  20
ENDBRANCH  18  19
ENDBRANCH  17  18
ENDBRANCH   1  17
TORSDOF 26
ENDMDL
MODEL 2
REMARK VINA RESULT:     4.523      2.907      6.824
REMARK INTER + INTRA:           8.715
REMARK INTER:                  10.083
REMARK INTRA:                  -1.368
REMARK UNBOUND:                -2.683
REMARK SMILES CCCCCCCCCCCCCCCCCCCCCCCCCCCC(=O)[O-]
REMARK SMILES IDX 15 1 16 2 17 3 18 4 19 5 20 6 21 7 22 8 23 9 24 10 25 11
REMARK SMILES IDX 26 12 27 13 28 14 29 15 30 16 14 17 13 18 12 19 11 20 10 21
REMARK SMILES IDX 9 22 8 23 7 24 6 25 5 26 4 27 3 28 2 29 1 30
REMARK H PARENT
REMARK Flexibility Score: inf
ROOT
ATOM      1  C   UNL     1       5.387 -39.123  24.799  1.00  0.00     0.000 C 
ENDROOT
BRANCH   1   2
ATOM      2  C   UNL     1       5.038 -40.526  24.256  1.00  0.00     0.000 C 
BRANCH   2   3
ATOM      3  C   UNL     1       5.604 -40.858  22.859  1.00  0.00     0.000 C 
BRANCH   3   4
ATOM      4  C   UNL     1       5.701 -39.648  21.914  1.00  0.00     0.000 C 
BRANCH   4   5
ATOM      5  C   UNL     1       5.669 -40.064  20.433  1.00  0.00     0.000 C 
BRANCH   5   6
ATOM      6  C   UNL     1       5.810 -38.862  19.478  1.00  0.00     0.000 C 
BRANCH   6   7
ATOM      7  C   UNL     1       4.957 -37.630  19.857  1.00  0.00     0.000 C 
BRANCH   7   8
ATOM      8  C   UNL     1       5.440 -36.291  19.264  1.00  0.00     0.000 C 
BRANCH   8   9
ATOM      9  C   UNL     1       4.349 -35.573  18.452  1.00  0.00     0.000 C 
BRANCH   9  10
ATOM     10  C   UNL     1       3.812 -36.429  17.288  1.00  0.00     0.000 C 
BRANCH  10  11
ATOM     11  C   UNL     1       2.727 -35.751  16.426  1.00  0.00     0.000 C 
BRANCH  11  12
ATOM     12  C   UNL     1       2.009 -36.669  15.414  1.00  0.00     0.006 C 
BRANCH  12  13
ATOM     13  C   UNL     1       2.773 -36.857  14.090  1.00  0.00     0.053 C 
BRANCH  13  14
ATOM     14  C   UNL     1       4.002 -37.700  14.251  1.00  0.00     0.041 C 
ATOM     15  O   UNL     1       5.128 -37.250  13.913  1.00  0.00    -0.550 OA
ATOM     16  O   UNL     1       3.909 -38.966  14.817  1.00  0.00    -0.550 OA
ENDBRANCH  13  14
ENDBRANCH  12  13
ENDBRANCH  11  12
ENDBRANCH  10  11
ENDBRANCH   9  10
ENDBRANCH   8   9
ENDBRANCH   7   8
ENDBRANCH   6   7
ENDBRANCH   5   6
ENDBRANCH   4   5
ENDBRANCH   3   4
ENDBRANCH   2   3
ENDBRANCH   1   2
BRANCH   1  17
ATOM     17  C   UNL     1       4.242 -38.396  25.537  1.00  0.00     0.000 C 
BRANCH  17  18
ATOM     18  C   UNL     1       4.639 -37.050  26.175  1.00  0.00     0.000 C 
BRANCH  18  19
ATOM     19  C   UNL     1       5.707 -36.306  25.353  1.00  0.00     0.000 C 
BRANCH  19  20
ATOM     20  C   UNL     1       6.125 -37.058  24.074  1.00  0.00     0.000 C 
BRANCH  20  21
ATOM     21  C   UNL     1       5.939 -36.278  22.760  1.00  0.00     0.000 C 
BRANCH  21  22
ATOM     22  C   UNL     1       6.119 -34.762  22.929  1.00  0.00    -0.000 C 
BRANCH  22  23
ATOM     23  C   UNL     1       5.002 -33.992  22.207  1.00  0.00    -0.000 C 
BRANCH  23  24
ATOM     24  C   UNL     1       3.596 -34.544  22.508  1.00  0.00    -0.000 C 
BRANCH  24  25
ATOM     25  C   UNL     1       2.810 -35.029  21.276  1.00  0.00    -0.000 C 
BRANCH  25  26
ATOM     26  C   UNL     1       1.682 -36.011  21.639  1.00  0.00    -0.000 C 
BRANCH  26  27
ATOM     27  C   UNL     1       0.991 -36.606  20.400  1.00  0.00    -0.000 C 
BRANCH  27  28
ATOM     28  C   UNL     1       1.413 -38.047  20.046  1.00  0.00    -0.000 C 
BRANCH  28  29
ATOM     29  C   UNL     1       1.503 -38.324  18.530  1.00  0.00    -0.003 C 
ATOM     30  C   UNL     1       0.138 -38.238  17.839  1.00  0.00     0.004 C 
ENDBRANCH  28  29
ENDBRANCH  27  28
ENDBRANCH  26  27
ENDBRANCH  25  26
ENDBRANCH  24  25
ENDBRANCH  23  24
ENDBRANCH  22  23
ENDBRANCH  21  22
ENDBRANCH  20  21
ENDBRANCH  19  20
ENDBRANCH  18  19
ENDBRANCH  17  18
ENDBRANCH   1  17
TORSDOF 26
ENDMDL
MODEL 3
REMARK VINA RESULT:     5.066      1.118      2.570
REMARK INTER + INTRA:          10.083
REMARK INTER:                  12.370
REMARK INTRA:                  -2.286
REMARK UNBOUND:                -2.683
REMARK SMILES CCCCCCCCCCCCCCCCCCCCCCCCCCCC(=O)[O-]
REMARK SMILES IDX 15 1 16 2 17 3 18 4 19 5 20 6 21 7 22 8 23 9 24 10 25 11
REMARK SMILES IDX 26 12 27 13 28 14 29 15 30 16 14 17 13 18 12 19 11 20 10 21
REMARK SMILES IDX 9 22 8 23 7 24 6 25 5 26 4 27 3 28 2 29 1 30
REMARK H PARENT
REMARK Flexibility Score: inf
ROOT
ATOM      1  C   UNL     1       1.866 -37.022  20.881  1.00  0.00     0.000 C 
ENDROOT
BRANCH   1   2
ATOM      2  C   UNL     1       0.513 -37.184  20.152  1.00  0.00     0.000 C 
BRANCH   2   3
ATOM      3  C   UNL     1       0.561 -37.986  18.835  1.00  0.00     0.000 C 
BRANCH   3   4
ATOM      4  C   UNL     1       1.934 -37.981  18.141  1.00  0.00     0.000 C 
BRANCH   4   5
ATOM      5  C   UNL     1       1.961 -37.056  16.912  1.00  0.00     0.000 C 
BRANCH   5   6
ATOM      6  C   UNL     1       3.395 -36.735  16.446  1.00  0.00     0.000 C 
BRANCH   6   7
ATOM      7  C   UNL     1       3.889 -35.313  16.799  1.00  0.00     0.000 C 
BRANCH   7   8
ATOM      8  C   UNL     1       4.120 -35.054  18.301  1.00  0.00     0.000 C 
BRANCH   8   9
ATOM      9  C   UNL     1       5.603 -35.141  18.698  1.00  0.00     0.000 C 
BRANCH   9  10
ATOM     10  C   UNL     1       5.879 -36.246  19.735  1.00  0.00     0.000 C 
BRANCH  10  11
ATOM     11  C   UNL     1       5.046 -37.532  19.557  1.00  0.00     0.000 C 
BRANCH  11  12
ATOM     12  C   UNL     1       5.638 -38.805  20.199  1.00  0.00     0.006 C 
BRANCH  12  13
ATOM     13  C   UNL     1       5.446 -38.882  21.725  1.00  0.00     0.053 C 
BRANCH  13  14
ATOM     14  C   UNL     1       5.572 -40.282  22.248  1.00  0.00     0.041 C 
ATOM     15  O   UNL     1       5.140 -40.570  23.395  1.00  0.00    -0.550 OA
ATOM     16  O   UNL     1       6.125 -41.276  21.451  1.00  0.00    -0.550 OA
ENDBRANCH  13  14
ENDBRANCH  12  13
ENDBRANCH  11  12
ENDBRANCH  10  11
ENDBRANCH   9  10
ENDBRANCH   8   9
ENDBRANCH   7   8
ENDBRANCH   6   7
ENDBRANCH   5   6
ENDBRANCH   4   5
ENDBRANCH   3   4
ENDBRANCH   2   3
ENDBRANCH   1   2
BRANCH   1  17
ATOM     17  C   UNL     1       2.340 -35.565  21.078  1.00  0.00     0.000 C 
BRANCH  17  18
ATOM     18  C   UNL     1       3.794 -35.421  21.567  1.00  0.00     0.000 C 
BRANCH  18  19
ATOM     19  C   UNL     1       4.077 -34.029  22.161  1.00  0.00     0.000 C 
BRANCH  19  20
ATOM     20  C   UNL     1       5.132 -34.048  23.285  1.00  0.00     0.000 C 
BRANCH  20  21
ATOM     21  C   UNL     1       5.832 -35.400  23.508  1.00  0.00     0.000 C 
BRANCH  21  22
ATOM     22  C   UNL     1       5.777 -35.874  24.968  1.00  0.00    -0.000 C 
BRANCH  22  23
ATOM     23  C   UNL     1       5.553 -37.392  25.046  1.00  0.00    -0.000 C 
BRANCH  23  24
ATOM     24  C   UNL     1       5.085 -37.863  26.436  1.00  0.00    -0.000 C 
BRANCH  24  25
ATOM     25  C   UNL     1       3.708 -38.550  26.462  1.00  0.00    -0.000 C 
BRANCH  25  26
ATOM     26  C   UNL     1       2.546 -37.549  26.593  1.00  0.00    -0.000 C 
BRANCH  26  27
ATOM     27  C   UNL     1       2.755 -36.544  27.738  1.00  0.00    -0.000 C 
BRANCH  27  28
ATOM     28  C   UNL     1       1.477 -35.824  28.216  1.00  0.00    -0.000 C 
BRANCH  28  29
ATOM     29  C   UNL     1       1.721 -34.764  29.311  1.00  0.00    -0.003 C 
ATOM     30  C   UNL     1       0.544 -33.794  29.457  1.00  0.00     0.004 C 
ENDBRANCH  28  29
ENDBRANCH  27  28
ENDBRANCH  26  27
ENDBRANCH  25  26
ENDBRANCH  24  25
ENDBRANCH  23  24
ENDBRANCH  22  23
ENDBRANCH  21  22
ENDBRANCH  20  21
ENDBRANCH  19  20
ENDBRANCH  18  19
ENDBRANCH  17  18
ENDBRANCH   1  17
TORSDOF 26
ENDMDL
MODEL 4
REMARK VINA RESULT:     5.253      2.885      8.657
REMARK INTER + INTRA:          10.554
REMARK INTER:                   9.898
REMARK INTRA:                   0.656
REMARK UNBOUND:                -2.683
REMARK SMILES CCCCCCCCCCCCCCCCCCCCCCCCCCCC(=O)[O-]
REMARK SMILES IDX 15 1 16 2 17 3 18 4 19 5 20 6 21 7 22 8 23 9 24 10 25 11
REMARK SMILES IDX 26 12 27 13 28 14 29 15 30 16 14 17 13 18 12 19 11 20 10 21
REMARK SMILES IDX 9 22 8 23 7 24 6 25 5 26 4 27 3 28 2 29 1 30
REMARK H PARENT
REMARK Flexibility Score: inf
ROOT
ATOM      1  C   UNL     1       4.972 -37.790  21.664  1.00  0.00     0.000 C 
ENDROOT
BRANCH   1   2
ATOM      2  C   UNL     1       5.465 -39.124  21.063  1.00  0.00     0.000 C 
BRANCH   2   3
ATOM      3  C   UNL     1       6.125 -40.099  22.061  1.00  0.00     0.000 C 
BRANCH   3   4
ATOM      4  C   UNL     1       5.318 -41.383  22.316  1.00  0.00     0.000 C 
BRANCH   4   5
ATOM      5  C   UNL     1       5.691 -42.048  23.652  1.00  0.00     0.000 C 
BRANCH   5   6
ATOM      6  C   UNL     1       5.842 -41.027  24.798  1.00  0.00     0.000 C 
BRANCH   6   7
ATOM      7  C   UNL     1       4.839 -39.852  24.756  1.00  0.00     0.000 C 
BRANCH   7   8
ATOM      8  C   UNL     1       5.397 -38.497  25.232  1.00  0.00     0.000 C 
BRANCH   8   9
ATOM      9  C   UNL     1       4.346 -37.644  25.961  1.00  0.00     0.000 C 
BRANCH   9  10
ATOM     10  C   UNL     1       3.242 -38.493  26.620  1.00  0.00     0.000 C 
BRANCH  10  11
ATOM     11  C   UNL     1       1.977 -37.713  27.034  1.00  0.00     0.000 C 
BRANCH  11  12
ATOM     12  C   UNL     1       2.182 -36.641  28.126  1.00  0.00     0.006 C 
BRANCH  12  13
ATOM     13  C   UNL     1       1.245 -35.426  27.992  1.00  0.00     0.053 C 
BRANCH  13  14
ATOM     14  C   UNL     1       1.222 -34.581  29.230  1.00  0.00     0.041 C 
ATOM     15  O   UNL     1       0.190 -33.925  29.531  1.00  0.00    -0.550 OA
ATOM     16  O   UNL     1       2.325 -34.553  30.075  1.00  0.00    -0.550 OA
ENDBRANCH  13  14
ENDBRANCH  12  13
ENDBRANCH  11  12
ENDBRANCH  10  11
ENDBRANCH   9  10
ENDBRANCH   8   9
ENDBRANCH   7   8
ENDBRANCH   6   7
ENDBRANCH   5   6
ENDBRANCH   4   5
ENDBRANCH   3   4
ENDBRANCH   2   3
ENDBRANCH   1   2
BRANCH   1  17
ATOM     17  C   UNL     1       6.079 -36.767  22.002  1.00  0.00     0.000 C 
BRANCH  17  18
ATOM     18  C   UNL     1       5.610 -35.564  22.844  1.00  0.00     0.000 C 
BRANCH  18  19
ATOM     19  C   UNL     1       4.553 -34.716  22.113  1.00  0.00     0.000 C 
BRANCH  19  20
ATOM     20  C   UNL     1       4.249 -35.217  20.687  1.00  0.00     0.000 C 
BRANCH  20  21
ATOM     21  C   UNL     1       5.396 -35.056  19.674  1.00  0.00     0.000 C 
BRANCH  21  22
ATOM     22  C   UNL     1       4.932 -34.494  18.322  1.00  0.00    -0.000 C 
BRANCH  22  23
ATOM     23  C   UNL     1       3.887 -35.415  17.673  1.00  0.00    -0.000 C 
BRANCH  23  24
ATOM     24  C   UNL     1       4.074 -36.898  18.045  1.00  0.00    -0.000 C 
BRANCH  24  25
ATOM     25  C   UNL     1       2.858 -37.799  17.763  1.00  0.00    -0.000 C 
BRANCH  25  26
ATOM     26  C   UNL     1       1.744 -37.069  16.990  1.00  0.00    -0.000 C 
BRANCH  26  27
ATOM     27  C   UNL     1       2.292 -36.152  15.884  1.00  0.00    -0.000 C 
BRANCH  27  28
ATOM     28  C   UNL     1       2.286 -36.763  14.467  1.00  0.00    -0.000 C 
BRANCH  28  29
ATOM     29  C   UNL     1       3.652 -37.318  14.012  1.00  0.00    -0.003 C 
ATOM     30  C   UNL     1       3.997 -38.647  14.690  1.00  0.00     0.004 C 
ENDBRANCH  28  29
ENDBRANCH  27  28
ENDBRANCH  26  27
ENDBRANCH  25  26
ENDBRANCH  24  25
ENDBRANCH  23  24
ENDBRANCH  22  23
ENDBRANCH  21  22
ENDBRANCH  20  21
ENDBRANCH  19  20
ENDBRANCH  18  19
ENDBRANCH  17  18
ENDBRANCH   1  17
TORSDOF 26
ENDMDL
MODEL 5
REMARK VINA RESULT:     5.650      2.499      5.456
REMARK INTER + INTRA:          11.553
REMARK INTER:                  11.496
REMARK INTRA:                   0.057
REMARK UNBOUND:                -2.683
REMARK SMILES CCCCCCCCCCCCCCCCCCCCCCCCCCCC(=O)[O-]
REMARK SMILES IDX 15 1 16 2 17 3 18 4 19 5 20 6 21 7 22 8 23 9 24 10 25 11
REMARK SMILES IDX 26 12 27 13 28 14 29 15 30 16 14 17 13 18 12 19 11 20 10 21
REMARK SMILES IDX 9 22 8 23 7 24 6 25 5 26 4 27 3 28 2 29 1 30
REMARK H PARENT
REMARK Flexibility Score: inf
ROOT
ATOM      1  C   UNL     1       4.762 -39.082  21.371  1.00  0.00     0.000 C 
ENDROOT
BRANCH   1   2
ATOM      2  C   UNL     1       6.092 -38.315  21.541  1.00  0.00     0.000 C 
BRANCH   2   3
ATOM      3  C   UNL     1       6.035 -36.808  21.216  1.00  0.00     0.000 C 
BRANCH   3   4
ATOM      4  C   UNL     1       5.706 -36.490  19.747  1.00  0.00     0.000 C 
BRANCH   4   5
ATOM      5  C   UNL     1       6.014 -35.027  19.386  1.00  0.00     0.000 C 
BRANCH   5   6
ATOM      6  C   UNL     1       5.081 -34.480  18.287  1.00  0.00     0.000 C 
BRANCH   6   7
ATOM      7  C   UNL     1       4.055 -35.500  17.741  1.00  0.00     0.000 C 
BRANCH   7   8
ATOM      8  C   UNL     1       3.647 -35.295  16.270  1.00  0.00     0.000 C 
BRANCH   8   9
ATOM      9  C   UNL     1       3.504 -36.621  15.503  1.00  0.00     0.000 C 
BRANCH   9  10
ATOM     10  C   UNL     1       2.041 -36.951  15.151  1.00  0.00     0.000 C 
BRANCH  10  11
ATOM     11  C   UNL     1       1.264 -37.720  16.241  1.00  0.00     0.000 C 
BRANCH  11  12
ATOM     12  C   UNL     1       0.708 -36.859  17.395  1.00  0.00     0.006 C 
BRANCH  12  13
ATOM     13  C   UNL     1       0.529 -37.629  18.717  1.00  0.00     0.053 C 
BRANCH  13  14
ATOM     14  C   UNL     1       1.804 -37.722  19.502  1.00  0.00     0.041 C 
ATOM     15  O   UNL     1       1.797 -37.535  20.747  1.00  0.00    -0.550 OA
ATOM     16  O   UNL     1       2.991 -38.061  18.865  1.00  0.00    -0.550 OA
ENDBRANCH  13  14
ENDBRANCH  12  13
ENDBRANCH  11  12
ENDBRANCH  10  11
ENDBRANCH   9  10
ENDBRANCH   8   9
ENDBRANCH   7   8
ENDBRANCH   6   7
ENDBRANCH   5   6
ENDBRANCH   4   5
ENDBRANCH   3   4
ENDBRANCH   2   3
ENDBRANCH   1   2
BRANCH   1  17
ATOM     17  C   UNL     1       4.736 -40.503  21.978  1.00  0.00     0.000 C 
BRANCH  17  18
ATOM     18  C   UNL     1       6.112 -41.192  22.065  1.00  0.00     0.000 C 
BRANCH  18  19
ATOM     19  C   UNL     1       6.125 -42.346  23.084  1.00  0.00     0.000 C 
BRANCH  19  20
ATOM     20  C   UNL     1       5.257 -42.069  24.329  1.00  0.00     0.000 C 
BRANCH  20  21
ATOM     21  C   UNL     1       5.597 -40.779  25.095  1.00  0.00     0.000 C 
BRANCH  21  22
ATOM     22  C   UNL     1       4.822 -39.554  24.587  1.00  0.00    -0.000 C 
BRANCH  22  23
ATOM     23  C   UNL     1       4.622 -38.524  25.710  1.00  0.00    -0.000 C 
BRANCH  23  24
ATOM     24  C   UNL     1       5.928 -37.817  26.120  1.00  0.00    -0.000 C 
BRANCH  24  25
ATOM     25  C   UNL     1       5.954 -36.299  25.867  1.00  0.00    -0.000 C 
BRANCH  25  26
ATOM     26  C   UNL     1       5.379 -35.915  24.492  1.00  0.00    -0.000 C 
BRANCH  26  27
ATOM     27  C   UNL     1       5.932 -34.578  23.970  1.00  0.00    -0.000 C 
BRANCH  27  28
ATOM     28  C   UNL     1       5.058 -33.881  22.906  1.00  0.00    -0.000 C 
BRANCH  28  29
ATOM     29  C   UNL     1       4.189 -34.846  22.071  1.00  0.00    -0.003 C 
ATOM     30  C   UNL     1       2.705 -34.468  22.101  1.00  0.00     0.004 C 
ENDBRANCH  28  29
ENDBRANCH  27  28
ENDBRANCH  26  27
ENDBRANCH  25  26
ENDBRANCH  24  25
ENDBRANCH  23  24
ENDBRANCH  22  23
ENDBRANCH  21  22
ENDBRANCH  20  21
ENDBRANCH  19  20
ENDBRANCH  18  19
ENDBRANCH  17  18
ENDBRANCH   1  17
TORSDOF 26
ENDMDL
MODEL 6
REMARK VINA RESULT:     5.719      2.428      4.740
REMARK INTER + INTRA:          11.729
REMARK INTER:                  13.294
REMARK INTRA:                  -1.566
REMARK UNBOUND:                -2.683
REMARK SMILES CCCCCCCCCCCCCCCCCCCCCCCCCCCC(=O)[O-]
REMARK SMILES IDX 15 1 16 2 17 3 18 4 19 5 20 6 21 7 22 8 23 9 24 10 25 11
REMARK SMILES IDX 26 12 27 13 28 14 29 15 30 16 14 17 13 18 12 19 11 20 10 21
REMARK SMILES IDX 9 22 8 23 7 24 6 25 5 26 4 27 3 28 2 29 1 30
REMARK H PARENT
REMARK Flexibility Score: inf
ROOT
ATOM      1  C   UNL     1       4.123 -34.601  22.880  1.00  0.00     0.000 C 
ENDROOT
BRANCH   1   2
ATOM      2  C   UNL     1       3.460 -34.712  21.489  1.00  0.00     0.000 C 
BRANCH   2   3
ATOM      3  C   UNL     1       2.140 -35.511  21.445  1.00  0.00     0.000 C 
BRANCH   3   4
ATOM      4  C   UNL     1       2.211 -36.802  20.611  1.00  0.00     0.000 C 
BRANCH   4   5
ATOM      5  C   UNL     1       0.836 -37.209  20.053  1.00  0.00     0.000 C 
BRANCH   5   6
ATOM      6  C   UNL     1       0.941 -38.266  18.936  1.00  0.00     0.000 C 
BRANCH   6   7
ATOM      7  C   UNL     1       0.364 -37.827  17.571  1.00  0.00     0.000 C 
BRANCH   7   8
ATOM      8  C   UNL     1       1.084 -36.637  16.908  1.00  0.00     0.000 C 
BRANCH   8   9
ATOM      9  C   UNL     1       1.071 -36.716  15.372  1.00  0.00     0.000 C 
BRANCH   9  10
ATOM     10  C   UNL     1       2.453 -37.051  14.780  1.00  0.00     0.000 C 
BRANCH  10  11
ATOM     11  C   UNL     1       3.535 -37.422  15.816  1.00  0.00     0.000 C 
BRANCH  11  12
ATOM     12  C   UNL     1       4.419 -36.255  16.303  1.00  0.00     0.006 C 
BRANCH  12  13
ATOM     13  C   UNL     1       4.039 -35.723  17.697  1.00  0.00     0.053 C 
BRANCH  13  14
ATOM     14  C   UNL     1       5.094 -34.829  18.277  1.00  0.00     0.041 C 
ATOM     15  O   UNL     1       5.161 -33.621  17.930  1.00  0.00    -0.550 OA
ATOM     16  O   UNL     1       5.974 -35.320  19.234  1.00  0.00    -0.550 OA
ENDBRANCH  13  14
ENDBRANCH  12  13
ENDBRANCH  11  12
ENDBRANCH  10  11
ENDBRANCH   9  10
ENDBRANCH   8   9
ENDBRANCH   7   8
ENDBRANCH   6   7
ENDBRANCH   5   6
ENDBRANCH   4   5
ENDBRANCH   3   4
ENDBRANCH   2   3
ENDBRANCH   1   2
BRANCH   1  17
ATOM     17  C   UNL     1       5.618 -34.986  22.932  1.00  0.00     0.000 C 
BRANCH  17  18
ATOM     18  C   UNL     1       6.125 -35.771  21.706  1.00  0.00     0.000 C 
BRANCH  18  19
ATOM     19  C   UNL     1       5.892 -37.287  21.846  1.00  0.00     0.000 C 
BRANCH  19  20
ATOM     20  C   UNL     1       5.075 -37.887  20.684  1.00  0.00     0.000 C 
BRANCH  20  21
ATOM     21  C   UNL     1       5.628 -39.199  20.099  1.00  0.00     0.000 C 
BRANCH  21  22
ATOM     22  C   UNL     1       6.124 -40.177  21.175  1.00  0.00    -0.000 C 
BRANCH  22  23
ATOM     23  C   UNL     1       4.974 -40.610  22.097  1.00  0.00    -0.000 C 
BRANCH  23  24
ATOM     24  C   UNL     1       5.458 -41.353  23.357  1.00  0.00    -0.000 C 
BRANCH  24  25
ATOM     25  C   UNL     1       5.491 -40.504  24.641  1.00  0.00    -0.000 C 
BRANCH  25  26
ATOM     26  C   UNL     1       4.502 -39.325  24.601  1.00  0.00    -0.000 C 
BRANCH  26  27
ATOM     27  C   UNL     1       5.077 -38.046  25.232  1.00  0.00    -0.000 C 
BRANCH  27  28
ATOM     28  C   UNL     1       4.498 -37.683  26.615  1.00  0.00    -0.000 C 
BRANCH  28  29
ATOM     29  C   UNL     1       3.097 -38.270  26.888  1.00  0.00    -0.003 C 
ATOM     30  C   UNL     1       2.054 -37.184  27.166  1.00  0.00     0.004 C 
ENDBRANCH  28  29
ENDBRANCH  27  28
ENDBRANCH  26  27
ENDBRANCH  25  26
ENDBRANCH  24  25
ENDBRANCH  23  24
ENDBRANCH  22  23
ENDBRANCH  21  22
ENDBRANCH  20  21
ENDBRANCH  19  20
ENDBRANCH  18  19
ENDBRANCH  17  18
ENDBRANCH   1  17
TORSDOF 26
ENDMDL
MODEL 7
REMARK VINA RESULT:     5.944      2.843      5.146
REMARK INTER + INTRA:          12.294
REMARK INTER:                  13.076
REMARK INTRA:                  -0.782
REMARK UNBOUND:                -2.683
REMARK SMILES CCCCCCCCCCCCCCCCCCCCCCCCCCCC(=O)[O-]
REMARK SMILES IDX 15 1 16 2 17 3 18 4 19 5 20 6 21 7 22 8 23 9 24 10 25 11
REMARK SMILES IDX 26 12 27 13 28 14 29 15 30 16 14 17 13 18 12 19 11 20 10 21
REMARK SMILES IDX 9 22 8 23 7 24 6 25 5 26 4 27 3 28 2 29 1 30
REMARK H PARENT
REMARK Flexibility Score: inf
ROOT
ATOM      1  C   UNL     1       4.222 -34.731  22.792  1.00  0.00     0.000 C 
ENDROOT
BRANCH   1   2
ATOM      2  C   UNL     1       3.351 -34.794  21.517  1.00  0.00     0.000 C 
BRANCH   2   3
ATOM      3  C   UNL     1       2.204 -35.826  21.547  1.00  0.00     0.000 C 
BRANCH   3   4
ATOM      4  C   UNL     1       2.363 -36.976  20.538  1.00  0.00     0.000 C 
BRANCH   4   5
ATOM      5  C   UNL     1       1.020 -37.390  19.912  1.00  0.00     0.000 C 
BRANCH   5   6
ATOM      6  C   UNL     1       1.181 -37.948  18.484  1.00  0.00     0.000 C 
BRANCH   6   7
ATOM      7  C   UNL     1       1.110 -36.888  17.361  1.00  0.00     0.000 C 
BRANCH   7   8
ATOM      8  C   UNL     1       2.413 -36.101  17.120  1.00  0.00     0.000 C 
BRANCH   8   9
ATOM      9  C   UNL     1       2.603 -35.706  15.646  1.00  0.00     0.000 C 
BRANCH   9  10
ATOM     10  C   UNL     1       3.327 -36.791  14.826  1.00  0.00     0.000 C 
BRANCH  10  11
ATOM     11  C   UNL     1       3.670 -38.078  15.604  1.00  0.00     0.000 C 
BRANCH  11  12
ATOM     12  C   UNL     1       3.382 -39.402  14.865  1.00  0.00     0.006 C 
BRANCH  12  13
ATOM     13  C   UNL     1       4.615 -40.010  14.171  1.00  0.00     0.053 C 
BRANCH  13  14
ATOM     14  C   UNL     1       4.979 -41.356  14.726  1.00  0.00     0.041 C 
ATOM     15  O   UNL     1       4.414 -42.393  14.291  1.00  0.00    -0.550 OA
ATOM     16  O   UNL     1       5.974 -41.466  15.689  1.00  0.00    -0.550 OA
ENDBRANCH  13  14
ENDBRANCH  12  13
ENDBRANCH  11  12
ENDBRANCH  10  11
ENDBRANCH   9  10
ENDBRANCH   8   9
ENDBRANCH   7   8
ENDBRANCH   6   7
ENDBRANCH   5   6
ENDBRANCH   4   5
ENDBRANCH   3   4
ENDBRANCH   2   3
ENDBRANCH   1   2
BRANCH   1  17
ATOM     17  C   UNL     1       5.712 -35.086  22.593  1.00  0.00     0.000 C 
BRANCH  17  18
ATOM     18  C   UNL     1       6.013 -35.924  21.336  1.00  0.00     0.000 C 
BRANCH  18  19
ATOM     19  C   UNL     1       5.960 -37.438  21.615  1.00  0.00     0.000 C 
BRANCH  19  20
ATOM     20  C   UNL     1       5.095 -38.214  20.602  1.00  0.00     0.000 C 
BRANCH  20  21
ATOM     21  C   UNL     1       5.607 -39.619  20.239  1.00  0.00     0.000 C 
BRANCH  21  22
ATOM     22  C   UNL     1       6.120 -40.406  21.454  1.00  0.00    -0.000 C 
BRANCH  22  23
ATOM     23  C   UNL     1       4.957 -40.849  22.355  1.00  0.00    -0.000 C 
BRANCH  23  24
ATOM     24  C   UNL     1       5.394 -41.808  23.478  1.00  0.00    -0.000 C 
BRANCH  24  25
ATOM     25  C   UNL     1       5.593 -41.149  24.856  1.00  0.00    -0.000 C 
BRANCH  25  26
ATOM     26  C   UNL     1       5.428 -39.619  24.813  1.00  0.00    -0.000 C 
BRANCH  26  27
ATOM     27  C   UNL     1       5.100 -39.018  26.190  1.00  0.00    -0.000 C 
BRANCH  27  28
ATOM     28  C   UNL     1       4.927 -37.485  26.209  1.00  0.00    -0.000 C 
BRANCH  28  29
ATOM     29  C   UNL     1       5.769 -36.742  25.152  1.00  0.00    -0.003 C 
ATOM     30  C   UNL     1       5.878 -35.241  25.442  1.00  0.00     0.004 C 
ENDBRANCH  28  29
ENDBRANCH  27  28
ENDBRANCH  26  27
ENDBRANCH  25  26
ENDBRANCH  24  25
ENDBRANCH  23  24
ENDBRANCH  22  23
ENDBRANCH  21  22
ENDBRANCH  20  21
ENDBRANCH  19  20
ENDBRANCH  18  19
ENDBRANCH  17  18
ENDBRANCH   1  17
TORSDOF 26
ENDMDL
