MODEL 1
REMARK VINA RESULT:    -0.765      0.000      0.000
REMARK INTER + INTRA:          -2.374
REMARK INTER:                  -1.659
REMARK INTRA:                  -0.715
REMARK UNBOUND:                -0.715
REMARK SMILES CCCCCCCCCCCCCCCCCCCCCC(=O)[O-]
REMARK SMILES IDX 12 1 11 2 10 3 9 4 8 5 7 6 6 7 5 8 4 9 3 10 2 11 1 12 13 13
REMARK SMILES IDX 14 14 15 15 16 16 17 17 18 18 19 19 20 20 21 21 22 22 23 23
REMARK SMILES IDX 24 24
REMARK H PARENT
REMARK Flexibility Score: inf
ROOT
ATOM      1  C   UNL     1     -11.384  36.267  -3.351  1.00  0.00     0.000 C 
ENDROOT
BRANCH   1   2
ATOM      2  C   UNL     1     -12.716  36.169  -4.112  1.00  0.00     0.000 C 
BRANCH   2   3
ATOM      3  C   UNL     1     -12.535  35.685  -5.561  1.00  0.00     0.000 C 
BRANCH   3   4
ATOM      4  C   UNL     1     -13.568  36.290  -6.529  1.00  0.00    -0.000 C 
BRANCH   4   5
ATOM      5  C   UNL     1     -13.989  35.377  -7.696  1.00  0.00    -0.000 C 
BRANCH   5   6
ATOM      6  C   UNL     1     -13.182  35.636  -8.980  1.00  0.00    -0.000 C 
BRANCH   6   7
ATOM      7  C   UNL     1     -13.854  35.035 -10.227  1.00  0.00    -0.000 C 
BRANCH   7   8
ATOM      8  C   UNL     1     -15.046  34.129  -9.871  1.00  0.00    -0.000 C 
BRANCH   8   9
ATOM      9  C   UNL     1     -15.635  33.407 -11.096  1.00  0.00    -0.000 C 
BRANCH   9  10
ATOM     10  C   UNL     1     -17.149  33.139 -11.030  1.00  0.00    -0.000 C 
BRANCH  10  11
ATOM     11  C   UNL     1     -17.982  34.233 -11.710  1.00  0.00    -0.003 C 
ATOM     12  C   UNL     1     -18.473  33.779 -13.082  1.00  0.00     0.004 C 
ENDBRANCH  10  11
ENDBRANCH   9  10
ENDBRANCH   8   9
ENDBRANCH   7   8
ENDBRANCH   6   7
ENDBRANCH   5   6
ENDBRANCH   4   5
ENDBRANCH   3   4
ENDBRANCH   2   3
ENDBRANCH   1   2
BRANCH   1  13
ATOM     13  C   UNL     1     -11.567  36.229  -1.823  1.00  0.00     0.000 C 
BRANCH  13  14
ATOM     14  C   UNL     1     -10.228  36.291  -1.070  1.00  0.00     0.000 C 
BRANCH  14  15
ATOM     15  C   UNL     1      -9.348  37.467  -1.526  1.00  0.00     0.000 C 
BRANCH  15  16
ATOM     16  C   UNL     1      -8.376  37.934  -0.431  1.00  0.00     0.000 C 
BRANCH  16  17
ATOM     17  C   UNL     1      -6.911  37.942  -0.901  1.00  0.00     0.000 C 
BRANCH  17  18
ATOM     18  C   UNL     1      -5.919  37.658   0.240  1.00  0.00     0.000 C 
BRANCH  18  19
ATOM     19  C   UNL     1      -6.252  36.423   1.102  1.00  0.00     0.000 C 
BRANCH  19  20
ATOM     20  C   UNL     1      -5.579  35.112   0.654  1.00  0.00     0.006 C 
BRANCH  20  21
ATOM     21  C   UNL     1      -5.965  33.915   1.530  1.00  0.00     0.053 C 
BRANCH  21  22
ATOM     22  C   UNL     1      -7.199  33.256   1.000  1.00  0.00     0.041 C 
ATOM     23  O   UNL     1      -8.080  33.938   0.414  1.00  0.00    -0.550 OA
ATOM     24  O   UNL     1      -7.353  31.880   1.110  1.00  0.00    -0.550 OA
ENDBRANCH  21  22
ENDBRANCH  20  21
ENDBRANCH  19  20
ENDBRANCH  18  19
ENDBRANCH  17  18
ENDBRANCH  16  17
ENDBRANCH  15  16
ENDBRANCH  14  15
ENDBRANCH  13  14
ENDBRANCH   1  13
TORSDOF 20
ENDMDL
MODEL 2
REMARK VINA RESULT:    -0.752      0.585      1.322
REMARK INTER + INTRA:          -2.347
REMARK INTER:                  -1.455
REMARK INTRA:                  -0.892
REMARK UNBOUND:                -0.715
REMARK SMILES CCCCCCCCCCCCCCCCCCCCCC(=O)[O-]
REMARK SMILES IDX 12 1 11 2 10 3 9 4 8 5 7 6 6 7 5 8 4 9 3 10 2 11 1 12 13 13
REMARK SMILES IDX 14 14 15 15 16 16 17 17 18 18 19 19 20 20 21 21 22 22 23 23
REMARK SMILES IDX 24 24
REMARK H PARENT
REMARK Flexibility Score: inf
ROOT
ATOM      1  C   UNL     1     -11.604  36.257  -1.933  1.00  0.00     0.000 C 
ENDROOT
BRANCH   1   2
ATOM      2  C   UNL     1     -11.369  36.263  -3.452  1.00  0.00     0.000 C 
BRANCH   2   3
ATOM      3  C   UNL     1     -12.670  36.084  -4.253  1.00  0.00     0.000 C 
BRANCH   3   4
ATOM      4  C   UNL     1     -12.425  35.887  -5.760  1.00  0.00    -0.000 C 
BRANCH   4   5
ATOM      5  C   UNL     1     -13.676  36.009  -6.651  1.00  0.00    -0.000 C 
BRANCH   5   6
ATOM      6  C   UNL     1     -13.439  35.508  -8.087  1.00  0.00    -0.000 C 
BRANCH   6   7
ATOM      7  C   UNL     1     -14.626  34.692  -8.627  1.00  0.00    -0.000 C 
BRANCH   7   8
ATOM      8  C   UNL     1     -14.594  34.554 -10.159  1.00  0.00    -0.000 C 
BRANCH   8   9
ATOM      9  C   UNL     1     -15.421  33.361 -10.670  1.00  0.00    -0.000 C 
BRANCH   9  10
ATOM     10  C   UNL     1     -16.151  33.597 -12.005  1.00  0.00    -0.000 C 
BRANCH  10  11
ATOM     11  C   UNL     1     -17.652  33.283 -11.930  1.00  0.00    -0.003 C 
ATOM     12  C   UNL     1     -18.433  34.077 -12.974  1.00  0.00     0.004 C 
ENDBRANCH  10  11
ENDBRANCH   9  10
ENDBRANCH   8   9
ENDBRANCH   7   8
ENDBRANCH   6   7
ENDBRANCH   5   6
ENDBRANCH   4   5
ENDBRANCH   3   4
ENDBRANCH   2   3
ENDBRANCH   1   2
BRANCH   1  13
ATOM     13  C   UNL     1     -10.295  36.353  -1.128  1.00  0.00     0.000 C 
BRANCH  13  14
ATOM     14  C   UNL     1      -9.432  37.553  -1.553  1.00  0.00     0.000 C 
BRANCH  14  15
ATOM     15  C   UNL     1      -8.260  37.808  -0.589  1.00  0.00     0.000 C 
BRANCH  15  16
ATOM     16  C   UNL     1      -6.914  37.933  -1.320  1.00  0.00     0.000 C 
BRANCH  16  17
ATOM     17  C   UNL     1      -5.711  37.887  -0.363  1.00  0.00     0.000 C 
BRANCH  17  18
ATOM     18  C   UNL     1      -6.091  37.403   1.047  1.00  0.00     0.000 C 
BRANCH  18  19
ATOM     19  C   UNL     1      -5.339  36.147   1.531  1.00  0.00     0.000 C 
BRANCH  19  20
ATOM     20  C   UNL     1      -5.500  34.904   0.636  1.00  0.00     0.006 C 
BRANCH  20  21
ATOM     21  C   UNL     1      -5.825  33.635   1.434  1.00  0.00     0.053 C 
BRANCH  21  22
ATOM     22  C   UNL     1      -7.136  33.065   0.996  1.00  0.00     0.041 C 
ATOM     23  O   UNL     1      -7.360  31.831   1.107  1.00  0.00    -0.550 OA
ATOM     24  O   UNL     1      -8.131  33.905   0.511  1.00  0.00    -0.550 OA
ENDBRANCH  21  22
ENDBRANCH  20  21
ENDBRANCH  19  20
ENDBRANCH  18  19
ENDBRANCH  17  18
ENDBRANCH  16  17
ENDBRANCH  15  16
ENDBRANCH  14  15
ENDBRANCH  13  14
ENDBRANCH   1  13
TORSDOF 20
ENDMDL
MODEL 3
REMARK VINA RESULT:    -0.216      4.538     12.370
REMARK INTER + INTRA:          -1.184
REMARK INTER:                  -0.107
REMARK INTRA:                  -1.077
REMARK UNBOUND:                -0.715
REMARK SMILES CCCCCCCCCCCCCCCCCCCCCC(=O)[O-]
REMARK SMILES IDX 12 1 11 2 10 3 9 4 8 5 7 6 6 7 5 8 4 9 3 10 2 11 1 12 13 13
REMARK SMILES IDX 14 14 15 15 16 16 17 17 18 18 19 19 20 20 21 21 22 22 23 23
REMARK SMILES IDX 24 24
REMARK H PARENT
REMARK Flexibility Score: inf
ROOT
ATOM      1  C   UNL     1     -11.343  36.176  -1.818  1.00  0.00     0.000 C 
ENDROOT
BRANCH   1   2
ATOM      2  C   UNL     1     -10.118  36.767  -1.101  1.00  0.00     0.000 C 
BRANCH   2   3
ATOM      3  C   UNL     1      -9.346  37.769  -1.978  1.00  0.00     0.000 C 
BRANCH   3   4
ATOM      4  C   UNL     1      -7.857  37.872  -1.601  1.00  0.00    -0.000 C 
BRANCH   4   5
ATOM      5  C   UNL     1      -7.569  38.025  -0.096  1.00  0.00    -0.000 C 
BRANCH   5   6
ATOM      6  C   UNL     1      -6.667  36.907   0.457  1.00  0.00    -0.000 C 
BRANCH   6   7
ATOM      7  C   UNL     1      -5.265  36.916  -0.176  1.00  0.00    -0.000 C 
BRANCH   7   8
ATOM      8  C   UNL     1      -4.275  36.011   0.578  1.00  0.00    -0.000 C 
BRANCH   8   9
ATOM      9  C   UNL     1      -4.593  34.513   0.421  1.00  0.00    -0.000 C 
BRANCH   9  10
ATOM     10  C   UNL     1      -5.066  33.808   1.705  1.00  0.00    -0.000 C 
BRANCH  10  11
ATOM     11  C   UNL     1      -6.221  32.828   1.460  1.00  0.00    -0.003 C 
ATOM     12  C   UNL     1      -7.440  33.546   0.888  1.00  0.00     0.004 C 
ENDBRANCH  10  11
ENDBRANCH   9  10
ENDBRANCH   8   9
ENDBRANCH   7   8
ENDBRANCH   6   7
ENDBRANCH   5   6
ENDBRANCH   4   5
ENDBRANCH   3   4
ENDBRANCH   2   3
ENDBRANCH   1   2
BRANCH   1  13
ATOM     13  C   UNL     1     -11.388  36.536  -3.313  1.00  0.00     0.000 C 
BRANCH  13  14
ATOM     14  C   UNL     1     -12.580  35.887  -4.037  1.00  0.00     0.000 C 
BRANCH  14  15
ATOM     15  C   UNL     1     -12.331  35.710  -5.545  1.00  0.00     0.000 C 
BRANCH  15  16
ATOM     16  C   UNL     1     -13.507  36.209  -6.398  1.00  0.00     0.000 C 
BRANCH  16  17
ATOM     17  C   UNL     1     -13.839  35.263  -7.564  1.00  0.00     0.000 C 
BRANCH  17  18
ATOM     18  C   UNL     1     -13.134  35.662  -8.873  1.00  0.00     0.000 C 
BRANCH  18  19
ATOM     19  C   UNL     1     -13.778  35.101 -10.158  1.00  0.00     0.000 C 
BRANCH  19  20
ATOM     20  C   UNL     1     -15.063  34.282  -9.941  1.00  0.00     0.006 C 
BRANCH  20  21
ATOM     21  C   UNL     1     -15.510  33.530 -11.201  1.00  0.00     0.053 C 
BRANCH  21  22
ATOM     22  C   UNL     1     -17.000  33.415 -11.238  1.00  0.00     0.041 C 
ATOM     23  O   UNL     1     -17.721  34.391 -10.904  1.00  0.00    -0.550 OA
ATOM     24  O   UNL     1     -17.595  32.243 -11.690  1.00  0.00    -0.550 OA
ENDBRANCH  21  22
ENDBRANCH  20  21
ENDBRANCH  19  20
ENDBRANCH  18  19
ENDBRANCH  17  18
ENDBRANCH  16  17
ENDBRANCH  15  16
ENDBRANCH  14  15
ENDBRANCH  13  14
ENDBRANCH   1  13
TORSDOF 20
ENDMDL
MODEL 4
REMARK VINA RESULT:     0.129      5.358      8.599
REMARK INTER + INTRA:          -0.436
REMARK INTER:                  -0.234
REMARK INTRA:                  -0.202
REMARK UNBOUND:                -0.715
REMARK SMILES CCCCCCCCCCCCCCCCCCCCCC(=O)[O-]
REMARK SMILES IDX 12 1 11 2 10 3 9 4 8 5 7 6 6 7 5 8 4 9 3 10 2 11 1 12 13 13
REMARK SMILES IDX 14 14 15 15 16 16 17 17 18 18 19 19 20 20 21 21 22 22 23 23
REMARK SMILES IDX 24 24
REMARK H PARENT
REMARK Flexibility Score: inf
ROOT
ATOM      1  C   UNL     1      -4.572  35.382   1.592  1.00  0.00     0.000 C 
ENDROOT
BRANCH   1   2
ATOM      2  C   UNL     1      -3.875  35.266   0.226  1.00  0.00     0.000 C 
BRANCH   2   3
ATOM      3  C   UNL     1      -4.850  35.437  -0.952  1.00  0.00     0.000 C 
BRANCH   3   4
ATOM      4  C   UNL     1      -4.396  36.515  -1.954  1.00  0.00    -0.000 C 
BRANCH   4   5
ATOM      5  C   UNL     1      -4.688  37.968  -1.533  1.00  0.00    -0.000 C 
BRANCH   5   6
ATOM      6  C   UNL     1      -6.045  38.125  -0.823  1.00  0.00    -0.000 C 
BRANCH   6   7
ATOM      7  C   UNL     1      -7.233  37.897  -1.772  1.00  0.00    -0.000 C 
BRANCH   7   8
ATOM      8  C   UNL     1      -8.589  38.088  -1.071  1.00  0.00    -0.000 C 
BRANCH   8   9
ATOM      9  C   UNL     1      -9.402  36.785  -0.975  1.00  0.00    -0.000 C 
BRANCH   9  10
ATOM     10  C   UNL     1     -10.929  36.958  -1.070  1.00  0.00    -0.000 C 
BRANCH  10  11
ATOM     11  C   UNL     1     -11.622  35.784  -1.773  1.00  0.00    -0.003 C 
ATOM     12  C   UNL     1     -12.080  36.174  -3.176  1.00  0.00     0.004 C 
ENDBRANCH  10  11
ENDBRANCH   9  10
ENDBRANCH   8   9
ENDBRANCH   7   8
ENDBRANCH   6   7
ENDBRANCH   5   6
ENDBRANCH   4   5
ENDBRANCH   3   4
ENDBRANCH   2   3
ENDBRANCH   1   2
BRANCH   1  13
ATOM     13  C   UNL     1      -4.417  36.778   2.221  1.00  0.00     0.000 C 
BRANCH  13  14
ATOM     14  C   UNL     1      -5.773  37.430   2.542  1.00  0.00     0.000 C 
BRANCH  14  15
ATOM     15  C   UNL     1      -6.961  36.625   1.988  1.00  0.00     0.000 C 
BRANCH  15  16
ATOM     16  C   UNL     1      -6.741  35.107   2.088  1.00  0.00     0.000 C 
BRANCH  16  17
ATOM     17  C   UNL     1      -7.624  34.313   1.110  1.00  0.00     0.000 C 
BRANCH  17  18
ATOM     18  C   UNL     1      -6.975  32.992   0.661  1.00  0.00     0.000 C 
BRANCH  18  19
ATOM     19  C   UNL     1      -6.455  32.098   1.805  1.00  0.00     0.000 C 
BRANCH  19  20
ATOM     20  C   UNL     1      -6.977  30.649   1.791  1.00  0.00     0.006 C 
BRANCH  20  21
ATOM     21  C   UNL     1      -8.357  30.507   2.445  1.00  0.00     0.053 C 
BRANCH  21  22
ATOM     22  C   UNL     1      -8.265  29.666   3.678  1.00  0.00     0.041 C 
ATOM     23  O   UNL     1      -7.518  30.014   4.630  1.00  0.00    -0.550 OA
ATOM     24  O   UNL     1      -9.043  28.521   3.796  1.00  0.00    -0.550 OA
ENDBRANCH  21  22
ENDBRANCH  20  21
ENDBRANCH  19  20
ENDBRANCH  18  19
ENDBRANCH  17  18
ENDBRANCH  16  17
ENDBRANCH  15  16
ENDBRANCH  14  15
ENDBRANCH  13  14
ENDBRANCH   1  13
TORSDOF 20
ENDMDL
MODEL 5
REMARK VINA RESULT:     0.418      1.172      2.309
REMARK INTER + INTRA:           0.191
REMARK INTER:                   1.124
REMARK INTRA:                  -0.933
REMARK UNBOUND:                -0.715
REMARK SMILES CCCCCCCCCCCCCCCCCCCCCC(=O)[O-]
REMARK SMILES IDX 12 1 11 2 10 3 9 4 8 5 7 6 6 7 5 8 4 9 3 10 2 11 1 12 13 13
REMARK SMILES IDX 14 14 15 15 16 16 17 17 18 18 19 19 20 20 21 21 22 22 23 23
REMARK SMILES IDX 24 24
REMARK H PARENT
REMARK Flexibility Score: inf
ROOT
ATOM      1  C   UNL     1     -12.269  35.823  -5.343  1.00  0.00     0.000 C 
ENDROOT
BRANCH   1   2
ATOM      2  C   UNL     1     -13.454  36.368  -6.155  1.00  0.00     0.000 C 
BRANCH   2   3
ATOM      3  C   UNL     1     -13.847  35.444  -7.321  1.00  0.00     0.000 C 
BRANCH   3   4
ATOM      4  C   UNL     1     -13.099  35.773  -8.626  1.00  0.00    -0.000 C 
BRANCH   4   5
ATOM      5  C   UNL     1     -13.688  35.138  -9.899  1.00  0.00    -0.000 C 
BRANCH   5   6
ATOM      6  C   UNL     1     -14.988  34.358  -9.633  1.00  0.00    -0.000 C 
BRANCH   6   7
ATOM      7  C   UNL     1     -15.202  33.214 -10.638  1.00  0.00    -0.000 C 
BRANCH   7   8
ATOM      8  C   UNL     1     -15.495  33.727 -12.058  1.00  0.00    -0.000 C 
BRANCH   8   9
ATOM      9  C   UNL     1     -16.974  33.574 -12.457  1.00  0.00    -0.000 C 
BRANCH   9  10
ATOM     10  C   UNL     1     -17.889  32.997 -11.361  1.00  0.00    -0.000 C 
BRANCH  10  11
ATOM     11  C   UNL     1     -18.515  34.081 -10.473  1.00  0.00    -0.003 C 
ATOM     12  C   UNL     1     -18.829  33.538  -9.081  1.00  0.00     0.004 C 
ENDBRANCH  10  11
ENDBRANCH   9  10
ENDBRANCH   8   9
ENDBRANCH   7   8
ENDBRANCH   6   7
ENDBRANCH   5   6
ENDBRANCH   4   5
ENDBRANCH   3   4
ENDBRANCH   2   3
ENDBRANCH   1   2
BRANCH   1  13
ATOM     13  C   UNL     1     -12.491  35.926  -3.823  1.00  0.00     0.000 C 
BRANCH  13  14
ATOM     14  C   UNL     1     -11.272  36.509  -3.090  1.00  0.00     0.000 C 
BRANCH  14  15
ATOM     15  C   UNL     1     -11.338  36.291  -1.569  1.00  0.00     0.000 C 
BRANCH  15  16
ATOM     16  C   UNL     1      -9.948  36.295  -0.913  1.00  0.00     0.000 C 
BRANCH  16  17
ATOM     17  C   UNL     1      -9.142  37.565  -1.236  1.00  0.00     0.000 C 
BRANCH  17  18
ATOM     18  C   UNL     1      -8.043  37.853  -0.198  1.00  0.00     0.000 C 
BRANCH  18  19
ATOM     19  C   UNL     1      -6.606  37.539  -0.664  1.00  0.00     0.000 C 
BRANCH  19  20
ATOM     20  C   UNL     1      -5.661  37.023   0.436  1.00  0.00     0.006 C 
BRANCH  20  21
ATOM     21  C   UNL     1      -5.212  35.575   0.204  1.00  0.00     0.053 C 
BRANCH  21  22
ATOM     22  C   UNL     1      -5.628  34.710   1.352  1.00  0.00     0.041 C 
ATOM     23  O   UNL     1      -6.848  34.487   1.568  1.00  0.00    -0.550 OA
ATOM     24  O   UNL     1      -4.665  34.111   2.154  1.00  0.00    -0.550 OA
ENDBRANCH  21  22
ENDBRANCH  20  21
ENDBRANCH  19  20
ENDBRANCH  18  19
ENDBRANCH  17  18
ENDBRANCH  16  17
ENDBRANCH  15  16
ENDBRANCH  14  15
ENDBRANCH  13  14
ENDBRANCH   1  13
TORSDOF 20
ENDMDL
MODEL 6
REMARK VINA RESULT:     0.465      4.316     12.797
REMARK INTER + INTRA:           0.293
REMARK INTER:                   1.184
REMARK INTRA:                  -0.891
REMARK UNBOUND:                -0.715
REMARK SMILES CCCCCCCCCCCCCCCCCCCCCC(=O)[O-]
REMARK SMILES IDX 12 1 11 2 10 3 9 4 8 5 7 6 6 7 5 8 4 9 3 10 2 11 1 12 13 13
REMARK SMILES IDX 14 14 15 15 16 16 17 17 18 18 19 19 20 20 21 21 22 22 23 23
REMARK SMILES IDX 24 24
REMARK H PARENT
REMARK Flexibility Score: inf
ROOT
ATOM      1  C   UNL     1     -12.582  36.217  -4.041  1.00  0.00     0.000 C 
ENDROOT
BRANCH   1   2
ATOM      2  C   UNL     1     -11.258  36.276  -3.262  1.00  0.00     0.000 C 
BRANCH   2   3
ATOM      3  C   UNL     1     -11.469  36.279  -1.738  1.00  0.00     0.000 C 
BRANCH   3   4
ATOM      4  C   UNL     1     -10.160  36.476  -0.951  1.00  0.00    -0.000 C 
BRANCH   4   5
ATOM      5  C   UNL     1      -9.407  37.787  -1.247  1.00  0.00    -0.000 C 
BRANCH   5   6
ATOM      6  C   UNL     1      -7.889  37.585  -1.398  1.00  0.00    -0.000 C 
BRANCH   6   7
ATOM      7  C   UNL     1      -7.134  37.798  -0.075  1.00  0.00    -0.000 C 
BRANCH   7   8
ATOM      8  C   UNL     1      -5.688  37.277  -0.134  1.00  0.00    -0.000 C 
BRANCH   8   9
ATOM      9  C   UNL     1      -5.221  36.652   1.193  1.00  0.00    -0.000 C 
BRANCH   9  10
ATOM     10  C   UNL     1      -5.313  35.117   1.260  1.00  0.00    -0.000 C 
BRANCH  10  11
ATOM     11  C   UNL     1      -6.660  34.620   1.803  1.00  0.00    -0.003 C 
ATOM     12  C   UNL     1      -7.562  34.131   0.674  1.00  0.00     0.004 C 
ENDBRANCH  10  11
ENDBRANCH   9  10
ENDBRANCH   8   9
ENDBRANCH   7   8
ENDBRANCH   6   7
ENDBRANCH   5   6
ENDBRANCH   4   5
ENDBRANCH   3   4
ENDBRANCH   2   3
ENDBRANCH   1   2
BRANCH   1  13
ATOM     13  C   UNL     1     -12.434  35.537  -5.414  1.00  0.00     0.000 C 
BRANCH  13  14
ATOM     14  C   UNL     1     -13.246  36.247  -6.510  1.00  0.00     0.000 C 
BRANCH  14  15
ATOM     15  C   UNL     1     -14.208  35.295  -7.242  1.00  0.00     0.000 C 
BRANCH  15  16
ATOM     16  C   UNL     1     -13.932  35.227  -8.752  1.00  0.00     0.000 C 
BRANCH  16  17
ATOM     17  C   UNL     1     -14.885  34.269  -9.488  1.00  0.00     0.000 C 
BRANCH  17  18
ATOM     18  C   UNL     1     -14.731  34.335 -11.017  1.00  0.00     0.000 C 
BRANCH  18  19
ATOM     19  C   UNL     1     -15.385  33.171 -11.790  1.00  0.00     0.000 C 
BRANCH  19  20
ATOM     20  C   UNL     1     -16.661  33.540 -12.569  1.00  0.00     0.006 C 
BRANCH  20  21
ATOM     21  C   UNL     1     -17.755  34.135 -11.674  1.00  0.00     0.053 C 
BRANCH  21  22
ATOM     22  C   UNL     1     -18.097  33.187 -10.569  1.00  0.00     0.041 C 
ATOM     23  O   UNL     1     -18.097  31.945 -10.776  1.00  0.00    -0.550 OA
ATOM     24  O   UNL     1     -18.368  33.673  -9.296  1.00  0.00    -0.550 OA
ENDBRANCH  21  22
ENDBRANCH  20  21
ENDBRANCH  19  20
ENDBRANCH  18  19
ENDBRANCH  17  18
ENDBRANCH  16  17
ENDBRANCH  15  16
ENDBRANCH  14  15
ENDBRANCH  13  14
ENDBRANCH   1  13
TORSDOF 20
ENDMDL
MODEL 7
REMARK VINA RESULT:     0.524      1.154      2.540
REMARK INTER + INTRA:           0.421
REMARK INTER:                   1.516
REMARK INTRA:                  -1.095
REMARK UNBOUND:                -0.715
REMARK SMILES CCCCCCCCCCCCCCCCCCCCCC(=O)[O-]
REMARK SMILES IDX 12 1 11 2 10 3 9 4 8 5 7 6 6 7 5 8 4 9 3 10 2 11 1 12 13 13
REMARK SMILES IDX 14 14 15 15 16 16 17 17 18 18 19 19 20 20 21 21 22 22 23 23
REMARK SMILES IDX 24 24
REMARK H PARENT
REMARK Flexibility Score: inf
ROOT
ATOM      1  C   UNL     1      -9.925  36.644  -1.225  1.00  0.00     0.000 C 
ENDROOT
BRANCH   1   2
ATOM      2  C   UNL     1     -11.457  36.644  -1.355  1.00  0.00     0.000 C 
BRANCH   2   3
ATOM      3  C   UNL     1     -11.958  35.683  -2.446  1.00  0.00     0.000 C 
BRANCH   3   4
ATOM      4  C   UNL     1     -11.843  36.272  -3.864  1.00  0.00    -0.000 C 
BRANCH   4   5
ATOM      5  C   UNL     1     -12.864  35.734  -4.884  1.00  0.00    -0.000 C 
BRANCH   5   6
ATOM      6  C   UNL     1     -12.578  36.203  -6.322  1.00  0.00    -0.000 C 
BRANCH   6   7
ATOM      7  C   UNL     1     -13.547  35.586  -7.344  1.00  0.00    -0.000 C 
BRANCH   7   8
ATOM      8  C   UNL     1     -13.206  35.984  -8.790  1.00  0.00    -0.000 C 
BRANCH   8   9
ATOM      9  C   UNL     1     -13.804  35.024  -9.833  1.00  0.00    -0.000 C 
BRANCH   9  10
ATOM     10  C   UNL     1     -15.010  34.199  -9.346  1.00  0.00    -0.000 C 
BRANCH  10  11
ATOM     11  C   UNL     1     -15.896  33.698 -10.494  1.00  0.00    -0.003 C 
ATOM     12  C   UNL     1     -15.126  33.666 -11.811  1.00  0.00     0.004 C 
ENDBRANCH  10  11
ENDBRANCH   9  10
ENDBRANCH   8   9
ENDBRANCH   7   8
ENDBRANCH   6   7
ENDBRANCH   5   6
ENDBRANCH   4   5
ENDBRANCH   3   4
ENDBRANCH   2   3
ENDBRANCH   1   2
BRANCH   1  13
ATOM     13  C   UNL     1      -9.324  38.060  -1.266  1.00  0.00     0.000 C 
BRANCH  13  14
ATOM     14  C   UNL     1      -7.842  38.057  -1.676  1.00  0.00     0.000 C 
BRANCH  14  15
ATOM     15  C   UNL     1      -6.997  37.091  -0.828  1.00  0.00     0.000 C 
BRANCH  15  16
ATOM     16  C   UNL     1      -6.355  37.781   0.387  1.00  0.00     0.000 C 
BRANCH  16  17
ATOM     17  C   UNL     1      -6.351  36.892   1.642  1.00  0.00     0.000 C 
BRANCH  17  18
ATOM     18  C   UNL     1      -4.935  36.453   2.054  1.00  0.00     0.000 C 
BRANCH  18  19
ATOM     19  C   UNL     1      -4.339  35.303   1.218  1.00  0.00     0.000 C 
BRANCH  19  20
ATOM     20  C   UNL     1      -5.370  34.331   0.614  1.00  0.00     0.006 C 
BRANCH  20  21
ATOM     21  C   UNL     1      -5.811  33.243   1.600  1.00  0.00     0.053 C 
BRANCH  21  22
ATOM     22  C   UNL     1      -7.182  32.753   1.257  1.00  0.00     0.041 C 
ATOM     23  O   UNL     1      -8.134  33.567   1.133  1.00  0.00    -0.550 OA
ATOM     24  O   UNL     1      -7.398  31.400   1.025  1.00  0.00    -0.550 OA
ENDBRANCH  21  22
ENDBRANCH  20  21
ENDBRANCH  19  20
ENDBRANCH  18  19
ENDBRANCH  17  18
ENDBRANCH  16  17
ENDBRANCH  15  16
ENDBRANCH  14  15
ENDBRANCH  13  14
ENDBRANCH   1  13
TORSDOF 20
ENDMDL
MODEL 8
REMARK VINA RESULT:     1.836      2.749      7.136
REMARK INTER + INTRA:           3.267
REMARK INTER:                   4.553
REMARK INTRA:                  -1.286
REMARK UNBOUND:                -0.715
REMARK SMILES CCCCCCCCCCCCCCCCCCCCCC(=O)[O-]
REMARK SMILES IDX 12 1 11 2 10 3 9 4 8 5 7 6 6 7 5 8 4 9 3 10 2 11 1 12 13 13
REMARK SMILES IDX 14 14 15 15 16 16 17 17 18 18 19 19 20 20 21 21 22 22 23 23
REMARK SMILES IDX 24 24
REMARK H PARENT
REMARK Flexibility Score: inf
ROOT
ATOM      1  C   UNL     1     -14.963  34.275 -10.669  1.00  0.00     0.000 C 
ENDROOT
BRANCH   1   2
ATOM      2  C   UNL     1     -15.149  33.159 -11.709  1.00  0.00     0.000 C 
BRANCH   2   3
ATOM      3  C   UNL     1     -16.088  33.571 -12.857  1.00  0.00     0.000 C 
BRANCH   3   4
ATOM      4  C   UNL     1     -17.544  33.127 -12.630  1.00  0.00    -0.000 C 
BRANCH   4   5
ATOM      5  C   UNL     1     -18.565  34.271 -12.482  1.00  0.00    -0.000 C 
BRANCH   5   6
ATOM      6  C   UNL     1     -18.865  34.619 -11.013  1.00  0.00    -0.000 C 
BRANCH   6   7
ATOM      7  C   UNL     1     -18.598  33.439 -10.064  1.00  0.00    -0.000 C 
BRANCH   7   8
ATOM      8  C   UNL     1     -18.951  33.770  -8.603  1.00  0.00    -0.000 C 
BRANCH   8   9
ATOM      9  C   UNL     1     -20.312  33.195  -8.171  1.00  0.00    -0.000 C 
BRANCH   9  10
ATOM     10  C   UNL     1     -21.348  34.240  -7.718  1.00  0.00    -0.000 C 
BRANCH  10  11
ATOM     11  C   UNL     1     -22.626  33.608  -7.148  1.00  0.00    -0.003 C 
ATOM     12  C   UNL     1     -23.872  34.231  -7.770  1.00  0.00     0.004 C 
ENDBRANCH  10  11
ENDBRANCH   9  10
ENDBRANCH   8   9
ENDBRANCH   7   8
ENDBRANCH   6   7
ENDBRANCH   5   6
ENDBRANCH   4   5
ENDBRANCH   3   4
ENDBRANCH   2   3
ENDBRANCH   1   2
BRANCH   1  13
ATOM     13  C   UNL     1     -15.475  33.878  -9.273  1.00  0.00     0.000 C 
BRANCH  13  14
ATOM     14  C   UNL     1     -14.685  34.559  -8.143  1.00  0.00     0.000 C 
BRANCH  14  15
ATOM     15  C   UNL     1     -13.501  35.390  -8.668  1.00  0.00     0.000 C 
BRANCH  15  16
ATOM     16  C   UNL     1     -13.076  36.493  -7.686  1.00  0.00     0.000 C 
BRANCH  16  17
ATOM     17  C   UNL     1     -13.377  36.134  -6.221  1.00  0.00     0.000 C 
BRANCH  17  18
ATOM     18  C   UNL     1     -12.103  35.876  -5.398  1.00  0.00     0.000 C 
BRANCH  18  19
ATOM     19  C   UNL     1     -12.323  35.760  -3.875  1.00  0.00     0.000 C 
BRANCH  19  20
ATOM     20  C   UNL     1     -11.356  36.590  -3.011  1.00  0.00     0.006 C 
BRANCH  20  21
ATOM     21  C   UNL     1     -11.560  36.365  -1.507  1.00  0.00     0.053 C 
BRANCH  21  22
ATOM     22  C   UNL     1     -10.272  35.966  -0.861  1.00  0.00     0.041 C 
ATOM     23  O   UNL     1     -10.154  34.830  -0.331  1.00  0.00    -0.550 OA
ATOM     24  O   UNL     1      -9.184  36.830  -0.886  1.00  0.00    -0.550 OA
ENDBRANCH  21  22
ENDBRANCH  20  21
ENDBRANCH  19  20
ENDBRANCH  18  19
ENDBRANCH  17  18
ENDBRANCH  16  17
ENDBRANCH  15  16
ENDBRANCH  14  15
ENDBRANCH  13  14
ENDBRANCH   1  13
TORSDOF 20
ENDMDL
