MODEL 1
REMARK VINA RESULT:    -2.874      0.000      0.000
REMARK INTER + INTRA:          -5.690
REMARK INTER:                  -4.891
REMARK INTRA:                  -0.799
REMARK UNBOUND:                -0.799
REMARK SMILES CCCCCCCCCCCCCC(=O)[O-]
REMARK SMILES IDX 8 1 9 2 10 3 11 4 12 5 13 6 14 7 15 8 16 9 7 10 6 11 5 12
REMARK SMILES IDX 4 13 3 14 2 15 1 16
REMARK H PARENT
REMARK Flexibility Score: inf
ROOT
ATOM      1  C   UNL     1      -9.105  16.835 -12.393  1.00  0.00     0.000 C 
ENDROOT
BRANCH   1   2
ATOM      2  C   UNL     1      -8.392  15.521 -12.744  1.00  0.00     0.000 C 
BRANCH   2   3
ATOM      3  C   UNL     1      -8.091  15.389 -14.245  1.00  0.00     0.000 C 
BRANCH   3   4
ATOM      4  C   UNL     1      -8.600  14.063 -14.836  1.00  0.00     0.000 C 
BRANCH   4   5
ATOM      5  C   UNL     1      -7.734  12.862 -14.419  1.00  0.00     0.006 C 
BRANCH   5   6
ATOM      6  C   UNL     1      -6.331  12.900 -15.038  1.00  0.00     0.053 C 
BRANCH   6   7
ATOM      7  C   UNL     1      -5.310  12.447 -14.041  1.00  0.00     0.041 C 
ATOM      8  O   UNL     1      -4.875  11.266 -14.073  1.00  0.00    -0.550 OA
ATOM      9  O   UNL     1      -4.876  13.313 -13.047  1.00  0.00    -0.550 OA
ENDBRANCH   6   7
ENDBRANCH   5   6
ENDBRANCH   4   5
ENDBRANCH   3   4
ENDBRANCH   2   3
ENDBRANCH   1   2
BRANCH   1  10
ATOM     10  C   UNL     1      -8.207  18.044 -12.697  1.00  0.00     0.000 C 
BRANCH  10  11
ATOM     11  C   UNL     1      -8.486  18.661 -14.077  1.00  0.00    -0.000 C 
BRANCH  11  12
ATOM     12  C   UNL     1      -7.215  18.783 -14.938  1.00  0.00    -0.000 C 
BRANCH  12  13
ATOM     13  C   UNL     1      -5.926  18.659 -14.108  1.00  0.00    -0.000 C 
BRANCH  13  14
ATOM     14  C   UNL     1      -4.876  19.719 -14.486  1.00  0.00    -0.000 C 
BRANCH  14  15
ATOM     15  C   UNL     1      -5.247  21.120 -13.975  1.00  0.00    -0.003 C 
ATOM     16  C   UNL     1      -6.003  21.088 -12.647  1.00  0.00     0.004 C 
ENDBRANCH  14  15
ENDBRANCH  13  14
ENDBRANCH  12  13
ENDBRANCH  11  12
ENDBRANCH  10  11
ENDBRANCH   1  10
TORSDOF 12
ENDMDL
MODEL 2
REMARK VINA RESULT:    -2.857      2.931      6.229
REMARK INTER + INTRA:          -5.660
REMARK INTER:                  -5.270
REMARK INTRA:                  -0.390
REMARK UNBOUND:                -0.799
REMARK SMILES CCCCCCCCCCCCCC(=O)[O-]
REMARK SMILES IDX 8 1 9 2 10 3 11 4 12 5 13 6 14 7 15 8 16 9 7 10 6 11 5 12
REMARK SMILES IDX 4 13 3 14 2 15 1 16
REMARK H PARENT
REMARK Flexibility Score: inf
ROOT
ATOM      1  C   UNL     1      -8.764  16.007 -12.204  1.00  0.00     0.000 C 
ENDROOT
BRANCH   1   2
ATOM      2  C   UNL     1      -8.989  17.181 -13.170  1.00  0.00     0.000 C 
BRANCH   2   3
ATOM      3  C   UNL     1      -7.941  17.236 -14.293  1.00  0.00     0.000 C 
BRANCH   3   4
ATOM      4  C   UNL     1      -7.618  18.675 -14.729  1.00  0.00     0.000 C 
BRANCH   4   5
ATOM      5  C   UNL     1      -7.839  19.696 -13.601  1.00  0.00     0.006 C 
BRANCH   5   6
ATOM      6  C   UNL     1      -6.942  20.934 -13.738  1.00  0.00     0.053 C 
BRANCH   6   7
ATOM      7  C   UNL     1      -5.510  20.527 -13.884  1.00  0.00     0.041 C 
ATOM      8  O   UNL     1      -4.883  20.786 -14.944  1.00  0.00    -0.550 OA
ATOM      9  O   UNL     1      -4.882  19.817 -12.869  1.00  0.00    -0.550 OA
ENDBRANCH   6   7
ENDBRANCH   5   6
ENDBRANCH   4   5
ENDBRANCH   3   4
ENDBRANCH   2   3
ENDBRANCH   1   2
BRANCH   1  10
ATOM     10  C   UNL     1      -7.306  15.526 -12.255  1.00  0.00     0.000 C 
BRANCH  10  11
ATOM     11  C   UNL     1      -7.186  14.012 -12.488  1.00  0.00    -0.000 C 
BRANCH  11  12
ATOM     12  C   UNL     1      -7.550  13.603 -13.927  1.00  0.00    -0.000 C 
BRANCH  12  13
ATOM     13  C   UNL     1      -6.715  14.350 -14.981  1.00  0.00    -0.000 C 
BRANCH  13  14
ATOM     14  C   UNL     1      -5.202  14.143 -14.791  1.00  0.00    -0.000 C 
BRANCH  14  15
ATOM     15  C   UNL     1      -4.875  12.825 -14.073  1.00  0.00    -0.003 C 
ATOM     16  C   UNL     1      -4.896  11.617 -15.009  1.00  0.00     0.004 C 
ENDBRANCH  14  15
ENDBRANCH  13  14
ENDBRANCH  12  13
ENDBRANCH  11  12
ENDBRANCH  10  11
ENDBRANCH   1  10
TORSDOF 12
ENDMDL
MODEL 3
REMARK VINA RESULT:    -2.807      2.606      6.018
REMARK INTER + INTRA:          -5.576
REMARK INTER:                  -4.671
REMARK INTRA:                  -0.905
REMARK UNBOUND:                -0.799
REMARK SMILES CCCCCCCCCCCCCC(=O)[O-]
REMARK SMILES IDX 8 1 9 2 10 3 11 4 12 5 13 6 14 7 15 8 16 9 7 10 6 11 5 12
REMARK SMILES IDX 4 13 3 14 2 15 1 16
REMARK H PARENT
REMARK Flexibility Score: inf
ROOT
ATOM      1  C   UNL     1      -8.613  15.863 -12.467  1.00  0.00     0.000 C 
ENDROOT
BRANCH   1   2
ATOM      2  C   UNL     1      -9.258  17.198 -12.869  1.00  0.00     0.000 C 
BRANCH   2   3
ATOM      3  C   UNL     1      -8.604  18.406 -12.180  1.00  0.00     0.000 C 
BRANCH   3   4
ATOM      4  C   UNL     1      -8.228  19.520 -13.172  1.00  0.00     0.000 C 
BRANCH   4   5
ATOM      5  C   UNL     1      -7.716  18.967 -14.512  1.00  0.00     0.006 C 
BRANCH   5   6
ATOM      6  C   UNL     1      -6.583  19.813 -15.109  1.00  0.00     0.053 C 
BRANCH   6   7
ATOM      7  C   UNL     1      -5.434  19.894 -14.154  1.00  0.00     0.041 C 
ATOM      8  O   UNL     1      -4.875  20.999 -13.929  1.00  0.00    -0.550 OA
ATOM      9  O   UNL     1      -4.948  18.742 -13.550  1.00  0.00    -0.550 OA
ENDBRANCH   6   7
ENDBRANCH   5   6
ENDBRANCH   4   5
ENDBRANCH   3   4
ENDBRANCH   2   3
ENDBRANCH   1   2
BRANCH   1  10
ATOM     10  C   UNL     1      -7.101  15.880 -12.742  1.00  0.00     0.000 C 
BRANCH  10  11
ATOM     11  C   UNL     1      -6.768  15.791 -14.240  1.00  0.00    -0.000 C 
BRANCH  11  12
ATOM     12  C   UNL     1      -5.359  15.229 -14.501  1.00  0.00    -0.000 C 
BRANCH  12  13
ATOM     13  C   UNL     1      -5.391  13.823 -15.125  1.00  0.00    -0.000 C 
BRANCH  13  14
ATOM     14  C   UNL     1      -5.492  12.710 -14.067  1.00  0.00    -0.000 C 
BRANCH  14  15
ATOM     15  C   UNL     1      -6.930  12.509 -13.561  1.00  0.00    -0.003 C 
ATOM     16  C   UNL     1      -7.977  12.697 -14.659  1.00  0.00     0.004 C 
ENDBRANCH  14  15
ENDBRANCH  13  14
ENDBRANCH  12  13
ENDBRANCH  11  12
ENDBRANCH  10  11
ENDBRANCH   1  10
TORSDOF 12
ENDMDL
MODEL 4
REMARK VINA RESULT:    -2.745      3.326      5.855
REMARK INTER + INTRA:          -5.469
REMARK INTER:                  -4.316
REMARK INTRA:                  -1.154
REMARK UNBOUND:                -0.799
REMARK SMILES CCCCCCCCCCCCCC(=O)[O-]
REMARK SMILES IDX 8 1 9 2 10 3 11 4 12 5 13 6 14 7 15 8 16 9 7 10 6 11 5 12
REMARK SMILES IDX 4 13 3 14 2 15 1 16
REMARK H PARENT
REMARK Flexibility Score: inf
ROOT
ATOM      1  C   UNL     1      -6.590  13.492 -15.083  1.00  0.00     0.000 C 
ENDROOT
BRANCH   1   2
ATOM      2  C   UNL     1      -6.490  15.024 -15.059  1.00  0.00     0.000 C 
BRANCH   2   3
ATOM      3  C   UNL     1      -5.064  15.523 -14.774  1.00  0.00     0.000 C 
BRANCH   3   4
ATOM      4  C   UNL     1      -4.877  17.009 -15.124  1.00  0.00     0.000 C 
BRANCH   4   5
ATOM      5  C   UNL     1      -5.607  17.942 -14.144  1.00  0.00     0.006 C 
BRANCH   5   6
ATOM      6  C   UNL     1      -4.896  19.291 -13.968  1.00  0.00     0.053 C 
BRANCH   6   7
ATOM      7  C   UNL     1      -5.887  20.365 -13.648  1.00  0.00     0.041 C 
ATOM      8  O   UNL     1      -6.743  20.711 -14.504  1.00  0.00    -0.550 OA
ATOM      9  O   UNL     1      -5.836  21.017 -12.424  1.00  0.00    -0.550 OA
ENDBRANCH   6   7
ENDBRANCH   5   6
ENDBRANCH   4   5
ENDBRANCH   3   4
ENDBRANCH   2   3
ENDBRANCH   1   2
BRANCH   1  10
ATOM     10  C   UNL     1      -7.441  12.980 -13.910  1.00  0.00     0.000 C 
BRANCH  10  11
ATOM     11  C   UNL     1      -6.801  13.264 -12.541  1.00  0.00    -0.000 C 
BRANCH  11  12
ATOM     12  C   UNL     1      -7.768  13.963 -11.569  1.00  0.00    -0.000 C 
BRANCH  12  13
ATOM     13  C   UNL     1      -7.648  15.496 -11.617  1.00  0.00    -0.000 C 
BRANCH  13  14
ATOM     14  C   UNL     1      -8.943  16.175 -12.096  1.00  0.00    -0.000 C 
BRANCH  14  15
ATOM     15  C   UNL     1      -8.679  17.277 -13.134  1.00  0.00    -0.003 C 
ATOM     16  C   UNL     1      -8.697  18.681 -12.528  1.00  0.00     0.004 C 
ENDBRANCH  14  15
ENDBRANCH  13  14
ENDBRANCH  12  13
ENDBRANCH  11  12
ENDBRANCH  10  11
ENDBRANCH   1  10
TORSDOF 12
ENDMDL
MODEL 5
REMARK VINA RESULT:    -2.718      1.272      1.895
REMARK INTER + INTRA:          -5.424
REMARK INTER:                  -4.863
REMARK INTRA:                  -0.561
REMARK UNBOUND:                -0.799
REMARK SMILES CCCCCCCCCCCCCC(=O)[O-]
REMARK SMILES IDX 8 1 9 2 10 3 11 4 12 5 13 6 14 7 15 8 16 9 7 10 6 11 5 12
REMARK SMILES IDX 4 13 3 14 2 15 1 16
REMARK H PARENT
REMARK Flexibility Score: inf
ROOT
ATOM      1  C   UNL     1      -7.557  15.711 -12.562  1.00  0.00     0.000 C 
ENDROOT
BRANCH   1   2
ATOM      2  C   UNL     1      -8.182  14.795 -13.625  1.00  0.00     0.000 C 
BRANCH   2   3
ATOM      3  C   UNL     1      -7.765  15.173 -15.055  1.00  0.00     0.000 C 
BRANCH   3   4
ATOM      4  C   UNL     1      -6.427  15.931 -15.100  1.00  0.00     0.000 C 
BRANCH   4   5
ATOM      5  C   UNL     1      -5.296  15.173 -14.385  1.00  0.00     0.006 C 
BRANCH   5   6
ATOM      6  C   UNL     1      -4.880  13.895 -15.125  1.00  0.00     0.053 C 
BRANCH   6   7
ATOM      7  C   UNL     1      -4.993  12.708 -14.220  1.00  0.00     0.041 C 
ATOM      8  O   UNL     1      -5.014  11.545 -14.701  1.00  0.00    -0.550 OA
ATOM      9  O   UNL     1      -5.125  12.888 -12.850  1.00  0.00    -0.550 OA
ENDBRANCH   6   7
ENDBRANCH   5   6
ENDBRANCH   4   5
ENDBRANCH   3   4
ENDBRANCH   2   3
ENDBRANCH   1   2
BRANCH   1  10
ATOM     10  C   UNL     1      -8.544  16.808 -12.135  1.00  0.00     0.000 C 
BRANCH  10  11
ATOM     11  C   UNL     1      -8.814  17.833 -13.249  1.00  0.00    -0.000 C 
BRANCH  11  12
ATOM     12  C   UNL     1      -8.192  19.209 -12.950  1.00  0.00    -0.000 C 
BRANCH  12  13
ATOM     13  C   UNL     1      -7.869  20.001 -14.228  1.00  0.00    -0.000 C 
BRANCH  13  14
ATOM     14  C   UNL     1      -6.570  20.817 -14.104  1.00  0.00    -0.000 C 
BRANCH  14  15
ATOM     15  C   UNL     1      -5.489  20.082 -13.296  1.00  0.00    -0.003 C 
ATOM     16  C   UNL     1      -4.879  18.902 -14.054  1.00  0.00     0.004 C 
ENDBRANCH  14  15
ENDBRANCH  13  14
ENDBRANCH  12  13
ENDBRANCH  11  12
ENDBRANCH  10  11
ENDBRANCH   1  10
TORSDOF 12
ENDMDL
MODEL 6
REMARK VINA RESULT:    -2.623      1.809      2.368
REMARK INTER + INTRA:          -5.263
REMARK INTER:                  -4.598
REMARK INTRA:                  -0.665
REMARK UNBOUND:                -0.799
REMARK SMILES CCCCCCCCCCCCCC(=O)[O-]
REMARK SMILES IDX 8 1 9 2 10 3 11 4 12 5 13 6 14 7 15 8 16 9 7 10 6 11 5 12
REMARK SMILES IDX 4 13 3 14 2 15 1 16
REMARK H PARENT
REMARK Flexibility Score: inf
ROOT
ATOM      1  C   UNL     1      -7.799  17.037 -13.228  1.00  0.00     0.000 C 
ENDROOT
BRANCH   1   2
ATOM      2  C   UNL     1      -6.382  17.012 -13.820  1.00  0.00     0.000 C 
BRANCH   2   3
ATOM      3  C   UNL     1      -6.295  16.203 -15.124  1.00  0.00     0.000 C 
BRANCH   3   4
ATOM      4  C   UNL     1      -5.252  15.075 -15.051  1.00  0.00     0.000 C 
BRANCH   4   5
ATOM      5  C   UNL     1      -5.896  13.678 -15.021  1.00  0.00     0.006 C 
BRANCH   5   6
ATOM      6  C   UNL     1      -5.909  13.061 -13.616  1.00  0.00     0.053 C 
BRANCH   6   7
ATOM      7  C   UNL     1      -7.081  13.568 -12.836  1.00  0.00     0.041 C 
ATOM      8  O   UNL     1      -8.195  13.729 -13.400  1.00  0.00    -0.550 OA
ATOM      9  O   UNL     1      -6.932  13.910 -11.498  1.00  0.00    -0.550 OA
ENDBRANCH   6   7
ENDBRANCH   5   6
ENDBRANCH   4   5
ENDBRANCH   3   4
ENDBRANCH   2   3
ENDBRANCH   1   2
BRANCH   1  10
ATOM     10  C   UNL     1      -8.245  18.477 -12.932  1.00  0.00     0.000 C 
BRANCH  10  11
ATOM     11  C   UNL     1      -8.425  19.318 -14.206  1.00  0.00    -0.000 C 
BRANCH  11  12
ATOM     12  C   UNL     1      -7.584  20.607 -14.188  1.00  0.00    -0.000 C 
BRANCH  12  13
ATOM     13  C   UNL     1      -6.972  20.894 -12.806  1.00  0.00    -0.000 C 
BRANCH  13  14
ATOM     14  C   UNL     1      -5.434  20.916 -12.834  1.00  0.00    -0.000 C 
BRANCH  14  15
ATOM     15  C   UNL     1      -4.875  21.122 -14.251  1.00  0.00    -0.003 C 
ATOM     16  C   UNL     1      -4.912  19.848 -15.096  1.00  0.00     0.004 C 
ENDBRANCH  14  15
ENDBRANCH  13  14
ENDBRANCH  12  13
ENDBRANCH  11  12
ENDBRANCH  10  11
ENDBRANCH   1  10
TORSDOF 12
ENDMDL
MODEL 7
REMARK VINA RESULT:    -2.549      3.027      6.671
REMARK INTER + INTRA:          -5.137
REMARK INTER:                  -4.456
REMARK INTRA:                  -0.681
REMARK UNBOUND:                -0.799
REMARK SMILES CCCCCCCCCCCCCC(=O)[O-]
REMARK SMILES IDX 8 1 9 2 10 3 11 4 12 5 13 6 14 7 15 8 16 9 7 10 6 11 5 12
REMARK SMILES IDX 4 13 3 14 2 15 1 16
REMARK H PARENT
REMARK Flexibility Score: inf
ROOT
ATOM      1  C   UNL     1      -6.605  16.348 -13.629  1.00  0.00     0.000 C 
ENDROOT
BRANCH   1   2
ATOM      2  C   UNL     1      -5.958  17.126 -14.784  1.00  0.00     0.000 C 
BRANCH   2   3
ATOM      3  C   UNL     1      -4.875  18.108 -14.308  1.00  0.00     0.000 C 
BRANCH   3   4
ATOM      4  C   UNL     1      -5.250  19.576 -14.572  1.00  0.00     0.000 C 
BRANCH   4   5
ATOM      5  C   UNL     1      -5.280  20.417 -13.285  1.00  0.00     0.006 C 
BRANCH   5   6
ATOM      6  C   UNL     1      -6.631  21.108 -13.060  1.00  0.00     0.053 C 
BRANCH   6   7
ATOM      7  C   UNL     1      -7.742  20.276 -13.619  1.00  0.00     0.041 C 
ATOM      8  O   UNL     1      -8.200  20.521 -14.766  1.00  0.00    -0.550 OA
ATOM      9  O   UNL     1      -8.304  19.261 -12.857  1.00  0.00    -0.550 OA
ENDBRANCH   6   7
ENDBRANCH   5   6
ENDBRANCH   4   5
ENDBRANCH   3   4
ENDBRANCH   2   3
ENDBRANCH   1   2
BRANCH   1  10
ATOM     10  C   UNL     1      -8.118  16.194 -13.851  1.00  0.00     0.000 C 
BRANCH  10  11
ATOM     11  C   UNL     1      -8.611  14.757 -13.620  1.00  0.00    -0.000 C 
BRANCH  11  12
ATOM     12  C   UNL     1      -8.601  13.913 -14.907  1.00  0.00    -0.000 C 
BRANCH  12  13
ATOM     13  C   UNL     1      -7.495  12.844 -14.904  1.00  0.00    -0.000 C 
BRANCH  13  14
ATOM     14  C   UNL     1      -6.095  13.443 -15.125  1.00  0.00    -0.000 C 
BRANCH  14  15
ATOM     15  C   UNL     1      -5.098  13.023 -14.033  1.00  0.00    -0.003 C 
ATOM     16  C   UNL     1      -4.881  11.511 -13.977  1.00  0.00     0.004 C 
ENDBRANCH  14  15
ENDBRANCH  13  14
ENDBRANCH  12  13
ENDBRANCH  11  12
ENDBRANCH  10  11
ENDBRANCH   1  10
TORSDOF 12
ENDMDL
MODEL 8
REMARK VINA RESULT:    -2.419      2.568      3.967
REMARK INTER + INTRA:          -4.916
REMARK INTER:                  -3.733
REMARK INTRA:                  -1.183
REMARK UNBOUND:                -0.799
REMARK SMILES CCCCCCCCCCCCCC(=O)[O-]
REMARK SMILES IDX 8 1 9 2 10 3 11 4 12 5 13 6 14 7 15 8 16 9 7 10 6 11 5 12
REMARK SMILES IDX 4 13 3 14 2 15 1 16
REMARK H PARENT
REMARK Flexibility Score: inf
ROOT
ATOM      1  C   UNL     1      -5.222  14.772 -14.679  1.00  0.00     0.000 C 
ENDROOT
BRANCH   1   2
ATOM      2  C   UNL     1      -6.398  13.862 -15.064  1.00  0.00     0.000 C 
BRANCH   2   3
ATOM      3  C   UNL     1      -7.004  13.131 -13.855  1.00  0.00     0.000 C 
BRANCH   3   4
ATOM      4  C   UNL     1      -6.713  13.847 -12.525  1.00  0.00     0.000 C 
BRANCH   4   5
ATOM      5  C   UNL     1      -7.904  14.686 -12.034  1.00  0.00     0.006 C 
BRANCH   5   6
ATOM      6  C   UNL     1      -7.738  16.182 -12.332  1.00  0.00     0.053 C 
BRANCH   6   7
ATOM      7  C   UNL     1      -8.782  16.639 -13.302  1.00  0.00     0.041 C 
ATOM      8  O   UNL     1      -8.518  16.707 -14.531  1.00  0.00    -0.550 OA
ATOM      9  O   UNL     1     -10.031  17.037 -12.844  1.00  0.00    -0.550 OA
ENDBRANCH   6   7
ENDBRANCH   5   6
ENDBRANCH   4   5
ENDBRANCH   3   4
ENDBRANCH   2   3
ENDBRANCH   1   2
BRANCH   1  10
ATOM     10  C   UNL     1      -5.480  16.219 -15.125  1.00  0.00     0.000 C 
BRANCH  10  11
ATOM     11  C   UNL     1      -4.882  17.255 -14.159  1.00  0.00    -0.000 C 
BRANCH  11  12
ATOM     12  C   UNL     1      -5.381  18.684 -14.440  1.00  0.00    -0.000 C 
BRANCH  12  13
ATOM     13  C   UNL     1      -5.084  19.652 -13.282  1.00  0.00    -0.000 C 
BRANCH  13  14
ATOM     14  C   UNL     1      -6.125  20.780 -13.173  1.00  0.00    -0.000 C 
BRANCH  14  15
ATOM     15  C   UNL     1      -7.508  20.354 -13.691  1.00  0.00    -0.003 C 
ATOM     16  C   UNL     1      -7.925  21.104 -14.957  1.00  0.00     0.004 C 
ENDBRANCH  14  15
ENDBRANCH  13  14
ENDBRANCH  12  13
ENDBRANCH  11  12
ENDBRANCH  10  11
ENDBRANCH   1  10
TORSDOF 12
ENDMDL
