MODEL 1
REMARK VINA RESULT:    -3.813      0.000      0.000
REMARK INTER + INTRA:         -15.176
REMARK INTER:                  -9.610
REMARK INTRA:                  -5.566
REMARK UNBOUND:                -5.566
REMARK SMILES CCCCCCCCCCCCCCCCCCCCCCCCCCCC(=O)[O-]
REMARK SMILES IDX 15 1 16 2 17 3 18 4 19 5 20 6 21 7 22 8 23 9 24 10 25 11
REMARK SMILES IDX 26 12 27 13 28 14 29 15 30 16 14 17 13 18 12 19 11 20 10 21
REMARK SMILES IDX 9 22 8 23 7 24 6 25 5 26 4 27 3 28 2 29 1 30
REMARK H PARENT
REMARK Flexibility Score: inf
ROOT
ATOM      1  C   UNL     1      33.669 -44.726  -5.385  1.00  0.00     0.000 C 
ENDROOT
BRANCH   1   2
ATOM      2  C   UNL     1      32.156 -44.555  -5.156  1.00  0.00     0.000 C 
BRANCH   2   3
ATOM      3  C   UNL     1      31.485 -45.688  -4.355  1.00  0.00     0.000 C 
BRANCH   3   4
ATOM      4  C   UNL     1      30.969 -45.287  -2.959  1.00  0.00     0.000 C 
BRANCH   4   5
ATOM      5  C   UNL     1      31.605 -44.013  -2.375  1.00  0.00     0.000 C 
BRANCH   5   6
ATOM      6  C   UNL     1      32.023 -44.178  -0.904  1.00  0.00     0.000 C 
BRANCH   6   7
ATOM      7  C   UNL     1      33.309 -43.404  -0.563  1.00  0.00     0.000 C 
BRANCH   7   8
ATOM      8  C   UNL     1      34.206 -44.078   0.495  1.00  0.00     0.000 C 
BRANCH   8   9
ATOM      9  C   UNL     1      33.455 -44.860   1.592  1.00  0.00     0.000 C 
BRANCH   9  10
ATOM     10  C   UNL     1      34.314 -45.284   2.797  1.00  0.00     0.000 C 
BRANCH  10  11
ATOM     11  C   UNL     1      34.947 -46.675   2.618  1.00  0.00     0.000 C 
BRANCH  11  12
ATOM     12  C   UNL     1      34.052 -47.639   1.818  1.00  0.00     0.006 C 
BRANCH  12  13
ATOM     13  C   UNL     1      34.748 -48.938   1.382  1.00  0.00     0.053 C 
BRANCH  13  14
ATOM     14  C   UNL     1      33.968 -50.154   1.779  1.00  0.00     0.041 C 
ATOM     15  O   UNL     1      34.444 -50.969   2.613  1.00  0.00    -0.550 OA
ATOM     16  O   UNL     1      32.723 -50.401   1.211  1.00  0.00    -0.550 OA
ENDBRANCH  13  14
ENDBRANCH  12  13
ENDBRANCH  11  12
ENDBRANCH  10  11
ENDBRANCH   9  10
ENDBRANCH   8   9
ENDBRANCH   7   8
ENDBRANCH   6   7
ENDBRANCH   5   6
ENDBRANCH   4   5
ENDBRANCH   3   4
ENDBRANCH   2   3
ENDBRANCH   1   2
BRANCH   1  17
ATOM     17  C   UNL     1      34.128 -46.187  -5.284  1.00  0.00     0.000 C 
BRANCH  17  18
ATOM     18  C   UNL     1      35.321 -46.324  -4.331  1.00  0.00     0.000 C 
BRANCH  18  19
ATOM     19  C   UNL     1      34.985 -45.754  -2.944  1.00  0.00     0.000 C 
BRANCH  19  20
ATOM     20  C   UNL     1      34.923 -46.837  -1.855  1.00  0.00     0.000 C 
BRANCH  20  21
ATOM     21  C   UNL     1      33.504 -47.395  -1.652  1.00  0.00     0.000 C 
BRANCH  21  22
ATOM     22  C   UNL     1      33.396 -48.876  -2.053  1.00  0.00    -0.000 C 
BRANCH  22  23
ATOM     23  C   UNL     1      32.566 -49.081  -3.333  1.00  0.00    -0.000 C 
BRANCH  23  24
ATOM     24  C   UNL     1      33.140 -50.177  -4.250  1.00  0.00    -0.000 C 
BRANCH  24  25
ATOM     25  C   UNL     1      34.623 -50.001  -4.623  1.00  0.00    -0.000 C 
BRANCH  25  26
ATOM     26  C   UNL     1      35.491 -51.192  -4.182  1.00  0.00    -0.000 C 
BRANCH  26  27
ATOM     27  C   UNL     1      36.947 -50.790  -3.885  1.00  0.00    -0.000 C 
BRANCH  27  28
ATOM     28  C   UNL     1      37.135 -49.927  -2.625  1.00  0.00    -0.000 C 
BRANCH  28  29
ATOM     29  C   UNL     1      37.910 -48.629  -2.898  1.00  0.00    -0.003 C 
ATOM     30  C   UNL     1      38.306 -48.524  -4.367  1.00  0.00     0.004 C 
ENDBRANCH  28  29
ENDBRANCH  27  28
ENDBRANCH  26  27
ENDBRANCH  25  26
ENDBRANCH  24  25
ENDBRANCH  23  24
ENDBRANCH  22  23
ENDBRANCH  21  22
ENDBRANCH  20  21
ENDBRANCH  19  20
ENDBRANCH  18  19
ENDBRANCH  17  18
ENDBRANCH   1  17
TORSDOF 26
ENDMDL
MODEL 2
REMARK VINA RESULT:    -3.656      1.998      5.953
REMARK INTER + INTRA:         -14.778
REMARK INTER:                  -9.140
REMARK INTRA:                  -5.638
REMARK UNBOUND:                -5.566
REMARK SMILES CCCCCCCCCCCCCCCCCCCCCCCCCCCC(=O)[O-]
REMARK SMILES IDX 15 1 16 2 17 3 18 4 19 5 20 6 21 7 22 8 23 9 24 10 25 11
REMARK SMILES IDX 26 12 27 13 28 14 29 15 30 16 14 17 13 18 12 19 11 20 10 21
REMARK SMILES IDX 9 22 8 23 7 24 6 25 5 26 4 27 3 28 2 29 1 30
REMARK H PARENT
REMARK Flexibility Score: inf
ROOT
ATOM      1  C   UNL     1      37.547 -45.106   0.443  1.00  0.00     0.000 C 
ENDROOT
BRANCH   1   2
ATOM      2  C   UNL     1      38.007 -46.568   0.300  1.00  0.00     0.000 C 
BRANCH   2   3
ATOM      3  C   UNL     1      37.602 -47.253  -1.020  1.00  0.00     0.000 C 
BRANCH   3   4
ATOM      4  C   UNL     1      37.241 -48.747  -0.899  1.00  0.00     0.000 C 
BRANCH   4   5
ATOM      5  C   UNL     1      36.329 -49.285  -2.016  1.00  0.00     0.000 C 
BRANCH   5   6
ATOM      6  C   UNL     1      35.281 -48.257  -2.475  1.00  0.00     0.000 C 
BRANCH   6   7
ATOM      7  C   UNL     1      33.923 -48.443  -1.776  1.00  0.00     0.000 C 
BRANCH   7   8
ATOM      8  C   UNL     1      33.673 -47.491  -0.589  1.00  0.00     0.000 C 
BRANCH   8   9
ATOM      9  C   UNL     1      33.151 -48.165   0.697  1.00  0.00     0.000 C 
BRANCH   9  10
ATOM     10  C   UNL     1      33.442 -49.673   0.809  1.00  0.00     0.000 C 
BRANCH  10  11
ATOM     11  C   UNL     1      34.089 -50.057   2.151  1.00  0.00     0.000 C 
BRANCH  11  12
ATOM     12  C   UNL     1      35.615 -49.853   2.158  1.00  0.00     0.006 C 
BRANCH  12  13
ATOM     13  C   UNL     1      36.370 -50.734   3.166  1.00  0.00     0.053 C 
BRANCH  13  14
ATOM     14  C   UNL     1      36.426 -50.110   4.526  1.00  0.00     0.041 C 
ATOM     15  O   UNL     1      36.615 -50.825   5.545  1.00  0.00    -0.550 OA
ATOM     16  O   UNL     1      36.249 -48.738   4.673  1.00  0.00    -0.550 OA
ENDBRANCH  13  14
ENDBRANCH  12  13
ENDBRANCH  11  12
ENDBRANCH  10  11
ENDBRANCH   9  10
ENDBRANCH   8   9
ENDBRANCH   7   8
ENDBRANCH   6   7
ENDBRANCH   5   6
ENDBRANCH   4   5
ENDBRANCH   3   4
ENDBRANCH   2   3
ENDBRANCH   1   2
BRANCH   1  17
ATOM     17  C   UNL     1      36.763 -44.849   1.738  1.00  0.00     0.000 C 
BRANCH  17  18
ATOM     18  C   UNL     1      36.143 -46.146   2.271  1.00  0.00     0.000 C 
BRANCH  18  19
ATOM     19  C   UNL     1      34.771 -45.878   2.910  1.00  0.00     0.000 C 
BRANCH  19  20
ATOM     20  C   UNL     1      34.164 -44.536   2.470  1.00  0.00     0.000 C 
BRANCH  20  21
ATOM     21  C   UNL     1      32.764 -44.691   1.851  1.00  0.00     0.000 C 
BRANCH  21  22
ATOM     22  C   UNL     1      32.657 -44.019   0.471  1.00  0.00    -0.000 C 
BRANCH  22  23
ATOM     23  C   UNL     1      33.981 -43.370   0.029  1.00  0.00    -0.000 C 
BRANCH  23  24
ATOM     24  C   UNL     1      34.139 -43.314  -1.501  1.00  0.00    -0.000 C 
BRANCH  24  25
ATOM     25  C   UNL     1      34.906 -44.498  -2.118  1.00  0.00    -0.000 C 
BRANCH  25  26
ATOM     26  C   UNL     1      34.866 -44.494  -3.656  1.00  0.00    -0.000 C 
BRANCH  26  27
ATOM     27  C   UNL     1      33.881 -45.528  -4.230  1.00  0.00    -0.000 C 
BRANCH  27  28
ATOM     28  C   UNL     1      32.614 -44.930  -4.867  1.00  0.00    -0.000 C 
BRANCH  28  29
ATOM     29  C   UNL     1      31.544 -44.550  -3.832  1.00  0.00    -0.003 C 
ATOM     30  C   UNL     1      31.363 -45.655  -2.797  1.00  0.00     0.004 C 
ENDBRANCH  28  29
ENDBRANCH  27  28
ENDBRANCH  26  27
ENDBRANCH  25  26
ENDBRANCH  24  25
ENDBRANCH  23  24
ENDBRANCH  22  23
ENDBRANCH  21  22
ENDBRANCH  20  21
ENDBRANCH  19  20
ENDBRANCH  18  19
ENDBRANCH  17  18
ENDBRANCH   1  17
TORSDOF 26
ENDMDL
MODEL 3
REMARK VINA RESULT:    -3.636      3.131      6.964
REMARK INTER + INTRA:         -14.729
REMARK INTER:                  -8.991
REMARK INTRA:                  -5.738
REMARK UNBOUND:                -5.566
REMARK SMILES CCCCCCCCCCCCCCCCCCCCCCCCCCCC(=O)[O-]
REMARK SMILES IDX 15 1 16 2 17 3 18 4 19 5 20 6 21 7 22 8 23 9 24 10 25 11
REMARK SMILES IDX 26 12 27 13 28 14 29 15 30 16 14 17 13 18 12 19 11 20 10 21
REMARK SMILES IDX 9 22 8 23 7 24 6 25 5 26 4 27 3 28 2 29 1 30
REMARK H PARENT
REMARK Flexibility Score: inf
ROOT
ATOM      1  C   UNL     1      35.798 -44.903  -4.111  1.00  0.00     0.000 C 
ENDROOT
BRANCH   1   2
ATOM      2  C   UNL     1      35.679 -45.510  -5.520  1.00  0.00     0.000 C 
BRANCH   2   3
ATOM      3  C   UNL     1      34.790 -46.766  -5.616  1.00  0.00     0.000 C 
BRANCH   3   4
ATOM      4  C   UNL     1      35.419 -47.959  -6.363  1.00  0.00     0.000 C 
BRANCH   4   5
ATOM      5  C   UNL     1      36.080 -49.013  -5.458  1.00  0.00     0.000 C 
BRANCH   5   6
ATOM      6  C   UNL     1      35.359 -49.175  -4.110  1.00  0.00     0.000 C 
BRANCH   6   7
ATOM      7  C   UNL     1      34.057 -49.989  -4.227  1.00  0.00     0.000 C 
BRANCH   7   8
ATOM      8  C   UNL     1      32.822 -49.325  -3.588  1.00  0.00     0.000 C 
BRANCH   8   9
ATOM      9  C   UNL     1      33.080 -48.606  -2.248  1.00  0.00     0.000 C 
BRANCH   9  10
ATOM     10  C   UNL     1      33.002 -47.070  -2.304  1.00  0.00     0.000 C 
BRANCH  10  11
ATOM     11  C   UNL     1      31.848 -46.563  -3.186  1.00  0.00     0.000 C 
BRANCH  11  12
ATOM     12  C   UNL     1      31.939 -45.055  -3.482  1.00  0.00     0.006 C 
BRANCH  12  13
ATOM     13  C   UNL     1      31.918 -44.697  -4.976  1.00  0.00     0.053 C 
BRANCH  13  14
ATOM     14  C   UNL     1      32.043 -43.222  -5.203  1.00  0.00     0.041 C 
ATOM     15  O   UNL     1      31.109 -42.585  -5.759  1.00  0.00    -0.550 OA
ATOM     16  O   UNL     1      33.199 -42.552  -4.820  1.00  0.00    -0.550 OA
ENDBRANCH  13  14
ENDBRANCH  12  13
ENDBRANCH  11  12
ENDBRANCH  10  11
ENDBRANCH   9  10
ENDBRANCH   8   9
ENDBRANCH   7   8
ENDBRANCH   6   7
ENDBRANCH   5   6
ENDBRANCH   4   5
ENDBRANCH   3   4
ENDBRANCH   2   3
ENDBRANCH   1   2
BRANCH   1  17
ATOM     17  C   UNL     1      37.249 -44.615  -3.703  1.00  0.00     0.000 C 
BRANCH  17  18
ATOM     18  C   UNL     1      37.729 -45.609  -2.638  1.00  0.00     0.000 C 
BRANCH  18  19
ATOM     19  C   UNL     1      36.541 -46.346  -2.000  1.00  0.00     0.000 C 
BRANCH  19  20
ATOM     20  C   UNL     1      36.469 -46.148  -0.477  1.00  0.00     0.000 C 
BRANCH  20  21
ATOM     21  C   UNL     1      37.533 -45.168   0.047  1.00  0.00     0.000 C 
BRANCH  21  22
ATOM     22  C   UNL     1      36.911 -43.888   0.631  1.00  0.00    -0.000 C 
BRANCH  22  23
ATOM     23  C   UNL     1      36.298 -42.984  -0.453  1.00  0.00    -0.000 C 
BRANCH  23  24
ATOM     24  C   UNL     1      34.848 -42.571  -0.138  1.00  0.00    -0.000 C 
BRANCH  24  25
ATOM     25  C   UNL     1      33.766 -43.418  -0.831  1.00  0.00    -0.000 C 
BRANCH  25  26
ATOM     26  C   UNL     1      32.728 -43.979   0.156  1.00  0.00    -0.000 C 
BRANCH  26  27
ATOM     27  C   UNL     1      33.252 -45.193   0.945  1.00  0.00    -0.000 C 
BRANCH  27  28
ATOM     28  C   UNL     1      33.668 -44.890   2.396  1.00  0.00    -0.000 C 
BRANCH  28  29
ATOM     29  C   UNL     1      34.762 -45.836   2.915  1.00  0.00    -0.003 C 
ATOM     30  C   UNL     1      34.515 -47.268   2.452  1.00  0.00     0.004 C 
ENDBRANCH  28  29
ENDBRANCH  27  28
ENDBRANCH  26  27
ENDBRANCH  25  26
ENDBRANCH  24  25
ENDBRANCH  23  24
ENDBRANCH  22  23
ENDBRANCH  21  22
ENDBRANCH  20  21
ENDBRANCH  19  20
ENDBRANCH  18  19
ENDBRANCH  17  18
ENDBRANCH   1  17
TORSDOF 26
ENDMDL
MODEL 4
REMARK VINA RESULT:    -3.581      2.746      6.353
REMARK INTER + INTRA:         -14.590
REMARK INTER:                  -9.888
REMARK INTRA:                  -4.702
REMARK UNBOUND:                -5.566
REMARK SMILES CCCCCCCCCCCCCCCCCCCCCCCCCCCC(=O)[O-]
REMARK SMILES IDX 15 1 16 2 17 3 18 4 19 5 20 6 21 7 22 8 23 9 24 10 25 11
REMARK SMILES IDX 26 12 27 13 28 14 29 15 30 16 14 17 13 18 12 19 11 20 10 21
REMARK SMILES IDX 9 22 8 23 7 24 6 25 5 26 4 27 3 28 2 29 1 30
REMARK H PARENT
REMARK Flexibility Score: inf
ROOT
ATOM      1  C   UNL     1      29.157 -44.861  -4.435  1.00  0.00     0.000 C 
ENDROOT
BRANCH   1   2
ATOM      2  C   UNL     1      27.996 -44.605  -5.413  1.00  0.00     0.000 C 
BRANCH   2   3
ATOM      3  C   UNL     1      27.395 -43.187  -5.356  1.00  0.00     0.000 C 
BRANCH   3   4
ATOM      4  C   UNL     1      28.112 -42.136  -6.228  1.00  0.00     0.000 C 
BRANCH   4   5
ATOM      5  C   UNL     1      28.705 -40.947  -5.453  1.00  0.00     0.000 C 
BRANCH   5   6
ATOM      6  C   UNL     1      30.189 -41.147  -5.101  1.00  0.00     0.000 C 
BRANCH   6   7
ATOM      7  C   UNL     1      31.000 -41.743  -6.265  1.00  0.00     0.000 C 
BRANCH   7   8
ATOM      8  C   UNL     1      31.770 -43.033  -5.922  1.00  0.00     0.000 C 
BRANCH   8   9
ATOM      9  C   UNL     1      33.079 -42.828  -5.132  1.00  0.00     0.000 C 
BRANCH   9  10
ATOM     10  C   UNL     1      33.926 -44.097  -4.930  1.00  0.00     0.000 C 
BRANCH  10  11
ATOM     11  C   UNL     1      33.111 -45.391  -5.098  1.00  0.00     0.000 C 
BRANCH  11  12
ATOM     12  C   UNL     1      33.450 -46.452  -4.035  1.00  0.00     0.006 C 
BRANCH  12  13
ATOM     13  C   UNL     1      32.241 -47.255  -3.530  1.00  0.00     0.053 C 
BRANCH  13  14
ATOM     14  C   UNL     1      32.619 -48.646  -3.124  1.00  0.00     0.041 C 
ATOM     15  O   UNL     1      33.748 -48.874  -2.614  1.00  0.00    -0.550 OA
ATOM     16  O   UNL     1      31.733 -49.698  -3.329  1.00  0.00    -0.550 OA
ENDBRANCH  13  14
ENDBRANCH  12  13
ENDBRANCH  11  12
ENDBRANCH  10  11
ENDBRANCH   9  10
ENDBRANCH   8   9
ENDBRANCH   7   8
ENDBRANCH   6   7
ENDBRANCH   5   6
ENDBRANCH   4   5
ENDBRANCH   3   4
ENDBRANCH   2   3
ENDBRANCH   1   2
BRANCH   1  17
ATOM     17  C   UNL     1      28.770 -44.614  -2.970  1.00  0.00     0.000 C 
BRANCH  17  18
ATOM     18  C   UNL     1      29.620 -43.493  -2.358  1.00  0.00     0.000 C 
BRANCH  18  19
ATOM     19  C   UNL     1      31.110 -43.869  -2.361  1.00  0.00     0.000 C 
BRANCH  19  20
ATOM     20  C   UNL     1      31.733 -43.837  -0.956  1.00  0.00     0.000 C 
BRANCH  20  21
ATOM     21  C   UNL     1      32.874 -44.856  -0.788  1.00  0.00     0.000 C 
BRANCH  21  22
ATOM     22  C   UNL     1      34.256 -44.234  -1.053  1.00  0.00    -0.000 C 
BRANCH  22  23
ATOM     23  C   UNL     1      34.350 -42.778  -0.564  1.00  0.00    -0.000 C 
BRANCH  23  24
ATOM     24  C   UNL     1      35.238 -42.622   0.684  1.00  0.00    -0.000 C 
BRANCH  24  25
ATOM     25  C   UNL     1      35.015 -43.683   1.777  1.00  0.00    -0.000 C 
BRANCH  25  26
ATOM     26  C   UNL     1      36.213 -44.636   1.934  1.00  0.00    -0.000 C 
BRANCH  26  27
ATOM     27  C   UNL     1      35.826 -45.977   2.583  1.00  0.00    -0.000 C 
BRANCH  27  28
ATOM     28  C   UNL     1      34.396 -46.456   2.275  1.00  0.00    -0.000 C 
BRANCH  28  29
ATOM     29  C   UNL     1      34.351 -47.878   1.698  1.00  0.00    -0.003 C 
ATOM     30  C   UNL     1      33.170 -48.048   0.747  1.00  0.00     0.004 C 
ENDBRANCH  28  29
ENDBRANCH  27  28
ENDBRANCH  26  27
ENDBRANCH  25  26
ENDBRANCH  24  25
ENDBRANCH  23  24
ENDBRANCH  22  23
ENDBRANCH  21  22
ENDBRANCH  20  21
ENDBRANCH  19  20
ENDBRANCH  18  19
ENDBRANCH  17  18
ENDBRANCH   1  17
TORSDOF 26
ENDMDL
MODEL 5
REMARK VINA RESULT:    -3.559      1.829      4.811
REMARK INTER + INTRA:         -14.534
REMARK INTER:                  -9.442
REMARK INTRA:                  -5.092
REMARK UNBOUND:                -5.566
REMARK SMILES CCCCCCCCCCCCCCCCCCCCCCCCCCCC(=O)[O-]
REMARK SMILES IDX 15 1 16 2 17 3 18 4 19 5 20 6 21 7 22 8 23 9 24 10 25 11
REMARK SMILES IDX 26 12 27 13 28 14 29 15 30 16 14 17 13 18 12 19 11 20 10 21
REMARK SMILES IDX 9 22 8 23 7 24 6 25 5 26 4 27 3 28 2 29 1 30
REMARK H PARENT
REMARK Flexibility Score: inf
ROOT
ATOM      1  C   UNL     1      33.996 -43.130  -0.797  1.00  0.00     0.000 C 
ENDROOT
BRANCH   1   2
ATOM      2  C   UNL     1      34.819 -44.316  -1.331  1.00  0.00     0.000 C 
BRANCH   2   3
ATOM      3  C   UNL     1      36.280 -44.369  -0.843  1.00  0.00     0.000 C 
BRANCH   3   4
ATOM      4  C   UNL     1      36.544 -45.338   0.328  1.00  0.00     0.000 C 
BRANCH   4   5
ATOM      5  C   UNL     1      36.470 -44.699   1.725  1.00  0.00     0.000 C 
BRANCH   5   6
ATOM      6  C   UNL     1      35.079 -44.833   2.367  1.00  0.00     0.000 C 
BRANCH   6   7
ATOM      7  C   UNL     1      34.507 -46.258   2.251  1.00  0.00     0.000 C 
BRANCH   7   8
ATOM      8  C   UNL     1      33.230 -46.372   1.396  1.00  0.00     0.000 C 
BRANCH   8   9
ATOM      9  C   UNL     1      33.311 -47.369   0.221  1.00  0.00     0.000 C 
BRANCH   9  10
ATOM     10  C   UNL     1      34.224 -48.586   0.458  1.00  0.00     0.000 C 
BRANCH  10  11
ATOM     11  C   UNL     1      33.437 -49.867   0.784  1.00  0.00     0.000 C 
BRANCH  11  12
ATOM     12  C   UNL     1      33.824 -50.476   2.144  1.00  0.00     0.006 C 
BRANCH  12  13
ATOM     13  C   UNL     1      35.129 -49.926   2.739  1.00  0.00     0.053 C 
BRANCH  13  14
ATOM     14  C   UNL     1      35.817 -50.930   3.612  1.00  0.00     0.041 C 
ATOM     15  O   UNL     1      36.617 -50.550   4.508  1.00  0.00    -0.550 OA
ATOM     16  O   UNL     1      35.592 -52.289   3.423  1.00  0.00    -0.550 OA
ENDBRANCH  13  14
ENDBRANCH  12  13
ENDBRANCH  11  12
ENDBRANCH  10  11
ENDBRANCH   9  10
ENDBRANCH   8   9
ENDBRANCH   7   8
ENDBRANCH   6   7
ENDBRANCH   5   6
ENDBRANCH   4   5
ENDBRANCH   3   4
ENDBRANCH   2   3
ENDBRANCH   1   2
BRANCH   1  17
ATOM     17  C   UNL     1      32.536 -43.499  -0.500  1.00  0.00     0.000 C 
BRANCH  17  18
ATOM     18  C   UNL     1      31.972 -44.423  -1.586  1.00  0.00     0.000 C 
BRANCH  18  19
ATOM     19  C   UNL     1      30.639 -43.885  -2.128  1.00  0.00     0.000 C 
BRANCH  19  20
ATOM     20  C   UNL     1      29.919 -44.891  -3.041  1.00  0.00     0.000 C 
BRANCH  20  21
ATOM     21  C   UNL     1      30.121 -44.586  -4.536  1.00  0.00     0.000 C 
BRANCH  21  22
ATOM     22  C   UNL     1      30.864 -43.259  -4.766  1.00  0.00    -0.000 C 
BRANCH  22  23
ATOM     23  C   UNL     1      32.072 -43.416  -5.707  1.00  0.00    -0.000 C 
BRANCH  23  24
ATOM     24  C   UNL     1      33.415 -43.132  -5.010  1.00  0.00    -0.000 C 
BRANCH  24  25
ATOM     25  C   UNL     1      34.357 -44.344  -4.896  1.00  0.00    -0.000 C 
BRANCH  25  26
ATOM     26  C   UNL     1      33.653 -45.675  -5.212  1.00  0.00    -0.000 C 
BRANCH  26  27
ATOM     27  C   UNL     1      33.330 -46.492  -3.948  1.00  0.00    -0.000 C 
BRANCH  27  28
ATOM     28  C   UNL     1      34.029 -47.860  -3.866  1.00  0.00    -0.000 C 
BRANCH  28  29
ATOM     29  C   UNL     1      35.284 -47.840  -2.980  1.00  0.00    -0.003 C 
ATOM     30  C   UNL     1      35.876 -49.238  -2.835  1.00  0.00     0.004 C 
ENDBRANCH  28  29
ENDBRANCH  27  28
ENDBRANCH  26  27
ENDBRANCH  25  26
ENDBRANCH  24  25
ENDBRANCH  23  24
ENDBRANCH  22  23
ENDBRANCH  21  22
ENDBRANCH  20  21
ENDBRANCH  19  20
ENDBRANCH  18  19
ENDBRANCH  17  18
ENDBRANCH   1  17
TORSDOF 26
ENDMDL
MODEL 6
REMARK VINA RESULT:    -3.549      3.301      6.553
REMARK INTER + INTRA:         -14.508
REMARK INTER:                  -9.233
REMARK INTRA:                  -5.275
REMARK UNBOUND:                -5.566
REMARK SMILES CCCCCCCCCCCCCCCCCCCCCCCCCCCC(=O)[O-]
REMARK SMILES IDX 15 1 16 2 17 3 18 4 19 5 20 6 21 7 22 8 23 9 24 10 25 11
REMARK SMILES IDX 26 12 27 13 28 14 29 15 30 16 14 17 13 18 12 19 11 20 10 21
REMARK SMILES IDX 9 22 8 23 7 24 6 25 5 26 4 27 3 28 2 29 1 30
REMARK H PARENT
REMARK Flexibility Score: inf
ROOT
ATOM      1  C   UNL     1      36.273 -48.263   3.379  1.00  0.00     0.000 C 
ENDROOT
BRANCH   1   2
ATOM      2  C   UNL     1      35.158 -47.222   3.583  1.00  0.00     0.000 C 
BRANCH   2   3
ATOM      3  C   UNL     1      35.215 -46.009   2.633  1.00  0.00     0.000 C 
BRANCH   3   4
ATOM      4  C   UNL     1      34.032 -45.028   2.751  1.00  0.00     0.000 C 
BRANCH   4   5
ATOM      5  C   UNL     1      33.674 -44.286   1.452  1.00  0.00     0.000 C 
BRANCH   5   6
ATOM      6  C   UNL     1      34.759 -43.284   1.022  1.00  0.00     0.000 C 
BRANCH   6   7
ATOM      7  C   UNL     1      34.594 -42.820  -0.436  1.00  0.00     0.000 C 
BRANCH   7   8
ATOM      8  C   UNL     1      33.405 -43.455  -1.184  1.00  0.00     0.000 C 
BRANCH   8   9
ATOM      9  C   UNL     1      33.672 -43.811  -2.661  1.00  0.00     0.000 C 
BRANCH   9  10
ATOM     10  C   UNL     1      32.552 -44.605  -3.356  1.00  0.00     0.000 C 
BRANCH  10  11
ATOM     11  C   UNL     1      31.467 -45.086  -2.377  1.00  0.00     0.000 C 
BRANCH  11  12
ATOM     12  C   UNL     1      30.089 -44.461  -2.659  1.00  0.00     0.006 C 
BRANCH  12  13
ATOM     13  C   UNL     1      29.544 -44.731  -4.070  1.00  0.00     0.053 C 
BRANCH  13  14
ATOM     14  C   UNL     1      28.847 -43.535  -4.642  1.00  0.00     0.041 C 
ATOM     15  O   UNL     1      28.648 -43.450  -5.883  1.00  0.00    -0.550 OA
ATOM     16  O   UNL     1      28.435 -42.502  -3.808  1.00  0.00    -0.550 OA
ENDBRANCH  13  14
ENDBRANCH  12  13
ENDBRANCH  11  12
ENDBRANCH  10  11
ENDBRANCH   9  10
ENDBRANCH   8   9
ENDBRANCH   7   8
ENDBRANCH   6   7
ENDBRANCH   5   6
ENDBRANCH   4   5
ENDBRANCH   3   4
ENDBRANCH   2   3
ENDBRANCH   1   2
BRANCH   1  17
ATOM     17  C   UNL     1      36.006 -49.201   2.194  1.00  0.00     0.000 C 
BRANCH  17  18
ATOM     18  C   UNL     1      34.888 -50.199   2.524  1.00  0.00     0.000 C 
BRANCH  18  19
ATOM     19  C   UNL     1      33.643 -49.934   1.663  1.00  0.00     0.000 C 
BRANCH  19  20
ATOM     20  C   UNL     1      33.982 -49.285   0.312  1.00  0.00     0.000 C 
BRANCH  20  21
ATOM     21  C   UNL     1      33.252 -47.948   0.095  1.00  0.00     0.000 C 
BRANCH  21  22
ATOM     22  C   UNL     1      34.086 -46.954  -0.733  1.00  0.00    -0.000 C 
BRANCH  22  23
ATOM     23  C   UNL     1      35.552 -47.397  -0.881  1.00  0.00    -0.000 C 
BRANCH  23  24
ATOM     24  C   UNL     1      36.343 -46.528  -1.876  1.00  0.00    -0.000 C 
BRANCH  24  25
ATOM     25  C   UNL     1      36.503 -47.133  -3.282  1.00  0.00    -0.000 C 
BRANCH  25  26
ATOM     26  C   UNL     1      35.569 -46.484  -4.318  1.00  0.00    -0.000 C 
BRANCH  26  27
ATOM     27  C   UNL     1      34.463 -47.438  -4.803  1.00  0.00    -0.000 C 
BRANCH  27  28
ATOM     28  C   UNL     1      34.694 -48.921  -4.463  1.00  0.00    -0.000 C 
BRANCH  28  29
ATOM     29  C   UNL     1      33.719 -49.452  -3.401  1.00  0.00    -0.003 C 
ATOM     30  C   UNL     1      32.389 -48.708  -3.456  1.00  0.00     0.004 C 
ENDBRANCH  28  29
ENDBRANCH  27  28
ENDBRANCH  26  27
ENDBRANCH  25  26
ENDBRANCH  24  25
ENDBRANCH  23  24
ENDBRANCH  22  23
ENDBRANCH  21  22
ENDBRANCH  20  21
ENDBRANCH  19  20
ENDBRANCH  18  19
ENDBRANCH  17  18
ENDBRANCH   1  17
TORSDOF 26
ENDMDL
MODEL 7
REMARK VINA RESULT:    -3.540      2.522      6.960
REMARK INTER + INTRA:         -14.487
REMARK INTER:                  -9.048
REMARK INTRA:                  -5.439
REMARK UNBOUND:                -5.566
REMARK SMILES CCCCCCCCCCCCCCCCCCCCCCCCCCCC(=O)[O-]
REMARK SMILES IDX 15 1 16 2 17 3 18 4 19 5 20 6 21 7 22 8 23 9 24 10 25 11
REMARK SMILES IDX 26 12 27 13 28 14 29 15 30 16 14 17 13 18 12 19 11 20 10 21
REMARK SMILES IDX 9 22 8 23 7 24 6 25 5 26 4 27 3 28 2 29 1 30
REMARK H PARENT
REMARK Flexibility Score: inf
ROOT
ATOM      1  C   UNL     1      33.210 -47.837  -1.377  1.00  0.00     0.000 C 
ENDROOT
BRANCH   1   2
ATOM      2  C   UNL     1      32.990 -48.140  -2.870  1.00  0.00     0.000 C 
BRANCH   2   3
ATOM      3  C   UNL     1      32.268 -49.470  -3.166  1.00  0.00     0.000 C 
BRANCH   3   4
ATOM      4  C   UNL     1      32.979 -50.388  -4.181  1.00  0.00     0.000 C 
BRANCH   4   5
ATOM      5  C   UNL     1      34.399 -49.944  -4.572  1.00  0.00     0.000 C 
BRANCH   5   6
ATOM      6  C   UNL     1      35.468 -50.989  -4.211  1.00  0.00     0.000 C 
BRANCH   6   7
ATOM      7  C   UNL     1      36.796 -50.349  -3.767  1.00  0.00     0.000 C 
BRANCH   7   8
ATOM      8  C   UNL     1      36.657 -49.257  -2.687  1.00  0.00     0.000 C 
BRANCH   8   9
ATOM      9  C   UNL     1      37.285 -47.895  -3.044  1.00  0.00     0.000 C 
BRANCH   9  10
ATOM     10  C   UNL     1      36.313 -46.701  -3.027  1.00  0.00     0.000 C 
BRANCH  10  11
ATOM     11  C   UNL     1      35.798 -46.332  -4.428  1.00  0.00     0.000 C 
BRANCH  11  12
ATOM     12  C   UNL     1      35.424 -44.843  -4.554  1.00  0.00     0.006 C 
BRANCH  12  13
ATOM     13  C   UNL     1      34.289 -44.392  -3.621  1.00  0.00     0.053 C 
BRANCH  13  14
ATOM     14  C   UNL     1      32.938 -44.669  -4.205  1.00  0.00     0.041 C 
ATOM     15  O   UNL     1      31.934 -44.786  -3.453  1.00  0.00    -0.550 OA
ATOM     16  O   UNL     1      32.788 -44.820  -5.578  1.00  0.00    -0.550 OA
ENDBRANCH  13  14
ENDBRANCH  12  13
ENDBRANCH  11  12
ENDBRANCH  10  11
ENDBRANCH   9  10
ENDBRANCH   8   9
ENDBRANCH   7   8
ENDBRANCH   6   7
ENDBRANCH   5   6
ENDBRANCH   4   5
ENDBRANCH   3   4
ENDBRANCH   2   3
ENDBRANCH   1   2
BRANCH   1  17
ATOM     17  C   UNL     1      33.760 -49.040  -0.597  1.00  0.00     0.000 C 
BRANCH  17  18
ATOM     18  C   UNL     1      32.897 -49.336   0.636  1.00  0.00     0.000 C 
BRANCH  18  19
ATOM     19  C   UNL     1      33.644 -50.245   1.623  1.00  0.00     0.000 C 
BRANCH  19  20
ATOM     20  C   UNL     1      34.630 -49.472   2.515  1.00  0.00     0.000 C 
BRANCH  20  21
ATOM     21  C   UNL     1      36.100 -49.743   2.150  1.00  0.00     0.000 C 
BRANCH  21  22
ATOM     22  C   UNL     1      37.066 -48.784   2.865  1.00  0.00    -0.000 C 
BRANCH  22  23
ATOM     23  C   UNL     1      37.707 -47.768   1.903  1.00  0.00    -0.000 C 
BRANCH  23  24
ATOM     24  C   UNL     1      36.824 -47.463   0.679  1.00  0.00    -0.000 C 
BRANCH  24  25
ATOM     25  C   UNL     1      36.188 -46.061   0.671  1.00  0.00    -0.000 C 
BRANCH  25  26
ATOM     26  C   UNL     1      36.102 -45.439   2.076  1.00  0.00    -0.000 C 
BRANCH  26  27
ATOM     27  C   UNL     1      34.752 -45.709   2.765  1.00  0.00    -0.000 C 
BRANCH  27  28
ATOM     28  C   UNL     1      33.574 -45.956   1.805  1.00  0.00    -0.000 C 
BRANCH  28  29
ATOM     29  C   UNL     1      32.788 -44.677   1.479  1.00  0.00    -0.003 C 
ATOM     30  C   UNL     1      32.890 -44.333  -0.003  1.00  0.00     0.004 C 
ENDBRANCH  28  29
ENDBRANCH  27  28
ENDBRANCH  26  27
ENDBRANCH  25  26
ENDBRANCH  24  25
ENDBRANCH  23  24
ENDBRANCH  22  23
ENDBRANCH  21  22
ENDBRANCH  20  21
ENDBRANCH  19  20
ENDBRANCH  18  19
ENDBRANCH  17  18
ENDBRANCH   1  17
TORSDOF 26
ENDMDL
MODEL 8
REMARK VINA RESULT:    -3.538      1.738      5.030
REMARK INTER + INTRA:         -14.482
REMARK INTER:                  -9.307
REMARK INTRA:                  -5.175
REMARK UNBOUND:                -5.566
REMARK SMILES CCCCCCCCCCCCCCCCCCCCCCCCCCCC(=O)[O-]
REMARK SMILES IDX 15 1 16 2 17 3 18 4 19 5 20 6 21 7 22 8 23 9 24 10 25 11
REMARK SMILES IDX 26 12 27 13 28 14 29 15 30 16 14 17 13 18 12 19 11 20 10 21
REMARK SMILES IDX 9 22 8 23 7 24 6 25 5 26 4 27 3 28 2 29 1 30
REMARK H PARENT
REMARK Flexibility Score: inf
ROOT
ATOM      1  C   UNL     1      32.856 -46.077  -0.941  1.00  0.00     0.000 C 
ENDROOT
BRANCH   1   2
ATOM      2  C   UNL     1      33.071 -44.553  -0.915  1.00  0.00     0.000 C 
BRANCH   2   3
ATOM      3  C   UNL     1      33.084 -43.919   0.490  1.00  0.00     0.000 C 
BRANCH   3   4
ATOM      4  C   UNL     1      32.878 -44.907   1.656  1.00  0.00     0.000 C 
BRANCH   4   5
ATOM      5  C   UNL     1      34.102 -45.099   2.567  1.00  0.00     0.000 C 
BRANCH   5   6
ATOM      6  C   UNL     1      35.336 -44.324   2.075  1.00  0.00     0.000 C 
BRANCH   6   7
ATOM      7  C   UNL     1      36.527 -45.245   1.757  1.00  0.00     0.000 C 
BRANCH   7   8
ATOM      8  C   UNL     1      36.827 -45.418   0.255  1.00  0.00     0.000 C 
BRANCH   8   9
ATOM      9  C   UNL     1      36.355 -46.751  -0.361  1.00  0.00     0.000 C 
BRANCH   9  10
ATOM     10  C   UNL     1      36.209 -47.916   0.635  1.00  0.00     0.000 C 
BRANCH  10  11
ATOM     11  C   UNL     1      34.753 -48.393   0.784  1.00  0.00     0.000 C 
BRANCH  11  12
ATOM     12  C   UNL     1      34.448 -48.946   2.188  1.00  0.00     0.006 C 
BRANCH  12  13
ATOM     13  C   UNL     1      35.432 -48.493   3.278  1.00  0.00     0.053 C 
BRANCH  13  14
ATOM     14  C   UNL     1      35.980 -49.649   4.057  1.00  0.00     0.041 C 
ATOM     15  O   UNL     1      35.859 -50.824   3.619  1.00  0.00    -0.550 OA
ATOM     16  O   UNL     1      36.607 -49.432   5.279  1.00  0.00    -0.550 OA
ENDBRANCH  13  14
ENDBRANCH  12  13
ENDBRANCH  11  12
ENDBRANCH  10  11
ENDBRANCH   9  10
ENDBRANCH   8   9
ENDBRANCH   7   8
ENDBRANCH   6   7
ENDBRANCH   5   6
ENDBRANCH   4   5
ENDBRANCH   3   4
ENDBRANCH   2   3
ENDBRANCH   1   2
BRANCH   1  17
ATOM     17  C   UNL     1      33.270 -46.718  -2.273  1.00  0.00     0.000 C 
BRANCH  17  18
ATOM     18  C   UNL     1      32.131 -47.565  -2.852  1.00  0.00     0.000 C 
BRANCH  18  19
ATOM     19  C   UNL     1      32.603 -48.999  -3.138  1.00  0.00     0.000 C 
BRANCH  19  20
ATOM     20  C   UNL     1      34.130 -49.103  -3.289  1.00  0.00     0.000 C 
BRANCH  20  21
ATOM     21  C   UNL     1      34.554 -49.691  -4.646  1.00  0.00     0.000 C 
BRANCH  21  22
ATOM     22  C   UNL     1      35.421 -48.715  -5.460  1.00  0.00    -0.000 C 
BRANCH  22  23
ATOM     23  C   UNL     1      35.756 -47.433  -4.679  1.00  0.00    -0.000 C 
BRANCH  23  24
ATOM     24  C   UNL     1      35.502 -46.151  -5.494  1.00  0.00    -0.000 C 
BRANCH  24  25
ATOM     25  C   UNL     1      34.047 -45.651  -5.482  1.00  0.00    -0.000 C 
BRANCH  25  26
ATOM     26  C   UNL     1      33.937 -44.136  -5.723  1.00  0.00    -0.000 C 
BRANCH  26  27
ATOM     27  C   UNL     1      32.798 -43.485  -4.918  1.00  0.00    -0.000 C 
BRANCH  27  28
ATOM     28  C   UNL     1      31.583 -44.395  -4.665  1.00  0.00    -0.000 C 
BRANCH  28  29
ATOM     29  C   UNL     1      30.638 -43.848  -3.585  1.00  0.00    -0.003 C 
ATOM     30  C   UNL     1      29.613 -44.897  -3.168  1.00  0.00     0.004 C 
ENDBRANCH  28  29
ENDBRANCH  27  28
ENDBRANCH  26  27
ENDBRANCH  25  26
ENDBRANCH  24  25
ENDBRANCH  23  24
ENDBRANCH  22  23
ENDBRANCH  21  22
ENDBRANCH  20  21
ENDBRANCH  19  20
ENDBRANCH  18  19
ENDBRANCH  17  18
ENDBRANCH   1  17
TORSDOF 26
ENDMDL
MODEL 9
REMARK VINA RESULT:    -3.532      2.837      6.117
REMARK INTER + INTRA:         -14.468
REMARK INTER:                  -8.387
REMARK INTRA:                  -6.081
REMARK UNBOUND:                -5.566
REMARK SMILES CCCCCCCCCCCCCCCCCCCCCCCCCCCC(=O)[O-]
REMARK SMILES IDX 15 1 16 2 17 3 18 4 19 5 20 6 21 7 22 8 23 9 24 10 25 11
REMARK SMILES IDX 26 12 27 13 28 14 29 15 30 16 14 17 13 18 12 19 11 20 10 21
REMARK SMILES IDX 9 22 8 23 7 24 6 25 5 26 4 27 3 28 2 29 1 30
REMARK H PARENT
REMARK Flexibility Score: inf
ROOT
ATOM      1  C   UNL     1      34.028 -43.502   0.623  1.00  0.00     0.000 C 
ENDROOT
BRANCH   1   2
ATOM      2  C   UNL     1      33.965 -43.235  -0.892  1.00  0.00     0.000 C 
BRANCH   2   3
ATOM      3  C   UNL     1      32.906 -44.055  -1.655  1.00  0.00     0.000 C 
BRANCH   3   4
ATOM      4  C   UNL     1      33.445 -45.303  -2.384  1.00  0.00     0.000 C 
BRANCH   4   5
ATOM      5  C   UNL     1      32.505 -46.521  -2.363  1.00  0.00     0.000 C 
BRANCH   5   6
ATOM      6  C   UNL     1      32.836 -47.546  -3.461  1.00  0.00     0.000 C 
BRANCH   6   7
ATOM      7  C   UNL     1      32.139 -48.900  -3.238  1.00  0.00     0.000 C 
BRANCH   7   8
ATOM      8  C   UNL     1      32.885 -50.114  -3.825  1.00  0.00     0.000 C 
BRANCH   8   9
ATOM      9  C   UNL     1      34.224 -49.791  -4.520  1.00  0.00     0.000 C 
BRANCH   9  10
ATOM     10  C   UNL     1      35.459 -50.482  -3.914  1.00  0.00     0.000 C 
BRANCH  10  11
ATOM     11  C   UNL     1      36.770 -49.739  -4.225  1.00  0.00     0.000 C 
BRANCH  11  12
ATOM     12  C   UNL     1      36.535 -48.344  -4.833  1.00  0.00     0.006 C 
BRANCH  12  13
ATOM     13  C   UNL     1      37.356 -47.220  -4.183  1.00  0.00     0.053 C 
BRANCH  13  14
ATOM     14  C   UNL     1      37.200 -45.918  -4.906  1.00  0.00     0.041 C 
ATOM     15  O   UNL     1      37.926 -45.653  -5.900  1.00  0.00    -0.550 OA
ATOM     16  O   UNL     1      36.266 -44.985  -4.469  1.00  0.00    -0.550 OA
ENDBRANCH  13  14
ENDBRANCH  12  13
ENDBRANCH  11  12
ENDBRANCH  10  11
ENDBRANCH   9  10
ENDBRANCH   8   9
ENDBRANCH   7   8
ENDBRANCH   6   7
ENDBRANCH   5   6
ENDBRANCH   4   5
ENDBRANCH   3   4
ENDBRANCH   2   3
ENDBRANCH   1   2
BRANCH   1  17
ATOM     17  C   UNL     1      32.850 -44.343   1.132  1.00  0.00     0.000 C 
BRANCH  17  18
ATOM     18  C   UNL     1      33.319 -45.733   1.578  1.00  0.00     0.000 C 
BRANCH  18  19
ATOM     19  C   UNL     1      34.788 -45.700   2.026  1.00  0.00     0.000 C 
BRANCH  19  20
ATOM     20  C   UNL     1      35.054 -46.578   3.260  1.00  0.00     0.000 C 
BRANCH  20  21
ATOM     21  C   UNL     1      36.087 -47.686   2.989  1.00  0.00     0.000 C 
BRANCH  21  22
ATOM     22  C   UNL     1      35.548 -49.085   3.334  1.00  0.00    -0.000 C 
BRANCH  22  23
ATOM     23  C   UNL     1      35.208 -49.910   2.080  1.00  0.00    -0.000 C 
BRANCH  23  24
ATOM     24  C   UNL     1      33.756 -49.712   1.609  1.00  0.00    -0.000 C 
BRANCH  24  25
ATOM     25  C   UNL     1      33.604 -48.988   0.259  1.00  0.00    -0.000 C 
BRANCH  25  26
ATOM     26  C   UNL     1      34.828 -49.172  -0.655  1.00  0.00    -0.000 C 
BRANCH  26  27
ATOM     27  C   UNL     1      35.601 -47.861  -0.885  1.00  0.00    -0.000 C 
BRANCH  27  28
ATOM     28  C   UNL     1      37.099 -47.923  -0.535  1.00  0.00    -0.000 C 
BRANCH  28  29
ATOM     29  C   UNL     1      37.713 -46.537  -0.285  1.00  0.00    -0.003 C 
ATOM     30  C   UNL     1      36.898 -45.443  -0.967  1.00  0.00     0.004 C 
ENDBRANCH  28  29
ENDBRANCH  27  28
ENDBRANCH  26  27
ENDBRANCH  25  26
ENDBRANCH  24  25
ENDBRANCH  23  24
ENDBRANCH  22  23
ENDBRANCH  21  22
ENDBRANCH  20  21
ENDBRANCH  19  20
ENDBRANCH  18  19
ENDBRANCH  17  18
ENDBRANCH   1  17
TORSDOF 26
ENDMDL
