MODEL 1
REMARK VINA RESULT:    -2.723      0.000      0.000
REMARK INTER + INTRA:          -3.511
REMARK INTER:                  -3.200
REMARK INTRA:                  -0.311
REMARK UNBOUND:                -0.311
REMARK SMILES O=c1cc(-c2ccc(O)c(O)c2)oc2cc(O)cc(O)c12
REMARK SMILES IDX 4 1 3 2 2 3 1 4 21 5 19 6 18 7 16 8 15 9 14 10 13 11 5 12
REMARK SMILES IDX 6 13 7 14 8 15 12 16 10 17 9 18 11 20 20 22 17 24
REMARK H PARENT 9 19 11 21 20 23 17 25
REMARK Flexibility Score: inf
ROOT
ATOM      1  C   UNL     1       6.555  -0.039  12.411  1.00  0.00     0.138 A 
ATOM      2  C   UNL     1       6.233  -0.724  11.232  1.00  0.00     0.100 A 
ATOM      3  C   UNL     1       6.230  -2.120  11.224  1.00  0.00     0.197 A 
ATOM      4  O   UNL     1       5.877  -2.706  10.168  1.00  0.00    -0.289 OA
ATOM      5  C   UNL     1       6.582  -2.830  12.395  1.00  0.00     0.107 A 
ATOM      6  C   UNL     1       6.654  -4.253  12.492  1.00  0.00     0.134 A 
ATOM      7  C   UNL     1       6.901  -4.848  13.736  1.00  0.00     0.093 A 
ATOM      8  C   UNL     1       7.138  -4.071  14.872  1.00  0.00     0.123 A 
ATOM      9  C   UNL     1       7.124  -2.681  14.777  1.00  0.00     0.094 A 
ATOM     10  C   UNL     1       6.847  -2.058  13.558  1.00  0.00     0.146 A 
ATOM     11  O   UNL     1       6.829  -0.730  13.513  1.00  0.00    -0.456 OA
ENDROOT
BRANCH   1  12
ATOM     12  C   UNL     1       6.573   1.444  12.476  1.00  0.00     0.021 A 
ATOM     13  C   UNL     1       5.879   2.235  11.539  1.00  0.00     0.016 A 
ATOM     14  C   UNL     1       5.922   3.629  11.616  1.00  0.00     0.051 A 
ATOM     15  C   UNL     1       6.664   4.258  12.624  1.00  0.00     0.157 A 
ATOM     16  C   UNL     1       7.326   2.086  13.475  1.00  0.00     0.062 A 
ATOM     17  C   UNL     1       7.369   3.485  13.554  1.00  0.00     0.158 A 
BRANCH  15  18
ATOM     18  O   UNL     1       6.708   5.649  12.704  1.00  0.00    -0.504 OA
ATOM     19  H   UNL     1       5.931   6.222  12.398  1.00  0.00     0.293 HD
ENDBRANCH  15  18
BRANCH  17  20
ATOM     20  O   UNL     1       8.110   4.114  14.553  1.00  0.00    -0.504 OA
ATOM     21  H   UNL     1       8.853   4.766  14.331  1.00  0.00     0.293 HD
ENDBRANCH  17  20
ENDBRANCH   1  12
BRANCH   6  22
ATOM     22  O   UNL     1       6.516  -5.117  11.403  1.00  0.00    -0.507 OA
ATOM     23  H   UNL     1       6.211  -6.077  11.463  1.00  0.00     0.293 HD
ENDBRANCH   6  22
BRANCH   8  24
ATOM     24  O   UNL     1       7.398  -4.672  16.102  1.00  0.00    -0.508 OA
ATOM     25  H   UNL     1       7.779  -4.145  16.880  1.00  0.00     0.293 HD
ENDBRANCH   8  24
TORSDOF 5
ENDMDL
MODEL 2
REMARK VINA RESULT:    -0.783      2.044      7.489
REMARK INTER + INTRA:          -1.231
REMARK INTER:                  -0.923
REMARK INTRA:                  -0.308
REMARK UNBOUND:                -0.311
REMARK SMILES O=c1cc(-c2ccc(O)c(O)c2)oc2cc(O)cc(O)c12
REMARK SMILES IDX 4 1 3 2 2 3 1 4 21 5 19 6 18 7 16 8 15 9 14 10 13 11 5 12
REMARK SMILES IDX 6 13 7 14 8 15 12 16 10 17 9 18 11 20 20 22 17 24
REMARK H PARENT 9 19 11 21 20 23 17 25
REMARK Flexibility Score: inf
ROOT
ATOM      1  C   UNL     1       6.520   0.992  12.863  1.00  0.00     0.138 A 
ATOM      2  C   UNL     1       6.157   1.256  14.191  1.00  0.00     0.100 A 
ATOM      3  C   UNL     1       6.275   2.552  14.694  1.00  0.00     0.197 A 
ATOM      4  O   UNL     1       5.884   2.771  15.870  1.00  0.00    -0.289 OA
ATOM      5  C   UNL     1       6.788   3.582  13.870  1.00  0.00     0.107 A 
ATOM      6  C   UNL     1       6.990   4.932  14.288  1.00  0.00     0.134 A 
ATOM      7  C   UNL     1       7.395   5.890  13.351  1.00  0.00     0.093 A 
ATOM      8  C   UNL     1       7.662   5.536  12.027  1.00  0.00     0.123 A 
ATOM      9  C   UNL     1       7.519   4.211  11.622  1.00  0.00     0.094 A 
ATOM     10  C   UNL     1       7.084   3.238  12.525  1.00  0.00     0.146 A 
ATOM     11  O   UNL     1       6.947   1.988  12.095  1.00  0.00    -0.456 OA
ENDROOT
BRANCH   1  12
ATOM     12  C   UNL     1       6.415  -0.368  12.277  1.00  0.00     0.021 A 
ATOM     13  C   UNL     1       6.538  -1.527  13.069  1.00  0.00     0.016 A 
ATOM     14  C   UNL     1       6.446  -2.795  12.491  1.00  0.00     0.051 A 
ATOM     15  C   UNL     1       6.238  -2.929  11.112  1.00  0.00     0.157 A 
ATOM     16  C   UNL     1       6.220  -0.514  10.892  1.00  0.00     0.062 A 
ATOM     17  C   UNL     1       6.126  -1.787  10.311  1.00  0.00     0.158 A 
BRANCH  15  18
ATOM     18  O   UNL     1       6.145  -4.193  10.532  1.00  0.00    -0.504 OA
ATOM     19  H   UNL     1       6.202  -5.037  11.089  1.00  0.00     0.293 HD
ENDBRANCH  15  18
BRANCH  17  20
ATOM     20  O   UNL     1       5.923  -1.924   8.939  1.00  0.00    -0.504 OA
ATOM     21  H   UNL     1       5.990  -2.825   8.481  1.00  0.00     0.293 HD
ENDBRANCH  17  20
ENDBRANCH   1  12
BRANCH   6  22
ATOM     22  O   UNL     1       6.834   5.373  15.605  1.00  0.00    -0.507 OA
ATOM     23  H   UNL     1       7.586   5.679  16.204  1.00  0.00     0.293 HD
ENDBRANCH   6  22
BRANCH   8  24
ATOM     24  O   UNL     1       8.078   6.495  11.104  1.00  0.00    -0.508 OA
ATOM     25  H   UNL     1       8.781   6.287  10.404  1.00  0.00     0.293 HD
ENDBRANCH   8  24
TORSDOF 5
ENDMDL
MODEL 3
REMARK VINA RESULT:    -0.345      5.316      9.021
REMARK INTER + INTRA:          -0.717
REMARK INTER:                  -0.455
REMARK INTRA:                  -0.262
REMARK UNBOUND:                -0.311
REMARK SMILES O=c1cc(-c2ccc(O)c(O)c2)oc2cc(O)cc(O)c12
REMARK SMILES IDX 4 1 3 2 2 3 1 4 21 5 19 6 18 7 16 8 15 9 14 10 13 11 5 12
REMARK SMILES IDX 6 13 7 14 8 15 12 16 10 17 9 18 11 20 20 22 17 24
REMARK H PARENT 9 19 11 21 20 23 17 25
REMARK Flexibility Score: inf
ROOT
ATOM      1  C   UNL     1      10.381   6.485  14.972  1.00  0.00     0.138 A 
ATOM      2  C   UNL     1       9.642   7.657  14.757  1.00  0.00     0.100 A 
ATOM      3  C   UNL     1       8.404   7.584  14.118  1.00  0.00     0.197 A 
ATOM      4  O   UNL     1       7.736   8.643  13.995  1.00  0.00    -0.289 OA
ATOM      5  C   UNL     1       7.920   6.335  13.664  1.00  0.00     0.107 A 
ATOM      6  C   UNL     1       6.690   6.146  12.964  1.00  0.00     0.134 A 
ATOM      7  C   UNL     1       6.258   4.847  12.666  1.00  0.00     0.093 A 
ATOM      8  C   UNL     1       7.040   3.735  12.991  1.00  0.00     0.123 A 
ATOM      9  C   UNL     1       8.266   3.913  13.626  1.00  0.00     0.094 A 
ATOM     10  C   UNL     1       8.709   5.193  13.967  1.00  0.00     0.146 A 
ATOM     11  O   UNL     1       9.878   5.318  14.585  1.00  0.00    -0.456 OA
ENDROOT
BRANCH   1  12
ATOM     12  C   UNL     1      11.704   6.506  15.647  1.00  0.00     0.021 A 
ATOM     13  C   UNL     1      12.907   6.494  14.916  1.00  0.00     0.016 A 
ATOM     14  C   UNL     1      14.139   6.502  15.577  1.00  0.00     0.051 A 
ATOM     15  C   UNL     1      14.189   6.515  16.976  1.00  0.00     0.157 A 
ATOM     16  C   UNL     1      11.765   6.505  17.052  1.00  0.00     0.062 A 
ATOM     17  C   UNL     1      13.001   6.515  17.715  1.00  0.00     0.158 A 
BRANCH  15  18
ATOM     18  O   UNL     1      15.416   6.525  17.638  1.00  0.00    -0.504 OA
ATOM     19  H   UNL     1      16.284   6.344  17.148  1.00  0.00     0.293 HD
ENDBRANCH  15  18
BRANCH  17  20
ATOM     20  O   UNL     1      13.055   6.524  19.108  1.00  0.00    -0.504 OA
ATOM     21  H   UNL     1      13.920   6.701  19.604  1.00  0.00     0.293 HD
ENDBRANCH  17  20
ENDBRANCH   1  12
BRANCH   6  22
ATOM     22  O   UNL     1       5.876   7.191  12.519  1.00  0.00    -0.507 OA
ATOM     23  H   UNL     1       6.200   7.995  12.004  1.00  0.00     0.293 HD
ENDBRANCH   6  22
BRANCH   8  24
ATOM     24  O   UNL     1       6.609   2.448  12.677  1.00  0.00    -0.508 OA
ATOM     25  H   UNL     1       7.031   1.916  11.925  1.00  0.00     0.293 HD
ENDBRANCH   8  24
TORSDOF 5
ENDMDL
MODEL 4
REMARK VINA RESULT:    -0.229      3.461      9.268
REMARK INTER + INTRA:          -0.580
REMARK INTER:                  -0.292
REMARK INTRA:                  -0.289
REMARK UNBOUND:                -0.311
REMARK SMILES O=c1cc(-c2ccc(O)c(O)c2)oc2cc(O)cc(O)c12
REMARK SMILES IDX 4 1 3 2 2 3 1 4 21 5 19 6 18 7 16 8 15 9 14 10 13 11 5 12
REMARK SMILES IDX 6 13 7 14 8 15 12 16 10 17 9 18 11 20 20 22 17 24
REMARK H PARENT 9 19 11 21 20 23 17 25
REMARK Flexibility Score: inf
ROOT
ATOM      1  C   UNL     1       6.246   4.902  13.930  1.00  0.00     0.138 A 
ATOM      2  C   UNL     1       6.104   4.887  15.324  1.00  0.00     0.100 A 
ATOM      3  C   UNL     1       6.106   6.090  16.031  1.00  0.00     0.197 A 
ATOM      4  O   UNL     1       5.915   6.049  17.274  1.00  0.00    -0.289 OA
ATOM      5  C   UNL     1       6.283   7.311  15.339  1.00  0.00     0.107 A 
ATOM      6  C   UNL     1       6.343   8.595  15.959  1.00  0.00     0.134 A 
ATOM      7  C   UNL     1       6.405   9.745  15.161  1.00  0.00     0.093 A 
ATOM      8  C   UNL     1       6.469   9.653  13.769  1.00  0.00     0.123 A 
ATOM      9  C   UNL     1       6.466   8.402  13.156  1.00  0.00     0.094 A 
ATOM     10  C   UNL     1       6.371   7.238  13.923  1.00  0.00     0.146 A 
ATOM     11  O   UNL     1       6.356   6.066  13.299  1.00  0.00    -0.456 OA
ENDROOT
BRANCH   1  12
ATOM     12  C   UNL     1       6.251   3.651  13.129  1.00  0.00     0.021 A 
ATOM     13  C   UNL     1       5.875   3.640  11.772  1.00  0.00     0.016 A 
ATOM     14  C   UNL     1       5.878   2.447  11.045  1.00  0.00     0.051 A 
ATOM     15  C   UNL     1       6.249   1.245  11.661  1.00  0.00     0.157 A 
ATOM     16  C   UNL     1       6.608   2.437  13.742  1.00  0.00     0.062 A 
ATOM     17  C   UNL     1       6.612   1.239  13.012  1.00  0.00     0.158 A 
BRANCH  15  18
ATOM     18  O   UNL     1       6.254   0.053  10.938  1.00  0.00    -0.504 OA
ATOM     19  H   UNL     1       5.925  -0.815  11.344  1.00  0.00     0.293 HD
ENDBRANCH  15  18
BRANCH  17  20
ATOM     20  O   UNL     1       6.977   0.041  13.624  1.00  0.00    -0.504 OA
ATOM     21  H   UNL     1       7.177  -0.791  13.081  1.00  0.00     0.293 HD
ENDBRANCH  17  20
ENDBRANCH   1  12
BRANCH   6  22
ATOM     22  O   UNL     1       6.371   8.794  17.342  1.00  0.00    -0.507 OA
ATOM     23  H   UNL     1       7.125   9.233  17.847  1.00  0.00     0.293 HD
ENDBRANCH   6  22
BRANCH   8  24
ATOM     24  O   UNL     1       6.545  10.802  12.984  1.00  0.00    -0.508 OA
ATOM     25  H   UNL     1       5.961  10.923  12.164  1.00  0.00     0.293 HD
ENDBRANCH   8  24
TORSDOF 5
ENDMDL
MODEL 5
REMARK VINA RESULT:    -0.121      6.869      9.813
REMARK INTER + INTRA:          -0.453
REMARK INTER:                  -0.184
REMARK INTRA:                  -0.269
REMARK UNBOUND:                -0.311
REMARK SMILES O=c1cc(-c2ccc(O)c(O)c2)oc2cc(O)cc(O)c12
REMARK SMILES IDX 4 1 3 2 2 3 1 4 21 5 19 6 18 7 16 8 15 9 14 10 13 11 5 12
REMARK SMILES IDX 6 13 7 14 8 15 12 16 10 17 9 18 11 20 20 22 17 24
REMARK H PARENT 9 19 11 21 20 23 17 25
REMARK Flexibility Score: inf
ROOT
ATOM      1  C   UNL     1      10.390   6.453  14.997  1.00  0.00     0.138 A 
ATOM      2  C   UNL     1       9.923   5.279  14.391  1.00  0.00     0.100 A 
ATOM      3  C   UNL     1       8.679   5.277  13.759  1.00  0.00     0.197 A 
ATOM      4  O   UNL     1       8.314   4.226  13.170  1.00  0.00    -0.289 OA
ATOM      5  C   UNL     1       7.887   6.449  13.762  1.00  0.00     0.107 A 
ATOM      6  C   UNL     1       6.586   6.551  13.184  1.00  0.00     0.134 A 
ATOM      7  C   UNL     1       5.944   7.796  13.146  1.00  0.00     0.093 A 
ATOM      8  C   UNL     1       6.531   8.927  13.717  1.00  0.00     0.123 A 
ATOM      9  C   UNL     1       7.777   8.826  14.331  1.00  0.00     0.094 A 
ATOM     10  C   UNL     1       8.458   7.606  14.355  1.00  0.00     0.146 A 
ATOM     11  O   UNL     1       9.650   7.555  14.938  1.00  0.00    -0.456 OA
ENDROOT
BRANCH   1  12
ATOM     12  C   UNL     1      11.705   6.511  15.684  1.00  0.00     0.021 A 
ATOM     13  C   UNL     1      12.916   6.524  14.964  1.00  0.00     0.016 A 
ATOM     14  C   UNL     1      14.140   6.567  15.636  1.00  0.00     0.051 A 
ATOM     15  C   UNL     1      14.178   6.591  17.036  1.00  0.00     0.157 A 
ATOM     16  C   UNL     1      11.754   6.521  17.090  1.00  0.00     0.062 A 
ATOM     17  C   UNL     1      12.983   6.566  17.764  1.00  0.00     0.158 A 
BRANCH  15  18
ATOM     18  O   UNL     1      15.398   6.635  17.709  1.00  0.00    -0.504 OA
ATOM     19  H   UNL     1      15.631   5.961  18.428  1.00  0.00     0.293 HD
ENDBRANCH  15  18
BRANCH  17  20
ATOM     20  O   UNL     1      13.023   6.585  19.157  1.00  0.00    -0.504 OA
ATOM     21  H   UNL     1      13.838   6.268  19.668  1.00  0.00     0.293 HD
ENDBRANCH  17  20
ENDBRANCH   1  12
BRANCH   6  22
ATOM     22  O   UNL     1       5.875   5.467  12.662  1.00  0.00    -0.507 OA
ATOM     23  H   UNL     1       5.987   4.509  12.956  1.00  0.00     0.293 HD
ENDBRANCH   6  22
BRANCH   8  24
ATOM     24  O   UNL     1       5.879  10.159  13.687  1.00  0.00    -0.508 OA
ATOM     25  H   UNL     1       5.560  10.610  14.536  1.00  0.00     0.293 HD
ENDBRANCH   8  24
TORSDOF 5
ENDMDL
