MODEL 1
REMARK VINA RESULT:     5.364      0.000      0.000
REMARK INTER + INTRA:           6.915
REMARK INTER:                   6.461
REMARK INTRA:                   0.454
REMARK UNBOUND:                 0.454
REMARK SMILES O=c1c(O)c(-c2ccc(O)c(O)c2)oc2cc(O)cc(O)c12
REMARK SMILES IDX 5 1 3 2 2 3 1 4 22 5 20 6 19 7 17 8 16 9 15 10 14 11 6 12
REMARK SMILES IDX 7 13 8 14 9 15 13 16 11 17 10 18 12 20 4 22 21 24 18 26
REMARK H PARENT 10 19 12 21 4 23 21 25 18 27
REMARK Flexibility Score: inf
ROOT
ATOM      1  C   UNL     1       3.632   1.198 -19.138  1.00  0.00     0.180 A 
ATOM      2  C   UNL     1       3.312   2.519 -18.784  1.00  0.00     0.208 A 
ATOM      3  C   UNL     1       3.474   2.925 -17.450  1.00  0.00     0.238 A 
ATOM      4  O   UNL     1       3.238   4.124 -17.149  1.00  0.00    -0.285 OA
ATOM      5  C   UNL     1       3.938   1.999 -16.483  1.00  0.00     0.111 A 
ATOM      6  C   UNL     1       4.102   2.290 -15.096  1.00  0.00     0.134 A 
ATOM      7  C   UNL     1       4.692   1.338 -14.256  1.00  0.00     0.093 A 
ATOM      8  C   UNL     1       5.064   0.081 -14.741  1.00  0.00     0.123 A 
ATOM      9  C   UNL     1       4.855  -0.233 -16.081  1.00  0.00     0.094 A 
ATOM     10  C   UNL     1       4.301   0.710 -16.952  1.00  0.00     0.146 A 
ATOM     11  O   UNL     1       4.128   0.373 -18.224  1.00  0.00    -0.452 OA
ENDROOT
BRANCH   1  12
ATOM     12  C   UNL     1       3.464   0.690 -20.520  1.00  0.00     0.025 A 
ATOM     13  C   UNL     1       3.192   1.559 -21.591  1.00  0.00     0.016 A 
ATOM     14  C   UNL     1       3.013   1.054 -22.882  1.00  0.00     0.051 A 
ATOM     15  C   UNL     1       3.090  -0.321 -23.121  1.00  0.00     0.157 A 
ATOM     16  C   UNL     1       3.521  -0.693 -20.760  1.00  0.00     0.062 A 
ATOM     17  C   UNL     1       3.342  -1.201 -22.054  1.00  0.00     0.158 A 
BRANCH  15  18
ATOM     18  O   UNL     1       2.909  -0.795 -24.420  1.00  0.00    -0.504 OA
ATOM     19  H   UNL     1       3.679  -1.141 -24.978  1.00  0.00     0.293 HD
ENDBRANCH  15  18
BRANCH  17  20
ATOM     20  O   UNL     1       3.414  -2.574 -22.284  1.00  0.00    -0.504 OA
ATOM     21  H   UNL     1       4.283  -3.024 -22.546  1.00  0.00     0.293 HD
ENDBRANCH  17  20
ENDBRANCH   1  12
BRANCH   2  22
ATOM     22  O   UNL     1       2.876   3.423 -19.757  1.00  0.00    -0.502 OA
ATOM     23  H   UNL     1       2.515   3.123 -20.655  1.00  0.00     0.293 HD
ENDBRANCH   2  22
BRANCH   6  24
ATOM     24  O   UNL     1       3.679   3.478 -14.492  1.00  0.00    -0.507 OA
ATOM     25  H   UNL     1       4.048   3.847 -13.629  1.00  0.00     0.293 HD
ENDBRANCH   6  24
BRANCH   8  26
ATOM     26  O   UNL     1       5.637  -0.866 -13.894  1.00  0.00    -0.508 OA
ATOM     27  H   UNL     1       6.632  -0.877 -13.708  1.00  0.00     0.293 HD
ENDBRANCH   8  26
TORSDOF 6
ENDMDL
MODEL 2
REMARK VINA RESULT:     6.032      1.607      6.750
REMARK INTER + INTRA:           7.719
REMARK INTER:                   7.909
REMARK INTRA:                  -0.189
REMARK UNBOUND:                 0.454
REMARK SMILES O=c1c(O)c(-c2ccc(O)c(O)c2)oc2cc(O)cc(O)c12
REMARK SMILES IDX 5 1 3 2 2 3 1 4 22 5 20 6 19 7 17 8 16 9 15 10 14 11 6 12
REMARK SMILES IDX 7 13 8 14 9 15 13 16 11 17 10 18 12 20 4 22 21 24 18 26
REMARK H PARENT 10 19 12 21 4 23 21 25 18 27
REMARK Flexibility Score: inf
ROOT
ATOM      1  C   UNL     1       3.695   1.303 -19.218  1.00  0.00     0.180 A 
ATOM      2  C   UNL     1       3.438   2.257 -20.218  1.00  0.00     0.208 A 
ATOM      3  C   UNL     1       3.174   1.820 -21.525  1.00  0.00     0.238 A 
ATOM      4  O   UNL     1       2.891   2.676 -22.404  1.00  0.00    -0.285 OA
ATOM      5  C   UNL     1       3.187   0.435 -21.821  1.00  0.00     0.111 A 
ATOM      6  C   UNL     1       2.973  -0.118 -23.119  1.00  0.00     0.134 A 
ATOM      7  C   UNL     1       2.877  -1.507 -23.270  1.00  0.00     0.093 A 
ATOM      8  C   UNL     1       3.054  -2.364 -22.181  1.00  0.00     0.123 A 
ATOM      9  C   UNL     1       3.322  -1.835 -20.921  1.00  0.00     0.094 A 
ATOM     10  C   UNL     1       3.387  -0.452 -20.732  1.00  0.00     0.146 A 
ATOM     11  O   UNL     1       3.634   0.010 -19.512  1.00  0.00    -0.452 OA
ENDROOT
BRANCH   1  12
ATOM     12  C   UNL     1       4.006   1.688 -17.822  1.00  0.00     0.025 A 
ATOM     13  C   UNL     1       3.106   1.428 -16.774  1.00  0.00     0.016 A 
ATOM     14  C   UNL     1       3.410   1.822 -15.468  1.00  0.00     0.051 A 
ATOM     15  C   UNL     1       4.607   2.491 -15.191  1.00  0.00     0.157 A 
ATOM     16  C   UNL     1       5.199   2.377 -17.544  1.00  0.00     0.062 A 
ATOM     17  C   UNL     1       5.505   2.772 -16.234  1.00  0.00     0.158 A 
BRANCH  15  18
ATOM     18  O   UNL     1       4.884   2.869 -13.878  1.00  0.00    -0.504 OA
ATOM     19  H   UNL     1       5.566   3.584 -13.657  1.00  0.00     0.293 HD
ENDBRANCH  15  18
BRANCH  17  20
ATOM     20  O   UNL     1       6.697   3.444 -15.966  1.00  0.00    -0.504 OA
ATOM     21  H   UNL     1       7.255   3.852 -16.707  1.00  0.00     0.293 HD
ENDBRANCH  17  20
ENDBRANCH   1  12
BRANCH   2  22
ATOM     22  O   UNL     1       3.409   3.618 -19.900  1.00  0.00    -0.502 OA
ATOM     23  H   UNL     1       3.630   4.340 -20.575  1.00  0.00     0.293 HD
ENDBRANCH   2  22
BRANCH   6  24
ATOM     24  O   UNL     1       2.875   0.645 -24.287  1.00  0.00    -0.507 OA
ATOM     25  H   UNL     1       2.561   1.603 -24.322  1.00  0.00     0.293 HD
ENDBRANCH   6  24
BRANCH   8  26
ATOM     26  O   UNL     1       2.974  -3.746 -22.344  1.00  0.00    -0.508 OA
ATOM     27  H   UNL     1       2.966  -4.171 -23.263  1.00  0.00     0.293 HD
ENDBRANCH   8  26
TORSDOF 6
ENDMDL
MODEL 3
REMARK VINA RESULT:     6.907      1.443      7.178
REMARK INTER + INTRA:           8.774
REMARK INTER:                   8.333
REMARK INTRA:                   0.442
REMARK UNBOUND:                 0.454
REMARK SMILES O=c1c(O)c(-c2ccc(O)c(O)c2)oc2cc(O)cc(O)c12
REMARK SMILES IDX 5 1 3 2 2 3 1 4 22 5 20 6 19 7 17 8 16 9 15 10 14 11 6 12
REMARK SMILES IDX 7 13 8 14 9 15 13 16 11 17 10 18 12 20 4 22 21 24 18 26
REMARK H PARENT 10 19 12 21 4 23 21 25 18 27
REMARK Flexibility Score: inf
ROOT
ATOM      1  C   UNL     1       3.326   0.843 -18.703  1.00  0.00     0.180 A 
ATOM      2  C   UNL     1       3.419  -0.558 -18.643  1.00  0.00     0.208 A 
ATOM      3  C   UNL     1       3.332  -1.298 -19.833  1.00  0.00     0.238 A 
ATOM      4  O   UNL     1       3.470  -2.548 -19.779  1.00  0.00    -0.285 OA
ATOM      5  C   UNL     1       3.136  -0.629 -21.066  1.00  0.00     0.111 A 
ATOM      6  C   UNL     1       2.993  -1.281 -22.327  1.00  0.00     0.134 A 
ATOM      7  C   UNL     1       2.936  -0.514 -23.497  1.00  0.00     0.093 A 
ATOM      8  C   UNL     1       2.949   0.882 -23.446  1.00  0.00     0.123 A 
ATOM      9  C   UNL     1       3.029   1.527 -22.215  1.00  0.00     0.094 A 
ATOM     10  C   UNL     1       3.124   0.789 -21.031  1.00  0.00     0.146 A 
ATOM     11  O   UNL     1       3.209   1.444 -19.880  1.00  0.00    -0.452 OA
ENDROOT
BRANCH   1  12
ATOM     12  C   UNL     1       3.384   1.689 -17.488  1.00  0.00     0.025 A 
ATOM     13  C   UNL     1       2.912   3.013 -17.497  1.00  0.00     0.016 A 
ATOM     14  C   UNL     1       2.999   3.802 -16.346  1.00  0.00     0.051 A 
ATOM     15  C   UNL     1       3.568   3.286 -15.177  1.00  0.00     0.157 A 
ATOM     16  C   UNL     1       3.973   1.181 -16.318  1.00  0.00     0.062 A 
ATOM     17  C   UNL     1       4.060   1.970 -15.163  1.00  0.00     0.158 A 
BRANCH  15  18
ATOM     18  O   UNL     1       3.639   4.095 -14.043  1.00  0.00    -0.504 OA
ATOM     19  H   UNL     1       2.824   4.309 -13.483  1.00  0.00     0.293 HD
ENDBRANCH  15  18
BRANCH  17  20
ATOM     20  O   UNL     1       4.635   1.452 -14.003  1.00  0.00    -0.504 OA
ATOM     21  H   UNL     1       5.631   1.513 -13.831  1.00  0.00     0.293 HD
ENDBRANCH  17  20
ENDBRANCH   1  12
BRANCH   2  22
ATOM     22  O   UNL     1       3.634  -1.197 -17.418  1.00  0.00    -0.502 OA
ATOM     23  H   UNL     1       3.263  -2.116 -17.211  1.00  0.00     0.293 HD
ENDBRANCH   2  22
BRANCH   6  24
ATOM     24  O   UNL     1       2.876  -2.666 -22.481  1.00  0.00    -0.507 OA
ATOM     25  H   UNL     1       3.464  -3.229 -23.077  1.00  0.00     0.293 HD
ENDBRANCH   6  24
BRANCH   8  26
ATOM     26  O   UNL     1       2.875   1.637 -24.614  1.00  0.00    -0.508 OA
ATOM     27  H   UNL     1       3.487   2.429 -24.773  1.00  0.00     0.293 HD
ENDBRANCH   8  26
TORSDOF 6
ENDMDL
