MODEL 1
REMARK VINA RESULT:    -5.258      0.000      0.000
REMARK INTER + INTRA:          -5.937
REMARK INTER:                  -5.719
REMARK INTRA:                  -0.218
REMARK UNBOUND:                -0.218
REMARK SMILES C[C@@H]1[C@H]2C3=CC[C@H]4[C@@]5(C)CC[C@H](O)C(C)(C)[C@H]5CC[C@]4(C)[C@@]3(C)CC[C@@]2(C(=O)[O-])CC[C@@H]1C
REMARK SMILES IDX 26 1 30 2 25 3 3 4 31 5 24 6 4 7 2 8 32 9 22 10 5 11 1 12
REMARK SMILES IDX 33 13 23 14 20 15 6 16 7 17 19 18 21 19 8 20 18 21 17 22
REMARK SMILES IDX 10 23 9 24 14 25 11 26 12 27 15 28 16 29 27 30 28 31 29 32
REMARK SMILES IDX 13 33
REMARK H PARENT 13 34
REMARK Flexibility Score: inf
ROOT
ATOM      1  C   UNL     1      12.443  28.541  66.064  1.00  0.00     0.017 C 
ATOM      2  C   UNL     1      12.230  29.074  67.512  1.00  0.00     0.014 C 
ATOM      3  C   UNL     1      13.015  29.693  65.156  1.00  0.00     0.014 C 
ATOM      4  C   UNL     1      11.110  27.930  65.486  1.00  0.00     0.030 C 
ATOM      5  C   UNL     1      11.013  29.987  67.664  1.00  0.00     0.004 C 
ATOM      6  C   UNL     1      12.440  29.788  63.727  1.00  0.00     0.013 C 
ATOM      7  C   UNL     1      11.252  27.589  63.987  1.00  0.00    -0.063 C 
ATOM      8  C   UNL     1       9.836  28.812  65.756  1.00  0.00    -0.003 C 
ATOM      9  C   UNL     1       9.725  29.278  67.234  1.00  0.00    -0.011 C 
ATOM     10  C   UNL     1      12.140  28.419  63.043  1.00  0.00    -0.006 C 
ATOM     11  C   UNL     1      10.545  26.544  63.503  1.00  0.00    -0.027 C 
ATOM     12  C   UNL     1       8.523  28.116  65.333  1.00  0.00     0.008 C 
ATOM     13  C   UNL     1       9.337  28.158  68.223  1.00  0.00     0.008 C 
ATOM     14  C   UNL     1      13.504  27.668  62.879  1.00  0.00     0.017 C 
ATOM     15  C   UNL     1      11.394  28.606  61.620  1.00  0.00    -0.020 C 
ATOM     16  C   UNL     1      10.118  26.427  62.064  1.00  0.00     0.032 C 
ATOM     17  C   UNL     1      11.002  27.201  61.053  1.00  0.00     0.006 C 
ATOM     18  C   UNL     1      12.330  29.250  60.562  1.00  0.00     0.008 C 
ATOM     19  C   UNL     1      10.123  29.492  61.805  1.00  0.00     0.012 C 
ATOM     20  C   UNL     1      10.514  27.096  59.515  1.00  0.00    -0.025 C 
ATOM     21  C   UNL     1      11.603  29.553  59.265  1.00  0.00     0.005 C 
ATOM     22  C   UNL     1      11.002  28.299  58.562  1.00  0.00     0.003 C 
ATOM     23  C   UNL     1       8.966  26.917  59.401  1.00  0.00     0.010 C 
ATOM     24  C   UNL     1      11.141  25.754  58.998  1.00  0.00     0.012 C 
ATOM     25  C   UNL     1       9.991  28.741  57.402  1.00  0.00    -0.006 C 
ATOM     26  C   UNL     1       8.415  26.770  57.966  1.00  0.00     0.033 C 
ATOM     27  C   UNL     1       9.188  27.523  56.861  1.00  0.00     0.120 C 
ATOM     28  C   UNL     1      10.795  29.351  56.220  1.00  0.00     0.014 C 
ATOM     29  C   UNL     1       8.968  29.835  57.839  1.00  0.00     0.014 C 
ENDROOT
BRANCH   1  30
ATOM     30  C   UNL     1      13.498  27.440  66.201  1.00  0.00     0.048 C 
ATOM     31  O   UNL     1      13.141  26.243  66.373  1.00  0.00    -0.550 OA
ATOM     32  O   UNL     1      14.858  27.723  66.133  1.00  0.00    -0.550 OA
ENDBRANCH   1  30
BRANCH  27  33
ATOM     33  O   UNL     1      10.028  26.630  56.170  1.00  0.00    -0.393 OA
ATOM     34  H   UNL     1      10.943  27.015  56.163  1.00  0.00     0.210 HD
ENDBRANCH  27  33
TORSDOF 2
ENDMDL
MODEL 2
REMARK VINA RESULT:    -5.209      3.273      5.268
REMARK INTER + INTRA:          -5.884
REMARK INTER:                  -5.676
REMARK INTRA:                  -0.208
REMARK UNBOUND:                -0.218
REMARK SMILES C[C@@H]1[C@H]2C3=CC[C@H]4[C@@]5(C)CC[C@H](O)C(C)(C)[C@H]5CC[C@]4(C)[C@@]3(C)CC[C@@]2(C(=O)[O-])CC[C@@H]1C
REMARK SMILES IDX 26 1 30 2 25 3 3 4 31 5 24 6 4 7 2 8 32 9 22 10 5 11 1 12
REMARK SMILES IDX 33 13 23 14 20 15 6 16 7 17 19 18 21 19 8 20 18 21 17 22
REMARK SMILES IDX 10 23 9 24 14 25 11 26 12 27 15 28 16 29 27 30 28 31 29 32
REMARK SMILES IDX 13 33
REMARK H PARENT 13 34
REMARK Flexibility Score: inf
ROOT
ATOM      1  C   UNL     1      10.389  22.809  64.930  1.00  0.00     0.017 C 
ATOM      2  C   UNL     1      10.162  21.402  65.558  1.00  0.00     0.014 C 
ATOM      3  C   UNL     1       9.039  23.619  64.948  1.00  0.00     0.014 C 
ATOM      4  C   UNL     1      10.997  22.690  63.481  1.00  0.00     0.030 C 
ATOM      5  C   UNL     1       9.408  20.431  64.647  1.00  0.00     0.004 C 
ATOM      6  C   UNL     1       8.727  24.456  63.688  1.00  0.00     0.013 C 
ATOM      7  C   UNL     1      11.033  24.060  62.772  1.00  0.00    -0.063 C 
ATOM      8  C   UNL     1      10.302  21.599  62.588  1.00  0.00    -0.003 C 
ATOM      9  C   UNL     1      10.136  20.236  63.315  1.00  0.00    -0.011 C 
ATOM     10  C   UNL     1       9.963  25.137  63.024  1.00  0.00    -0.006 C 
ATOM     11  C   UNL     1      12.027  24.292  61.887  1.00  0.00    -0.027 C 
ATOM     12  C   UNL     1      11.020  21.382  61.236  1.00  0.00     0.008 C 
ATOM     13  C   UNL     1      11.454  19.453  63.498  1.00  0.00     0.008 C 
ATOM     14  C   UNL     1      10.542  26.163  64.056  1.00  0.00     0.017 C 
ATOM     15  C   UNL     1       9.577  25.858  61.629  1.00  0.00    -0.020 C 
ATOM     16  C   UNL     1      11.907  25.261  60.741  1.00  0.00     0.032 C 
ATOM     17  C   UNL     1      10.878  26.401  60.951  1.00  0.00     0.006 C 
ATOM     18  C   UNL     1       8.662  27.091  61.854  1.00  0.00     0.008 C 
ATOM     19  C   UNL     1       8.860  24.836  60.691  1.00  0.00     0.012 C 
ATOM     20  C   UNL     1      10.734  27.416  59.699  1.00  0.00    -0.025 C 
ATOM     21  C   UNL     1       8.186  27.694  60.545  1.00  0.00     0.005 C 
ATOM     22  C   UNL     1       9.332  28.205  59.623  1.00  0.00     0.003 C 
ATOM     23  C   UNL     1      11.026  26.712  58.336  1.00  0.00     0.010 C 
ATOM     24  C   UNL     1      11.890  28.455  59.904  1.00  0.00     0.012 C 
ATOM     25  C   UNL     1       8.771  28.516  58.156  1.00  0.00    -0.006 C 
ATOM     26  C   UNL     1      10.947  27.616  57.087  1.00  0.00     0.033 C 
ATOM     27  C   UNL     1       9.932  28.777  57.153  1.00  0.00     0.120 C 
ATOM     28  C   UNL     1       7.878  29.786  58.201  1.00  0.00     0.014 C 
ATOM     29  C   UNL     1       7.877  27.380  57.568  1.00  0.00     0.014 C 
ENDROOT
BRANCH   1  30
ATOM     30  C   UNL     1      11.396  23.495  65.857  1.00  0.00     0.048 C 
ATOM     31  O   UNL     1      12.631  23.282  65.715  1.00  0.00    -0.550 OA
ATOM     32  O   UNL     1      10.985  24.365  66.862  1.00  0.00    -0.550 OA
ENDBRANCH   1  30
BRANCH  27  33
ATOM     33  O   UNL     1      10.598  29.980  57.454  1.00  0.00    -0.393 OA
ATOM     34  H   UNL     1      11.292  29.783  58.136  1.00  0.00     0.210 HD
ENDBRANCH  27  33
TORSDOF 2
ENDMDL
MODEL 3
REMARK VINA RESULT:    -5.169      3.881      7.904
REMARK INTER + INTRA:          -5.840
REMARK INTER:                  -5.618
REMARK INTRA:                  -0.222
REMARK UNBOUND:                -0.218
REMARK SMILES C[C@@H]1[C@H]2C3=CC[C@H]4[C@@]5(C)CC[C@H](O)C(C)(C)[C@H]5CC[C@]4(C)[C@@]3(C)CC[C@@]2(C(=O)[O-])CC[C@@H]1C
REMARK SMILES IDX 26 1 30 2 25 3 3 4 31 5 24 6 4 7 2 8 32 9 22 10 5 11 1 12
REMARK SMILES IDX 33 13 23 14 20 15 6 16 7 17 19 18 21 19 8 20 18 21 17 22
REMARK SMILES IDX 10 23 9 24 14 25 11 26 12 27 15 28 16 29 27 30 28 31 29 32
REMARK SMILES IDX 13 33
REMARK H PARENT 13 34
REMARK Flexibility Score: inf
ROOT
ATOM      1  C   UNL     1       9.412  27.911  59.497  1.00  0.00     0.017 C 
ATOM      2  C   UNL     1       9.669  29.434  59.291  1.00  0.00     0.014 C 
ATOM      3  C   UNL     1       8.165  27.709  60.437  1.00  0.00     0.014 C 
ATOM      4  C   UNL     1      10.700  27.190  60.048  1.00  0.00     0.030 C 
ATOM      5  C   UNL     1      10.297  30.125  60.502  1.00  0.00     0.004 C 
ATOM      6  C   UNL     1       8.277  26.587  61.491  1.00  0.00     0.013 C 
ATOM      7  C   UNL     1      10.398  25.730  60.450  1.00  0.00    -0.063 C 
ATOM      8  C   UNL     1      11.417  27.969  61.210  1.00  0.00    -0.003 C 
ATOM      9  C   UNL     1      11.628  29.474  60.889  1.00  0.00    -0.011 C 
ATOM     10  C   UNL     1       9.030  25.307  61.015  1.00  0.00    -0.006 C 
ATOM     11  C   UNL     1      11.386  24.818  60.321  1.00  0.00    -0.027 C 
ATOM     12  C   UNL     1      12.765  27.333  61.618  1.00  0.00     0.008 C 
ATOM     13  C   UNL     1      12.722  29.750  59.836  1.00  0.00     0.008 C 
ATOM     14  C   UNL     1       8.198  24.680  59.846  1.00  0.00     0.017 C 
ATOM     15  C   UNL     1       9.244  24.249  62.220  1.00  0.00    -0.020 C 
ATOM     16  C   UNL     1      11.472  23.565  61.152  1.00  0.00     0.032 C 
ATOM     17  C   UNL     1      10.119  23.056  61.712  1.00  0.00     0.006 C 
ATOM     18  C   UNL     1       7.898  23.629  62.684  1.00  0.00     0.008 C 
ATOM     19  C   UNL     1       9.937  24.959  63.425  1.00  0.00     0.012 C 
ATOM     20  C   UNL     1      10.229  21.730  62.631  1.00  0.00    -0.025 C 
ATOM     21  C   UNL     1       8.070  22.738  63.900  1.00  0.00     0.005 C 
ATOM     22  C   UNL     1       9.018  21.523  63.673  1.00  0.00     0.003 C 
ATOM     23  C   UNL     1      11.598  21.644  63.377  1.00  0.00     0.010 C 
ATOM     24  C   UNL     1      10.222  20.543  61.605  1.00  0.00     0.012 C 
ATOM     25  C   UNL     1       9.394  20.840  65.072  1.00  0.00    -0.006 C 
ATOM     26  C   UNL     1      11.804  20.387  64.251  1.00  0.00     0.033 C 
ATOM     27  C   UNL     1      10.535  19.795  64.900  1.00  0.00     0.120 C 
ATOM     28  C   UNL     1       8.149  20.105  65.640  1.00  0.00     0.014 C 
ATOM     29  C   UNL     1       9.836  21.856  66.172  1.00  0.00     0.014 C 
ENDROOT
BRANCH   1  30
ATOM     30  C   UNL     1       9.078  27.377  58.102  1.00  0.00     0.048 C 
ATOM     31  O   UNL     1       7.876  27.274  57.736  1.00  0.00    -0.550 OA
ATOM     32  O   UNL     1      10.077  27.002  57.208  1.00  0.00    -0.550 OA
ENDBRANCH   1  30
BRANCH  27  33
ATOM     33  O   UNL     1      10.093  18.683  64.160  1.00  0.00    -0.393 OA
ATOM     34  H   UNL     1       9.464  18.167  64.729  1.00  0.00     0.210 HD
ENDBRANCH  27  33
TORSDOF 2
ENDMDL
MODEL 4
REMARK VINA RESULT:    -5.162      3.698      7.617
REMARK INTER + INTRA:          -5.833
REMARK INTER:                  -5.857
REMARK INTRA:                   0.024
REMARK UNBOUND:                -0.218
REMARK SMILES C[C@@H]1[C@H]2C3=CC[C@H]4[C@@]5(C)CC[C@H](O)C(C)(C)[C@H]5CC[C@]4(C)[C@@]3(C)CC[C@@]2(C(=O)[O-])CC[C@@H]1C
REMARK SMILES IDX 26 1 30 2 25 3 3 4 31 5 24 6 4 7 2 8 32 9 22 10 5 11 1 12
REMARK SMILES IDX 33 13 23 14 20 15 6 16 7 17 19 18 21 19 8 20 18 21 17 22
REMARK SMILES IDX 10 23 9 24 14 25 11 26 12 27 15 28 16 29 27 30 28 31 29 32
REMARK SMILES IDX 13 33
REMARK H PARENT 13 34
REMARK Flexibility Score: inf
ROOT
ATOM      1  C   UNL     1      10.250  29.107  59.522  1.00  0.00     0.017 C 
ATOM      2  C   UNL     1      10.578  30.124  58.388  1.00  0.00     0.014 C 
ATOM      3  C   UNL     1      11.516  28.909  60.436  1.00  0.00     0.014 C 
ATOM      4  C   UNL     1       9.724  27.747  58.925  1.00  0.00     0.030 C 
ATOM      5  C   UNL     1      11.460  29.550  57.278  1.00  0.00     0.004 C 
ATOM      6  C   UNL     1      11.807  27.465  60.899  1.00  0.00     0.013 C 
ATOM      7  C   UNL     1       9.592  26.667  60.020  1.00  0.00    -0.063 C 
ATOM      8  C   UNL     1      10.558  27.224  57.699  1.00  0.00    -0.003 C 
ATOM      9  C   UNL     1      10.816  28.321  56.631  1.00  0.00    -0.011 C 
ATOM     10  C   UNL     1      10.545  26.610  61.228  1.00  0.00    -0.006 C 
ATOM     11  C   UNL     1       8.623  25.735  59.882  1.00  0.00    -0.027 C 
ATOM     12  C   UNL     1       9.927  25.984  57.027  1.00  0.00     0.008 C 
ATOM     13  C   UNL     1       9.571  28.703  55.803  1.00  0.00     0.008 C 
ATOM     14  C   UNL     1       9.825  27.286  62.443  1.00  0.00     0.017 C 
ATOM     15  C   UNL     1      10.926  25.071  61.548  1.00  0.00    -0.020 C 
ATOM     16  C   UNL     1       8.705  24.357  60.483  1.00  0.00     0.032 C 
ATOM     17  C   UNL     1       9.613  24.241  61.735  1.00  0.00     0.006 C 
ATOM     18  C   UNL     1      11.711  24.940  62.881  1.00  0.00     0.008 C 
ATOM     19  C   UNL     1      11.778  24.486  60.378  1.00  0.00     0.012 C 
ATOM     20  C   UNL     1       9.720  22.750  62.352  1.00  0.00    -0.025 C 
ATOM     21  C   UNL     1      12.189  23.521  63.125  1.00  0.00     0.005 C 
ATOM     22  C   UNL     1      11.044  22.470  63.226  1.00  0.00     0.003 C 
ATOM     23  C   UNL     1       9.558  21.649  61.257  1.00  0.00     0.010 C 
ATOM     24  C   UNL     1       8.463  22.622  63.281  1.00  0.00     0.012 C 
ATOM     25  C   UNL     1      11.640  20.986  63.153  1.00  0.00    -0.006 C 
ATOM     26  C   UNL     1       9.610  20.191  61.764  1.00  0.00     0.033 C 
ATOM     27  C   UNL     1      10.508  19.931  62.992  1.00  0.00     0.120 C 
ATOM     28  C   UNL     1      12.408  20.672  64.467  1.00  0.00     0.014 C 
ATOM     29  C   UNL     1      12.664  20.772  61.994  1.00  0.00     0.014 C 
ENDROOT
BRANCH   1  30
ATOM     30  C   UNL     1       9.141  29.775  60.340  1.00  0.00     0.048 C 
ATOM     31  O   UNL     1       9.361  30.125  61.531  1.00  0.00    -0.550 OA
ATOM     32  O   UNL     1       7.883  30.018  59.798  1.00  0.00    -0.550 OA
ENDBRANCH   1  30
BRANCH  27  33
ATOM     33  O   UNL     1       9.720  19.854  64.155  1.00  0.00    -0.393 OA
ATOM     34  H   UNL     1       9.161  20.674  64.201  1.00  0.00     0.210 HD
ENDBRANCH  27  33
TORSDOF 2
ENDMDL
MODEL 5
REMARK VINA RESULT:    -5.034      3.849      5.186
REMARK INTER + INTRA:          -5.694
REMARK INTER:                  -5.483
REMARK INTRA:                  -0.211
REMARK UNBOUND:                -0.218
REMARK SMILES C[C@@H]1[C@H]2C3=CC[C@H]4[C@@]5(C)CC[C@H](O)C(C)(C)[C@H]5CC[C@]4(C)[C@@]3(C)CC[C@@]2(C(=O)[O-])CC[C@@H]1C
REMARK SMILES IDX 26 1 30 2 25 3 3 4 31 5 24 6 4 7 2 8 32 9 22 10 5 11 1 12
REMARK SMILES IDX 33 13 23 14 20 15 6 16 7 17 19 18 21 19 8 20 18 21 17 22
REMARK SMILES IDX 10 23 9 24 14 25 11 26 12 27 15 28 16 29 27 30 28 31 29 32
REMARK SMILES IDX 13 33
REMARK H PARENT 13 34
REMARK Flexibility Score: inf
ROOT
ATOM      1  C   UNL     1      11.319  21.480  64.142  1.00  0.00     0.017 C 
ATOM      2  C   UNL     1      11.046  20.714  65.471  1.00  0.00     0.014 C 
ATOM      3  C   UNL     1      12.522  22.476  64.345  1.00  0.00     0.014 C 
ATOM      4  C   UNL     1      10.018  22.208  63.632  1.00  0.00     0.030 C 
ATOM      5  C   UNL     1      10.348  21.556  66.539  1.00  0.00     0.004 C 
ATOM      6  C   UNL     1      12.377  23.866  63.688  1.00  0.00     0.013 C 
ATOM      7  C   UNL     1      10.324  23.134  62.436  1.00  0.00    -0.063 C 
ATOM      8  C   UNL     1       9.231  22.969  64.761  1.00  0.00    -0.003 C 
ATOM      9  C   UNL     1       9.011  22.105  66.033  1.00  0.00    -0.011 C 
ATOM     10  C   UNL     1      11.670  23.870  62.298  1.00  0.00    -0.006 C 
ATOM     11  C   UNL     1       9.360  23.314  61.507  1.00  0.00    -0.027 C 
ATOM     12  C   UNL     1       7.876  23.530  64.275  1.00  0.00     0.008 C 
ATOM     13  C   UNL     1       7.965  20.982  65.862  1.00  0.00     0.008 C 
ATOM     14  C   UNL     1      12.569  23.050  61.313  1.00  0.00     0.017 C 
ATOM     15  C   UNL     1      11.415  25.371  61.755  1.00  0.00    -0.020 C 
ATOM     16  C   UNL     1       9.254  24.546  60.649  1.00  0.00     0.032 C 
ATOM     17  C   UNL     1      10.586  25.309  60.429  1.00  0.00     0.006 C 
ATOM     18  C   UNL     1      12.747  26.085  61.396  1.00  0.00     0.008 C 
ATOM     19  C   UNL     1      10.652  26.199  62.836  1.00  0.00     0.012 C 
ATOM     20  C   UNL     1      10.454  26.649  59.534  1.00  0.00    -0.025 C 
ATOM     21  C   UNL     1      12.530  27.537  61.013  1.00  0.00     0.005 C 
ATOM     22  C   UNL     1      11.616  27.740  59.769  1.00  0.00     0.003 C 
ATOM     23  C   UNL     1       9.052  27.319  59.683  1.00  0.00     0.010 C 
ATOM     24  C   UNL     1      10.532  26.137  58.053  1.00  0.00     0.012 C 
ATOM     25  C   UNL     1      11.183  29.276  59.639  1.00  0.00    -0.006 C 
ATOM     26  C   UNL     1       8.824  28.588  58.833  1.00  0.00     0.033 C 
ATOM     27  C   UNL     1      10.070  29.459  58.566  1.00  0.00     0.120 C 
ATOM     28  C   UNL     1      12.411  30.125  59.209  1.00  0.00     0.014 C 
ATOM     29  C   UNL     1      10.670  29.903  60.973  1.00  0.00     0.014 C 
ENDROOT
BRANCH   1  30
ATOM     30  C   UNL     1      11.730  20.397  63.141  1.00  0.00     0.048 C 
ATOM     31  O   UNL     1      10.847  19.746  62.519  1.00  0.00    -0.550 OA
ATOM     32  O   UNL     1      13.067  20.109  62.888  1.00  0.00    -0.550 OA
ENDBRANCH   1  30
BRANCH  27  33
ATOM     33  O   UNL     1      10.567  29.203  57.275  1.00  0.00    -0.393 OA
ATOM     34  H   UNL     1      10.913  28.271  57.259  1.00  0.00     0.210 HD
ENDBRANCH  27  33
TORSDOF 2
ENDMDL
MODEL 6
REMARK VINA RESULT:    -4.958      5.016      9.830
REMARK INTER + INTRA:          -5.611
REMARK INTER:                  -5.376
REMARK INTRA:                  -0.235
REMARK UNBOUND:                -0.218
REMARK SMILES C[C@@H]1[C@H]2C3=CC[C@H]4[C@@]5(C)CC[C@H](O)C(C)(C)[C@H]5CC[C@]4(C)[C@@]3(C)CC[C@@]2(C(=O)[O-])CC[C@@H]1C
REMARK SMILES IDX 26 1 30 2 25 3 3 4 31 5 24 6 4 7 2 8 32 9 22 10 5 11 1 12
REMARK SMILES IDX 33 13 23 14 20 15 6 16 7 17 19 18 21 19 8 20 18 21 17 22
REMARK SMILES IDX 10 23 9 24 14 25 11 26 12 27 15 28 16 29 27 30 28 31 29 32
REMARK SMILES IDX 13 33
REMARK H PARENT 13 34
REMARK Flexibility Score: inf
ROOT
ATOM      1  C   UNL     1      10.293  23.415  61.496  1.00  0.00     0.017 C 
ATOM      2  C   UNL     1      11.190  23.675  60.249  1.00  0.00     0.014 C 
ATOM      3  C   UNL     1       9.824  24.789  62.104  1.00  0.00     0.014 C 
ATOM      4  C   UNL     1      11.041  22.517  62.553  1.00  0.00     0.030 C 
ATOM      5  C   UNL     1      12.599  24.162  60.590  1.00  0.00     0.004 C 
ATOM      6  C   UNL     1       9.821  24.891  63.645  1.00  0.00     0.013 C 
ATOM      7  C   UNL     1      10.249  22.425  63.874  1.00  0.00    -0.063 C 
ATOM      8  C   UNL     1      12.534  22.943  62.807  1.00  0.00    -0.003 C 
ATOM      9  C   UNL     1      13.331  23.165  61.493  1.00  0.00    -0.011 C 
ATOM     10  C   UNL     1       9.388  23.592  64.392  1.00  0.00    -0.006 C 
ATOM     11  C   UNL     1      10.348  21.288  64.598  1.00  0.00    -0.027 C 
ATOM     12  C   UNL     1      13.296  21.951  63.715  1.00  0.00     0.008 C 
ATOM     13  C   UNL     1      13.680  21.865  60.737  1.00  0.00     0.008 C 
ATOM     14  C   UNL     1       7.899  23.303  64.004  1.00  0.00     0.017 C 
ATOM     15  C   UNL     1       9.565  23.730  65.993  1.00  0.00    -0.020 C 
ATOM     16  C   UNL     1      10.144  21.234  66.089  1.00  0.00     0.032 C 
ATOM     17  C   UNL     1       9.245  22.356  66.669  1.00  0.00     0.006 C 
ATOM     18  C   UNL     1       8.562  24.750  66.596  1.00  0.00     0.008 C 
ATOM     19  C   UNL     1      11.025  24.172  66.324  1.00  0.00     0.012 C 
ATOM     20  C   UNL     1       9.061  22.306  68.275  1.00  0.00    -0.025 C 
ATOM     21  C   UNL     1       8.807  24.986  68.075  1.00  0.00     0.005 C 
ATOM     22  C   UNL     1       8.666  23.711  68.957  1.00  0.00     0.003 C 
ATOM     23  C   UNL     1      10.309  21.696  68.990  1.00  0.00     0.010 C 
ATOM     24  C   UNL     1       7.893  21.286  68.503  1.00  0.00     0.012 C 
ATOM     25  C   UNL     1       9.253  23.978  70.422  1.00  0.00    -0.006 C 
ATOM     26  C   UNL     1      10.205  21.577  70.527  1.00  0.00     0.033 C 
ATOM     27  C   UNL     1       9.361  22.657  71.236  1.00  0.00     0.120 C 
ATOM     28  C   UNL     1       8.307  24.943  71.191  1.00  0.00     0.014 C 
ATOM     29  C   UNL     1      10.658  24.659  70.425  1.00  0.00     0.014 C 
ENDROOT
BRANCH   1  30
ATOM     30  C   UNL     1       9.073  22.665  60.954  1.00  0.00     0.048 C 
ATOM     31  O   UNL     1       8.096  23.308  60.484  1.00  0.00    -0.550 OA
ATOM     32  O   UNL     1       9.013  21.276  60.957  1.00  0.00    -0.550 OA
ENDBRANCH   1  30
BRANCH  27  33
ATOM     33  O   UNL     1       8.086  22.146  71.540  1.00  0.00    -0.393 OA
ATOM     34  H   UNL     1       7.668  21.841  70.692  1.00  0.00     0.210 HD
ENDBRANCH  27  33
TORSDOF 2
ENDMDL
MODEL 7
REMARK VINA RESULT:    -4.802      3.606      8.754
REMARK INTER + INTRA:          -5.441
REMARK INTER:                  -5.202
REMARK INTRA:                  -0.239
REMARK UNBOUND:                -0.218
REMARK SMILES C[C@@H]1[C@H]2C3=CC[C@H]4[C@@]5(C)CC[C@H](O)C(C)(C)[C@H]5CC[C@]4(C)[C@@]3(C)CC[C@@]2(C(=O)[O-])CC[C@@H]1C
REMARK SMILES IDX 26 1 30 2 25 3 3 4 31 5 24 6 4 7 2 8 32 9 22 10 5 11 1 12
REMARK SMILES IDX 33 13 23 14 20 15 6 16 7 17 19 18 21 19 8 20 18 21 17 22
REMARK SMILES IDX 10 23 9 24 14 25 11 26 12 27 15 28 16 29 27 30 28 31 29 32
REMARK SMILES IDX 13 33
REMARK H PARENT 13 34
REMARK Flexibility Score: inf
ROOT
ATOM      1  C   UNL     1      11.490  24.551  61.170  1.00  0.00     0.017 C 
ATOM      2  C   UNL     1      12.431  24.084  60.020  1.00  0.00     0.014 C 
ATOM      3  C   UNL     1      11.845  26.031  61.574  1.00  0.00     0.014 C 
ATOM      4  C   UNL     1      11.561  23.563  62.395  1.00  0.00     0.030 C 
ATOM      5  C   UNL     1      13.855  23.764  60.476  1.00  0.00     0.004 C 
ATOM      6  C   UNL     1      11.833  26.350  63.085  1.00  0.00     0.013 C 
ATOM      7  C   UNL     1      10.797  24.122  63.614  1.00  0.00    -0.063 C 
ATOM      8  C   UNL     1      13.024  23.134  62.782  1.00  0.00    -0.003 C 
ATOM      9  C   UNL     1      13.865  22.680  61.558  1.00  0.00    -0.011 C 
ATOM     10  C   UNL     1      10.716  25.632  63.903  1.00  0.00    -0.006 C 
ATOM     11  C   UNL     1      10.212  23.243  64.456  1.00  0.00    -0.027 C 
ATOM     12  C   UNL     1      13.061  22.038  63.871  1.00  0.00     0.008 C 
ATOM     13  C   UNL     1      13.459  21.304  60.986  1.00  0.00     0.008 C 
ATOM     14  C   UNL     1       9.338  26.152  63.370  1.00  0.00     0.017 C 
ATOM     15  C   UNL     1      10.870  25.891  65.491  1.00  0.00    -0.020 C 
ATOM     16  C   UNL     1       9.949  23.536  65.910  1.00  0.00     0.032 C 
ATOM     17  C   UNL     1       9.807  25.039  66.261  1.00  0.00     0.006 C 
ATOM     18  C   UNL     1      10.585  27.372  65.862  1.00  0.00     0.008 C 
ATOM     19  C   UNL     1      12.312  25.505  65.949  1.00  0.00     0.012 C 
ATOM     20  C   UNL     1       9.559  25.343  67.829  1.00  0.00    -0.025 C 
ATOM     21  C   UNL     1      10.857  27.656  67.328  1.00  0.00     0.005 C 
ATOM     22  C   UNL     1       9.988  26.818  68.312  1.00  0.00     0.003 C 
ATOM     23  C   UNL     1      10.219  24.266  68.748  1.00  0.00     0.010 C 
ATOM     24  C   UNL     1       8.011  25.179  68.018  1.00  0.00     0.012 C 
ATOM     25  C   UNL     1      10.561  26.938  69.803  1.00  0.00    -0.006 C 
ATOM     26  C   UNL     1      10.000  24.457  70.265  1.00  0.00     0.033 C 
ATOM     27  C   UNL     1       9.876  25.916  70.754  1.00  0.00     0.120 C 
ATOM     28  C   UNL     1      10.285  28.366  70.349  1.00  0.00     0.014 C 
ATOM     29  C   UNL     1      12.105  26.728  69.905  1.00  0.00     0.014 C 
ENDROOT
BRANCH   1  30
ATOM     30  C   UNL     1      10.084  24.521  60.565  1.00  0.00     0.048 C 
ATOM     31  O   UNL     1       9.635  25.535  59.962  1.00  0.00    -0.550 OA
ATOM     32  O   UNL     1       9.278  23.391  60.653  1.00  0.00    -0.550 OA
ENDBRANCH   1  30
BRANCH  27  33
ATOM     33  O   UNL     1       8.521  26.241  70.953  1.00  0.00    -0.393 OA
ATOM     34  H   UNL     1       8.297  26.053  71.902  1.00  0.00     0.210 HD
ENDBRANCH  27  33
TORSDOF 2
ENDMDL
MODEL 8
REMARK VINA RESULT:    -4.513      4.124      6.378
REMARK INTER + INTRA:          -5.127
REMARK INTER:                  -4.888
REMARK INTRA:                  -0.239
REMARK UNBOUND:                -0.218
REMARK SMILES C[C@@H]1[C@H]2C3=CC[C@H]4[C@@]5(C)CC[C@H](O)C(C)(C)[C@H]5CC[C@]4(C)[C@@]3(C)CC[C@@]2(C(=O)[O-])CC[C@@H]1C
REMARK SMILES IDX 26 1 30 2 25 3 3 4 31 5 24 6 4 7 2 8 32 9 22 10 5 11 1 12
REMARK SMILES IDX 33 13 23 14 20 15 6 16 7 17 19 18 21 19 8 20 18 21 17 22
REMARK SMILES IDX 10 23 9 24 14 25 11 26 12 27 15 28 16 29 27 30 28 31 29 32
REMARK SMILES IDX 13 33
REMARK H PARENT 13 34
REMARK Flexibility Score: inf
ROOT
ATOM      1  C   UNL     1       9.670  21.143  64.197  1.00  0.00     0.017 C 
ATOM      2  C   UNL     1      10.095  19.679  64.516  1.00  0.00     0.014 C 
ATOM      3  C   UNL     1       8.488  21.135  63.157  1.00  0.00     0.014 C 
ATOM      4  C   UNL     1      10.900  21.993  63.699  1.00  0.00     0.030 C 
ATOM      5  C   UNL     1      10.900  19.011  63.400  1.00  0.00     0.004 C 
ATOM      6  C   UNL     1       8.546  22.206  62.046  1.00  0.00     0.013 C 
ATOM      7  C   UNL     1      10.455  23.379  63.185  1.00  0.00    -0.063 C 
ATOM      8  C   UNL     1      11.800  21.252  62.644  1.00  0.00    -0.003 C 
ATOM      9  C   UNL     1      12.167  19.805  63.072  1.00  0.00    -0.011 C 
ATOM     10  C   UNL     1       9.095  23.595  62.495  1.00  0.00    -0.006 C 
ATOM     11  C   UNL     1      11.309  24.416  63.330  1.00  0.00    -0.027 C 
ATOM     12  C   UNL     1      13.088  22.033  62.298  1.00  0.00     0.008 C 
ATOM     13  C   UNL     1      13.198  19.727  64.219  1.00  0.00     0.008 C 
ATOM     14  C   UNL     1       8.100  24.170  63.559  1.00  0.00     0.017 C 
ATOM     15  C   UNL     1       9.274  24.606  61.246  1.00  0.00    -0.020 C 
ATOM     16  C   UNL     1      11.307  25.623  62.431  1.00  0.00     0.032 C 
ATOM     17  C   UNL     1       9.952  25.926  61.741  1.00  0.00     0.006 C 
ATOM     18  C   UNL     1       7.905  25.024  60.646  1.00  0.00     0.008 C 
ATOM     19  C   UNL     1      10.145  23.928  60.142  1.00  0.00     0.012 C 
ATOM     20  C   UNL     1       9.972  27.205  60.752  1.00  0.00    -0.025 C 
ATOM     21  C   UNL     1       8.064  25.865  59.392  1.00  0.00     0.005 C 
ATOM     22  C   UNL     1       8.834  27.200  59.612  1.00  0.00     0.003 C 
ATOM     23  C   UNL     1      11.376  27.426  60.105  1.00  0.00     0.010 C 
ATOM     24  C   UNL     1       9.736  28.433  61.699  1.00  0.00     0.012 C 
ATOM     25  C   UNL     1       9.235  27.851  58.206  1.00  0.00    -0.006 C 
ATOM     26  C   UNL     1      11.496  28.650  59.172  1.00  0.00     0.033 C 
ATOM     27  C   UNL     1      10.220  29.041  58.396  1.00  0.00     0.120 C 
ATOM     28  C   UNL     1       7.959  28.390  57.502  1.00  0.00     0.014 C 
ATOM     29  C   UNL     1       9.887  26.844  57.207  1.00  0.00     0.014 C 
ENDROOT
BRANCH   1  30
ATOM     30  C   UNL     1       9.161  21.704  65.528  1.00  0.00     0.048 C 
ATOM     31  O   UNL     1       7.946  21.581  65.840  1.00  0.00    -0.550 OA
ATOM     32  O   UNL     1      10.013  22.347  66.420  1.00  0.00    -0.550 OA
ENDBRANCH   1  30
BRANCH  27  33
ATOM     33  O   UNL     1       9.586  30.125  59.031  1.00  0.00    -0.393 OA
ATOM     34  H   UNL     1       9.527  30.870  58.377  1.00  0.00     0.210 HD
ENDBRANCH  27  33
TORSDOF 2
ENDMDL
MODEL 9
REMARK VINA RESULT:    -4.388      3.958      8.231
REMARK INTER + INTRA:          -4.991
REMARK INTER:                  -4.762
REMARK INTRA:                  -0.229
REMARK UNBOUND:                -0.218
REMARK SMILES C[C@@H]1[C@H]2C3=CC[C@H]4[C@@]5(C)CC[C@H](O)C(C)(C)[C@H]5CC[C@]4(C)[C@@]3(C)CC[C@@]2(C(=O)[O-])CC[C@@H]1C
REMARK SMILES IDX 26 1 30 2 25 3 3 4 31 5 24 6 4 7 2 8 32 9 22 10 5 11 1 12
REMARK SMILES IDX 33 13 23 14 20 15 6 16 7 17 19 18 21 19 8 20 18 21 17 22
REMARK SMILES IDX 10 23 9 24 14 25 11 26 12 27 15 28 16 29 27 30 28 31 29 32
REMARK SMILES IDX 13 33
REMARK H PARENT 13 34
REMARK Flexibility Score: inf
ROOT
ATOM      1  C   UNL     1      12.359  23.064  61.830  1.00  0.00     0.017 C 
ATOM      2  C   UNL     1      12.445  21.656  61.167  1.00  0.00     0.014 C 
ATOM      3  C   UNL     1      13.508  23.215  62.895  1.00  0.00     0.014 C 
ATOM      4  C   UNL     1      10.932  23.310  62.450  1.00  0.00     0.030 C 
ATOM      5  C   UNL     1      11.953  20.519  62.063  1.00  0.00     0.004 C 
ATOM      6  C   UNL     1      13.128  23.918  64.217  1.00  0.00     0.013 C 
ATOM      7  C   UNL     1      10.898  24.607  63.285  1.00  0.00    -0.063 C 
ATOM      8  C   UNL     1      10.372  22.087  63.265  1.00  0.00    -0.003 C 
ATOM      9  C   UNL     1      10.503  20.741  62.502  1.00  0.00    -0.011 C 
ATOM     10  C   UNL     1      12.126  25.104  64.069  1.00  0.00    -0.006 C 
ATOM     11  C   UNL     1       9.738  25.299  63.339  1.00  0.00    -0.027 C 
ATOM     12  C   UNL     1       8.908  22.286  63.718  1.00  0.00     0.008 C 
ATOM     13  C   UNL     1       9.522  20.585  61.320  1.00  0.00     0.008 C 
ATOM     14  C   UNL     1      12.831  26.210  63.213  1.00  0.00     0.017 C 
ATOM     15  C   UNL     1      11.657  25.680  65.506  1.00  0.00    -0.020 C 
ATOM     16  C   UNL     1       9.361  26.196  64.488  1.00  0.00     0.032 C 
ATOM     17  C   UNL     1      10.556  26.771  65.292  1.00  0.00     0.006 C 
ATOM     18  C   UNL     1      12.823  26.387  66.249  1.00  0.00     0.008 C 
ATOM     19  C   UNL     1      11.105  24.514  66.384  1.00  0.00     0.012 C 
ATOM     20  C   UNL     1      10.137  27.705  66.544  1.00  0.00    -0.025 C 
ATOM     21  C   UNL     1      12.430  26.812  67.652  1.00  0.00     0.005 C 
ATOM     22  C   UNL     1      11.246  27.823  67.705  1.00  0.00     0.003 C 
ATOM     23  C   UNL     1       8.763  27.284  67.157  1.00  0.00     0.010 C 
ATOM     24  C   UNL     1       9.910  29.123  65.913  1.00  0.00     0.012 C 
ATOM     25  C   UNL     1      10.696  27.959  69.202  1.00  0.00    -0.006 C 
ATOM     26  C   UNL     1       8.266  28.147  68.337  1.00  0.00     0.033 C 
ATOM     27  C   UNL     1       9.360  28.756  69.240  1.00  0.00     0.120 C 
ATOM     28  C   UNL     1      11.737  28.720  70.069  1.00  0.00     0.014 C 
ATOM     29  C   UNL     1      10.458  26.590  69.914  1.00  0.00     0.014 C 
ENDROOT
BRANCH   1  30
ATOM     30  C   UNL     1      12.603  24.052  60.687  1.00  0.00     0.048 C 
ATOM     31  O   UNL     1      13.769  24.476  60.457  1.00  0.00    -0.550 OA
ATOM     32  O   UNL     1      11.564  24.498  59.876  1.00  0.00    -0.550 OA
ENDBRANCH   1  30
BRANCH  27  33
ATOM     33  O   UNL     1       9.567  30.105  68.900  1.00  0.00    -0.393 OA
ATOM     34  H   UNL     1       8.955  30.659  69.453  1.00  0.00     0.210 HD
ENDBRANCH  27  33
TORSDOF 2
ENDMDL
