MODEL 1
REMARK VINA RESULT:    -7.359      0.000      0.000
REMARK INTER + INTRA:          -9.216
REMARK INTER:                  -8.865
REMARK INTRA:                  -0.351
REMARK UNBOUND:                -0.351
REMARK SMILES O=c1c(O)c(-c2ccc(O)cc2O)oc2cc(O)cc(O)c12
REMARK SMILES IDX 5 1 3 2 2 3 1 4 22 5 20 6 19 7 17 8 16 9 15 10 14 11 6 12
REMARK SMILES IDX 8 13 7 14 9 15 11 16 12 17 10 18 13 20 4 22 21 24 18 26
REMARK H PARENT 10 19 13 21 4 23 21 25 18 27
REMARK Flexibility Score: inf
ROOT
ATOM      1  C   UNL     1     140.610 -18.130  78.686  1.00  0.00     0.184 A 
ATOM      2  C   UNL     1     139.248 -17.955  78.380  1.00  0.00     0.208 A 
ATOM      3  C   UNL     1     138.578 -16.833  78.891  1.00  0.00     0.238 A 
ATOM      4  O   UNL     1     137.354 -16.671  78.633  1.00  0.00    -0.285 OA
ATOM      5  C   UNL     1     139.284 -15.900  79.680  1.00  0.00     0.111 A 
ATOM      6  C   UNL     1     138.684 -14.742  80.229  1.00  0.00     0.134 A 
ATOM      7  C   UNL     1     139.455 -13.855  80.995  1.00  0.00     0.093 A 
ATOM      8  C   UNL     1     140.814 -14.106  81.221  1.00  0.00     0.123 A 
ATOM      9  C   UNL     1     141.409 -15.247  80.681  1.00  0.00     0.094 A 
ATOM     10  C   UNL     1     140.658 -16.143  79.916  1.00  0.00     0.146 A 
ATOM     11  O   UNL     1     141.249 -17.223  79.418  1.00  0.00    -0.451 OA
ENDROOT
BRANCH   1  12
ATOM     12  C   UNL     1     141.373 -19.295  78.190  1.00  0.00     0.063 A 
ATOM     13  C   UNL     1     143.009 -20.195  76.635  1.00  0.00     0.047 A 
ATOM     14  C   UNL     1     142.269 -19.117  77.124  1.00  0.00     0.020 A 
ATOM     15  C   UNL     1     142.875 -21.461  77.212  1.00  0.00     0.119 A 
ATOM     16  C   UNL     1     142.002 -21.644  78.292  1.00  0.00     0.093 A 
ATOM     17  C   UNL     1     141.259 -20.565  78.793  1.00  0.00     0.130 A 
BRANCH  15  18
ATOM     18  O   UNL     1     143.618 -22.528  76.710  1.00  0.00    -0.508 OA
ATOM     19  H   UNL     1     143.889 -23.308  77.298  1.00  0.00     0.293 HD
ENDBRANCH  15  18
BRANCH  17  20
ATOM     20  O   UNL     1     140.429 -20.749  79.899  1.00  0.00    -0.507 OA
ATOM     21  H   UNL     1     140.379 -21.637  80.385  1.00  0.00     0.293 HD
ENDBRANCH  17  20
ENDBRANCH   1  12
BRANCH   2  22
ATOM     22  O   UNL     1     138.590 -18.874  77.560  1.00  0.00    -0.502 OA
ATOM     23  H   UNL     1     139.088 -19.550  76.993  1.00  0.00     0.293 HD
ENDBRANCH   2  22
BRANCH   6  24
ATOM     24  O   UNL     1     137.332 -14.465  80.021  1.00  0.00    -0.507 OA
ATOM     25  H   UNL     1     136.760 -14.031  80.736  1.00  0.00     0.293 HD
ENDBRANCH   6  24
BRANCH   8  26
ATOM     26  O   UNL     1     141.582 -13.225  81.981  1.00  0.00    -0.508 OA
ATOM     27  H   UNL     1     141.455 -12.221  81.916  1.00  0.00     0.293 HD
ENDBRANCH   8  26
TORSDOF 6
ENDMDL
MODEL 2
REMARK VINA RESULT:    -6.042      4.558      9.786
REMARK INTER + INTRA:          -7.630
REMARK INTER:                  -7.756
REMARK INTRA:                   0.126
REMARK UNBOUND:                -0.351
REMARK SMILES O=c1c(O)c(-c2ccc(O)cc2O)oc2cc(O)cc(O)c12
REMARK SMILES IDX 5 1 3 2 2 3 1 4 22 5 20 6 19 7 17 8 16 9 15 10 14 11 6 12
REMARK SMILES IDX 8 13 7 14 9 15 11 16 12 17 10 18 13 20 4 22 21 24 18 26
REMARK H PARENT 10 19 13 21 4 23 21 25 18 27
REMARK Flexibility Score: inf
ROOT
ATOM      1  C   UNL     1     145.472 -21.958  76.923  1.00  0.00     0.184 A 
ATOM      2  C   UNL     1     146.186 -22.673  77.902  1.00  0.00     0.208 A 
ATOM      3  C   UNL     1     147.474 -23.138  77.596  1.00  0.00     0.238 A 
ATOM      4  O   UNL     1     148.120 -23.791  78.461  1.00  0.00    -0.285 OA
ATOM      5  C   UNL     1     148.031 -22.863  76.329  1.00  0.00     0.111 A 
ATOM      6  C   UNL     1     149.324 -23.291  75.943  1.00  0.00     0.134 A 
ATOM      7  C   UNL     1     149.811 -22.970  74.668  1.00  0.00     0.093 A 
ATOM      8  C   UNL     1     149.031 -22.228  73.774  1.00  0.00     0.123 A 
ATOM      9  C   UNL     1     147.756 -21.803  74.150  1.00  0.00     0.094 A 
ATOM     10  C   UNL     1     147.251 -22.115  75.415  1.00  0.00     0.146 A 
ATOM     11  O   UNL     1     146.033 -21.702  75.746  1.00  0.00    -0.451 OA
ENDROOT
BRANCH   1  12
ATOM     12  C   UNL     1     144.107 -21.450  77.175  1.00  0.00     0.063 A 
ATOM     13  C   UNL     1     141.974 -21.705  78.313  1.00  0.00     0.047 A 
ATOM     14  C   UNL     1     143.268 -22.160  78.049  1.00  0.00     0.020 A 
ATOM     15  C   UNL     1     141.508 -20.528  77.721  1.00  0.00     0.119 A 
ATOM     16  C   UNL     1     142.346 -19.800  76.867  1.00  0.00     0.093 A 
ATOM     17  C   UNL     1     143.648 -20.247  76.600  1.00  0.00     0.130 A 
BRANCH  15  18
ATOM     18  O   UNL     1     140.213 -20.089  77.992  1.00  0.00    -0.508 OA
ATOM     19  H   UNL     1     139.658 -20.501  78.733  1.00  0.00     0.293 HD
ENDBRANCH  15  18
BRANCH  17  20
ATOM     20  O   UNL     1     144.489 -19.488  75.787  1.00  0.00    -0.507 OA
ATOM     21  H   UNL     1     144.456 -18.474  75.786  1.00  0.00     0.293 HD
ENDBRANCH  17  20
ENDBRANCH   1  12
BRANCH   2  22
ATOM     22  O   UNL     1     145.624 -22.890  79.162  1.00  0.00    -0.502 OA
ATOM     23  H   UNL     1     145.674 -23.787  79.632  1.00  0.00     0.293 HD
ENDBRANCH   2  22
BRANCH   6  24
ATOM     24  O   UNL     1     150.125 -24.032  76.814  1.00  0.00    -0.507 OA
ATOM     25  H   UNL     1     151.136 -23.993  76.770  1.00  0.00     0.293 HD
ENDBRANCH   6  24
BRANCH   8  26
ATOM     26  O   UNL     1     149.515 -21.906  72.506  1.00  0.00    -0.508 OA
ATOM     27  H   UNL     1     150.498 -22.000  72.276  1.00  0.00     0.293 HD
ENDBRANCH   8  26
TORSDOF 6
ENDMDL
MODEL 3
REMARK VINA RESULT:    -5.935      0.797      1.459
REMARK INTER + INTRA:          -7.500
REMARK INTER:                  -7.089
REMARK INTRA:                  -0.411
REMARK UNBOUND:                -0.351
REMARK SMILES O=c1c(O)c(-c2ccc(O)cc2O)oc2cc(O)cc(O)c12
REMARK SMILES IDX 5 1 3 2 2 3 1 4 22 5 20 6 19 7 17 8 16 9 15 10 14 11 6 12
REMARK SMILES IDX 8 13 7 14 9 15 11 16 12 17 10 18 13 20 4 22 21 24 18 26
REMARK H PARENT 10 19 13 21 4 23 21 25 18 27
REMARK Flexibility Score: inf
ROOT
ATOM      1  C   UNL     1     140.613 -18.286  78.639  1.00  0.00     0.184 A 
ATOM      2  C   UNL     1     139.253 -18.113  78.325  1.00  0.00     0.208 A 
ATOM      3  C   UNL     1     138.581 -16.986  78.821  1.00  0.00     0.238 A 
ATOM      4  O   UNL     1     137.358 -16.825  78.557  1.00  0.00    -0.285 OA
ATOM      5  C   UNL     1     139.283 -16.045  79.604  1.00  0.00     0.111 A 
ATOM      6  C   UNL     1     138.682 -14.881  80.139  1.00  0.00     0.134 A 
ATOM      7  C   UNL     1     139.451 -13.987  80.900  1.00  0.00     0.093 A 
ATOM      8  C   UNL     1     140.808 -14.237  81.134  1.00  0.00     0.123 A 
ATOM      9  C   UNL     1     141.405 -15.383  80.608  1.00  0.00     0.094 A 
ATOM     10  C   UNL     1     140.656 -16.286  79.849  1.00  0.00     0.146 A 
ATOM     11  O   UNL     1     141.249 -17.372  79.365  1.00  0.00    -0.451 OA
ENDROOT
BRANCH   1  12
ATOM     12  C   UNL     1     141.377 -19.456  78.158  1.00  0.00     0.063 A 
ATOM     13  C   UNL     1     142.104 -21.748  78.508  1.00  0.00     0.047 A 
ATOM     14  C   UNL     1     141.396 -20.624  78.937  1.00  0.00     0.020 A 
ATOM     15  C   UNL     1     142.789 -21.727  77.291  1.00  0.00     0.119 A 
ATOM     16  C   UNL     1     142.757 -20.575  76.495  1.00  0.00     0.093 A 
ATOM     17  C   UNL     1     142.044 -19.443  76.915  1.00  0.00     0.130 A 
BRANCH  15  18
ATOM     18  O   UNL     1     143.494 -22.857  76.879  1.00  0.00    -0.508 OA
ATOM     19  H   UNL     1     144.489 -22.951  77.047  1.00  0.00     0.293 HD
ENDBRANCH  15  18
BRANCH  17  20
ATOM     20  O   UNL     1     141.980 -18.319  76.091  1.00  0.00    -0.507 OA
ATOM     21  H   UNL     1     141.606 -17.437  76.423  1.00  0.00     0.293 HD
ENDBRANCH  17  20
ENDBRANCH   1  12
BRANCH   2  22
ATOM     22  O   UNL     1     138.597 -19.039  77.510  1.00  0.00    -0.502 OA
ATOM     23  H   UNL     1     137.589 -19.143  77.509  1.00  0.00     0.293 HD
ENDBRANCH   2  22
BRANCH   6  24
ATOM     24  O   UNL     1     137.331 -14.606  79.922  1.00  0.00    -0.507 OA
ATOM     25  H   UNL     1     137.032 -13.862  79.302  1.00  0.00     0.293 HD
ENDBRANCH   6  24
BRANCH   8  26
ATOM     26  O   UNL     1     141.573 -13.349  81.889  1.00  0.00    -0.508 OA
ATOM     27  H   UNL     1     142.131 -13.666  82.674  1.00  0.00     0.293 HD
ENDBRANCH   8  26
TORSDOF 6
ENDMDL
