MODEL 1
REMARK VINA RESULT:    -6.459      0.000      0.000
REMARK INTER + INTRA:         -12.443
REMARK INTER:                 -11.746
REMARK INTRA:                  -0.697
REMARK UNBOUND:                -0.697
REMARK SMILES CCCCCCCCCCCCCCCC(=O)[O-]
REMARK SMILES IDX 9 1 10 2 11 3 12 4 13 5 14 6 15 7 16 8 17 9 18 10 8 11 7 12
REMARK SMILES IDX 6 13 5 14 4 15 3 16 2 17 1 18
REMARK H PARENT
REMARK Flexibility Score: inf
ROOT
ATOM      1  C   UNL     1      17.146  -2.906  32.646  1.00  0.00     0.000 C 
ENDROOT
BRANCH   1   2
ATOM      2  C   UNL     1      17.323  -1.401  32.387  1.00  0.00     0.000 C 
BRANCH   2   3
ATOM      3  C   UNL     1      17.084  -1.019  30.918  1.00  0.00     0.000 C 
BRANCH   3   4
ATOM      4  C   UNL     1      18.389  -0.554  30.254  1.00  0.00     0.000 C 
BRANCH   4   5
ATOM      5  C   UNL     1      19.543  -1.549  30.454  1.00  0.00     0.000 C 
BRANCH   5   6
ATOM      6  C   UNL     1      20.782  -0.900  31.095  1.00  0.00     0.006 C 
BRANCH   6   7
ATOM      7  C   UNL     1      21.273   0.319  30.303  1.00  0.00     0.053 C 
BRANCH   7   8
ATOM      8  C   UNL     1      22.682   0.680  30.658  1.00  0.00     0.041 C 
ATOM      9  O   UNL     1      22.910   1.580  31.511  1.00  0.00    -0.550 OA
ATOM     10  O   UNL     1      23.744   0.001  30.075  1.00  0.00    -0.550 OA
ENDBRANCH   7   8
ENDBRANCH   6   7
ENDBRANCH   5   6
ENDBRANCH   4   5
ENDBRANCH   3   4
ENDBRANCH   2   3
ENDBRANCH   1   2
BRANCH   1  11
ATOM     11  C   UNL     1      18.358  -3.528  33.361  1.00  0.00     0.000 C 
BRANCH  11  12
ATOM     12  C   UNL     1      18.100  -4.969  33.838  1.00  0.00    -0.000 C 
BRANCH  12  13
ATOM     13  C   UNL     1      19.305  -5.670  34.491  1.00  0.00    -0.000 C 
BRANCH  13  14
ATOM     14  C   UNL     1      19.582  -5.176  35.921  1.00  0.00    -0.000 C 
BRANCH  14  15
ATOM     15  C   UNL     1      20.885  -5.753  36.502  1.00  0.00    -0.000 C 
BRANCH  15  16
ATOM     16  C   UNL     1      20.628  -6.823  37.577  1.00  0.00    -0.000 C 
BRANCH  16  17
ATOM     17  C   UNL     1      21.902  -7.197  38.352  1.00  0.00    -0.003 C 
ATOM     18  C   UNL     1      23.062  -6.241  38.081  1.00  0.00     0.004 C 
ENDBRANCH  16  17
ENDBRANCH  15  16
ENDBRANCH  14  15
ENDBRANCH  13  14
ENDBRANCH  12  13
ENDBRANCH  11  12
ENDBRANCH   1  11
TORSDOF 14
ENDMDL
MODEL 2
REMARK VINA RESULT:    -6.351      3.355      8.385
REMARK INTER + INTRA:         -12.246
REMARK INTER:                 -11.048
REMARK INTRA:                  -1.198
REMARK UNBOUND:                -0.697
REMARK SMILES CCCCCCCCCCCCCCCC(=O)[O-]
REMARK SMILES IDX 9 1 10 2 11 3 12 4 13 5 14 6 15 7 16 8 17 9 18 10 8 11 7 12
REMARK SMILES IDX 6 13 5 14 4 15 3 16 2 17 1 18
REMARK H PARENT
REMARK Flexibility Score: inf
ROOT
ATOM      1  C   UNL     1      19.334  -5.474  35.955  1.00  0.00     0.000 C 
ENDROOT
BRANCH   1   2
ATOM      2  C   UNL     1      20.799  -5.651  36.387  1.00  0.00     0.000 C 
BRANCH   2   3
ATOM      3  C   UNL     1      21.038  -6.961  37.152  1.00  0.00     0.000 C 
BRANCH   3   4
ATOM      4  C   UNL     1      20.446  -6.886  38.567  1.00  0.00     0.000 C 
BRANCH   4   5
ATOM      5  C   UNL     1      21.510  -7.045  39.664  1.00  0.00     0.000 C 
BRANCH   5   6
ATOM      6  C   UNL     1      22.908  -7.345  39.096  1.00  0.00     0.006 C 
BRANCH   6   7
ATOM      7  C   UNL     1      23.937  -6.281  39.497  1.00  0.00     0.053 C 
BRANCH   7   8
ATOM      8  C   UNL     1      24.024  -5.182  38.484  1.00  0.00     0.041 C 
ATOM      9  O   UNL     1      23.258  -4.185  38.563  1.00  0.00    -0.550 OA
ATOM     10  O   UNL     1      24.973  -5.241  37.471  1.00  0.00    -0.550 OA
ENDBRANCH   7   8
ENDBRANCH   6   7
ENDBRANCH   5   6
ENDBRANCH   4   5
ENDBRANCH   3   4
ENDBRANCH   2   3
ENDBRANCH   1   2
BRANCH   1  11
ATOM     11  C   UNL     1      19.130  -5.723  34.450  1.00  0.00     0.000 C 
BRANCH  11  12
ATOM     12  C   UNL     1      18.488  -4.526  33.725  1.00  0.00    -0.000 C 
BRANCH  12  13
ATOM     13  C   UNL     1      19.283  -3.210  33.799  1.00  0.00    -0.000 C 
BRANCH  13  14
ATOM     14  C   UNL     1      20.260  -3.035  32.623  1.00  0.00    -0.000 C 
BRANCH  14  15
ATOM     15  C   UNL     1      19.537  -2.913  31.270  1.00  0.00    -0.000 C 
BRANCH  15  16
ATOM     16  C   UNL     1      19.448  -1.458  30.779  1.00  0.00    -0.000 C 
BRANCH  16  17
ATOM     17  C   UNL     1      18.027  -1.072  30.339  1.00  0.00    -0.003 C 
ATOM     18  C   UNL     1      16.988  -1.277  31.441  1.00  0.00     0.004 C 
ENDBRANCH  16  17
ENDBRANCH  15  16
ENDBRANCH  14  15
ENDBRANCH  13  14
ENDBRANCH  12  13
ENDBRANCH  11  12
ENDBRANCH   1  11
TORSDOF 14
ENDMDL
MODEL 3
REMARK VINA RESULT:    -6.273      0.970      1.413
REMARK INTER + INTRA:         -12.105
REMARK INTER:                 -11.456
REMARK INTRA:                  -0.649
REMARK UNBOUND:                -0.697
REMARK SMILES CCCCCCCCCCCCCCCC(=O)[O-]
REMARK SMILES IDX 9 1 10 2 11 3 12 4 13 5 14 6 15 7 16 8 17 9 18 10 8 11 7 12
REMARK SMILES IDX 6 13 5 14 4 15 3 16 2 17 1 18
REMARK H PARENT
REMARK Flexibility Score: inf
ROOT
ATOM      1  C   UNL     1      17.641  -1.842  32.783  1.00  0.00     0.000 C 
ENDROOT
BRANCH   1   2
ATOM      2  C   UNL     1      17.132  -1.449  31.386  1.00  0.00     0.000 C 
BRANCH   2   3
ATOM      3  C   UNL     1      18.191  -0.707  30.556  1.00  0.00     0.000 C 
BRANCH   3   4
ATOM      4  C   UNL     1      19.464  -1.554  30.408  1.00  0.00     0.000 C 
BRANCH   4   5
ATOM      5  C   UNL     1      20.661  -0.962  31.169  1.00  0.00     0.000 C 
BRANCH   5   6
ATOM      6  C   UNL     1      21.406   0.112  30.357  1.00  0.00     0.006 C 
BRANCH   6   7
ATOM      7  C   UNL     1      22.481   0.824  31.188  1.00  0.00     0.053 C 
BRANCH   7   8
ATOM      8  C   UNL     1      23.799   0.860  30.477  1.00  0.00     0.041 C 
ATOM      9  O   UNL     1      24.671   1.710  30.801  1.00  0.00    -0.550 OA
ATOM     10  O   UNL     1      24.078  -0.066  29.479  1.00  0.00    -0.550 OA
ENDBRANCH   7   8
ENDBRANCH   6   7
ENDBRANCH   5   6
ENDBRANCH   4   5
ENDBRANCH   3   4
ENDBRANCH   2   3
ENDBRANCH   1   2
BRANCH   1  11
ATOM     11  C   UNL     1      17.618  -3.363  33.012  1.00  0.00     0.000 C 
BRANCH  11  12
ATOM     12  C   UNL     1      19.019  -3.956  33.250  1.00  0.00    -0.000 C 
BRANCH  12  13
ATOM     13  C   UNL     1      19.052  -5.247  34.089  1.00  0.00    -0.000 C 
BRANCH  13  14
ATOM     14  C   UNL     1      19.533  -5.011  35.531  1.00  0.00    -0.000 C 
BRANCH  14  15
ATOM     15  C   UNL     1      20.002  -6.307  36.214  1.00  0.00    -0.000 C 
BRANCH  15  16
ATOM     16  C   UNL     1      19.807  -6.273  37.740  1.00  0.00    -0.000 C 
BRANCH  16  17
ATOM     17  C   UNL     1      20.915  -7.028  38.492  1.00  0.00    -0.003 C 
ATOM     18  C   UNL     1      20.513  -7.404  39.918  1.00  0.00     0.004 C 
ENDBRANCH  16  17
ENDBRANCH  15  16
ENDBRANCH  14  15
ENDBRANCH  13  14
ENDBRANCH  12  13
ENDBRANCH  11  12
ENDBRANCH   1  11
TORSDOF 14
ENDMDL
MODEL 4
REMARK VINA RESULT:    -6.258      3.831      8.055
REMARK INTER + INTRA:         -12.076
REMARK INTER:                 -11.262
REMARK INTRA:                  -0.814
REMARK UNBOUND:                -0.697
REMARK SMILES CCCCCCCCCCCCCCCC(=O)[O-]
REMARK SMILES IDX 9 1 10 2 11 3 12 4 13 5 14 6 15 7 16 8 17 9 18 10 8 11 7 12
REMARK SMILES IDX 6 13 5 14 4 15 3 16 2 17 1 18
REMARK H PARENT
REMARK Flexibility Score: inf
ROOT
ATOM      1  C   UNL     1      17.721  -1.399  32.215  1.00  0.00     0.000 C 
ENDROOT
BRANCH   1   2
ATOM      2  C   UNL     1      17.684  -2.871  32.659  1.00  0.00     0.000 C 
BRANCH   2   3
ATOM      3  C   UNL     1      18.766  -3.205  33.697  1.00  0.00     0.000 C 
BRANCH   3   4
ATOM      4  C   UNL     1      19.407  -4.569  33.400  1.00  0.00     0.000 C 
BRANCH   4   5
ATOM      5  C   UNL     1      19.086  -5.620  34.475  1.00  0.00     0.000 C 
BRANCH   5   6
ATOM      6  C   UNL     1      19.390  -5.125  35.899  1.00  0.00     0.006 C 
BRANCH   6   7
ATOM      7  C   UNL     1      20.756  -5.611  36.403  1.00  0.00     0.053 C 
BRANCH   7   8
ATOM      8  C   UNL     1      20.618  -6.542  37.567  1.00  0.00     0.041 C 
ATOM      9  O   UNL     1      19.542  -6.585  38.221  1.00  0.00    -0.550 OA
ATOM     10  O   UNL     1      21.665  -7.389  37.910  1.00  0.00    -0.550 OA
ENDBRANCH   7   8
ENDBRANCH   6   7
ENDBRANCH   5   6
ENDBRANCH   4   5
ENDBRANCH   3   4
ENDBRANCH   2   3
ENDBRANCH   1   2
BRANCH   1  11
ATOM     11  C   UNL     1      18.028  -1.242  30.716  1.00  0.00     0.000 C 
BRANCH  11  12
ATOM     12  C   UNL     1      19.462  -1.667  30.349  1.00  0.00    -0.000 C 
BRANCH  12  13
ATOM     13  C   UNL     1      20.576  -0.993  31.171  1.00  0.00    -0.000 C 
BRANCH  13  14
ATOM     14  C   UNL     1      21.353   0.067  30.371  1.00  0.00    -0.000 C 
BRANCH  14  15
ATOM     15  C   UNL     1      22.756   0.328  30.946  1.00  0.00    -0.000 C 
BRANCH  15  16
ATOM     16  C   UNL     1      23.836   0.405  29.853  1.00  0.00    -0.000 C 
BRANCH  16  17
ATOM     17  C   UNL     1      24.970   1.378  30.213  1.00  0.00    -0.003 C 
ATOM     18  C   UNL     1      24.551   2.843  30.104  1.00  0.00     0.004 C 
ENDBRANCH  16  17
ENDBRANCH  15  16
ENDBRANCH  14  15
ENDBRANCH  13  14
ENDBRANCH  12  13
ENDBRANCH  11  12
ENDBRANCH   1  11
TORSDOF 14
ENDMDL
MODEL 5
REMARK VINA RESULT:    -6.249      4.002      8.018
REMARK INTER + INTRA:         -12.060
REMARK INTER:                 -10.952
REMARK INTRA:                  -1.108
REMARK UNBOUND:                -0.697
REMARK SMILES CCCCCCCCCCCCCCCC(=O)[O-]
REMARK SMILES IDX 9 1 10 2 11 3 12 4 13 5 14 6 15 7 16 8 17 9 18 10 8 11 7 12
REMARK SMILES IDX 6 13 5 14 4 15 3 16 2 17 1 18
REMARK H PARENT
REMARK Flexibility Score: inf
ROOT
ATOM      1  C   UNL     1      18.080  -1.870  33.606  1.00  0.00     0.000 C 
ENDROOT
BRANCH   1   2
ATOM      2  C   UNL     1      19.261  -2.805  33.915  1.00  0.00     0.000 C 
BRANCH   2   3
ATOM      3  C   UNL     1      19.168  -4.145  33.169  1.00  0.00     0.000 C 
BRANCH   3   4
ATOM      4  C   UNL     1      19.155  -5.321  34.157  1.00  0.00     0.000 C 
BRANCH   4   5
ATOM      5  C   UNL     1      19.784  -4.963  35.513  1.00  0.00     0.000 C 
BRANCH   5   6
ATOM      6  C   UNL     1      19.972  -6.190  36.422  1.00  0.00     0.006 C 
BRANCH   6   7
ATOM      7  C   UNL     1      21.359  -6.217  37.079  1.00  0.00     0.053 C 
BRANCH   7   8
ATOM      8  C   UNL     1      21.378  -7.086  38.299  1.00  0.00     0.041 C 
ATOM      9  O   UNL     1      22.465  -7.565  38.719  1.00  0.00    -0.550 OA
ATOM     10  O   UNL     1      20.202  -7.339  38.993  1.00  0.00    -0.550 OA
ENDBRANCH   7   8
ENDBRANCH   6   7
ENDBRANCH   5   6
ENDBRANCH   4   5
ENDBRANCH   3   4
ENDBRANCH   2   3
ENDBRANCH   1   2
BRANCH   1  11
ATOM     11  C   UNL     1      17.131  -2.451  32.543  1.00  0.00     0.000 C 
BRANCH  11  12
ATOM     12  C   UNL     1      16.724  -1.420  31.474  1.00  0.00    -0.000 C 
BRANCH  12  13
ATOM     13  C   UNL     1      17.882  -0.598  30.881  1.00  0.00    -0.000 C 
BRANCH  13  14
ATOM     14  C   UNL     1      18.951  -1.472  30.201  1.00  0.00    -0.000 C 
BRANCH  14  15
ATOM     15  C   UNL     1      20.364  -1.207  30.749  1.00  0.00    -0.000 C 
BRANCH  15  16
ATOM     16  C   UNL     1      20.960   0.112  30.229  1.00  0.00    -0.000 C 
BRANCH  16  17
ATOM     17  C   UNL     1      22.281   0.477  30.925  1.00  0.00    -0.003 C 
ATOM     18  C   UNL     1      22.737   1.904  30.623  1.00  0.00     0.004 C 
ENDBRANCH  16  17
ENDBRANCH  15  16
ENDBRANCH  14  15
ENDBRANCH  13  14
ENDBRANCH  12  13
ENDBRANCH  11  12
ENDBRANCH   1  11
TORSDOF 14
ENDMDL
MODEL 6
REMARK VINA RESULT:    -6.171      1.078      2.063
REMARK INTER + INTRA:         -11.919
REMARK INTER:                 -11.179
REMARK INTRA:                  -0.740
REMARK UNBOUND:                -0.697
REMARK SMILES CCCCCCCCCCCCCCCC(=O)[O-]
REMARK SMILES IDX 9 1 10 2 11 3 12 4 13 5 14 6 15 7 16 8 17 9 18 10 8 11 7 12
REMARK SMILES IDX 6 13 5 14 4 15 3 16 2 17 1 18
REMARK H PARENT
REMARK Flexibility Score: inf
ROOT
ATOM      1  C   UNL     1      19.657  -4.089  33.644  1.00  0.00     0.000 C 
ENDROOT
BRANCH   1   2
ATOM      2  C   UNL     1      18.362  -3.602  32.972  1.00  0.00     0.000 C 
BRANCH   2   3
ATOM      3  C   UNL     1      18.267  -2.070  32.907  1.00  0.00     0.000 C 
BRANCH   3   4
ATOM      4  C   UNL     1      17.989  -1.600  31.471  1.00  0.00     0.000 C 
BRANCH   4   5
ATOM      5  C   UNL     1      19.228  -1.694  30.566  1.00  0.00     0.000 C 
BRANCH   5   6
ATOM      6  C   UNL     1      20.460  -0.999  31.174  1.00  0.00     0.006 C 
BRANCH   6   7
ATOM      7  C   UNL     1      21.057   0.052  30.229  1.00  0.00     0.053 C 
BRANCH   7   8
ATOM      8  C   UNL     1      22.421   0.484  30.671  1.00  0.00     0.041 C 
ATOM      9  O   UNL     1      22.556   1.212  31.690  1.00  0.00    -0.550 OA
ATOM     10  O   UNL     1      23.546   0.055  29.979  1.00  0.00    -0.550 OA
ENDBRANCH   7   8
ENDBRANCH   6   7
ENDBRANCH   5   6
ENDBRANCH   4   5
ENDBRANCH   3   4
ENDBRANCH   2   3
ENDBRANCH   1   2
BRANCH   1  11
ATOM     11  C   UNL     1      19.412  -5.243  34.631  1.00  0.00     0.000 C 
BRANCH  11  12
ATOM     12  C   UNL     1      20.141  -5.051  35.973  1.00  0.00    -0.000 C 
BRANCH  12  13
ATOM     13  C   UNL     1      20.035  -6.233  36.953  1.00  0.00    -0.000 C 
BRANCH  13  14
ATOM     14  C   UNL     1      21.360  -7.000  37.111  1.00  0.00    -0.000 C 
BRANCH  14  15
ATOM     15  C   UNL     1      22.521  -6.087  37.541  1.00  0.00    -0.000 C 
BRANCH  15  16
ATOM     16  C   UNL     1      22.657  -5.988  39.070  1.00  0.00    -0.000 C 
BRANCH  16  17
ATOM     17  C   UNL     1      22.398  -7.331  39.772  1.00  0.00    -0.003 C 
ATOM     18  C   UNL     1      23.558  -7.767  40.666  1.00  0.00     0.004 C 
ENDBRANCH  16  17
ENDBRANCH  15  16
ENDBRANCH  14  15
ENDBRANCH  13  14
ENDBRANCH  12  13
ENDBRANCH  11  12
ENDBRANCH   1  11
TORSDOF 14
ENDMDL
MODEL 7
REMARK VINA RESULT:    -6.121      2.828      4.227
REMARK INTER + INTRA:         -11.827
REMARK INTER:                 -10.892
REMARK INTRA:                  -0.936
REMARK UNBOUND:                -0.697
REMARK SMILES CCCCCCCCCCCCCCCC(=O)[O-]
REMARK SMILES IDX 9 1 10 2 11 3 12 4 13 5 14 6 15 7 16 8 17 9 18 10 8 11 7 12
REMARK SMILES IDX 6 13 5 14 4 15 3 16 2 17 1 18
REMARK H PARENT
REMARK Flexibility Score: inf
ROOT
ATOM      1  C   UNL     1      19.040  -5.859  34.739  1.00  0.00     0.000 C 
ENDROOT
BRANCH   1   2
ATOM      2  C   UNL     1      18.492  -4.752  33.823  1.00  0.00     0.000 C 
BRANCH   2   3
ATOM      3  C   UNL     1      19.573  -3.749  33.392  1.00  0.00     0.000 C 
BRANCH   3   4
ATOM      4  C   UNL     1      20.268  -4.214  32.103  1.00  0.00     0.000 C 
BRANCH   4   5
ATOM      5  C   UNL     1      20.192  -3.168  30.979  1.00  0.00     0.000 C 
BRANCH   5   6
ATOM      6  C   UNL     1      19.580  -1.837  31.449  1.00  0.00     0.006 C 
BRANCH   6   7
ATOM      7  C   UNL     1      18.376  -1.420  30.594  1.00  0.00     0.053 C 
BRANCH   7   8
ATOM      8  C   UNL     1      17.138  -1.257  31.421  1.00  0.00     0.041 C 
ATOM      9  O   UNL     1      16.780  -2.169  32.214  1.00  0.00    -0.550 OA
ATOM     10  O   UNL     1      16.397  -0.084  31.345  1.00  0.00    -0.550 OA
ENDBRANCH   7   8
ENDBRANCH   6   7
ENDBRANCH   5   6
ENDBRANCH   4   5
ENDBRANCH   3   4
ENDBRANCH   2   3
ENDBRANCH   1   2
BRANCH   1  11
ATOM     11  C   UNL     1      19.503  -5.318  36.104  1.00  0.00     0.000 C 
BRANCH  11  12
ATOM     12  C   UNL     1      20.979  -5.636  36.406  1.00  0.00    -0.000 C 
BRANCH  12  13
ATOM     13  C   UNL     1      21.218  -6.892  37.264  1.00  0.00    -0.000 C 
BRANCH  13  14
ATOM     14  C   UNL     1      20.235  -7.007  38.442  1.00  0.00    -0.000 C 
BRANCH  14  15
ATOM     15  C   UNL     1      20.945  -7.308  39.774  1.00  0.00    -0.000 C 
BRANCH  15  16
ATOM     16  C   UNL     1      22.398  -6.801  39.794  1.00  0.00    -0.000 C 
BRANCH  16  17
ATOM     17  C   UNL     1      23.362  -7.803  40.450  1.00  0.00    -0.003 C 
ATOM     18  C   UNL     1      24.635  -7.142  40.977  1.00  0.00     0.004 C 
ENDBRANCH  16  17
ENDBRANCH  15  16
ENDBRANCH  14  15
ENDBRANCH  13  14
ENDBRANCH  12  13
ENDBRANCH  11  12
ENDBRANCH   1  11
TORSDOF 14
ENDMDL
MODEL 8
REMARK VINA RESULT:    -6.059      4.283      8.835
REMARK INTER + INTRA:         -11.714
REMARK INTER:                 -10.391
REMARK INTRA:                  -1.324
REMARK UNBOUND:                -0.697
REMARK SMILES CCCCCCCCCCCCCCCC(=O)[O-]
REMARK SMILES IDX 9 1 10 2 11 3 12 4 13 5 14 6 15 7 16 8 17 9 18 10 8 11 7 12
REMARK SMILES IDX 6 13 5 14 4 15 3 16 2 17 1 18
REMARK H PARENT
REMARK Flexibility Score: inf
ROOT
ATOM      1  C   UNL     1      19.240  -5.419  35.638  1.00  0.00     0.000 C 
ENDROOT
BRANCH   1   2
ATOM      2  C   UNL     1      20.606  -4.796  35.969  1.00  0.00     0.000 C 
BRANCH   2   3
ATOM      3  C   UNL     1      21.529  -5.759  36.732  1.00  0.00     0.000 C 
BRANCH   3   4
ATOM      4  C   UNL     1      20.768  -7.026  37.154  1.00  0.00     0.000 C 
BRANCH   4   5
ATOM      5  C   UNL     1      20.274  -6.963  38.608  1.00  0.00     0.000 C 
BRANCH   5   6
ATOM      6  C   UNL     1      21.340  -6.418  39.574  1.00  0.00     0.006 C 
BRANCH   6   7
ATOM      7  C   UNL     1      22.062  -7.539  40.332  1.00  0.00     0.053 C 
BRANCH   7   8
ATOM      8  C   UNL     1      23.446  -7.763  39.808  1.00  0.00     0.041 C 
ATOM      9  O   UNL     1      23.943  -8.921  39.800  1.00  0.00    -0.550 OA
ATOM     10  O   UNL     1      24.178  -6.699  39.295  1.00  0.00    -0.550 OA
ENDBRANCH   7   8
ENDBRANCH   6   7
ENDBRANCH   5   6
ENDBRANCH   4   5
ENDBRANCH   3   4
ENDBRANCH   2   3
ENDBRANCH   1   2
BRANCH   1  11
ATOM     11  C   UNL     1      18.877  -5.285  34.149  1.00  0.00     0.000 C 
BRANCH  11  12
ATOM     12  C   UNL     1      20.008  -4.663  33.309  1.00  0.00    -0.000 C 
BRANCH  12  13
ATOM     13  C   UNL     1      19.645  -3.354  32.585  1.00  0.00    -0.000 C 
BRANCH  13  14
ATOM     14  C   UNL     1      19.384  -2.187  33.554  1.00  0.00    -0.000 C 
BRANCH  14  15
ATOM     15  C   UNL     1      17.924  -1.703  33.513  1.00  0.00    -0.000 C 
BRANCH  15  16
ATOM     16  C   UNL     1      17.148  -2.274  32.313  1.00  0.00    -0.000 C 
BRANCH  16  17
ATOM     17  C   UNL     1      16.841  -1.208  31.250  1.00  0.00    -0.003 C 
ATOM     18  C   UNL     1      18.058  -0.856  30.394  1.00  0.00     0.004 C 
ENDBRANCH  16  17
ENDBRANCH  15  16
ENDBRANCH  14  15
ENDBRANCH  13  14
ENDBRANCH  12  13
ENDBRANCH  11  12
ENDBRANCH   1  11
TORSDOF 14
ENDMDL
MODEL 9
REMARK VINA RESULT:    -6.006      2.696      5.024
REMARK INTER + INTRA:         -11.619
REMARK INTER:                 -10.770
REMARK INTRA:                  -0.849
REMARK UNBOUND:                -0.697
REMARK SMILES CCCCCCCCCCCCCCCC(=O)[O-]
REMARK SMILES IDX 9 1 10 2 11 3 12 4 13 5 14 6 15 7 16 8 17 9 18 10 8 11 7 12
REMARK SMILES IDX 6 13 5 14 4 15 3 16 2 17 1 18
REMARK H PARENT
REMARK Flexibility Score: inf
ROOT
ATOM      1  C   UNL     1      20.537  -5.851  36.387  1.00  0.00     0.000 C 
ENDROOT
BRANCH   1   2
ATOM      2  C   UNL     1      19.488  -5.466  35.329  1.00  0.00     0.000 C 
BRANCH   2   3
ATOM      3  C   UNL     1      19.847  -4.173  34.582  1.00  0.00     0.000 C 
BRANCH   3   4
ATOM      4  C   UNL     1      19.951  -4.426  33.070  1.00  0.00     0.000 C 
BRANCH   4   5
ATOM      5  C   UNL     1      19.282  -3.321  32.237  1.00  0.00     0.000 C 
BRANCH   5   6
ATOM      6  C   UNL     1      17.868  -2.976  32.736  1.00  0.00     0.006 C 
BRANCH   6   7
ATOM      7  C   UNL     1      17.524  -1.495  32.527  1.00  0.00     0.053 C 
BRANCH   7   8
ATOM      8  C   UNL     1      17.384  -1.159  31.074  1.00  0.00     0.041 C 
ATOM      9  O   UNL     1      16.242  -1.100  30.544  1.00  0.00    -0.550 OA
ATOM     10  O   UNL     1      18.511  -0.875  30.312  1.00  0.00    -0.550 OA
ENDBRANCH   7   8
ENDBRANCH   6   7
ENDBRANCH   5   6
ENDBRANCH   4   5
ENDBRANCH   3   4
ENDBRANCH   2   3
ENDBRANCH   1   2
BRANCH   1  11
ATOM     11  C   UNL     1      19.901  -6.237  37.734  1.00  0.00     0.000 C 
BRANCH  11  12
ATOM     12  C   UNL     1      20.670  -7.355  38.462  1.00  0.00    -0.000 C 
BRANCH  12  13
ATOM     13  C   UNL     1      20.824  -7.163  39.982  1.00  0.00    -0.000 C 
BRANCH  13  14
ATOM     14  C   UNL     1      22.253  -7.440  40.479  1.00  0.00    -0.000 C 
BRANCH  14  15
ATOM     15  C   UNL     1      23.266  -7.552  39.326  1.00  0.00    -0.000 C 
BRANCH  15  16
ATOM     16  C   UNL     1      24.217  -6.345  39.257  1.00  0.00    -0.000 C 
BRANCH  16  17
ATOM     17  C   UNL     1      23.768  -5.299  38.224  1.00  0.00    -0.003 C 
ATOM     18  C   UNL     1      24.393  -3.925  38.461  1.00  0.00     0.004 C 
ENDBRANCH  16  17
ENDBRANCH  15  16
ENDBRANCH  14  15
ENDBRANCH  13  14
ENDBRANCH  12  13
ENDBRANCH  11  12
ENDBRANCH   1  11
TORSDOF 14
ENDMDL
