MODEL 1
REMARK VINA RESULT:    -5.830      0.000      0.000
REMARK INTER + INTRA:          -7.327
REMARK INTER:                  -7.023
REMARK INTRA:                  -0.304
REMARK UNBOUND:                -0.304
REMARK SMILES O=c1c(O)c(-c2ccc(O)c(O)c2)oc2cc(O)cc(O)c12
REMARK SMILES IDX 5 1 3 2 2 3 1 4 22 5 20 6 19 7 17 8 16 9 15 10 14 11 6 12
REMARK SMILES IDX 7 13 8 14 9 15 13 16 11 17 10 18 12 20 4 22 21 24 18 26
REMARK H PARENT 10 19 12 21 4 23 21 25 18 27
REMARK Flexibility Score: inf
ROOT
ATOM      1  C   UNL     1      -9.215   8.309  16.810  1.00  0.00     0.180 A 
ATOM      2  C   UNL     1     -10.556   8.610  17.112  1.00  0.00     0.208 A 
ATOM      3  C   UNL     1     -10.851   9.242  18.331  1.00  0.00     0.238 A 
ATOM      4  O   UNL     1     -12.050   9.506  18.618  1.00  0.00    -0.285 OA
ATOM      5  C   UNL     1      -9.803   9.578  19.214  1.00  0.00     0.111 A 
ATOM      6  C   UNL     1     -10.016  10.218  20.458  1.00  0.00     0.134 A 
ATOM      7  C   UNL     1      -8.919  10.527  21.276  1.00  0.00     0.093 A 
ATOM      8  C   UNL     1      -7.619  10.211  20.876  1.00  0.00     0.123 A 
ATOM      9  C   UNL     1      -7.404   9.578  19.647  1.00  0.00     0.094 A 
ATOM     10  C   UNL     1      -8.483   9.260  18.819  1.00  0.00     0.146 A 
ATOM     11  O   UNL     1      -8.251   8.655  17.659  1.00  0.00    -0.452 OA
ENDROOT
BRANCH   1  12
ATOM     12  C   UNL     1      -8.825   7.628  15.553  1.00  0.00     0.025 A 
ATOM     13  C   UNL     1      -8.953   6.233  15.456  1.00  0.00     0.016 A 
ATOM     14  C   UNL     1      -8.612   5.572  14.274  1.00  0.00     0.051 A 
ATOM     15  C   UNL     1      -8.153   6.297  13.165  1.00  0.00     0.157 A 
ATOM     16  C   UNL     1      -8.385   8.354  14.433  1.00  0.00     0.062 A 
ATOM     17  C   UNL     1      -8.044   7.695  13.245  1.00  0.00     0.158 A 
BRANCH  15  18
ATOM     18  O   UNL     1      -7.811   5.634  11.987  1.00  0.00    -0.504 OA
ATOM     19  H   UNL     1      -7.250   4.791  11.996  1.00  0.00     0.293 HD
ENDBRANCH  15  18
BRANCH  17  20
ATOM     20  O   UNL     1      -7.605   8.447  12.156  1.00  0.00    -0.504 OA
ATOM     21  H   UNL     1      -7.287   9.403  12.255  1.00  0.00     0.293 HD
ENDBRANCH  17  20
ENDBRANCH   1  12
BRANCH   2  22
ATOM     22  O   UNL     1     -11.570   8.312  16.199  1.00  0.00    -0.502 OA
ATOM     23  H   UNL     1     -12.337   8.947  16.013  1.00  0.00     0.293 HD
ENDBRANCH   2  22
BRANCH   6  24
ATOM     24  O   UNL     1     -11.302  10.547  20.887  1.00  0.00    -0.507 OA
ATOM     25  H   UNL     1     -11.771  10.023  21.617  1.00  0.00     0.293 HD
ENDBRANCH   6  24
BRANCH   8  26
ATOM     26  O   UNL     1      -6.547  10.531  21.707  1.00  0.00    -0.508 OA
ATOM     27  H   UNL     1      -6.643  11.201  22.461  1.00  0.00     0.293 HD
ENDBRANCH   8  26
TORSDOF 6
ENDMDL
MODEL 2
REMARK VINA RESULT:    -5.643      2.713      8.473
REMARK INTER + INTRA:          -7.102
REMARK INTER:                  -7.059
REMARK INTRA:                  -0.043
REMARK UNBOUND:                -0.304
REMARK SMILES O=c1c(O)c(-c2ccc(O)c(O)c2)oc2cc(O)cc(O)c12
REMARK SMILES IDX 5 1 3 2 2 3 1 4 22 5 20 6 19 7 17 8 16 9 15 10 14 11 6 12
REMARK SMILES IDX 7 13 8 14 9 15 13 16 11 17 10 18 12 20 4 22 21 24 18 26
REMARK H PARENT 10 19 12 21 4 23 21 25 18 27
REMARK Flexibility Score: inf
ROOT
ATOM      1  C   UNL     1      -9.544   7.247  13.561  1.00  0.00     0.180 A 
ATOM      2  C   UNL     1      -8.198   7.267  13.151  1.00  0.00     0.208 A 
ATOM      3  C   UNL     1      -7.877   6.839  11.853  1.00  0.00     0.238 A 
ATOM      4  O   UNL     1      -6.673   6.842  11.478  1.00  0.00    -0.285 OA
ATOM      5  C   UNL     1      -8.906   6.418  10.984  1.00  0.00     0.111 A 
ATOM      6  C   UNL     1      -8.667   5.975   9.660  1.00  0.00     0.134 A 
ATOM      7  C   UNL     1      -9.746   5.580   8.856  1.00  0.00     0.093 A 
ATOM      8  C   UNL     1     -11.053   5.620   9.345  1.00  0.00     0.123 A 
ATOM      9  C   UNL     1     -11.295   6.057  10.652  1.00  0.00     0.094 A 
ATOM     10  C   UNL     1     -10.233   6.452  11.470  1.00  0.00     0.146 A 
ATOM     11  O   UNL     1     -10.489   6.858  12.710  1.00  0.00    -0.452 OA
ENDROOT
BRANCH   1  12
ATOM     12  C   UNL     1      -9.959   7.666  14.919  1.00  0.00     0.025 A 
ATOM     13  C   UNL     1     -11.023   8.570  15.068  1.00  0.00     0.016 A 
ATOM     14  C   UNL     1     -11.445   8.963  16.340  1.00  0.00     0.051 A 
ATOM     15  C   UNL     1     -10.820   8.446  17.484  1.00  0.00     0.157 A 
ATOM     16  C   UNL     1      -9.349   7.133  16.068  1.00  0.00     0.062 A 
ATOM     17  C   UNL     1      -9.771   7.523  17.346  1.00  0.00     0.158 A 
BRANCH  15  18
ATOM     18  O   UNL     1     -11.242   8.842  18.752  1.00  0.00    -0.504 OA
ATOM     19  H   UNL     1     -10.901   9.692  19.184  1.00  0.00     0.293 HD
ENDBRANCH  15  18
BRANCH  17  20
ATOM     20  O   UNL     1      -9.138   6.979  18.463  1.00  0.00    -0.504 OA
ATOM     21  H   UNL     1      -9.296   6.024  18.758  1.00  0.00     0.293 HD
ENDBRANCH  17  20
ENDBRANCH   1  12
BRANCH   2  22
ATOM     22  O   UNL     1      -7.204   7.736  14.013  1.00  0.00    -0.502 OA
ATOM     23  H   UNL     1      -7.409   8.072  14.946  1.00  0.00     0.293 HD
ENDBRANCH   2  22
BRANCH   6  24
ATOM     24  O   UNL     1      -7.374   5.923   9.142  1.00  0.00    -0.507 OA
ATOM     25  H   UNL     1      -6.628   6.504   9.508  1.00  0.00     0.293 HD
ENDBRANCH   6  24
BRANCH   8  26
ATOM     26  O   UNL     1     -12.107   5.224   8.523  1.00  0.00    -0.508 OA
ATOM     27  H   UNL     1     -12.240   5.624   7.602  1.00  0.00     0.293 HD
ENDBRANCH   8  26
TORSDOF 6
ENDMDL
MODEL 3
REMARK VINA RESULT:    -5.613      3.815      8.166
REMARK INTER + INTRA:          -7.066
REMARK INTER:                  -7.191
REMARK INTRA:                   0.125
REMARK UNBOUND:                -0.304
REMARK SMILES O=c1c(O)c(-c2ccc(O)c(O)c2)oc2cc(O)cc(O)c12
REMARK SMILES IDX 5 1 3 2 2 3 1 4 22 5 20 6 19 7 17 8 16 9 15 10 14 11 6 12
REMARK SMILES IDX 7 13 8 14 9 15 13 16 11 17 10 18 12 20 4 22 21 24 18 26
REMARK H PARENT 10 19 12 21 4 23 21 25 18 27
REMARK Flexibility Score: inf
ROOT
ATOM      1  C   UNL     1      -5.435  10.521  17.166  1.00  0.00     0.180 A 
ATOM      2  C   UNL     1      -4.061  10.823  17.222  1.00  0.00     0.208 A 
ATOM      3  C   UNL     1      -3.326  10.860  16.027  1.00  0.00     0.238 A 
ATOM      4  O   UNL     1      -2.092  11.117  16.065  1.00  0.00    -0.285 OA
ATOM      5  C   UNL     1      -3.977  10.615  14.799  1.00  0.00     0.111 A 
ATOM      6  C   UNL     1      -3.309  10.637  13.551  1.00  0.00     0.134 A 
ATOM      7  C   UNL     1      -4.030  10.392  12.374  1.00  0.00     0.093 A 
ATOM      8  C   UNL     1      -5.400  10.128  12.418  1.00  0.00     0.123 A 
ATOM      9  C   UNL     1      -6.065  10.105  13.648  1.00  0.00     0.094 A 
ATOM     10  C   UNL     1      -5.365  10.344  14.833  1.00  0.00     0.146 A 
ATOM     11  O   UNL     1      -6.019  10.312  15.990  1.00  0.00    -0.452 OA
ENDROOT
BRANCH   1  12
ATOM     12  C   UNL     1      -6.274  10.446  18.384  1.00  0.00     0.025 A 
ATOM     13  C   UNL     1      -7.601  10.903  18.338  1.00  0.00     0.016 A 
ATOM     14  C   UNL     1      -8.417  10.822  19.469  1.00  0.00     0.051 A 
ATOM     15  C   UNL     1      -7.924  10.268  20.658  1.00  0.00     0.157 A 
ATOM     16  C   UNL     1      -5.790   9.871  19.572  1.00  0.00     0.062 A 
ATOM     17  C   UNL     1      -6.606   9.786  20.707  1.00  0.00     0.158 A 
BRANCH  15  18
ATOM     18  O   UNL     1      -8.740  10.191  21.786  1.00  0.00    -0.504 OA
ATOM     19  H   UNL     1      -9.431  10.903  21.992  1.00  0.00     0.293 HD
ENDBRANCH  15  18
BRANCH  17  20
ATOM     20  O   UNL     1      -6.090   9.216  21.871  1.00  0.00    -0.504 OA
ATOM     21  H   UNL     1      -5.213   9.520  22.276  1.00  0.00     0.293 HD
ENDBRANCH  17  20
ENDBRANCH   1  12
BRANCH   2  22
ATOM     22  O   UNL     1      -3.451  11.110  18.445  1.00  0.00    -0.502 OA
ATOM     23  H   UNL     1      -2.463  11.322  18.522  1.00  0.00     0.293 HD
ENDBRANCH   2  22
BRANCH   6  24
ATOM     24  O   UNL     1      -1.941  10.898  13.473  1.00  0.00    -0.507 OA
ATOM     25  H   UNL     1      -1.250  10.175  13.634  1.00  0.00     0.293 HD
ENDBRANCH   6  24
BRANCH   8  26
ATOM     26  O   UNL     1      -6.093   9.890  11.232  1.00  0.00    -0.508 OA
ATOM     27  H   UNL     1      -5.607   9.723  10.359  1.00  0.00     0.293 HD
ENDBRANCH   8  26
TORSDOF 6
ENDMDL
MODEL 4
REMARK VINA RESULT:    -5.524      2.110      6.883
REMARK INTER + INTRA:          -6.958
REMARK INTER:                  -6.672
REMARK INTRA:                  -0.286
REMARK UNBOUND:                -0.304
REMARK SMILES O=c1c(O)c(-c2ccc(O)c(O)c2)oc2cc(O)cc(O)c12
REMARK SMILES IDX 5 1 3 2 2 3 1 4 22 5 20 6 19 7 17 8 16 9 15 10 14 11 6 12
REMARK SMILES IDX 7 13 8 14 9 15 13 16 11 17 10 18 12 20 4 22 21 24 18 26
REMARK H PARENT 10 19 12 21 4 23 21 25 18 27
REMARK Flexibility Score: inf
ROOT
ATOM      1  C   UNL     1      -9.214   8.596  16.912  1.00  0.00     0.180 A 
ATOM      2  C   UNL     1      -9.472   7.236  16.659  1.00  0.00     0.208 A 
ATOM      3  C   UNL     1      -9.959   6.861  15.397  1.00  0.00     0.238 A 
ATOM      4  O   UNL     1     -10.205   5.646  15.162  1.00  0.00    -0.285 OA
ATOM      5  C   UNL     1     -10.159   7.845  14.407  1.00  0.00     0.111 A 
ATOM      6  C   UNL     1     -10.643   7.550  13.109  1.00  0.00     0.134 A 
ATOM      7  C   UNL     1     -10.807   8.585  12.177  1.00  0.00     0.093 A 
ATOM      8  C   UNL     1     -10.498   9.904  12.515  1.00  0.00     0.123 A 
ATOM      9  C   UNL     1     -10.020  10.202  13.796  1.00  0.00     0.094 A 
ATOM     10  C   UNL     1      -9.851   9.185  14.739  1.00  0.00     0.146 A 
ATOM     11  O   UNL     1      -9.400   9.494  15.950  1.00  0.00    -0.452 OA
ENDROOT
BRANCH   1  12
ATOM     12  C   UNL     1      -8.717   9.072  18.224  1.00  0.00     0.025 A 
ATOM     13  C   UNL     1      -7.381   9.484  18.348  1.00  0.00     0.016 A 
ATOM     14  C   UNL     1      -6.896   9.957  19.569  1.00  0.00     0.051 A 
ATOM     15  C   UNL     1      -7.744  10.038  20.683  1.00  0.00     0.157 A 
ATOM     16  C   UNL     1      -9.570   9.175  19.337  1.00  0.00     0.062 A 
ATOM     17  C   UNL     1      -9.088   9.649  20.563  1.00  0.00     0.158 A 
BRANCH  15  18
ATOM     18  O   UNL     1      -7.257  10.508  21.901  1.00  0.00    -0.504 OA
ATOM     19  H   UNL     1      -6.496  11.175  21.948  1.00  0.00     0.293 HD
ENDBRANCH  15  18
BRANCH  17  20
ATOM     20  O   UNL     1      -9.962   9.732  21.647  1.00  0.00    -0.504 OA
ATOM     21  H   UNL     1      -9.863   9.141  22.463  1.00  0.00     0.293 HD
ENDBRANCH  17  20
ENDBRANCH   1  12
BRANCH   2  22
ATOM     22  O   UNL     1      -9.218   6.274  17.641  1.00  0.00    -0.502 OA
ATOM     23  H   UNL     1      -9.817   5.469  17.780  1.00  0.00     0.293 HD
ENDBRANCH   2  22
BRANCH   6  24
ATOM     24  O   UNL     1     -10.962   6.243  12.741  1.00  0.00    -0.507 OA
ATOM     25  H   UNL     1     -11.911   5.891  12.789  1.00  0.00     0.293 HD
ENDBRANCH   6  24
BRANCH   8  26
ATOM     26  O   UNL     1     -10.668  10.914  11.569  1.00  0.00    -0.508 OA
ATOM     27  H   UNL     1     -10.154  10.915  10.696  1.00  0.00     0.293 HD
ENDBRANCH   8  26
TORSDOF 6
ENDMDL
MODEL 5
REMARK VINA RESULT:    -5.478      1.593      3.388
REMARK INTER + INTRA:          -6.904
REMARK INTER:                  -6.737
REMARK INTRA:                  -0.167
REMARK UNBOUND:                -0.304
REMARK SMILES O=c1c(O)c(-c2ccc(O)c(O)c2)oc2cc(O)cc(O)c12
REMARK SMILES IDX 5 1 3 2 2 3 1 4 22 5 20 6 19 7 17 8 16 9 15 10 14 11 6 12
REMARK SMILES IDX 7 13 8 14 9 15 13 16 11 17 10 18 12 20 4 22 21 24 18 26
REMARK H PARENT 10 19 12 21 4 23 21 25 18 27
REMARK Flexibility Score: inf
ROOT
ATOM      1  C   UNL     1      -8.132   9.443  17.025  1.00  0.00     0.180 A 
ATOM      2  C   UNL     1      -6.851   9.700  17.548  1.00  0.00     0.208 A 
ATOM      3  C   UNL     1      -6.725  10.006  18.912  1.00  0.00     0.238 A 
ATOM      4  O   UNL     1      -5.584  10.250  19.390  1.00  0.00    -0.285 OA
ATOM      5  C   UNL     1      -7.874  10.031  19.731  1.00  0.00     0.111 A 
ATOM      6  C   UNL     1      -7.832  10.326  21.115  1.00  0.00     0.134 A 
ATOM      7  C   UNL     1      -9.018  10.322  21.862  1.00  0.00     0.093 A 
ATOM      8  C   UNL     1     -10.242  10.027  21.256  1.00  0.00     0.123 A 
ATOM      9  C   UNL     1     -10.289   9.735  19.889  1.00  0.00     0.094 A 
ATOM     10  C   UNL     1      -9.118   9.736  19.126  1.00  0.00     0.146 A 
ATOM     11  O   UNL     1      -9.191   9.460  17.829  1.00  0.00    -0.452 OA
ENDROOT
BRANCH   1  12
ATOM     12  C   UNL     1      -8.349   9.132  15.593  1.00  0.00     0.025 A 
ATOM     13  C   UNL     1      -8.055  10.103  14.622  1.00  0.00     0.016 A 
ATOM     14  C   UNL     1      -8.231   9.824  13.265  1.00  0.00     0.051 A 
ATOM     15  C   UNL     1      -8.689   8.563  12.856  1.00  0.00     0.157 A 
ATOM     16  C   UNL     1      -8.787   7.862  15.178  1.00  0.00     0.062 A 
ATOM     17  C   UNL     1      -8.964   7.577  13.818  1.00  0.00     0.158 A 
BRANCH  15  18
ATOM     18  O   UNL     1      -8.867   8.288  11.501  1.00  0.00    -0.504 OA
ATOM     19  H   UNL     1      -8.814   7.343  11.140  1.00  0.00     0.293 HD
ENDBRANCH  15  18
BRANCH  17  20
ATOM     20  O   UNL     1      -9.407   6.309  13.444  1.00  0.00    -0.504 OA
ATOM     21  H   UNL     1     -10.278   5.922  13.784  1.00  0.00     0.293 HD
ENDBRANCH  17  20
ENDBRANCH   1  12
BRANCH   2  22
ATOM     22  O   UNL     1      -5.724   9.621  16.727  1.00  0.00    -0.502 OA
ATOM     23  H   UNL     1      -5.770   9.763  15.725  1.00  0.00     0.293 HD
ENDBRANCH   2  22
BRANCH   6  24
ATOM     24  O   UNL     1      -6.626  10.625  21.750  1.00  0.00    -0.507 OA
ATOM     25  H   UNL     1      -6.529  10.580  22.758  1.00  0.00     0.293 HD
ENDBRANCH   6  24
BRANCH   8  26
ATOM     26  O   UNL     1     -11.406  10.028  22.022  1.00  0.00    -0.508 OA
ATOM     27  H   UNL     1     -11.550   9.357  22.767  1.00  0.00     0.293 HD
ENDBRANCH   8  26
TORSDOF 6
ENDMDL
MODEL 6
REMARK VINA RESULT:    -5.425      2.316      2.765
REMARK INTER + INTRA:          -6.839
REMARK INTER:                  -6.517
REMARK INTRA:                  -0.322
REMARK UNBOUND:                -0.304
REMARK SMILES O=c1c(O)c(-c2ccc(O)c(O)c2)oc2cc(O)cc(O)c12
REMARK SMILES IDX 5 1 3 2 2 3 1 4 22 5 20 6 19 7 17 8 16 9 15 10 14 11 6 12
REMARK SMILES IDX 7 13 8 14 9 15 13 16 11 17 10 18 12 20 4 22 21 24 18 26
REMARK H PARENT 10 19 12 21 4 23 21 25 18 27
REMARK Flexibility Score: inf
ROOT
ATOM      1  C   UNL     1      -9.297   8.836  16.657  1.00  0.00     0.180 A 
ATOM      2  C   UNL     1      -9.988   8.752  17.880  1.00  0.00     0.208 A 
ATOM      3  C   UNL     1      -9.305   9.057  19.068  1.00  0.00     0.238 A 
ATOM      4  O   UNL     1      -9.910   8.974  20.171  1.00  0.00    -0.285 OA
ATOM      5  C   UNL     1      -7.953   9.459  19.011  1.00  0.00     0.111 A 
ATOM      6  C   UNL     1      -7.195   9.786  20.161  1.00  0.00     0.134 A 
ATOM      7  C   UNL     1      -5.858  10.186  20.020  1.00  0.00     0.093 A 
ATOM      8  C   UNL     1      -5.266  10.265  18.757  1.00  0.00     0.123 A 
ATOM      9  C   UNL     1      -6.011   9.942  17.618  1.00  0.00     0.094 A 
ATOM     10  C   UNL     1      -7.344   9.539  17.737  1.00  0.00     0.146 A 
ATOM     11  O   UNL     1      -8.028   9.233  16.640  1.00  0.00    -0.452 OA
ENDROOT
BRANCH   1  12
ATOM     12  C   UNL     1      -9.943   8.513  15.364  1.00  0.00     0.025 A 
ATOM     13  C   UNL     1      -9.979   7.180  14.924  1.00  0.00     0.016 A 
ATOM     14  C   UNL     1     -10.602   6.848  13.719  1.00  0.00     0.051 A 
ATOM     15  C   UNL     1     -11.213   7.843  12.942  1.00  0.00     0.157 A 
ATOM     16  C   UNL     1     -10.575   9.504  14.593  1.00  0.00     0.062 A 
ATOM     17  C   UNL     1     -11.203   9.176  13.385  1.00  0.00     0.158 A 
BRANCH  15  18
ATOM     18  O   UNL     1     -11.832   7.510  11.738  1.00  0.00    -0.504 OA
ATOM     19  H   UNL     1     -12.755   7.855  11.502  1.00  0.00     0.293 HD
ENDBRANCH  15  18
BRANCH  17  20
ATOM     20  O   UNL     1     -11.814  10.186  12.643  1.00  0.00    -0.504 OA
ATOM     21  H   UNL     1     -12.720  10.563  12.891  1.00  0.00     0.293 HD
ENDBRANCH  17  20
ENDBRANCH   1  12
BRANCH   2  22
ATOM     22  O   UNL     1     -11.340   8.400  17.905  1.00  0.00    -0.502 OA
ATOM     23  H   UNL     1     -11.652   7.456  18.102  1.00  0.00     0.293 HD
ENDBRANCH   2  22
BRANCH   6  24
ATOM     24  O   UNL     1      -7.756   9.718  21.436  1.00  0.00    -0.507 OA
ATOM     25  H   UNL     1      -8.758   9.757  21.580  1.00  0.00     0.293 HD
ENDBRANCH   6  24
BRANCH   8  26
ATOM     26  O   UNL     1      -3.936  10.666  18.645  1.00  0.00    -0.508 OA
ATOM     27  H   UNL     1      -3.576  11.457  19.166  1.00  0.00     0.293 HD
ENDBRANCH   8  26
TORSDOF 6
ENDMDL
MODEL 7
REMARK VINA RESULT:    -5.250      4.413      6.369
REMARK INTER + INTRA:          -6.628
REMARK INTER:                  -6.364
REMARK INTRA:                  -0.264
REMARK UNBOUND:                -0.304
REMARK SMILES O=c1c(O)c(-c2ccc(O)c(O)c2)oc2cc(O)cc(O)c12
REMARK SMILES IDX 5 1 3 2 2 3 1 4 22 5 20 6 19 7 17 8 16 9 15 10 14 11 6 12
REMARK SMILES IDX 7 13 8 14 9 15 13 16 11 17 10 18 12 20 4 22 21 24 18 26
REMARK H PARENT 10 19 12 21 4 23 21 25 18 27
REMARK Flexibility Score: inf
ROOT
ATOM      1  C   UNL     1      -8.221   7.030  11.305  1.00  0.00     0.180 A 
ATOM      2  C   UNL     1      -9.435   7.732  11.186  1.00  0.00     0.208 A 
ATOM      3  C   UNL     1     -10.346   7.699  12.253  1.00  0.00     0.238 A 
ATOM      4  O   UNL     1     -11.442   8.315  12.154  1.00  0.00    -0.285 OA
ATOM      5  C   UNL     1     -10.020   6.983  13.425  1.00  0.00     0.111 A 
ATOM      6  C   UNL     1     -10.881   6.903  14.547  1.00  0.00     0.134 A 
ATOM      7  C   UNL     1     -10.480   6.178  15.678  1.00  0.00     0.093 A 
ATOM      8  C   UNL     1      -9.241   5.535  15.712  1.00  0.00     0.123 A 
ATOM      9  C   UNL     1      -8.387   5.611  14.607  1.00  0.00     0.094 A 
ATOM     10  C   UNL     1      -8.769   6.326  13.469  1.00  0.00     0.146 A 
ATOM     11  O   UNL     1      -7.941   6.379  12.430  1.00  0.00    -0.452 OA
ENDROOT
BRANCH   1  12
ATOM     12  C   UNL     1      -7.218   7.002  10.216  1.00  0.00     0.025 A 
ATOM     13  C   UNL     1      -6.003   7.689  10.378  1.00  0.00     0.016 A 
ATOM     14  C   UNL     1      -5.034   7.659   9.372  1.00  0.00     0.051 A 
ATOM     15  C   UNL     1      -5.257   6.930   8.196  1.00  0.00     0.157 A 
ATOM     16  C   UNL     1      -7.429   6.255   9.044  1.00  0.00     0.062 A 
ATOM     17  C   UNL     1      -6.459   6.221   8.035  1.00  0.00     0.158 A 
BRANCH  15  18
ATOM     18  O   UNL     1      -4.289   6.904   7.194  1.00  0.00    -0.504 OA
ATOM     19  H   UNL     1      -3.383   7.340   7.319  1.00  0.00     0.293 HD
ENDBRANCH  15  18
BRANCH  17  20
ATOM     20  O   UNL     1      -6.706   5.474   6.883  1.00  0.00    -0.504 OA
ATOM     21  H   UNL     1      -7.645   5.253   6.577  1.00  0.00     0.293 HD
ENDBRANCH  17  20
ENDBRANCH   1  12
BRANCH   2  22
ATOM     22  O   UNL     1      -9.712   8.474  10.035  1.00  0.00    -0.502 OA
ATOM     23  H   UNL     1      -9.477   9.456   9.952  1.00  0.00     0.293 HD
ENDBRANCH   2  22
BRANCH   6  24
ATOM     24  O   UNL     1     -12.125   7.534  14.545  1.00  0.00    -0.507 OA
ATOM     25  H   UNL     1     -12.689   7.603  15.384  1.00  0.00     0.293 HD
ENDBRANCH   6  24
BRANCH   8  26
ATOM     26  O   UNL     1      -8.867   4.823  16.850  1.00  0.00    -0.508 OA
ATOM     27  H   UNL     1      -9.047   3.830  16.937  1.00  0.00     0.293 HD
ENDBRANCH   8  26
TORSDOF 6
ENDMDL
MODEL 8
REMARK VINA RESULT:    -5.142      3.105      4.909
REMARK INTER + INTRA:          -6.498
REMARK INTER:                  -6.325
REMARK INTRA:                  -0.174
REMARK UNBOUND:                -0.304
REMARK SMILES O=c1c(O)c(-c2ccc(O)c(O)c2)oc2cc(O)cc(O)c12
REMARK SMILES IDX 5 1 3 2 2 3 1 4 22 5 20 6 19 7 17 8 16 9 15 10 14 11 6 12
REMARK SMILES IDX 7 13 8 14 9 15 13 16 11 17 10 18 12 20 4 22 21 24 18 26
REMARK H PARENT 10 19 12 21 4 23 21 25 18 27
REMARK Flexibility Score: inf
ROOT
ATOM      1  C   UNL     1     -10.305   7.130  12.382  1.00  0.00     0.180 A 
ATOM      2  C   UNL     1     -11.111   8.282  12.444  1.00  0.00     0.208 A 
ATOM      3  C   UNL     1     -11.395   8.844  13.699  1.00  0.00     0.238 A 
ATOM      4  O   UNL     1     -12.125   9.870  13.768  1.00  0.00    -0.285 OA
ATOM      5  C   UNL     1     -10.856   8.259  14.863  1.00  0.00     0.111 A 
ATOM      6  C   UNL     1     -11.091   8.765  16.164  1.00  0.00     0.134 A 
ATOM      7  C   UNL     1     -10.511   8.130  17.272  1.00  0.00     0.093 A 
ATOM      8  C   UNL     1      -9.702   7.004  17.106  1.00  0.00     0.123 A 
ATOM      9  C   UNL     1      -9.466   6.499  15.823  1.00  0.00     0.094 A 
ATOM     10  C   UNL     1     -10.037   7.116  14.706  1.00  0.00     0.146 A 
ATOM     11  O   UNL     1      -9.801   6.614  13.499  1.00  0.00    -0.452 OA
ENDROOT
BRANCH   1  12
ATOM     12  C   UNL     1      -9.976   6.469  11.098  1.00  0.00     0.025 A 
ATOM     13  C   UNL     1     -11.001   5.878  10.343  1.00  0.00     0.016 A 
ATOM     14  C   UNL     1     -10.717   5.267   9.119  1.00  0.00     0.051 A 
ATOM     15  C   UNL     1      -9.406   5.252   8.624  1.00  0.00     0.157 A 
ATOM     16  C   UNL     1      -8.666   6.470  10.588  1.00  0.00     0.062 A 
ATOM     17  C   UNL     1      -8.377   5.861   9.361  1.00  0.00     0.158 A 
BRANCH  15  18
ATOM     18  O   UNL     1      -9.125   4.640   7.403  1.00  0.00    -0.504 OA
ATOM     19  H   UNL     1      -8.634   3.755   7.353  1.00  0.00     0.293 HD
ENDBRANCH  15  18
BRANCH  17  20
ATOM     20  O   UNL     1      -7.065   5.876   8.890  1.00  0.00    -0.504 OA
ATOM     21  H   UNL     1      -6.340   5.298   9.297  1.00  0.00     0.293 HD
ENDBRANCH  17  20
ENDBRANCH   1  12
BRANCH   2  22
ATOM     22  O   UNL     1     -11.591   8.872  11.273  1.00  0.00    -0.502 OA
ATOM     23  H   UNL     1     -12.576   9.058  11.123  1.00  0.00     0.293 HD
ENDBRANCH   2  22
BRANCH   6  24
ATOM     24  O   UNL     1     -11.894   9.888  16.364  1.00  0.00    -0.507 OA
ATOM     25  H   UNL     1     -12.812   9.969  15.943  1.00  0.00     0.293 HD
ENDBRANCH   6  24
BRANCH   8  26
ATOM     26  O   UNL     1      -9.136   6.393  18.224  1.00  0.00    -0.508 OA
ATOM     27  H   UNL     1      -9.489   6.566  19.158  1.00  0.00     0.293 HD
ENDBRANCH   8  26
TORSDOF 6
ENDMDL
MODEL 9
REMARK VINA RESULT:    -5.096      1.869      6.902
REMARK INTER + INTRA:          -6.443
REMARK INTER:                  -6.156
REMARK INTRA:                  -0.286
REMARK UNBOUND:                -0.304
REMARK SMILES O=c1c(O)c(-c2ccc(O)c(O)c2)oc2cc(O)cc(O)c12
REMARK SMILES IDX 5 1 3 2 2 3 1 4 22 5 20 6 19 7 17 8 16 9 15 10 14 11 6 12
REMARK SMILES IDX 7 13 8 14 9 15 13 16 11 17 10 18 12 20 4 22 21 24 18 26
REMARK H PARENT 10 19 12 21 4 23 21 25 18 27
REMARK Flexibility Score: inf
ROOT
ATOM      1  C   UNL     1      -9.538   8.813  16.236  1.00  0.00     0.180 A 
ATOM      2  C   UNL     1     -10.732   9.274  15.652  1.00  0.00     0.208 A 
ATOM      3  C   UNL     1     -11.063   8.848  14.356  1.00  0.00     0.238 A 
ATOM      4  O   UNL     1     -12.125   9.264  13.818  1.00  0.00    -0.285 OA
ATOM      5  C   UNL     1     -10.207   7.957  13.676  1.00  0.00     0.111 A 
ATOM      6  C   UNL     1     -10.469   7.477  12.370  1.00  0.00     0.134 A 
ATOM      7  C   UNL     1      -9.572   6.585  11.764  1.00  0.00     0.093 A 
ATOM      8  C   UNL     1      -8.423   6.163  12.437  1.00  0.00     0.123 A 
ATOM      9  C   UNL     1      -8.159   6.634  13.727  1.00  0.00     0.094 A 
ATOM     10  C   UNL     1      -9.039   7.525  14.347  1.00  0.00     0.146 A 
ATOM     11  O   UNL     1      -8.763   7.961  15.571  1.00  0.00    -0.452 OA
ENDROOT
BRANCH   1  12
ATOM     12  C   UNL     1      -9.112   9.231  17.591  1.00  0.00     0.025 A 
ATOM     13  C   UNL     1      -8.167  10.260  17.732  1.00  0.00     0.016 A 
ATOM     14  C   UNL     1      -7.766  10.686  19.000  1.00  0.00     0.051 A 
ATOM     15  C   UNL     1      -8.316  10.099  20.149  1.00  0.00     0.157 A 
ATOM     16  C   UNL     1      -9.677   8.660  18.745  1.00  0.00     0.062 A 
ATOM     17  C   UNL     1      -9.279   9.085  20.019  1.00  0.00     0.158 A 
BRANCH  15  18
ATOM     18  O   UNL     1      -7.913  10.524  21.414  1.00  0.00    -0.504 OA
ATOM     19  H   UNL     1      -6.933  10.603  21.660  1.00  0.00     0.293 HD
ENDBRANCH  15  18
BRANCH  17  20
ATOM     20  O   UNL     1      -9.856   8.491  21.142  1.00  0.00    -0.504 OA
ATOM     21  H   UNL     1      -9.359   8.406  22.020  1.00  0.00     0.293 HD
ENDBRANCH  17  20
ENDBRANCH   1  12
BRANCH   2  22
ATOM     22  O   UNL     1     -11.588  10.117  16.366  1.00  0.00    -0.502 OA
ATOM     23  H   UNL     1     -11.564  10.185  17.376  1.00  0.00     0.293 HD
ENDBRANCH   2  22
BRANCH   6  24
ATOM     24  O   UNL     1     -11.607   7.880  11.671  1.00  0.00    -0.507 OA
ATOM     25  H   UNL     1     -11.556   8.223  10.719  1.00  0.00     0.293 HD
ENDBRANCH   6  24
BRANCH   8  26
ATOM     26  O   UNL     1      -7.549   5.275  11.813  1.00  0.00    -0.508 OA
ATOM     27  H   UNL     1      -6.651   5.578  11.455  1.00  0.00     0.293 HD
ENDBRANCH   8  26
TORSDOF 6
ENDMDL
