MODEL 1
REMARK VINA RESULT:    -6.252      0.000      0.000
REMARK INTER + INTRA:         -12.476
REMARK INTER:                 -11.734
REMARK INTRA:                  -0.742
REMARK UNBOUND:                -0.742
REMARK SMILES CCCCCCCCC=CCCCCCCCC(=O)[O-]
REMARK SMILES IDX 10 1 9 2 11 3 12 4 13 5 14 6 15 7 16 8 17 9 18 10 19 11
REMARK SMILES IDX 20 12 8 13 7 14 6 15 5 16 4 17 3 18 2 19 1 20
REMARK H PARENT
REMARK Flexibility Score: inf
ROOT
ATOM      1  C   UNL     1      24.580 139.478 352.862  1.00  0.00    -0.031 C 
ATOM      2  C   UNL     1      24.322 138.234 352.433  1.00  0.00    -0.031 C 
ENDROOT
BRANCH   1   3
ATOM      3  C   UNL     1      24.182 140.684 352.059  1.00  0.00     0.027 C 
BRANCH   3   4
ATOM      4  C   UNL     1      23.182 141.556 352.833  1.00  0.00     0.004 C 
BRANCH   4   5
ATOM      5  C   UNL     1      22.394 142.504 351.917  1.00  0.00     0.000 C 
BRANCH   5   6
ATOM      6  C   UNL     1      21.273 143.249 352.663  1.00  0.00     0.000 C 
BRANCH   6   7
ATOM      7  C   UNL     1      20.700 142.434 353.833  1.00  0.00     0.000 C 
BRANCH   7   8
ATOM      8  C   UNL     1      19.634 143.207 354.624  1.00  0.00     0.006 C 
BRANCH   8   9
ATOM      9  C   UNL     1      18.234 142.947 354.057  1.00  0.00     0.053 C 
BRANCH   9  10
ATOM     10  C   UNL     1      17.758 144.129 353.272  1.00  0.00     0.041 C 
ATOM     11  O   UNL     1      18.178 144.321 352.100  1.00  0.00    -0.550 OA
ATOM     12  O   UNL     1      16.883 145.041 353.849  1.00  0.00    -0.550 OA
ENDBRANCH   9  10
ENDBRANCH   8   9
ENDBRANCH   7   8
ENDBRANCH   6   7
ENDBRANCH   5   6
ENDBRANCH   4   5
ENDBRANCH   3   4
ENDBRANCH   1   3
BRANCH   2  13
ATOM     13  C   UNL     1      24.759 137.020 353.210  1.00  0.00     0.027 C 
BRANCH  13  14
ATOM     14  C   UNL     1      25.251 135.907 352.277  1.00  0.00     0.004 C 
BRANCH  14  15
ATOM     15  C   UNL     1      26.674 135.439 352.632  1.00  0.00     0.000 C 
BRANCH  15  16
ATOM     16  C   UNL     1      27.073 135.805 354.071  1.00  0.00     0.000 C 
BRANCH  16  17
ATOM     17  C   UNL     1      28.405 135.166 354.497  1.00  0.00    -0.000 C 
BRANCH  17  18
ATOM     18  C   UNL     1      29.604 135.687 353.685  1.00  0.00    -0.000 C 
BRANCH  18  19
ATOM     19  C   UNL     1      30.320 134.590 352.869  1.00  0.00    -0.003 C 
ATOM     20  C   UNL     1      30.933 133.507 353.758  1.00  0.00     0.004 C 
ENDBRANCH  18  19
ENDBRANCH  17  18
ENDBRANCH  16  17
ENDBRANCH  15  16
ENDBRANCH  14  15
ENDBRANCH  13  14
ENDBRANCH   2  13
TORSDOF 15
ENDMDL
MODEL 2
REMARK VINA RESULT:    -6.212      5.409     11.399
REMARK INTER + INTRA:         -12.402
REMARK INTER:                 -11.550
REMARK INTRA:                  -0.852
REMARK UNBOUND:                -0.742
REMARK SMILES CCCCCCCCC=CCCCCCCCC(=O)[O-]
REMARK SMILES IDX 10 1 9 2 11 3 12 4 13 5 14 6 15 7 16 8 17 9 18 10 19 11
REMARK SMILES IDX 20 12 8 13 7 14 6 15 5 16 4 17 3 18 2 19 1 20
REMARK H PARENT
REMARK Flexibility Score: inf
ROOT
ATOM      1  C   UNL     1      23.794 139.535 353.264  1.00  0.00    -0.031 C 
ATOM      2  C   UNL     1      23.241 139.986 352.128  1.00  0.00    -0.031 C 
ENDROOT
BRANCH   1   3
ATOM      3  C   UNL     1      23.758 138.078 353.630  1.00  0.00     0.027 C 
BRANCH   3   4
ATOM      4  C   UNL     1      24.654 137.252 352.695  1.00  0.00     0.004 C 
BRANCH   4   5
ATOM      5  C   UNL     1      25.912 136.721 353.400  1.00  0.00     0.000 C 
BRANCH   5   6
ATOM      6  C   UNL     1      26.742 135.789 352.501  1.00  0.00     0.000 C 
BRANCH   6   7
ATOM      7  C   UNL     1      27.483 134.704 353.298  1.00  0.00     0.000 C 
BRANCH   7   8
ATOM      8  C   UNL     1      28.586 135.282 354.198  1.00  0.00     0.006 C 
BRANCH   8   9
ATOM      9  C   UNL     1      29.826 135.651 353.377  1.00  0.00     0.053 C 
BRANCH   9  10
ATOM     10  C   UNL     1      30.516 134.417 352.885  1.00  0.00     0.041 C 
ATOM     11  O   UNL     1      31.033 133.612 353.703  1.00  0.00    -0.550 OA
ATOM     12  O   UNL     1      30.625 134.178 351.521  1.00  0.00    -0.550 OA
ENDBRANCH   9  10
ENDBRANCH   8   9
ENDBRANCH   7   8
ENDBRANCH   6   7
ENDBRANCH   5   6
ENDBRANCH   4   5
ENDBRANCH   3   4
ENDBRANCH   1   3
BRANCH   2  13
ATOM     13  C   UNL     1      23.233 141.451 351.778  1.00  0.00     0.027 C 
BRANCH  13  14
ATOM     14  C   UNL     1      22.795 142.308 352.971  1.00  0.00     0.004 C 
BRANCH  14  15
ATOM     15  C   UNL     1      21.661 143.281 352.601  1.00  0.00     0.000 C 
BRANCH  15  16
ATOM     16  C   UNL     1      20.274 142.748 352.995  1.00  0.00     0.000 C 
BRANCH  16  17
ATOM     17  C   UNL     1      19.980 142.911 354.495  1.00  0.00    -0.000 C 
BRANCH  17  18
ATOM     18  C   UNL     1      18.594 143.517 354.770  1.00  0.00    -0.000 C 
BRANCH  18  19
ATOM     19  C   UNL     1      17.786 143.817 353.490  1.00  0.00    -0.003 C 
ATOM     20  C   UNL     1      16.967 145.103 353.604  1.00  0.00     0.004 C 
ENDBRANCH  18  19
ENDBRANCH  17  18
ENDBRANCH  16  17
ENDBRANCH  15  16
ENDBRANCH  14  15
ENDBRANCH  13  14
ENDBRANCH   2  13
TORSDOF 15
ENDMDL
MODEL 3
REMARK VINA RESULT:    -5.915      5.008     10.880
REMARK INTER + INTRA:         -11.843
REMARK INTER:                 -10.723
REMARK INTRA:                  -1.120
REMARK UNBOUND:                -0.742
REMARK SMILES CCCCCCCCC=CCCCCCCCC(=O)[O-]
REMARK SMILES IDX 10 1 9 2 11 3 12 4 13 5 14 6 15 7 16 8 17 9 18 10 19 11
REMARK SMILES IDX 20 12 8 13 7 14 6 15 5 16 4 17 3 18 2 19 1 20
REMARK H PARENT
REMARK Flexibility Score: inf
ROOT
ATOM      1  C   UNL     1      23.225 140.542 352.650  1.00  0.00    -0.031 C 
ATOM      2  C   UNL     1      22.470 141.485 353.233  1.00  0.00    -0.031 C 
ENDROOT
BRANCH   1   3
ATOM      3  C   UNL     1      23.461 139.210 353.304  1.00  0.00     0.027 C 
BRANCH   3   4
ATOM      4  C   UNL     1      24.756 138.565 352.788  1.00  0.00     0.004 C 
BRANCH   4   5
ATOM      5  C   UNL     1      24.804 137.051 353.047  1.00  0.00     0.000 C 
BRANCH   5   6
ATOM      6  C   UNL     1      26.230 136.482 352.950  1.00  0.00     0.000 C 
BRANCH   6   7
ATOM      7  C   UNL     1      26.595 135.595 354.151  1.00  0.00     0.000 C 
BRANCH   7   8
ATOM      8  C   UNL     1      28.006 135.881 354.689  1.00  0.00     0.006 C 
BRANCH   8   9
ATOM      9  C   UNL     1      28.983 134.773 354.281  1.00  0.00     0.053 C 
BRANCH   9  10
ATOM     10  C   UNL     1      29.692 135.139 353.014  1.00  0.00     0.041 C 
ATOM     11  O   UNL     1      29.572 134.416 351.990  1.00  0.00    -0.550 OA
ATOM     12  O   UNL     1      30.520 136.253 352.978  1.00  0.00    -0.550 OA
ENDBRANCH   9  10
ENDBRANCH   8   9
ENDBRANCH   7   8
ENDBRANCH   6   7
ENDBRANCH   5   6
ENDBRANCH   4   5
ENDBRANCH   3   4
ENDBRANCH   1   3
BRANCH   2  13
ATOM     13  C   UNL     1      22.268 142.839 352.605  1.00  0.00     0.027 C 
BRANCH  13  14
ATOM     14  C   UNL     1      22.071 142.728 351.088  1.00  0.00     0.004 C 
BRANCH  14  15
ATOM     15  C   UNL     1      20.583 142.698 350.698  1.00  0.00     0.000 C 
BRANCH  15  16
ATOM     16  C   UNL     1      19.903 144.067 350.857  1.00  0.00     0.000 C 
BRANCH  16  17
ATOM     17  C   UNL     1      18.498 143.964 351.473  1.00  0.00    -0.000 C 
BRANCH  17  18
ATOM     18  C   UNL     1      18.370 142.806 352.477  1.00  0.00    -0.000 C 
BRANCH  18  19
ATOM     19  C   UNL     1      18.301 143.269 353.947  1.00  0.00    -0.003 C 
ATOM     20  C   UNL     1      19.510 142.808 354.762  1.00  0.00     0.004 C 
ENDBRANCH  18  19
ENDBRANCH  17  18
ENDBRANCH  16  17
ENDBRANCH  15  16
ENDBRANCH  14  15
ENDBRANCH  13  14
ENDBRANCH   2  13
TORSDOF 15
ENDMDL
MODEL 4
REMARK VINA RESULT:    -5.898      4.134     10.256
REMARK INTER + INTRA:         -11.812
REMARK INTER:                 -10.663
REMARK INTRA:                  -1.149
REMARK UNBOUND:                -0.742
REMARK SMILES CCCCCCCCC=CCCCCCCCC(=O)[O-]
REMARK SMILES IDX 10 1 9 2 11 3 12 4 13 5 14 6 15 7 16 8 17 9 18 10 19 11
REMARK SMILES IDX 20 12 8 13 7 14 6 15 5 16 4 17 3 18 2 19 1 20
REMARK H PARENT
REMARK Flexibility Score: inf
ROOT
ATOM      1  C   UNL     1      25.128 137.809 352.917  1.00  0.00    -0.031 C 
ATOM      2  C   UNL     1      24.019 138.300 353.488  1.00  0.00    -0.031 C 
ENDROOT
BRANCH   1   3
ATOM      3  C   UNL     1      25.521 136.366 353.075  1.00  0.00     0.027 C 
BRANCH   3   4
ATOM      4  C   UNL     1      26.776 136.230 353.950  1.00  0.00     0.004 C 
BRANCH   4   5
ATOM      5  C   UNL     1      27.581 134.961 353.630  1.00  0.00     0.000 C 
BRANCH   5   6
ATOM      6  C   UNL     1      29.009 135.275 353.150  1.00  0.00     0.000 C 
BRANCH   6   7
ATOM      7  C   UNL     1      29.322 134.649 351.781  1.00  0.00     0.000 C 
BRANCH   7   8
ATOM      8  C   UNL     1      28.800 135.496 350.611  1.00  0.00     0.006 C 
BRANCH   8   9
ATOM      9  C   UNL     1      27.746 134.729 349.806  1.00  0.00     0.053 C 
BRANCH   9  10
ATOM     10  C   UNL     1      26.514 135.560 349.628  1.00  0.00     0.041 C 
ATOM     11  O   UNL     1      26.611 136.794 349.398  1.00  0.00    -0.550 OA
ATOM     12  O   UNL     1      25.258 134.980 349.759  1.00  0.00    -0.550 OA
ENDBRANCH   9  10
ENDBRANCH   8   9
ENDBRANCH   7   8
ENDBRANCH   6   7
ENDBRANCH   5   6
ENDBRANCH   4   5
ENDBRANCH   3   4
ENDBRANCH   1   3
BRANCH   2  13
ATOM     13  C   UNL     1      23.645 139.755 353.372  1.00  0.00     0.027 C 
BRANCH  13  14
ATOM     14  C   UNL     1      23.117 140.086 351.971  1.00  0.00     0.004 C 
BRANCH  14  15
ATOM     15  C   UNL     1      22.814 141.586 351.806  1.00  0.00     0.000 C 
BRANCH  15  16
ATOM     16  C   UNL     1      22.550 142.286 353.148  1.00  0.00     0.000 C 
BRANCH  16  17
ATOM     17  C   UNL     1      21.170 142.962 353.203  1.00  0.00    -0.000 C 
BRANCH  17  18
ATOM     18  C   UNL     1      20.226 142.310 354.226  1.00  0.00    -0.000 C 
BRANCH  18  19
ATOM     19  C   UNL     1      18.985 143.166 354.555  1.00  0.00    -0.003 C 
ATOM     20  C   UNL     1      18.506 143.986 353.356  1.00  0.00     0.004 C 
ENDBRANCH  18  19
ENDBRANCH  17  18
ENDBRANCH  16  17
ENDBRANCH  15  16
ENDBRANCH  14  15
ENDBRANCH  13  14
ENDBRANCH   2  13
TORSDOF 15
ENDMDL
MODEL 5
REMARK VINA RESULT:    -5.805      3.118      4.342
REMARK INTER + INTRA:         -11.638
REMARK INTER:                 -10.169
REMARK INTRA:                  -1.469
REMARK UNBOUND:                -0.742
REMARK SMILES CCCCCCCCC=CCCCCCCCC(=O)[O-]
REMARK SMILES IDX 10 1 9 2 11 3 12 4 13 5 14 6 15 7 16 8 17 9 18 10 19 11
REMARK SMILES IDX 20 12 8 13 7 14 6 15 5 16 4 17 3 18 2 19 1 20
REMARK H PARENT
REMARK Flexibility Score: inf
ROOT
ATOM      1  C   UNL     1      25.279 137.316 352.039  1.00  0.00    -0.031 C 
ATOM      2  C   UNL     1      25.585 136.846 353.258  1.00  0.00    -0.031 C 
ENDROOT
BRANCH   1   3
ATOM      3  C   UNL     1      24.305 138.445 351.855  1.00  0.00     0.027 C 
BRANCH   3   4
ATOM      4  C   UNL     1      23.927 139.072 353.205  1.00  0.00     0.004 C 
BRANCH   4   5
ATOM      5  C   UNL     1      24.306 140.559 353.291  1.00  0.00     0.000 C 
BRANCH   5   6
ATOM      6  C   UNL     1      23.090 141.463 353.555  1.00  0.00     0.000 C 
BRANCH   6   7
ATOM      7  C   UNL     1      22.680 142.279 352.318  1.00  0.00     0.000 C 
BRANCH   7   8
ATOM      8  C   UNL     1      23.718 142.199 351.188  1.00  0.00     0.006 C 
BRANCH   8   9
ATOM      9  C   UNL     1      23.104 142.621 349.849  1.00  0.00     0.053 C 
BRANCH   9  10
ATOM     10  C   UNL     1      23.835 143.799 349.284  1.00  0.00     0.041 C 
ATOM     11  O   UNL     1      23.236 144.615 348.534  1.00  0.00    -0.550 OA
ATOM     12  O   UNL     1      25.187 143.972 349.550  1.00  0.00    -0.550 OA
ENDBRANCH   9  10
ENDBRANCH   8   9
ENDBRANCH   7   8
ENDBRANCH   6   7
ENDBRANCH   5   6
ENDBRANCH   4   5
ENDBRANCH   3   4
ENDBRANCH   1   3
BRANCH   2  13
ATOM     13  C   UNL     1      26.525 135.683 353.446  1.00  0.00     0.027 C 
BRANCH  13  14
ATOM     14  C   UNL     1      27.513 135.943 354.589  1.00  0.00     0.004 C 
BRANCH  14  15
ATOM     15  C   UNL     1      28.807 135.125 354.434  1.00  0.00     0.000 C 
BRANCH  15  16
ATOM     16  C   UNL     1      29.801 135.772 353.456  1.00  0.00     0.000 C 
BRANCH  16  17
ATOM     17  C   UNL     1      30.547 134.736 352.598  1.00  0.00    -0.000 C 
BRANCH  17  18
ATOM     18  C   UNL     1      29.789 134.370 351.310  1.00  0.00    -0.000 C 
BRANCH  18  19
ATOM     19  C   UNL     1      28.940 135.527 350.744  1.00  0.00    -0.003 C 
ATOM     20  C   UNL     1      27.731 135.029 349.950  1.00  0.00     0.004 C 
ENDBRANCH  18  19
ENDBRANCH  17  18
ENDBRANCH  16  17
ENDBRANCH  15  16
ENDBRANCH  14  15
ENDBRANCH  13  14
ENDBRANCH   2  13
TORSDOF 15
ENDMDL
MODEL 6
REMARK VINA RESULT:    -5.772      9.995     12.686
REMARK INTER + INTRA:         -11.575
REMARK INTER:                 -10.303
REMARK INTRA:                  -1.272
REMARK UNBOUND:                -0.742
REMARK SMILES CCCCCCCCC=CCCCCCCCC(=O)[O-]
REMARK SMILES IDX 10 1 9 2 11 3 12 4 13 5 14 6 15 7 16 8 17 9 18 10 19 11
REMARK SMILES IDX 20 12 8 13 7 14 6 15 5 16 4 17 3 18 2 19 1 20
REMARK H PARENT
REMARK Flexibility Score: inf
ROOT
ATOM      1  C   UNL     1      28.543 140.131 341.599  1.00  0.00    -0.031 C 
ATOM      2  C   UNL     1      28.167 141.191 342.330  1.00  0.00    -0.031 C 
ENDROOT
BRANCH   1   3
ATOM      3  C   UNL     1      29.855 140.107 340.867  1.00  0.00     0.027 C 
BRANCH   3   4
ATOM      4  C   UNL     1      31.032 140.014 341.849  1.00  0.00     0.004 C 
BRANCH   4   5
ATOM      5  C   UNL     1      30.759 139.041 343.007  1.00  0.00     0.000 C 
BRANCH   5   6
ATOM      6  C   UNL     1      31.052 139.664 344.382  1.00  0.00     0.000 C 
BRANCH   6   7
ATOM      7  C   UNL     1      29.823 139.664 345.306  1.00  0.00     0.000 C 
BRANCH   7   8
ATOM      8  C   UNL     1      29.708 140.952 346.135  1.00  0.00     0.006 C 
BRANCH   8   9
ATOM      9  C   UNL     1      28.242 141.359 346.315  1.00  0.00     0.053 C 
BRANCH   9  10
ATOM     10  C   UNL     1      28.124 142.474 347.306  1.00  0.00     0.041 C 
ATOM     11  O   UNL     1      29.122 143.198 347.566  1.00  0.00    -0.550 OA
ATOM     12  O   UNL     1      26.926 142.686 347.976  1.00  0.00    -0.550 OA
ENDBRANCH   9  10
ENDBRANCH   8   9
ENDBRANCH   7   8
ENDBRANCH   6   7
ENDBRANCH   5   6
ENDBRANCH   4   5
ENDBRANCH   3   4
ENDBRANCH   1   3
BRANCH   2  13
ATOM     13  C   UNL     1      26.833 141.240 343.027  1.00  0.00     0.027 C 
BRANCH  13  14
ATOM     14  C   UNL     1      25.728 140.620 342.163  1.00  0.00     0.004 C 
BRANCH  14  15
ATOM     15  C   UNL     1      24.492 140.234 342.994  1.00  0.00     0.000 C 
BRANCH  15  16
ATOM     16  C   UNL     1      23.586 139.225 342.270  1.00  0.00     0.000 C 
BRANCH  16  17
ATOM     17  C   UNL     1      23.223 138.016 343.148  1.00  0.00    -0.000 C 
BRANCH  17  18
ATOM     18  C   UNL     1      21.816 138.124 343.761  1.00  0.00    -0.000 C 
BRANCH  18  19
ATOM     19  C   UNL     1      20.765 137.245 343.052  1.00  0.00    -0.003 C 
ATOM     20  C   UNL     1      19.779 138.068 342.223  1.00  0.00     0.004 C 
ENDBRANCH  18  19
ENDBRANCH  17  18
ENDBRANCH  16  17
ENDBRANCH  15  16
ENDBRANCH  14  15
ENDBRANCH  13  14
ENDBRANCH   2  13
TORSDOF 15
ENDMDL
MODEL 7
REMARK VINA RESULT:    -5.748      4.366      9.739
REMARK INTER + INTRA:         -11.530
REMARK INTER:                 -10.028
REMARK INTRA:                  -1.501
REMARK UNBOUND:                -0.742
REMARK SMILES CCCCCCCCC=CCCCCCCCC(=O)[O-]
REMARK SMILES IDX 10 1 9 2 11 3 12 4 13 5 14 6 15 7 16 8 17 9 18 10 19 11
REMARK SMILES IDX 20 12 8 13 7 14 6 15 5 16 4 17 3 18 2 19 1 20
REMARK H PARENT
REMARK Flexibility Score: inf
ROOT
ATOM      1  C   UNL     1      26.533 135.957 353.382  1.00  0.00    -0.031 C 
ATOM      2  C   UNL     1      25.470 136.775 353.357  1.00  0.00    -0.031 C 
ENDROOT
BRANCH   1   3
ATOM      3  C   UNL     1      27.545 136.017 354.492  1.00  0.00     0.027 C 
BRANCH   3   4
ATOM      4  C   UNL     1      28.685 135.017 354.252  1.00  0.00     0.004 C 
BRANCH   4   5
ATOM      5  C   UNL     1      28.647 134.406 352.843  1.00  0.00     0.000 C 
BRANCH   5   6
ATOM      6  C   UNL     1      29.635 135.086 351.879  1.00  0.00     0.000 C 
BRANCH   6   7
ATOM      7  C   UNL     1      28.975 135.506 350.556  1.00  0.00     0.000 C 
BRANCH   7   8
ATOM      8  C   UNL     1      27.809 134.588 350.160  1.00  0.00     0.006 C 
BRANCH   8   9
ATOM      9  C   UNL     1      26.720 135.372 349.420  1.00  0.00     0.053 C 
BRANCH   9  10
ATOM     10  C   UNL     1      25.619 134.457 348.983  1.00  0.00     0.041 C 
ATOM     11  O   UNL     1      25.863 133.504 348.196  1.00  0.00    -0.550 OA
ATOM     12  O   UNL     1      24.317 134.683 349.409  1.00  0.00    -0.550 OA
ENDBRANCH   9  10
ENDBRANCH   8   9
ENDBRANCH   7   8
ENDBRANCH   6   7
ENDBRANCH   5   6
ENDBRANCH   4   5
ENDBRANCH   3   4
ENDBRANCH   1   3
BRANCH   2  13
ATOM     13  C   UNL     1      24.478 136.751 352.224  1.00  0.00     0.027 C 
BRANCH  13  14
ATOM     14  C   UNL     1      24.473 138.079 351.458  1.00  0.00     0.004 C 
BRANCH  14  15
ATOM     15  C   UNL     1      24.605 139.291 352.398  1.00  0.00     0.000 C 
BRANCH  15  16
ATOM     16  C   UNL     1      23.324 139.553 353.206  1.00  0.00     0.000 C 
BRANCH  16  17
ATOM     17  C   UNL     1      23.005 141.051 353.341  1.00  0.00    -0.000 C 
BRANCH  17  18
ATOM     18  C   UNL     1      22.960 141.777 351.985  1.00  0.00    -0.000 C 
BRANCH  18  19
ATOM     19  C   UNL     1      22.059 143.029 351.985  1.00  0.00    -0.003 C 
ATOM     20  C   UNL     1      21.096 143.056 353.172  1.00  0.00     0.004 C 
ENDBRANCH  18  19
ENDBRANCH  17  18
ENDBRANCH  16  17
ENDBRANCH  15  16
ENDBRANCH  14  15
ENDBRANCH  13  14
ENDBRANCH   2  13
TORSDOF 15
ENDMDL
MODEL 8
REMARK VINA RESULT:    -5.725      1.103      1.636
REMARK INTER + INTRA:         -11.487
REMARK INTER:                 -10.499
REMARK INTRA:                  -0.988
REMARK UNBOUND:                -0.742
REMARK SMILES CCCCCCCCC=CCCCCCCCC(=O)[O-]
REMARK SMILES IDX 10 1 9 2 11 3 12 4 13 5 14 6 15 7 16 8 17 9 18 10 19 11
REMARK SMILES IDX 20 12 8 13 7 14 6 15 5 16 4 17 3 18 2 19 1 20
REMARK H PARENT
REMARK Flexibility Score: inf
ROOT
ATOM      1  C   UNL     1      23.036 139.476 350.860  1.00  0.00    -0.031 C 
ATOM      2  C   UNL     1      23.693 139.274 352.011  1.00  0.00    -0.031 C 
ENDROOT
BRANCH   1   3
ATOM      3  C   UNL     1      23.106 140.791 350.135  1.00  0.00     0.027 C 
BRANCH   3   4
ATOM      4  C   UNL     1      23.972 141.798 350.905  1.00  0.00     0.004 C 
BRANCH   4   5
ATOM      5  C   UNL     1      23.162 142.995 351.427  1.00  0.00     0.000 C 
BRANCH   5   6
ATOM      6  C   UNL     1      22.509 142.715 352.791  1.00  0.00     0.000 C 
BRANCH   6   7
ATOM      7  C   UNL     1      21.014 143.069 352.815  1.00  0.00     0.000 C 
BRANCH   7   8
ATOM      8  C   UNL     1      20.276 142.437 354.006  1.00  0.00     0.006 C 
BRANCH   8   9
ATOM      9  C   UNL     1      19.254 143.413 354.598  1.00  0.00     0.053 C 
BRANCH   9  10
ATOM     10  C   UNL     1      18.039 143.493 353.727  1.00  0.00     0.041 C 
ATOM     11  O   UNL     1      17.333 144.535 353.720  1.00  0.00    -0.550 OA
ATOM     12  O   UNL     1      17.663 142.401 352.955  1.00  0.00    -0.550 OA
ENDBRANCH   9  10
ENDBRANCH   8   9
ENDBRANCH   7   8
ENDBRANCH   6   7
ENDBRANCH   5   6
ENDBRANCH   4   5
ENDBRANCH   3   4
ENDBRANCH   1   3
BRANCH   2  13
ATOM     13  C   UNL     1      23.590 137.975 352.766  1.00  0.00     0.027 C 
BRANCH  13  14
ATOM     14  C   UNL     1      24.976 137.402 353.086  1.00  0.00     0.004 C 
BRANCH  14  15
ATOM     15  C   UNL     1      25.276 136.126 352.281  1.00  0.00     0.000 C 
BRANCH  15  16
ATOM     16  C   UNL     1      26.653 135.528 352.612  1.00  0.00     0.000 C 
BRANCH  16  17
ATOM     17  C   UNL     1      27.049 135.733 354.084  1.00  0.00    -0.000 C 
BRANCH  17  18
ATOM     18  C   UNL     1      28.527 135.406 354.355  1.00  0.00    -0.000 C 
BRANCH  18  19
ATOM     19  C   UNL     1      29.143 134.432 353.329  1.00  0.00    -0.003 C 
ATOM     20  C   UNL     1      30.538 133.959 353.737  1.00  0.00     0.004 C 
ENDBRANCH  18  19
ENDBRANCH  17  18
ENDBRANCH  16  17
ENDBRANCH  15  16
ENDBRANCH  14  15
ENDBRANCH  13  14
ENDBRANCH   2  13
TORSDOF 15
ENDMDL
MODEL 9
REMARK VINA RESULT:    -5.717     10.092     11.219
REMARK INTER + INTRA:         -11.472
REMARK INTER:                 -10.297
REMARK INTRA:                  -1.175
REMARK UNBOUND:                -0.742
REMARK SMILES CCCCCCCCC=CCCCCCCCC(=O)[O-]
REMARK SMILES IDX 10 1 9 2 11 3 12 4 13 5 14 6 15 7 16 8 17 9 18 10 19 11
REMARK SMILES IDX 20 12 8 13 7 14 6 15 5 16 4 17 3 18 2 19 1 20
REMARK H PARENT
REMARK Flexibility Score: inf
ROOT
ATOM      1  C   UNL     1      21.206 137.669 343.138  1.00  0.00    -0.031 C 
ATOM      2  C   UNL     1      22.076 138.280 342.320  1.00  0.00    -0.031 C 
ENDROOT
BRANCH   1   3
ATOM      3  C   UNL     1      19.758 137.508 342.767  1.00  0.00     0.027 C 
BRANCH   3   4
ATOM      4  C   UNL     1      19.364 138.486 341.650  1.00  0.00     0.004 C 
BRANCH   4   5
ATOM      5  C   UNL     1      17.843 138.670 341.537  1.00  0.00     0.000 C 
BRANCH   5   6
ATOM      6  C   UNL     1      17.129 138.512 342.891  1.00  0.00     0.000 C 
BRANCH   6   7
ATOM      7  C   UNL     1      16.999 139.842 343.650  1.00  0.00     0.000 C 
BRANCH   7   8
ATOM      8  C   UNL     1      17.725 139.822 345.004  1.00  0.00     0.006 C 
BRANCH   8   9
ATOM      9  C   UNL     1      17.581 138.455 345.683  1.00  0.00     0.053 C 
BRANCH   9  10
ATOM     10  C   UNL     1      18.813 138.125 346.465  1.00  0.00     0.041 C 
ATOM     11  O   UNL     1      19.872 138.784 346.286  1.00  0.00    -0.550 OA
ATOM     12  O   UNL     1      18.805 137.062 347.360  1.00  0.00    -0.550 OA
ENDBRANCH   9  10
ENDBRANCH   8   9
ENDBRANCH   7   8
ENDBRANCH   6   7
ENDBRANCH   5   6
ENDBRANCH   4   5
ENDBRANCH   3   4
ENDBRANCH   1   3
BRANCH   2  13
ATOM     13  C   UNL     1      23.517 138.486 342.706  1.00  0.00     0.027 C 
BRANCH  13  14
ATOM     14  C   UNL     1      23.813 139.963 342.992  1.00  0.00     0.004 C 
BRANCH  14  15
ATOM     15  C   UNL     1      24.930 140.515 342.088  1.00  0.00     0.000 C 
BRANCH  15  16
ATOM     16  C   UNL     1      26.163 140.971 342.884  1.00  0.00     0.000 C 
BRANCH  16  17
ATOM     17  C   UNL     1      27.460 140.901 342.061  1.00  0.00    -0.000 C 
BRANCH  17  18
ATOM     18  C   UNL     1      28.723 140.876 342.937  1.00  0.00    -0.000 C 
BRANCH  18  19
ATOM     19  C   UNL     1      30.031 140.726 342.132  1.00  0.00    -0.003 C 
ATOM     20  C   UNL     1      30.299 139.279 341.716  1.00  0.00     0.004 C 
ENDBRANCH  18  19
ENDBRANCH  17  18
ENDBRANCH  16  17
ENDBRANCH  15  16
ENDBRANCH  14  15
ENDBRANCH  13  14
ENDBRANCH   2  13
TORSDOF 15
ENDMDL
