MODEL 1
REMARK VINA RESULT:    -3.282      0.000      0.000
REMARK INTER + INTRA:          -4.148
REMARK INTER:                  -3.858
REMARK INTRA:                  -0.291
REMARK UNBOUND:                -0.291
REMARK SMILES O=c1cc(-c2ccc(O)c(O)c2)oc2cc(O)cc(O)c12
REMARK SMILES IDX 4 1 3 2 2 3 1 4 21 5 19 6 18 7 16 8 15 9 14 10 13 11 5 12
REMARK SMILES IDX 6 13 7 14 8 15 12 16 10 17 9 18 11 20 20 22 17 24
REMARK H PARENT 9 19 11 21 20 23 17 25
REMARK Flexibility Score: inf
ROOT
ATOM      1  C   UNL     1      -8.599 -18.071  -1.703  1.00  0.00     0.138 A 
ATOM      2  C   UNL     1      -8.109 -18.622  -0.508  1.00  0.00     0.100 A 
ATOM      3  C   UNL     1      -8.321 -19.974  -0.238  1.00  0.00     0.197 A 
ATOM      4  O   UNL     1      -7.875 -20.460   0.837  1.00  0.00    -0.289 OA
ATOM      5  C   UNL     1      -9.023 -20.767  -1.167  1.00  0.00     0.107 A 
ATOM      6  C   UNL     1      -9.282 -22.145  -0.970  1.00  0.00     0.134 A 
ATOM      7  C   UNL     1      -9.983 -22.867  -1.947  1.00  0.00     0.093 A 
ATOM      8  C   UNL     1     -10.427 -22.241  -3.114  1.00  0.00     0.123 A 
ATOM      9  C   UNL     1     -10.173 -20.879  -3.314  1.00  0.00     0.094 A 
ATOM     10  C   UNL     1      -9.478 -20.142  -2.353  1.00  0.00     0.146 A 
ATOM     11  O   UNL     1      -9.250 -18.850  -2.565  1.00  0.00    -0.456 OA
ENDROOT
BRANCH   1  12
ATOM     12  C   UNL     1      -8.402 -16.639  -2.045  1.00  0.00     0.021 A 
ATOM     13  C   UNL     1      -8.423 -16.241  -3.393  1.00  0.00     0.016 A 
ATOM     14  C   UNL     1      -8.247 -14.899  -3.741  1.00  0.00     0.051 A 
ATOM     15  C   UNL     1      -8.057 -13.931  -2.747  1.00  0.00     0.157 A 
ATOM     16  C   UNL     1      -8.224 -15.657  -1.051  1.00  0.00     0.062 A 
ATOM     17  C   UNL     1      -8.049 -14.312  -1.396  1.00  0.00     0.158 A 
BRANCH  15  18
ATOM     18  O   UNL     1      -7.880 -12.593  -3.098  1.00  0.00    -0.504 OA
ATOM     19  H   UNL     1      -7.035 -12.088  -2.855  1.00  0.00     0.293 HD
ENDBRANCH  15  18
BRANCH  17  20
ATOM     20  O   UNL     1      -7.875 -13.370  -0.383  1.00  0.00    -0.504 OA
ATOM     21  H   UNL     1      -7.187 -12.629  -0.450  1.00  0.00     0.293 HD
ENDBRANCH  17  20
ENDBRANCH   1  12
BRANCH   6  22
ATOM     22  O   UNL     1      -8.851 -22.798   0.186  1.00  0.00    -0.507 OA
ATOM     23  H   UNL     1      -8.489 -23.744   0.159  1.00  0.00     0.293 HD
ENDBRANCH   6  22
BRANCH   8  24
ATOM     24  O   UNL     1     -11.120 -22.981  -4.069  1.00  0.00    -0.508 OA
ATOM     25  H   UNL     1     -11.694 -22.532  -4.773  1.00  0.00     0.293 HD
ENDBRANCH   8  24
TORSDOF 5
ENDMDL
