MODEL 1
REMARK VINA RESULT:    -4.831      0.000      0.000
REMARK INTER + INTRA:          -5.676
REMARK INTER:                  -5.537
REMARK INTRA:                  -0.139
REMARK UNBOUND:                -0.139
REMARK SMILES O=C([O-])C=Cc1ccc(O)cc1
REMARK SMILES IDX 6 1 7 2 12 3 8 4 11 5 9 6 5 7 4 8 2 9 1 10 3 11 10 12
REMARK H PARENT 10 13
REMARK Flexibility Score: inf
ROOT
ATOM      1  C   UNL     1       7.090  -9.825  41.813  1.00  0.00    -0.025 A 
ATOM      2  C   UNL     1       7.614  -8.540  41.561  1.00  0.00     0.012 A 
ATOM      3  C   UNL     1       7.074 -10.302  43.134  1.00  0.00     0.012 A 
ATOM      4  C   UNL     1       8.130  -7.770  42.608  1.00  0.00     0.047 A 
ATOM      5  C   UNL     1       7.593  -9.530  44.177  1.00  0.00     0.047 A 
ATOM      6  C   UNL     1       8.123  -8.263  43.917  1.00  0.00     0.115 A 
ENDROOT
BRANCH   1   7
ATOM      7  C   UNL     1       6.519 -10.678  40.741  1.00  0.00     0.010 C 
ATOM      8  C   UNL     1       6.950 -11.918  40.466  1.00  0.00     0.025 C 
BRANCH   8   9
ATOM      9  C   UNL     1       6.349 -12.740  39.402  1.00  0.00     0.064 C 
ATOM     10  O   UNL     1       6.871 -12.808  38.256  1.00  0.00    -0.545 OA
ATOM     11  O   UNL     1       5.189 -13.455  39.665  1.00  0.00    -0.545 OA
ENDBRANCH   8   9
ENDBRANCH   1   7
BRANCH   6  12
ATOM     12  O   UNL     1       8.637  -7.504  44.967  1.00  0.00    -0.508 OA
ATOM     13  H   UNL     1       9.199  -6.678  44.797  1.00  0.00     0.293 HD
ENDBRANCH   6  12
TORSDOF 3
ENDMDL
MODEL 2
REMARK VINA RESULT:    -4.814      3.604      6.016
REMARK INTER + INTRA:          -5.656
REMARK INTER:                  -5.504
REMARK INTRA:                  -0.152
REMARK UNBOUND:                -0.139
REMARK SMILES O=C([O-])C=Cc1ccc(O)cc1
REMARK SMILES IDX 6 1 7 2 12 3 8 4 11 5 9 6 5 7 4 8 2 9 1 10 3 11 10 12
REMARK H PARENT 10 13
REMARK Flexibility Score: inf
ROOT
ATOM      1  C   UNL     1       7.921  -6.867  41.954  1.00  0.00    -0.025 A 
ATOM      2  C   UNL     1       7.686  -8.209  41.593  1.00  0.00     0.012 A 
ATOM      3  C   UNL     1       8.144  -6.559  43.307  1.00  0.00     0.012 A 
ATOM      4  C   UNL     1       7.651  -9.209  42.571  1.00  0.00     0.047 A 
ATOM      5  C   UNL     1       8.107  -7.560  44.281  1.00  0.00     0.047 A 
ATOM      6  C   UNL     1       7.859  -8.887  43.917  1.00  0.00     0.115 A 
ENDROOT
BRANCH   1   7
ATOM      7  C   UNL     1       7.981  -5.770  40.956  1.00  0.00     0.010 C 
ATOM      8  C   UNL     1       7.913  -4.469  41.272  1.00  0.00     0.025 C 
BRANCH   8   9
ATOM      9  C   UNL     1       7.988  -3.408  40.254  1.00  0.00     0.064 C 
ATOM     10  O   UNL     1       7.946  -2.190  40.577  1.00  0.00    -0.545 OA
ATOM     11  O   UNL     1       8.110  -3.754  38.915  1.00  0.00    -0.545 OA
ENDBRANCH   8   9
ENDBRANCH   1   7
BRANCH   6  12
ATOM     12  O   UNL     1       7.824  -9.875  44.899  1.00  0.00    -0.508 OA
ATOM     13  H   UNL     1       6.958 -10.330  45.161  1.00  0.00     0.293 HD
ENDBRANCH   6  12
TORSDOF 3
ENDMDL
MODEL 3
REMARK VINA RESULT:    -4.769      0.217      1.412
REMARK INTER + INTRA:          -5.605
REMARK INTER:                  -5.471
REMARK INTRA:                  -0.134
REMARK UNBOUND:                -0.139
REMARK SMILES O=C([O-])C=Cc1ccc(O)cc1
REMARK SMILES IDX 6 1 7 2 12 3 8 4 11 5 9 6 5 7 4 8 2 9 1 10 3 11 10 12
REMARK H PARENT 10 13
REMARK Flexibility Score: inf
ROOT
ATOM      1  C   UNL     1       6.988 -10.078  41.919  1.00  0.00    -0.025 A 
ATOM      2  C   UNL     1       7.005 -10.474  43.272  1.00  0.00     0.012 A 
ATOM      3  C   UNL     1       7.556  -8.842  41.568  1.00  0.00     0.012 A 
ATOM      4  C   UNL     1       7.557  -9.636  44.247  1.00  0.00     0.047 A 
ATOM      5  C   UNL     1       8.105  -8.007  42.545  1.00  0.00     0.047 A 
ATOM      6  C   UNL     1       8.106  -8.400  43.886  1.00  0.00     0.115 A 
ENDROOT
BRANCH   1   7
ATOM      7  C   UNL     1       6.426 -10.933  40.844  1.00  0.00     0.010 C 
ATOM      8  C   UNL     1       7.005 -12.062  40.410  1.00  0.00     0.025 C 
BRANCH   8   9
ATOM      9  C   UNL     1       6.411 -12.892  39.349  1.00  0.00     0.064 C 
ATOM     10  O   UNL     1       6.895 -12.910  38.185  1.00  0.00    -0.545 OA
ATOM     11  O   UNL     1       5.298 -13.672  39.635  1.00  0.00    -0.545 OA
ENDBRANCH   8   9
ENDBRANCH   1   7
BRANCH   6  12
ATOM     12  O   UNL     1       8.657  -7.558  44.850  1.00  0.00    -0.508 OA
ATOM     13  H   UNL     1       9.658  -7.511  45.002  1.00  0.00     0.293 HD
ENDBRANCH   6  12
TORSDOF 3
ENDMDL
MODEL 4
REMARK VINA RESULT:    -4.690      2.409      6.123
REMARK INTER + INTRA:          -5.514
REMARK INTER:                  -5.367
REMARK INTRA:                  -0.146
REMARK UNBOUND:                -0.139
REMARK SMILES O=C([O-])C=Cc1ccc(O)cc1
REMARK SMILES IDX 6 1 7 2 12 3 8 4 11 5 9 6 5 7 4 8 2 9 1 10 3 11 10 12
REMARK H PARENT 10 13
REMARK Flexibility Score: inf
ROOT
ATOM      1  C   UNL     1       8.082  -8.219  42.827  1.00  0.00    -0.025 A 
ATOM      2  C   UNL     1       7.845  -9.080  43.918  1.00  0.00     0.012 A 
ATOM      3  C   UNL     1       7.567  -8.566  41.567  1.00  0.00     0.012 A 
ATOM      4  C   UNL     1       7.131 -10.270  43.738  1.00  0.00     0.047 A 
ATOM      5  C   UNL     1       6.856  -9.756  41.390  1.00  0.00     0.047 A 
ATOM      6  C   UNL     1       6.637 -10.612  42.474  1.00  0.00     0.115 A 
ENDROOT
BRANCH   1   7
ATOM      7  C   UNL     1       8.822  -6.940  42.966  1.00  0.00     0.010 C 
ATOM      8  C   UNL     1       8.475  -5.806  42.341  1.00  0.00     0.025 C 
BRANCH   8   9
ATOM      9  C   UNL     1       9.227  -4.552  42.513  1.00  0.00     0.064 C 
ATOM     10  O   UNL     1      10.486  -4.534  42.466  1.00  0.00    -0.545 OA
ATOM     11  O   UNL     1       8.537  -3.366  42.730  1.00  0.00    -0.545 OA
ENDBRANCH   8   9
ENDBRANCH   1   7
BRANCH   6  12
ATOM     12  O   UNL     1       5.927 -11.795  42.283  1.00  0.00    -0.508 OA
ATOM     13  H   UNL     1       5.290 -12.149  42.988  1.00  0.00     0.293 HD
ENDBRANCH   6  12
TORSDOF 3
ENDMDL
MODEL 5
REMARK VINA RESULT:    -4.602      7.767      9.852
REMARK INTER + INTRA:          -5.413
REMARK INTER:                  -5.262
REMARK INTRA:                  -0.151
REMARK UNBOUND:                -0.139
REMARK SMILES O=C([O-])C=Cc1ccc(O)cc1
REMARK SMILES IDX 6 1 7 2 12 3 8 4 11 5 9 6 5 7 4 8 2 9 1 10 3 11 10 12
REMARK H PARENT 10 13
REMARK Flexibility Score: inf
ROOT
ATOM      1  C   UNL     1       6.700  -2.304  37.696  1.00  0.00    -0.025 A 
ATOM      2  C   UNL     1       6.012  -1.114  37.380  1.00  0.00     0.012 A 
ATOM      3  C   UNL     1       7.014  -3.200  36.661  1.00  0.00     0.012 A 
ATOM      4  C   UNL     1       5.629  -0.849  36.061  1.00  0.00     0.047 A 
ATOM      5  C   UNL     1       6.629  -2.931  35.344  1.00  0.00     0.047 A 
ATOM      6  C   UNL     1       5.934  -1.757  35.041  1.00  0.00     0.115 A 
ENDROOT
BRANCH   1   7
ATOM      7  C   UNL     1       7.140  -2.628  39.076  1.00  0.00     0.010 C 
ATOM      8  C   UNL     1       7.890  -3.695  39.388  1.00  0.00     0.025 C 
BRANCH   8   9
ATOM      9  C   UNL     1       8.318  -3.978  40.768  1.00  0.00     0.064 C 
ATOM     10  O   UNL     1       9.348  -3.438  41.256  1.00  0.00    -0.545 OA
ATOM     11  O   UNL     1       7.574  -4.853  41.548  1.00  0.00    -0.545 OA
ENDBRANCH   8   9
ENDBRANCH   1   7
BRANCH   6  12
ATOM     12  O   UNL     1       5.556  -1.502  33.724  1.00  0.00    -0.508 OA
ATOM     13  H   UNL     1       6.156  -0.987  33.091  1.00  0.00     0.293 HD
ENDBRANCH   6  12
TORSDOF 3
ENDMDL
MODEL 6
REMARK VINA RESULT:    -4.592      6.463      8.127
REMARK INTER + INTRA:          -5.402
REMARK INTER:                  -5.253
REMARK INTRA:                  -0.150
REMARK UNBOUND:                -0.139
REMARK SMILES O=C([O-])C=Cc1ccc(O)cc1
REMARK SMILES IDX 6 1 7 2 12 3 8 4 11 5 9 6 5 7 4 8 2 9 1 10 3 11 10 12
REMARK H PARENT 10 13
REMARK Flexibility Score: inf
ROOT
ATOM      1  C   UNL     1       8.112  -3.187  40.244  1.00  0.00    -0.025 A 
ATOM      2  C   UNL     1       8.278  -2.853  41.604  1.00  0.00     0.012 A 
ATOM      3  C   UNL     1       8.516  -4.459  39.806  1.00  0.00     0.012 A 
ATOM      4  C   UNL     1       8.858  -3.766  42.491  1.00  0.00     0.047 A 
ATOM      5  C   UNL     1       9.097  -5.368  40.695  1.00  0.00     0.047 A 
ATOM      6  C   UNL     1       9.271  -5.024  42.038  1.00  0.00     0.115 A 
ENDROOT
BRANCH   1   7
ATOM      7  C   UNL     1       7.491  -2.261  39.264  1.00  0.00     0.010 C 
ATOM      8  C   UNL     1       6.948  -2.657  38.104  1.00  0.00     0.025 C 
BRANCH   8   9
ATOM      9  C   UNL     1       6.329  -1.710  37.162  1.00  0.00     0.064 C 
ATOM     10  O   UNL     1       5.190  -1.217  37.385  1.00  0.00    -0.545 OA
ATOM     11  O   UNL     1       7.013  -1.349  36.009  1.00  0.00    -0.545 OA
ENDBRANCH   8   9
ENDBRANCH   1   7
BRANCH   6  12
ATOM     12  O   UNL     1       9.851  -5.940  42.913  1.00  0.00    -0.508 OA
ATOM     13  H   UNL     1      10.784  -6.304  42.756  1.00  0.00     0.293 HD
ENDBRANCH   6  12
TORSDOF 3
ENDMDL
MODEL 7
REMARK VINA RESULT:    -4.503     16.276     17.237
REMARK INTER + INTRA:          -5.299
REMARK INTER:                  -5.158
REMARK INTRA:                  -0.142
REMARK UNBOUND:                -0.139
REMARK SMILES O=C([O-])C=Cc1ccc(O)cc1
REMARK SMILES IDX 6 1 7 2 12 3 8 4 11 5 9 6 5 7 4 8 2 9 1 10 3 11 10 12
REMARK H PARENT 10 13
REMARK Flexibility Score: inf
ROOT
ATOM      1  C   UNL     1      22.457 -13.911  46.549  1.00  0.00    -0.025 A 
ATOM      2  C   UNL     1      21.368 -13.647  45.693  1.00  0.00     0.012 A 
ATOM      3  C   UNL     1      23.124 -12.830  47.149  1.00  0.00     0.012 A 
ATOM      4  C   UNL     1      20.979 -12.329  45.430  1.00  0.00     0.047 A 
ATOM      5  C   UNL     1      22.733 -11.515  46.883  1.00  0.00     0.047 A 
ATOM      6  C   UNL     1      21.662 -11.260  46.022  1.00  0.00     0.115 A 
ENDROOT
BRANCH   1   7
ATOM      7  C   UNL     1      22.902 -15.290  46.871  1.00  0.00     0.010 C 
ATOM      8  C   UNL     1      24.185 -15.679  46.868  1.00  0.00     0.025 C 
BRANCH   8   9
ATOM      9  C   UNL     1      24.590 -17.053  47.206  1.00  0.00     0.064 C 
ATOM     10  O   UNL     1      25.125 -17.322  48.316  1.00  0.00    -0.545 OA
ATOM     11  O   UNL     1      24.378 -18.073  46.288  1.00  0.00    -0.545 OA
ENDBRANCH   8   9
ENDBRANCH   1   7
BRANCH   6  12
ATOM     12  O   UNL     1      21.284  -9.944  45.764  1.00  0.00    -0.508 OA
ATOM     13  H   UNL     1      20.357  -9.717  45.424  1.00  0.00     0.293 HD
ENDBRANCH   6  12
TORSDOF 3
ENDMDL
MODEL 8
REMARK VINA RESULT:    -4.460      4.452      6.006
REMARK INTER + INTRA:          -5.250
REMARK INTER:                  -5.116
REMARK INTRA:                  -0.134
REMARK UNBOUND:                -0.139
REMARK SMILES O=C([O-])C=Cc1ccc(O)cc1
REMARK SMILES IDX 6 1 7 2 12 3 8 4 11 5 9 6 5 7 4 8 2 9 1 10 3 11 10 12
REMARK H PARENT 10 13
REMARK Flexibility Score: inf
ROOT
ATOM      1  C   UNL     1       7.852  -4.603  41.675  1.00  0.00    -0.025 A 
ATOM      2  C   UNL     1       7.836  -4.115  40.352  1.00  0.00     0.012 A 
ATOM      3  C   UNL     1       8.194  -3.725  42.717  1.00  0.00     0.012 A 
ATOM      4  C   UNL     1       8.181  -2.786  40.085  1.00  0.00     0.047 A 
ATOM      5  C   UNL     1       8.539  -2.398  42.446  1.00  0.00     0.047 A 
ATOM      6  C   UNL     1       8.535  -1.925  41.130  1.00  0.00     0.115 A 
ENDROOT
BRANCH   1   7
ATOM      7  C   UNL     1       7.483  -6.000  42.015  1.00  0.00     0.010 C 
ATOM      8  C   UNL     1       8.156  -7.076  41.581  1.00  0.00     0.025 C 
BRANCH   8   9
ATOM      9  C   UNL     1       7.768  -8.447  41.949  1.00  0.00     0.064 C 
ATOM     10  O   UNL     1       7.098  -9.170  41.163  1.00  0.00    -0.545 OA
ATOM     11  O   UNL     1       8.149  -8.956  43.184  1.00  0.00    -0.545 OA
ENDBRANCH   8   9
ENDBRANCH   1   7
BRANCH   6  12
ATOM     12  O   UNL     1       8.881  -0.600  40.874  1.00  0.00    -0.508 OA
ATOM     13  H   UNL     1       9.432  -0.344  40.063  1.00  0.00     0.293 HD
ENDBRANCH   6  12
TORSDOF 3
ENDMDL
MODEL 9
REMARK VINA RESULT:    -4.458      2.083      2.482
REMARK INTER + INTRA:          -5.248
REMARK INTER:                  -5.106
REMARK INTRA:                  -0.143
REMARK UNBOUND:                -0.139
REMARK SMILES O=C([O-])C=Cc1ccc(O)cc1
REMARK SMILES IDX 6 1 7 2 12 3 8 4 11 5 9 6 5 7 4 8 2 9 1 10 3 11 10 12
REMARK H PARENT 10 13
REMARK Flexibility Score: inf
ROOT
ATOM      1  C   UNL     1       7.238  -9.702  42.647  1.00  0.00    -0.025 A 
ATOM      2  C   UNL     1       7.534  -8.864  41.552  1.00  0.00     0.012 A 
ATOM      3  C   UNL     1       7.816  -9.415  43.894  1.00  0.00     0.012 A 
ATOM      4  C   UNL     1       8.409  -7.783  41.705  1.00  0.00     0.047 A 
ATOM      5  C   UNL     1       8.690  -8.334  44.043  1.00  0.00     0.047 A 
ATOM      6  C   UNL     1       8.990  -7.517  42.949  1.00  0.00     0.115 A 
ENDROOT
BRANCH   1   7
ATOM      7  C   UNL     1       6.308 -10.854  42.542  1.00  0.00     0.010 C 
ATOM      8  C   UNL     1       6.562 -12.066  43.056  1.00  0.00     0.025 C 
BRANCH   8   9
ATOM      9  C   UNL     1       5.609 -13.183  42.943  1.00  0.00     0.064 C 
ATOM     10  O   UNL     1       5.211 -13.590  41.818  1.00  0.00    -0.545 OA
ATOM     11  O   UNL     1       5.140 -13.800  44.095  1.00  0.00    -0.545 OA
ENDBRANCH   8   9
ENDBRANCH   1   7
BRANCH   6  12
ATOM     12  O   UNL     1       9.864  -6.444  43.112  1.00  0.00    -0.508 OA
ATOM     13  H   UNL     1       9.658  -5.687  43.755  1.00  0.00     0.293 HD
ENDBRANCH   6  12
TORSDOF 3
ENDMDL
