MODEL 1
REMARK VINA RESULT:    -4.601      0.000      0.000
REMARK INTER + INTRA:         -10.526
REMARK INTER:                  -8.635
REMARK INTRA:                  -1.892
REMARK UNBOUND:                -1.892
REMARK SMILES CCCCCCCCC=CCCCCCCCC(=O)[O-]
REMARK SMILES IDX 10 1 9 2 11 3 12 4 13 5 14 6 15 7 16 8 17 9 18 10 19 11
REMARK SMILES IDX 20 12 8 13 7 14 6 15 5 16 4 17 3 18 2 19 1 20
REMARK H PARENT
REMARK Flexibility Score: inf
ROOT
ATOM      1  C   UNL     1      25.136  45.546  35.530  1.00  0.00    -0.031 C 
ATOM      2  C   UNL     1      24.629  46.210  36.578  1.00  0.00    -0.031 C 
ENDROOT
BRANCH   1   3
ATOM      3  C   UNL     1      25.313  46.203  34.187  1.00  0.00     0.027 C 
BRANCH   3   4
ATOM      4  C   UNL     1      24.255  45.755  33.164  1.00  0.00     0.004 C 
BRANCH   4   5
ATOM      5  C   UNL     1      22.797  45.920  33.639  1.00  0.00     0.000 C 
BRANCH   5   6
ATOM      6  C   UNL     1      22.228  47.343  33.506  1.00  0.00     0.000 C 
BRANCH   6   7
ATOM      7  C   UNL     1      22.026  48.036  34.861  1.00  0.00     0.000 C 
BRANCH   7   8
ATOM      8  C   UNL     1      22.578  49.469  34.834  1.00  0.00     0.006 C 
BRANCH   8   9
ATOM      9  C   UNL     1      24.095  49.512  35.060  1.00  0.00     0.053 C 
BRANCH   9  10
ATOM     10  C   UNL     1      24.811  50.157  33.913  1.00  0.00     0.041 C 
ATOM     11  O   UNL     1      25.176  49.465  32.927  1.00  0.00    -0.550 OA
ATOM     12  O   UNL     1      25.041  51.525  33.917  1.00  0.00    -0.550 OA
ENDBRANCH   9  10
ENDBRANCH   8   9
ENDBRANCH   7   8
ENDBRANCH   6   7
ENDBRANCH   5   6
ENDBRANCH   4   5
ENDBRANCH   3   4
ENDBRANCH   1   3
BRANCH   2  13
ATOM     13  C   UNL     1      24.464  45.531  37.910  1.00  0.00     0.027 C 
BRANCH  13  14
ATOM     14  C   UNL     1      24.213  46.555  39.026  1.00  0.00     0.004 C 
BRANCH  14  15
ATOM     15  C   UNL     1      24.038  47.985  38.491  1.00  0.00     0.000 C 
BRANCH  15  16
ATOM     16  C   UNL     1      23.004  48.793  39.289  1.00  0.00     0.000 C 
BRANCH  16  17
ATOM     17  C   UNL     1      23.406  48.893  40.768  1.00  0.00    -0.000 C 
BRANCH  17  18
ATOM     18  C   UNL     1      23.187  50.299  41.349  1.00  0.00    -0.000 C 
BRANCH  18  19
ATOM     19  C   UNL     1      22.189  50.308  42.516  1.00  0.00    -0.003 C 
ATOM     20  C   UNL     1      21.198  49.151  42.400  1.00  0.00     0.004 C 
ENDBRANCH  18  19
ENDBRANCH  17  18
ENDBRANCH  16  17
ENDBRANCH  15  16
ENDBRANCH  14  15
ENDBRANCH  13  14
ENDBRANCH   2  13
TORSDOF 15
ENDMDL
MODEL 2
REMARK VINA RESULT:    -4.491      2.981      6.211
REMARK INTER + INTRA:         -10.321
REMARK INTER:                  -7.800
REMARK INTRA:                  -2.522
REMARK UNBOUND:                -1.892
REMARK SMILES CCCCCCCCC=CCCCCCCCC(=O)[O-]
REMARK SMILES IDX 10 1 9 2 11 3 12 4 13 5 14 6 15 7 16 8 17 9 18 10 19 11
REMARK SMILES IDX 20 12 8 13 7 14 6 15 5 16 4 17 3 18 2 19 1 20
REMARK H PARENT
REMARK Flexibility Score: inf
ROOT
ATOM      1  C   UNL     1      24.622  45.672  36.816  1.00  0.00    -0.031 C 
ATOM      2  C   UNL     1      24.763  46.341  35.664  1.00  0.00    -0.031 C 
ENDROOT
BRANCH   1   3
ATOM      3  C   UNL     1      24.206  46.363  38.087  1.00  0.00     0.027 C 
BRANCH   3   4
ATOM      4  C   UNL     1      23.744  47.811  37.850  1.00  0.00     0.004 C 
BRANCH   4   5
ATOM      5  C   UNL     1      22.227  48.033  38.011  1.00  0.00     0.000 C 
BRANCH   5   6
ATOM      6  C   UNL     1      21.758  49.485  37.811  1.00  0.00     0.000 C 
BRANCH   6   7
ATOM      7  C   UNL     1      21.491  50.215  39.135  1.00  0.00     0.000 C 
BRANCH   7   8
ATOM      8  C   UNL     1      22.779  50.849  39.683  1.00  0.00     0.006 C 
BRANCH   8   9
ATOM      9  C   UNL     1      22.924  50.653  41.198  1.00  0.00     0.053 C 
BRANCH   9  10
ATOM     10  C   UNL     1      22.699  49.228  41.599  1.00  0.00     0.041 C 
ATOM     11  O   UNL     1      23.511  48.334  41.241  1.00  0.00    -0.550 OA
ATOM     12  O   UNL     1      21.615  48.891  42.397  1.00  0.00    -0.550 OA
ENDBRANCH   9  10
ENDBRANCH   8   9
ENDBRANCH   7   8
ENDBRANCH   6   7
ENDBRANCH   5   6
ENDBRANCH   4   5
ENDBRANCH   3   4
ENDBRANCH   1   3
BRANCH   2  13
ATOM     13  C   UNL     1      25.177  45.627  34.407  1.00  0.00     0.027 C 
BRANCH  13  14
ATOM     14  C   UNL     1      24.207  45.924  33.255  1.00  0.00     0.004 C 
BRANCH  14  15
ATOM     15  C   UNL     1      22.738  45.947  33.708  1.00  0.00     0.000 C 
BRANCH  15  16
ATOM     16  C   UNL     1      21.997  47.212  33.247  1.00  0.00     0.000 C 
BRANCH  16  17
ATOM     17  C   UNL     1      21.862  48.219  34.398  1.00  0.00    -0.000 C 
BRANCH  17  18
ATOM     18  C   UNL     1      22.403  49.611  34.035  1.00  0.00    -0.000 C 
BRANCH  18  19
ATOM     19  C   UNL     1      23.715  49.945  34.760  1.00  0.00    -0.003 C 
ATOM     20  C   UNL     1      24.924  49.503  33.939  1.00  0.00     0.004 C 
ENDBRANCH  18  19
ENDBRANCH  17  18
ENDBRANCH  16  17
ENDBRANCH  15  16
ENDBRANCH  14  15
ENDBRANCH  13  14
ENDBRANCH   2  13
TORSDOF 15
ENDMDL
MODEL 3
REMARK VINA RESULT:    -4.360      1.782      2.198
REMARK INTER + INTRA:         -10.075
REMARK INTER:                  -8.350
REMARK INTRA:                  -1.725
REMARK UNBOUND:                -1.892
REMARK SMILES CCCCCCCCC=CCCCCCCCC(=O)[O-]
REMARK SMILES IDX 10 1 9 2 11 3 12 4 13 5 14 6 15 7 16 8 17 9 18 10 19 11
REMARK SMILES IDX 20 12 8 13 7 14 6 15 5 16 4 17 3 18 2 19 1 20
REMARK H PARENT
REMARK Flexibility Score: inf
ROOT
ATOM      1  C   UNL     1      25.053  45.567  35.676  1.00  0.00    -0.031 C 
ATOM      2  C   UNL     1      24.686  46.085  36.856  1.00  0.00    -0.031 C 
ENDROOT
BRANCH   1   3
ATOM      3  C   UNL     1      25.302  46.438  34.473  1.00  0.00     0.027 C 
BRANCH   3   4
ATOM      4  C   UNL     1      24.351  46.122  33.306  1.00  0.00     0.004 C 
BRANCH   4   5
ATOM      5  C   UNL     1      22.853  46.254  33.648  1.00  0.00     0.000 C 
BRANCH   5   6
ATOM      6  C   UNL     1      22.175  47.530  33.116  1.00  0.00     0.000 C 
BRANCH   6   7
ATOM      7  C   UNL     1      21.429  48.310  34.207  1.00  0.00     0.000 C 
BRANCH   7   8
ATOM      8  C   UNL     1      22.165  48.217  35.551  1.00  0.00     0.006 C 
BRANCH   8   9
ATOM      9  C   UNL     1      21.322  48.754  36.715  1.00  0.00     0.053 C 
BRANCH   9  10
ATOM     10  C   UNL     1      21.802  50.094  37.179  1.00  0.00     0.041 C 
ATOM     11  O   UNL     1      21.494  50.515  38.325  1.00  0.00    -0.550 OA
ATOM     12  O   UNL     1      22.621  50.862  36.362  1.00  0.00    -0.550 OA
ENDBRANCH   9  10
ENDBRANCH   8   9
ENDBRANCH   7   8
ENDBRANCH   6   7
ENDBRANCH   5   6
ENDBRANCH   4   5
ENDBRANCH   3   4
ENDBRANCH   1   3
BRANCH   2  13
ATOM     13  C   UNL     1      24.446  45.194  38.044  1.00  0.00     0.027 C 
BRANCH  13  14
ATOM     14  C   UNL     1      24.386  46.008  39.344  1.00  0.00     0.004 C 
BRANCH  14  15
ATOM     15  C   UNL     1      24.243  47.517  39.093  1.00  0.00     0.000 C 
BRANCH  15  16
ATOM     16  C   UNL     1      23.325  48.203  40.118  1.00  0.00     0.000 C 
BRANCH  16  17
ATOM     17  C   UNL     1      24.039  49.384  40.791  1.00  0.00    -0.000 C 
BRANCH  17  18
ATOM     18  C   UNL     1      23.073  50.309  41.547  1.00  0.00    -0.000 C 
BRANCH  18  19
ATOM     19  C   UNL     1      21.898  49.548  42.180  1.00  0.00    -0.003 C 
ATOM     20  C   UNL     1      20.976  50.497  42.942  1.00  0.00     0.004 C 
ENDBRANCH  18  19
ENDBRANCH  17  18
ENDBRANCH  16  17
ENDBRANCH  15  16
ENDBRANCH  14  15
ENDBRANCH  13  14
ENDBRANCH   2  13
TORSDOF 15
ENDMDL
MODEL 4
REMARK VINA RESULT:    -4.259      1.810      3.385
REMARK INTER + INTRA:          -9.886
REMARK INTER:                  -8.072
REMARK INTRA:                  -1.813
REMARK UNBOUND:                -1.892
REMARK SMILES CCCCCCCCC=CCCCCCCCC(=O)[O-]
REMARK SMILES IDX 10 1 9 2 11 3 12 4 13 5 14 6 15 7 16 8 17 9 18 10 19 11
REMARK SMILES IDX 20 12 8 13 7 14 6 15 5 16 4 17 3 18 2 19 1 20
REMARK H PARENT
REMARK Flexibility Score: inf
ROOT
ATOM      1  C   UNL     1      24.258  46.689  38.602  1.00  0.00    -0.031 C 
ATOM      2  C   UNL     1      23.830  47.855  38.098  1.00  0.00    -0.031 C 
ENDROOT
BRANCH   1   3
ATOM      3  C   UNL     1      24.527  45.498  37.720  1.00  0.00     0.027 C 
BRANCH   3   4
ATOM      4  C   UNL     1      24.196  45.768  36.242  1.00  0.00     0.004 C 
BRANCH   4   5
ATOM      5  C   UNL     1      25.425  45.843  35.314  1.00  0.00     0.000 C 
BRANCH   5   6
ATOM      6  C   UNL     1      25.102  46.033  33.822  1.00  0.00     0.000 C 
BRANCH   6   7
ATOM      7  C   UNL     1      23.602  45.921  33.515  1.00  0.00     0.000 C 
BRANCH   7   8
ATOM      8  C   UNL     1      23.073  47.214  32.876  1.00  0.00     0.006 C 
BRANCH   8   9
ATOM      9  C   UNL     1      21.803  47.727  33.568  1.00  0.00     0.053 C 
BRANCH   9  10
ATOM     10  C   UNL     1      22.121  48.515  34.801  1.00  0.00     0.041 C 
ATOM     11  O   UNL     1      23.189  49.178  34.871  1.00  0.00    -0.550 OA
ATOM     12  O   UNL     1      21.222  48.547  35.858  1.00  0.00    -0.550 OA
ENDBRANCH   9  10
ENDBRANCH   8   9
ENDBRANCH   7   8
ENDBRANCH   6   7
ENDBRANCH   5   6
ENDBRANCH   4   5
ENDBRANCH   3   4
ENDBRANCH   1   3
BRANCH   2  13
ATOM     13  C   UNL     1      23.571  49.031  38.999  1.00  0.00     0.027 C 
BRANCH  13  14
ATOM     14  C   UNL     1      23.716  48.640  40.477  1.00  0.00     0.004 C 
BRANCH  14  15
ATOM     15  C   UNL     1      22.472  48.992  41.308  1.00  0.00     0.000 C 
BRANCH  15  16
ATOM     16  C   UNL     1      22.749  50.083  42.354  1.00  0.00     0.000 C 
BRANCH  16  17
ATOM     17  C   UNL     1      22.411  51.475  41.799  1.00  0.00    -0.000 C 
BRANCH  17  18
ATOM     18  C   UNL     1      21.177  51.464  40.883  1.00  0.00    -0.000 C 
BRANCH  18  19
ATOM     19  C   UNL     1      21.369  52.320  39.622  1.00  0.00    -0.003 C 
ATOM     20  C   UNL     1      22.845  52.631  39.389  1.00  0.00     0.004 C 
ENDBRANCH  18  19
ENDBRANCH  17  18
ENDBRANCH  16  17
ENDBRANCH  15  16
ENDBRANCH  14  15
ENDBRANCH  13  14
ENDBRANCH   2  13
TORSDOF 15
ENDMDL
MODEL 5
REMARK VINA RESULT:    -4.255      1.925      3.442
REMARK INTER + INTRA:          -9.878
REMARK INTER:                  -7.376
REMARK INTRA:                  -2.502
REMARK UNBOUND:                -1.892
REMARK SMILES CCCCCCCCC=CCCCCCCCC(=O)[O-]
REMARK SMILES IDX 10 1 9 2 11 3 12 4 13 5 14 6 15 7 16 8 17 9 18 10 19 11
REMARK SMILES IDX 20 12 8 13 7 14 6 15 5 16 4 17 3 18 2 19 1 20
REMARK H PARENT
REMARK Flexibility Score: inf
ROOT
ATOM      1  C   UNL     1      23.751  47.582  37.972  1.00  0.00    -0.031 C 
ATOM      2  C   UNL     1      22.454  47.899  38.084  1.00  0.00    -0.031 C 
ENDROOT
BRANCH   1   3
ATOM      3  C   UNL     1      24.300  46.290  38.517  1.00  0.00     0.027 C 
BRANCH   3   4
ATOM      4  C   UNL     1      24.649  45.281  37.410  1.00  0.00     0.004 C 
BRANCH   4   5
ATOM      5  C   UNL     1      24.382  45.786  35.977  1.00  0.00     0.000 C 
BRANCH   5   6
ATOM      6  C   UNL     1      25.640  45.969  35.109  1.00  0.00     0.000 C 
BRANCH   6   7
ATOM      7  C   UNL     1      25.358  46.714  33.797  1.00  0.00     0.000 C 
BRANCH   7   8
ATOM      8  C   UNL     1      25.079  48.202  34.059  1.00  0.00     0.006 C 
BRANCH   8   9
ATOM      9  C   UNL     1      23.985  48.760  33.139  1.00  0.00     0.053 C 
BRANCH   9  10
ATOM     10  C   UNL     1      22.673  48.889  33.850  1.00  0.00     0.041 C 
ATOM     11  O   UNL     1      22.173  50.027  34.054  1.00  0.00    -0.550 OA
ATOM     12  O   UNL     1      21.985  47.754  34.256  1.00  0.00    -0.550 OA
ENDBRANCH   9  10
ENDBRANCH   8   9
ENDBRANCH   7   8
ENDBRANCH   6   7
ENDBRANCH   5   6
ENDBRANCH   4   5
ENDBRANCH   3   4
ENDBRANCH   1   3
BRANCH   2  13
ATOM     13  C   UNL     1      21.930  49.195  37.529  1.00  0.00     0.027 C 
BRANCH  13  14
ATOM     14  C   UNL     1      23.042  50.249  37.436  1.00  0.00     0.004 C 
BRANCH  14  15
ATOM     15  C   UNL     1      22.651  51.583  38.090  1.00  0.00     0.000 C 
BRANCH  15  16
ATOM     16  C   UNL     1      21.529  51.428  39.128  1.00  0.00     0.000 C 
BRANCH  16  17
ATOM     17  C   UNL     1      22.102  51.360  40.551  1.00  0.00    -0.000 C 
BRANCH  17  18
ATOM     18  C   UNL     1      21.667  50.094  41.306  1.00  0.00    -0.000 C 
BRANCH  18  19
ATOM     19  C   UNL     1      22.805  49.074  41.459  1.00  0.00    -0.003 C 
ATOM     20  C   UNL     1      24.146  49.685  41.060  1.00  0.00     0.004 C 
ENDBRANCH  18  19
ENDBRANCH  17  18
ENDBRANCH  16  17
ENDBRANCH  15  16
ENDBRANCH  14  15
ENDBRANCH  13  14
ENDBRANCH   2  13
TORSDOF 15
ENDMDL
MODEL 6
REMARK VINA RESULT:    -4.210      1.417      3.383
REMARK INTER + INTRA:          -9.794
REMARK INTER:                  -7.511
REMARK INTRA:                  -2.282
REMARK UNBOUND:                -1.892
REMARK SMILES CCCCCCCCC=CCCCCCCCC(=O)[O-]
REMARK SMILES IDX 10 1 9 2 11 3 12 4 13 5 14 6 15 7 16 8 17 9 18 10 19 11
REMARK SMILES IDX 20 12 8 13 7 14 6 15 5 16 4 17 3 18 2 19 1 20
REMARK H PARENT
REMARK Flexibility Score: inf
ROOT
ATOM      1  C   UNL     1      24.547  46.642  39.082  1.00  0.00    -0.031 C 
ATOM      2  C   UNL     1      23.592  47.524  39.406  1.00  0.00    -0.031 C 
ENDROOT
BRANCH   1   3
ATOM      3  C   UNL     1      24.370  45.663  37.951  1.00  0.00     0.027 C 
BRANCH   3   4
ATOM      4  C   UNL     1      24.095  46.357  36.606  1.00  0.00     0.004 C 
BRANCH   4   5
ATOM      5  C   UNL     1      24.980  45.868  35.441  1.00  0.00     0.000 C 
BRANCH   5   6
ATOM      6  C   UNL     1      24.277  45.802  34.074  1.00  0.00     0.000 C 
BRANCH   6   7
ATOM      7  C   UNL     1      22.951  46.575  34.045  1.00  0.00     0.000 C 
BRANCH   7   8
ATOM      8  C   UNL     1      22.921  47.570  32.875  1.00  0.00     0.006 C 
BRANCH   8   9
ATOM      9  C   UNL     1      22.946  49.028  33.352  1.00  0.00     0.053 C 
BRANCH   9  10
ATOM     10  C   UNL     1      24.344  49.514  33.583  1.00  0.00     0.041 C 
ATOM     11  O   UNL     1      25.298  49.040  32.912  1.00  0.00    -0.550 OA
ATOM     12  O   UNL     1      24.588  50.516  34.513  1.00  0.00    -0.550 OA
ENDBRANCH   9  10
ENDBRANCH   8   9
ENDBRANCH   7   8
ENDBRANCH   6   7
ENDBRANCH   5   6
ENDBRANCH   4   5
ENDBRANCH   3   4
ENDBRANCH   1   3
BRANCH   2  13
ATOM     13  C   UNL     1      23.794  48.493  40.538  1.00  0.00     0.027 C 
BRANCH  13  14
ATOM     14  C   UNL     1      22.451  48.938  41.133  1.00  0.00     0.004 C 
BRANCH  14  15
ATOM     15  C   UNL     1      21.853  50.153  40.407  1.00  0.00     0.000 C 
BRANCH  15  16
ATOM     16  C   UNL     1      22.926  51.143  39.928  1.00  0.00     0.000 C 
BRANCH  16  17
ATOM     17  C   UNL     1      22.670  51.571  38.476  1.00  0.00    -0.000 C 
BRANCH  17  18
ATOM     18  C   UNL     1      22.825  50.411  37.479  1.00  0.00    -0.000 C 
BRANCH  18  19
ATOM     19  C   UNL     1      21.537  50.131  36.691  1.00  0.00    -0.003 C 
ATOM     20  C   UNL     1      21.179  48.647  36.733  1.00  0.00     0.004 C 
ENDBRANCH  18  19
ENDBRANCH  17  18
ENDBRANCH  16  17
ENDBRANCH  15  16
ENDBRANCH  14  15
ENDBRANCH  13  14
ENDBRANCH   2  13
TORSDOF 15
ENDMDL
MODEL 7
REMARK VINA RESULT:    -4.194      2.854      6.751
REMARK INTER + INTRA:          -9.762
REMARK INTER:                  -7.171
REMARK INTRA:                  -2.592
REMARK UNBOUND:                -1.892
REMARK SMILES CCCCCCCCC=CCCCCCCCC(=O)[O-]
REMARK SMILES IDX 10 1 9 2 11 3 12 4 13 5 14 6 15 7 16 8 17 9 18 10 19 11
REMARK SMILES IDX 20 12 8 13 7 14 6 15 5 16 4 17 3 18 2 19 1 20
REMARK H PARENT
REMARK Flexibility Score: inf
ROOT
ATOM      1  C   UNL     1      23.878  47.700  37.034  1.00  0.00    -0.031 C 
ATOM      2  C   UNL     1      22.706  47.899  36.417  1.00  0.00    -0.031 C 
ENDROOT
BRANCH   1   3
ATOM      3  C   UNL     1      24.160  46.441  37.810  1.00  0.00     0.027 C 
BRANCH   3   4
ATOM      4  C   UNL     1      24.206  46.678  39.329  1.00  0.00     0.004 C 
BRANCH   4   5
ATOM      5  C   UNL     1      24.264  48.163  39.743  1.00  0.00     0.000 C 
BRANCH   5   6
ATOM      6  C   UNL     1      23.130  48.622  40.677  1.00  0.00     0.000 C 
BRANCH   6   7
ATOM      7  C   UNL     1      21.898  49.133  39.916  1.00  0.00     0.000 C 
BRANCH   7   8
ATOM      8  C   UNL     1      22.216  50.436  39.167  1.00  0.00     0.006 C 
BRANCH   8   9
ATOM      9  C   UNL     1      21.592  51.663  39.845  1.00  0.00     0.053 C 
BRANCH   9  10
ATOM     10  C   UNL     1      22.452  52.183  40.956  1.00  0.00     0.041 C 
ATOM     11  O   UNL     1      23.706  52.166  40.846  1.00  0.00    -0.550 OA
ATOM     12  O   UNL     1      21.869  52.719  42.096  1.00  0.00    -0.550 OA
ENDBRANCH   9  10
ENDBRANCH   8   9
ENDBRANCH   7   8
ENDBRANCH   6   7
ENDBRANCH   5   6
ENDBRANCH   4   5
ENDBRANCH   3   4
ENDBRANCH   1   3
BRANCH   2  13
ATOM     13  C   UNL     1      22.449  49.165  35.646  1.00  0.00     0.027 C 
BRANCH  13  14
ATOM     14  C   UNL     1      23.758  49.769  35.121  1.00  0.00     0.004 C 
BRANCH  14  15
ATOM     15  C   UNL     1      23.777  49.906  33.590  1.00  0.00     0.000 C 
BRANCH  15  16
ATOM     16  C   UNL     1      25.050  49.321  32.959  1.00  0.00     0.000 C 
BRANCH  16  17
ATOM     17  C   UNL     1      25.612  48.178  33.816  1.00  0.00    -0.000 C 
BRANCH  17  18
ATOM     18  C   UNL     1      25.543  46.816  33.108  1.00  0.00    -0.000 C 
BRANCH  18  19
ATOM     19  C   UNL     1      24.697  45.790  33.878  1.00  0.00    -0.003 C 
ATOM     20  C   UNL     1      23.219  45.913  33.512  1.00  0.00     0.004 C 
ENDBRANCH  18  19
ENDBRANCH  17  18
ENDBRANCH  16  17
ENDBRANCH  15  16
ENDBRANCH  14  15
ENDBRANCH  13  14
ENDBRANCH   2  13
TORSDOF 15
ENDMDL
MODEL 8
REMARK VINA RESULT:    -4.166      2.601      7.213
REMARK INTER + INTRA:          -9.710
REMARK INTER:                  -7.707
REMARK INTRA:                  -2.003
REMARK UNBOUND:                -1.892
REMARK SMILES CCCCCCCCC=CCCCCCCCC(=O)[O-]
REMARK SMILES IDX 10 1 9 2 11 3 12 4 13 5 14 6 15 7 16 8 17 9 18 10 19 11
REMARK SMILES IDX 20 12 8 13 7 14 6 15 5 16 4 17 3 18 2 19 1 20
REMARK H PARENT
REMARK Flexibility Score: inf
ROOT
ATOM      1  C   UNL     1      22.118  50.621  37.374  1.00  0.00    -0.031 C 
ATOM      2  C   UNL     1      23.087  50.841  36.476  1.00  0.00    -0.031 C 
ENDROOT
BRANCH   1   3
ATOM      3  C   UNL     1      21.601  51.720  38.266  1.00  0.00     0.027 C 
BRANCH   3   4
ATOM      4  C   UNL     1      21.087  51.194  39.617  1.00  0.00     0.004 C 
BRANCH   4   5
ATOM      5  C   UNL     1      21.953  51.591  40.829  1.00  0.00     0.000 C 
BRANCH   5   6
ATOM      6  C   UNL     1      22.987  50.537  41.262  1.00  0.00     0.000 C 
BRANCH   6   7
ATOM      7  C   UNL     1      22.612  49.115  40.824  1.00  0.00     0.000 C 
BRANCH   7   8
ATOM      8  C   UNL     1      23.868  48.281  40.527  1.00  0.00     0.006 C 
BRANCH   8   9
ATOM      9  C   UNL     1      24.049  48.017  39.027  1.00  0.00     0.053 C 
BRANCH   9  10
ATOM     10  C   UNL     1      24.304  46.569  38.744  1.00  0.00     0.041 C 
ATOM     11  O   UNL     1      24.401  45.746  39.692  1.00  0.00    -0.550 OA
ATOM     12  O   UNL     1      24.399  46.121  37.433  1.00  0.00    -0.550 OA
ENDBRANCH   9  10
ENDBRANCH   8   9
ENDBRANCH   7   8
ENDBRANCH   6   7
ENDBRANCH   5   6
ENDBRANCH   4   5
ENDBRANCH   3   4
ENDBRANCH   1   3
BRANCH   2  13
ATOM     13  C   UNL     1      23.583  49.728  35.595  1.00  0.00     0.027 C 
BRANCH  13  14
ATOM     14  C   UNL     1      22.622  48.532  35.617  1.00  0.00     0.004 C 
BRANCH  14  15
ATOM     15  C   UNL     1      21.751  48.446  34.354  1.00  0.00     0.000 C 
BRANCH  15  16
ATOM     16  C   UNL     1      22.081  47.220  33.489  1.00  0.00     0.000 C 
BRANCH  16  17
ATOM     17  C   UNL     1      23.040  46.272  34.224  1.00  0.00    -0.000 C 
BRANCH  17  18
ATOM     18  C   UNL     1      23.986  45.528  33.268  1.00  0.00    -0.000 C 
BRANCH  18  19
ATOM     19  C   UNL     1      25.211  46.367  32.876  1.00  0.00    -0.003 C 
ATOM     20  C   UNL     1      25.764  47.128  34.079  1.00  0.00     0.004 C 
ENDBRANCH  18  19
ENDBRANCH  17  18
ENDBRANCH  16  17
ENDBRANCH  15  16
ENDBRANCH  14  15
ENDBRANCH  13  14
ENDBRANCH   2  13
TORSDOF 15
ENDMDL
MODEL 9
REMARK VINA RESULT:    -4.148      3.200      6.983
REMARK INTER + INTRA:          -9.677
REMARK INTER:                  -7.588
REMARK INTRA:                  -2.089
REMARK UNBOUND:                -1.892
REMARK SMILES CCCCCCCCC=CCCCCCCCC(=O)[O-]
REMARK SMILES IDX 10 1 9 2 11 3 12 4 13 5 14 6 15 7 16 8 17 9 18 10 19 11
REMARK SMILES IDX 20 12 8 13 7 14 6 15 5 16 4 17 3 18 2 19 1 20
REMARK H PARENT
REMARK Flexibility Score: inf
ROOT
ATOM      1  C   UNL     1      23.852  48.280  38.035  1.00  0.00    -0.031 C 
ATOM      2  C   UNL     1      23.655  47.178  37.299  1.00  0.00    -0.031 C 
ENDROOT
BRANCH   1   3
ATOM      3  C   UNL     1      23.013  49.516  37.850  1.00  0.00     0.027 C 
BRANCH   3   4
ATOM      4  C   UNL     1      21.586  49.352  38.401  1.00  0.00     0.004 C 
BRANCH   4   5
ATOM      5  C   UNL     1      20.905  50.671  38.817  1.00  0.00     0.000 C 
BRANCH   5   6
ATOM      6  C   UNL     1      21.870  51.809  39.195  1.00  0.00     0.000 C 
BRANCH   6   7
ATOM      7  C   UNL     1      21.604  52.378  40.596  1.00  0.00     0.000 C 
BRANCH   7   8
ATOM      8  C   UNL     1      22.670  51.903  41.594  1.00  0.00     0.006 C 
BRANCH   8   9
ATOM      9  C   UNL     1      22.091  50.966  42.662  1.00  0.00     0.053 C 
BRANCH   9  10
ATOM     10  C   UNL     1      22.095  49.538  42.211  1.00  0.00     0.041 C 
ATOM     11  O   UNL     1      21.127  48.784  42.490  1.00  0.00    -0.550 OA
ATOM     12  O   UNL     1      23.151  49.050  41.453  1.00  0.00    -0.550 OA
ENDBRANCH   9  10
ENDBRANCH   8   9
ENDBRANCH   7   8
ENDBRANCH   6   7
ENDBRANCH   5   6
ENDBRANCH   4   5
ENDBRANCH   3   4
ENDBRANCH   1   3
BRANCH   2  13
ATOM     13  C   UNL     1      24.505  45.955  37.505  1.00  0.00     0.027 C 
BRANCH  13  14
ATOM     14  C   UNL     1      24.823  45.269  36.169  1.00  0.00     0.004 C 
BRANCH  14  15
ATOM     15  C   UNL     1      25.268  46.261  35.083  1.00  0.00     0.000 C 
BRANCH  15  16
ATOM     16  C   UNL     1      24.883  45.803  33.668  1.00  0.00     0.000 C 
BRANCH  16  17
ATOM     17  C   UNL     1      23.861  46.762  33.040  1.00  0.00    -0.000 C 
BRANCH  17  18
ATOM     18  C   UNL     1      22.457  46.612  33.645  1.00  0.00    -0.000 C 
BRANCH  18  19
ATOM     19  C   UNL     1      21.877  47.948  34.132  1.00  0.00    -0.003 C 
ATOM     20  C   UNL     1      22.941  49.042  34.129  1.00  0.00     0.004 C 
ENDBRANCH  18  19
ENDBRANCH  17  18
ENDBRANCH  16  17
ENDBRANCH  15  16
ENDBRANCH  14  15
ENDBRANCH  13  14
ENDBRANCH   2  13
TORSDOF 15
ENDMDL
