MODEL 1
REMARK VINA RESULT:    -6.463      0.000      0.000
REMARK INTER + INTRA:          -8.092
REMARK INTER:                  -7.786
REMARK INTRA:                  -0.306
REMARK UNBOUND:                -0.306
REMARK SMILES O=c1c(O)c(-c2ccc(O)c(O)c2)oc2cc(O)cc(O)c12
REMARK SMILES IDX 5 1 3 2 2 3 1 4 22 5 20 6 19 7 17 8 16 9 15 10 14 11 6 12
REMARK SMILES IDX 7 13 8 14 9 15 13 16 11 17 10 18 12 20 4 22 21 24 18 26
REMARK H PARENT 10 19 12 21 4 23 21 25 18 27
REMARK Flexibility Score: inf
ROOT
ATOM      1  C   UNL     1      14.898 -36.227  -1.994  1.00  0.00     0.180 A 
ATOM      2  C   UNL     1      15.037 -36.841  -0.737  1.00  0.00     0.208 A 
ATOM      3  C   UNL     1      16.085 -37.755  -0.539  1.00  0.00     0.238 A 
ATOM      4  O   UNL     1      16.172 -38.342   0.572  1.00  0.00    -0.285 OA
ATOM      5  C   UNL     1      16.988 -38.031  -1.592  1.00  0.00     0.111 A 
ATOM      6  C   UNL     1      18.109 -38.909  -1.491  1.00  0.00     0.134 A 
ATOM      7  C   UNL     1      18.859 -39.207  -2.635  1.00  0.00     0.093 A 
ATOM      8  C   UNL     1      18.568 -38.609  -3.863  1.00  0.00     0.123 A 
ATOM      9  C   UNL     1      17.513 -37.705  -3.960  1.00  0.00     0.094 A 
ATOM     10  C   UNL     1      16.725 -37.415  -2.843  1.00  0.00     0.146 A 
ATOM     11  O   UNL     1      15.722 -36.555  -2.982  1.00  0.00    -0.452 OA
ENDROOT
BRANCH   1  12
ATOM     12  C   UNL     1      13.835 -35.234  -2.272  1.00  0.00     0.025 A 
ATOM     13  C   UNL     1      13.950 -33.899  -1.845  1.00  0.00     0.016 A 
ATOM     14  C   UNL     1      12.945 -32.974  -2.140  1.00  0.00     0.051 A 
ATOM     15  C   UNL     1      11.818 -33.363  -2.875  1.00  0.00     0.157 A 
ATOM     16  C   UNL     1      12.713 -35.614  -3.026  1.00  0.00     0.062 A 
ATOM     17  C   UNL     1      11.704 -34.690  -3.322  1.00  0.00     0.158 A 
BRANCH  15  18
ATOM     18  O   UNL     1      10.817 -32.439  -3.165  1.00  0.00    -0.504 OA
ATOM     19  H   UNL     1       9.835 -32.672  -3.067  1.00  0.00     0.293 HD
ENDBRANCH  15  18
BRANCH  17  20
ATOM     20  O   UNL     1      10.598 -35.109  -4.062  1.00  0.00    -0.504 OA
ATOM     21  H   UNL     1       9.729 -35.383  -3.621  1.00  0.00     0.293 HD
ENDBRANCH  17  20
ENDBRANCH   1  12
BRANCH   2  22
ATOM     22  O   UNL     1      14.121 -36.571   0.283  1.00  0.00    -0.502 OA
ATOM     23  H   UNL     1      14.217 -36.954   1.216  1.00  0.00     0.293 HD
ENDBRANCH   2  22
BRANCH   6  24
ATOM     24  O   UNL     1      18.540 -39.487  -0.293  1.00  0.00    -0.507 OA
ATOM     25  H   UNL     1      19.386 -39.236   0.195  1.00  0.00     0.293 HD
ENDBRANCH   6  24
BRANCH   8  26
ATOM     26  O   UNL     1      19.330 -38.900  -4.994  1.00  0.00    -0.508 OA
ATOM     27  H   UNL     1      19.951 -39.700  -5.022  1.00  0.00     0.293 HD
ENDBRANCH   8  26
TORSDOF 6
ENDMDL
MODEL 2
REMARK VINA RESULT:    -6.447      1.911      7.172
REMARK INTER + INTRA:          -8.072
REMARK INTER:                  -7.770
REMARK INTRA:                  -0.302
REMARK UNBOUND:                -0.306
REMARK SMILES O=c1c(O)c(-c2ccc(O)c(O)c2)oc2cc(O)cc(O)c12
REMARK SMILES IDX 5 1 3 2 2 3 1 4 22 5 20 6 19 7 17 8 16 9 15 10 14 11 6 12
REMARK SMILES IDX 7 13 8 14 9 15 13 16 11 17 10 18 12 20 4 22 21 24 18 26
REMARK H PARENT 10 19 12 21 4 23 21 25 18 27
REMARK Flexibility Score: inf
ROOT
ATOM      1  C   UNL     1      14.228 -37.295  -3.381  1.00  0.00     0.180 A 
ATOM      2  C   UNL     1      13.341 -38.254  -3.900  1.00  0.00     0.208 A 
ATOM      3  C   UNL     1      12.033 -37.864  -4.230  1.00  0.00     0.238 A 
ATOM      4  O   UNL     1      11.228 -38.739  -4.643  1.00  0.00    -0.285 OA
ATOM      5  C   UNL     1      11.632 -36.518  -4.052  1.00  0.00     0.111 A 
ATOM      6  C   UNL     1      10.345 -36.004  -4.389  1.00  0.00     0.134 A 
ATOM      7  C   UNL     1      10.016 -34.686  -4.050  1.00  0.00     0.093 A 
ATOM      8  C   UNL     1      10.951 -33.844  -3.443  1.00  0.00     0.123 A 
ATOM      9  C   UNL     1      12.231 -34.319  -3.163  1.00  0.00     0.094 A 
ATOM     10  C   UNL     1      12.576 -35.640  -3.458  1.00  0.00     0.146 A 
ATOM     11  O   UNL     1      13.803 -36.055  -3.165  1.00  0.00    -0.452 OA
ENDROOT
BRANCH   1  12
ATOM     12  C   UNL     1      15.629 -37.623  -3.035  1.00  0.00     0.025 A 
ATOM     13  C   UNL     1      16.691 -37.309  -3.901  1.00  0.00     0.016 A 
ATOM     14  C   UNL     1      18.008 -37.607  -3.542  1.00  0.00     0.051 A 
ATOM     15  C   UNL     1      18.286 -38.211  -2.309  1.00  0.00     0.157 A 
ATOM     16  C   UNL     1      15.915 -38.209  -1.790  1.00  0.00     0.062 A 
ATOM     17  C   UNL     1      17.233 -38.510  -1.428  1.00  0.00     0.158 A 
BRANCH  15  18
ATOM     18  O   UNL     1      19.600 -38.509  -1.954  1.00  0.00    -0.504 OA
ATOM     19  H   UNL     1      20.099 -39.286  -2.372  1.00  0.00     0.293 HD
ENDBRANCH  15  18
BRANCH  17  20
ATOM     20  O   UNL     1      17.476 -39.105  -0.190  1.00  0.00    -0.504 OA
ATOM     21  H   UNL     1      16.920 -39.879   0.153  1.00  0.00     0.293 HD
ENDBRANCH  17  20
ENDBRANCH   1  12
BRANCH   2  22
ATOM     22  O   UNL     1      13.750 -39.582  -4.047  1.00  0.00    -0.502 OA
ATOM     23  H   UNL     1      14.697 -39.885  -3.852  1.00  0.00     0.293 HD
ENDBRANCH   2  22
BRANCH   6  24
ATOM     24  O   UNL     1       9.370 -36.732  -5.078  1.00  0.00    -0.507 OA
ATOM     25  H   UNL     1       9.055 -36.529  -6.015  1.00  0.00     0.293 HD
ENDBRANCH   6  24
BRANCH   8  26
ATOM     26  O   UNL     1      10.621 -32.529  -3.122  1.00  0.00    -0.508 OA
ATOM     27  H   UNL     1      10.949 -31.749  -3.681  1.00  0.00     0.293 HD
ENDBRANCH   8  26
TORSDOF 6
ENDMDL
MODEL 3
REMARK VINA RESULT:    -6.442      2.946      6.938
REMARK INTER + INTRA:          -8.066
REMARK INTER:                  -7.748
REMARK INTRA:                  -0.317
REMARK UNBOUND:                -0.306
REMARK SMILES O=c1c(O)c(-c2ccc(O)c(O)c2)oc2cc(O)cc(O)c12
REMARK SMILES IDX 5 1 3 2 2 3 1 4 22 5 20 6 19 7 17 8 16 9 15 10 14 11 6 12
REMARK SMILES IDX 7 13 8 14 9 15 13 16 11 17 10 18 12 20 4 22 21 24 18 26
REMARK H PARENT 10 19 12 21 4 23 21 25 18 27
REMARK Flexibility Score: inf
ROOT
ATOM      1  C   UNL     1      14.690 -37.833  -3.771  1.00  0.00     0.180 A 
ATOM      2  C   UNL     1      13.987 -36.638  -3.538  1.00  0.00     0.208 A 
ATOM      3  C   UNL     1      12.657 -36.534  -3.977  1.00  0.00     0.238 A 
ATOM      4  O   UNL     1      12.050 -35.443  -3.813  1.00  0.00    -0.285 OA
ATOM      5  C   UNL     1      12.042 -37.631  -4.627  1.00  0.00     0.111 A 
ATOM      6  C   UNL     1      10.688 -37.651  -5.078  1.00  0.00     0.134 A 
ATOM      7  C   UNL     1      10.224 -38.741  -5.825  1.00  0.00     0.093 A 
ATOM      8  C   UNL     1      11.047 -39.840  -6.082  1.00  0.00     0.123 A 
ATOM      9  C   UNL     1      12.352 -39.856  -5.596  1.00  0.00     0.094 A 
ATOM     10  C   UNL     1      12.854 -38.767  -4.877  1.00  0.00     0.146 A 
ATOM     11  O   UNL     1      14.107 -38.820  -4.442  1.00  0.00    -0.452 OA
ENDROOT
BRANCH   1  12
ATOM     12  C   UNL     1      16.085 -38.027  -3.316  1.00  0.00     0.025 A 
ATOM     13  C   UNL     1      17.176 -37.599  -4.093  1.00  0.00     0.016 A 
ATOM     14  C   UNL     1      18.484 -37.772  -3.632  1.00  0.00     0.051 A 
ATOM     15  C   UNL     1      18.722 -38.361  -2.384  1.00  0.00     0.157 A 
ATOM     16  C   UNL     1      16.329 -38.599  -2.055  1.00  0.00     0.062 A 
ATOM     17  C   UNL     1      17.638 -38.774  -1.591  1.00  0.00     0.158 A 
BRANCH  15  18
ATOM     18  O   UNL     1      20.027 -38.534  -1.927  1.00  0.00    -0.504 OA
ATOM     19  H   UNL     1      20.521 -37.795  -1.440  1.00  0.00     0.293 HD
ENDBRANCH  15  18
BRANCH  17  20
ATOM     20  O   UNL     1      17.840 -39.358  -0.340  1.00  0.00    -0.504 OA
ATOM     21  H   UNL     1      18.190 -38.829   0.449  1.00  0.00     0.293 HD
ENDBRANCH  17  20
ENDBRANCH   1  12
BRANCH   2  22
ATOM     22  O   UNL     1      14.620 -35.560  -2.913  1.00  0.00    -0.502 OA
ATOM     23  H   UNL     1      15.060 -34.811  -3.435  1.00  0.00     0.293 HD
ENDBRANCH   2  22
BRANCH   6  24
ATOM     24  O   UNL     1       9.757 -36.646  -4.796  1.00  0.00    -0.507 OA
ATOM     25  H   UNL     1       8.759 -36.739  -4.907  1.00  0.00     0.293 HD
ENDBRANCH   6  24
BRANCH   8  26
ATOM     26  O   UNL     1      10.572 -40.927  -6.813  1.00  0.00    -0.508 OA
ATOM     27  H   UNL     1      11.065 -41.273  -7.628  1.00  0.00     0.293 HD
ENDBRANCH   8  26
TORSDOF 6
ENDMDL
MODEL 4
REMARK VINA RESULT:    -6.270      1.644      7.049
REMARK INTER + INTRA:          -7.859
REMARK INTER:                  -7.533
REMARK INTRA:                  -0.326
REMARK UNBOUND:                -0.306
REMARK SMILES O=c1c(O)c(-c2ccc(O)c(O)c2)oc2cc(O)cc(O)c12
REMARK SMILES IDX 5 1 3 2 2 3 1 4 22 5 20 6 19 7 17 8 16 9 15 10 14 11 6 12
REMARK SMILES IDX 7 13 8 14 9 15 13 16 11 17 10 18 12 20 4 22 21 24 18 26
REMARK H PARENT 10 19 12 21 4 23 21 25 18 27
REMARK Flexibility Score: inf
ROOT
ATOM      1  C   UNL     1      14.258 -36.258  -2.815  1.00  0.00     0.180 A 
ATOM      2  C   UNL     1      14.221 -34.896  -2.469  1.00  0.00     0.208 A 
ATOM      3  C   UNL     1      13.054 -34.158  -2.728  1.00  0.00     0.238 A 
ATOM      4  O   UNL     1      13.047 -32.927  -2.465  1.00  0.00    -0.285 OA
ATOM      5  C   UNL     1      11.934 -34.795  -3.314  1.00  0.00     0.111 A 
ATOM      6  C   UNL     1      10.687 -34.155  -3.584  1.00  0.00     0.134 A 
ATOM      7  C   UNL     1       9.693 -34.847  -4.286  1.00  0.00     0.093 A 
ATOM      8  C   UNL     1       9.876 -36.177  -4.671  1.00  0.00     0.123 A 
ATOM      9  C   UNL     1      11.067 -36.830  -4.359  1.00  0.00     0.094 A 
ATOM     10  C   UNL     1      12.091 -36.154  -3.691  1.00  0.00     0.146 A 
ATOM     11  O   UNL     1      13.215 -36.810  -3.424  1.00  0.00    -0.452 OA
ENDROOT
BRANCH   1  12
ATOM     12  C   UNL     1      15.441 -37.106  -2.550  1.00  0.00     0.025 A 
ATOM     13  C   UNL     1      15.644 -37.710  -1.298  1.00  0.00     0.016 A 
ATOM     14  C   UNL     1      16.757 -38.527  -1.078  1.00  0.00     0.051 A 
ATOM     15  C   UNL     1      17.676 -38.763  -2.109  1.00  0.00     0.157 A 
ATOM     16  C   UNL     1      16.355 -37.362  -3.587  1.00  0.00     0.062 A 
ATOM     17  C   UNL     1      17.471 -38.179  -3.370  1.00  0.00     0.158 A 
BRANCH  15  18
ATOM     18  O   UNL     1      18.785 -39.576  -1.887  1.00  0.00    -0.504 OA
ATOM     19  H   UNL     1      18.710 -40.586  -1.880  1.00  0.00     0.293 HD
ENDBRANCH  15  18
BRANCH  17  20
ATOM     20  O   UNL     1      18.363 -38.399  -4.420  1.00  0.00    -0.504 OA
ATOM     21  H   UNL     1      18.248 -37.958  -5.324  1.00  0.00     0.293 HD
ENDBRANCH  17  20
ENDBRANCH   1  12
BRANCH   2  22
ATOM     22  O   UNL     1      15.346 -34.282  -1.911  1.00  0.00    -0.502 OA
ATOM     23  H   UNL     1      15.510 -33.284  -1.976  1.00  0.00     0.293 HD
ENDBRANCH   2  22
BRANCH   6  24
ATOM     24  O   UNL     1      10.368 -32.860  -3.163  1.00  0.00    -0.507 OA
ATOM     25  H   UNL     1      10.316 -32.565  -2.200  1.00  0.00     0.293 HD
ENDBRANCH   6  24
BRANCH   8  26
ATOM     26  O   UNL     1       8.875 -36.864  -5.355  1.00  0.00    -0.508 OA
ATOM     27  H   UNL     1       8.940 -37.861  -5.527  1.00  0.00     0.293 HD
ENDBRANCH   8  26
TORSDOF 6
ENDMDL
MODEL 5
REMARK VINA RESULT:    -6.184      9.088     11.796
REMARK INTER + INTRA:          -7.755
REMARK INTER:                  -7.640
REMARK INTRA:                  -0.115
REMARK UNBOUND:                -0.306
REMARK SMILES O=c1c(O)c(-c2ccc(O)c(O)c2)oc2cc(O)cc(O)c12
REMARK SMILES IDX 5 1 3 2 2 3 1 4 22 5 20 6 19 7 17 8 16 9 15 10 14 11 6 12
REMARK SMILES IDX 7 13 8 14 9 15 13 16 11 17 10 18 12 20 4 22 21 24 18 26
REMARK H PARENT 10 19 12 21 4 23 21 25 18 27
REMARK Flexibility Score: inf
ROOT
ATOM      1  C   UNL     1      25.264 -38.688  -5.871  1.00  0.00     0.180 A 
ATOM      2  C   UNL     1      25.971 -39.793  -6.374  1.00  0.00     0.208 A 
ATOM      3  C   UNL     1      25.280 -40.763  -7.118  1.00  0.00     0.238 A 
ATOM      4  O   UNL     1      25.907 -41.778  -7.519  1.00  0.00    -0.285 OA
ATOM      5  C   UNL     1      23.894 -40.608  -7.363  1.00  0.00     0.111 A 
ATOM      6  C   UNL     1      23.102 -41.507  -8.138  1.00  0.00     0.134 A 
ATOM      7  C   UNL     1      21.715 -41.323  -8.206  1.00  0.00     0.093 A 
ATOM      8  C   UNL     1      21.101 -40.236  -7.581  1.00  0.00     0.123 A 
ATOM      9  C   UNL     1      21.874 -39.318  -6.872  1.00  0.00     0.094 A 
ATOM     10  C   UNL     1      23.255 -39.495  -6.757  1.00  0.00     0.146 A 
ATOM     11  O   UNL     1      23.952 -38.603  -6.062  1.00  0.00    -0.452 OA
ENDROOT
BRANCH   1  12
ATOM     12  C   UNL     1      25.928 -37.612  -5.101  1.00  0.00     0.025 A 
ATOM     13  C   UNL     1      27.004 -36.884  -5.637  1.00  0.00     0.016 A 
ATOM     14  C   UNL     1      27.600 -35.857  -4.900  1.00  0.00     0.051 A 
ATOM     15  C   UNL     1      27.122 -35.533  -3.624  1.00  0.00     0.157 A 
ATOM     16  C   UNL     1      25.439 -37.270  -3.829  1.00  0.00     0.062 A 
ATOM     17  C   UNL     1      26.035 -36.242  -3.087  1.00  0.00     0.158 A 
BRANCH  15  18
ATOM     18  O   UNL     1      27.719 -34.509  -2.891  1.00  0.00    -0.504 OA
ATOM     19  H   UNL     1      28.160 -34.686  -1.995  1.00  0.00     0.293 HD
ENDBRANCH  15  18
BRANCH  17  20
ATOM     20  O   UNL     1      25.530 -35.940  -1.822  1.00  0.00    -0.504 OA
ATOM     21  H   UNL     1      24.848 -36.529  -1.361  1.00  0.00     0.293 HD
ENDBRANCH  17  20
ENDBRANCH   1  12
BRANCH   2  22
ATOM     22  O   UNL     1      27.334 -39.939  -6.101  1.00  0.00    -0.502 OA
ATOM     23  H   UNL     1      27.758 -40.840  -5.913  1.00  0.00     0.293 HD
ENDBRANCH   2  22
BRANCH   6  24
ATOM     24  O   UNL     1      23.627 -42.572  -8.876  1.00  0.00    -0.507 OA
ATOM     25  H   UNL     1      23.406 -42.768  -9.840  1.00  0.00     0.293 HD
ENDBRANCH   6  24
BRANCH   8  26
ATOM     26  O   UNL     1      19.723 -40.051  -7.667  1.00  0.00    -0.508 OA
ATOM     27  H   UNL     1      19.325 -39.224  -8.097  1.00  0.00     0.293 HD
ENDBRANCH   8  26
TORSDOF 6
ENDMDL
MODEL 6
REMARK VINA RESULT:    -5.987      9.436     11.796
REMARK INTER + INTRA:          -7.518
REMARK INTER:                  -7.500
REMARK INTRA:                  -0.018
REMARK UNBOUND:                -0.306
REMARK SMILES O=c1c(O)c(-c2ccc(O)c(O)c2)oc2cc(O)cc(O)c12
REMARK SMILES IDX 5 1 3 2 2 3 1 4 22 5 20 6 19 7 17 8 16 9 15 10 14 11 6 12
REMARK SMILES IDX 7 13 8 14 9 15 13 16 11 17 10 18 12 20 4 22 21 24 18 26
REMARK H PARENT 10 19 12 21 4 23 21 25 18 27
REMARK Flexibility Score: inf
ROOT
ATOM      1  C   UNL     1      24.484 -40.664  -6.953  1.00  0.00     0.180 A 
ATOM      2  C   UNL     1      25.308 -41.615  -6.327  1.00  0.00     0.208 A 
ATOM      3  C   UNL     1      26.447 -41.178  -5.631  1.00  0.00     0.238 A 
ATOM      4  O   UNL     1      27.210 -42.038  -5.119  1.00  0.00    -0.285 OA
ATOM      5  C   UNL     1      26.738 -39.795  -5.556  1.00  0.00     0.111 A 
ATOM      6  C   UNL     1      27.842 -39.236  -4.844  1.00  0.00     0.134 A 
ATOM      7  C   UNL     1      28.107 -37.865  -4.946  1.00  0.00     0.093 A 
ATOM      8  C   UNL     1      27.271 -37.022  -5.681  1.00  0.00     0.123 A 
ATOM      9  C   UNL     1      26.156 -37.548  -6.331  1.00  0.00     0.094 A 
ATOM     10  C   UNL     1      25.886 -38.918  -6.277  1.00  0.00     0.146 A 
ATOM     11  O   UNL     1      24.819 -39.379  -6.920  1.00  0.00    -0.452 OA
ENDROOT
BRANCH   1  12
ATOM     12  C   UNL     1      23.254 -41.045  -7.682  1.00  0.00     0.025 A 
ATOM     13  C   UNL     1      23.274 -42.024  -8.691  1.00  0.00     0.016 A 
ATOM     14  C   UNL     1      22.095 -42.385  -9.349  1.00  0.00     0.051 A 
ATOM     15  C   UNL     1      20.878 -41.784  -9.003  1.00  0.00     0.157 A 
ATOM     16  C   UNL     1      22.028 -40.460  -7.324  1.00  0.00     0.062 A 
ATOM     17  C   UNL     1      20.845 -40.818  -7.983  1.00  0.00     0.158 A 
BRANCH  15  18
ATOM     18  O   UNL     1      19.705 -42.144  -9.662  1.00  0.00    -0.504 OA
ATOM     19  H   UNL     1      19.236 -43.022  -9.470  1.00  0.00     0.293 HD
ENDBRANCH  15  18
BRANCH  17  20
ATOM     20  O   UNL     1      19.649 -40.205  -7.608  1.00  0.00    -0.504 OA
ATOM     21  H   UNL     1      19.182 -40.426  -6.737  1.00  0.00     0.293 HD
ENDBRANCH  17  20
ENDBRANCH   1  12
BRANCH   2  22
ATOM     22  O   UNL     1      25.014 -42.977  -6.433  1.00  0.00    -0.502 OA
ATOM     23  H   UNL     1      25.547 -43.605  -7.024  1.00  0.00     0.293 HD
ENDBRANCH   2  22
BRANCH   6  24
ATOM     24  O   UNL     1      28.685 -39.975  -4.008  1.00  0.00    -0.507 OA
ATOM     25  H   UNL     1      28.571 -40.064  -3.010  1.00  0.00     0.293 HD
ENDBRANCH   6  24
BRANCH   8  26
ATOM     26  O   UNL     1      27.533 -35.656  -5.764  1.00  0.00    -0.508 OA
ATOM     27  H   UNL     1      28.335 -35.242  -5.303  1.00  0.00     0.293 HD
ENDBRANCH   8  26
TORSDOF 6
ENDMDL
MODEL 7
REMARK VINA RESULT:    -5.910      2.561      6.891
REMARK INTER + INTRA:          -7.425
REMARK INTER:                  -7.197
REMARK INTRA:                  -0.227
REMARK UNBOUND:                -0.306
REMARK SMILES O=c1c(O)c(-c2ccc(O)c(O)c2)oc2cc(O)cc(O)c12
REMARK SMILES IDX 5 1 3 2 2 3 1 4 22 5 20 6 19 7 17 8 16 9 15 10 14 11 6 12
REMARK SMILES IDX 7 13 8 14 9 15 13 16 11 17 10 18 12 20 4 22 21 24 18 26
REMARK H PARENT 10 19 12 21 4 23 21 25 18 27
REMARK Flexibility Score: inf
ROOT
ATOM      1  C   UNL     1      15.945 -35.571  -0.633  1.00  0.00     0.180 A 
ATOM      2  C   UNL     1      16.427 -35.032   0.572  1.00  0.00     0.208 A 
ATOM      3  C   UNL     1      15.541 -34.330   1.406  1.00  0.00     0.238 A 
ATOM      4  O   UNL     1      15.990 -33.803   2.457  1.00  0.00    -0.285 OA
ATOM      5  C   UNL     1      14.183 -34.188   1.031  1.00  0.00     0.111 A 
ATOM      6  C   UNL     1      13.189 -33.532   1.817  1.00  0.00     0.134 A 
ATOM      7  C   UNL     1      11.907 -33.338   1.289  1.00  0.00     0.093 A 
ATOM      8  C   UNL     1      11.565 -33.834   0.029  1.00  0.00     0.123 A 
ATOM      9  C   UNL     1      12.510 -34.529  -0.721  1.00  0.00     0.094 A 
ATOM     10  C   UNL     1      13.809 -34.707  -0.235  1.00  0.00     0.146 A 
ATOM     11  O   UNL     1      14.682 -35.366  -0.988  1.00  0.00    -0.452 OA
ENDROOT
BRANCH   1  12
ATOM     12  C   UNL     1      16.811 -36.346  -1.551  1.00  0.00     0.025 A 
ATOM     13  C   UNL     1      17.253 -35.807  -2.771  1.00  0.00     0.016 A 
ATOM     14  C   UNL     1      18.089 -36.548  -3.611  1.00  0.00     0.051 A 
ATOM     15  C   UNL     1      18.506 -37.832  -3.238  1.00  0.00     0.157 A 
ATOM     16  C   UNL     1      17.249 -37.626  -1.173  1.00  0.00     0.062 A 
ATOM     17  C   UNL     1      18.086 -38.372  -2.011  1.00  0.00     0.158 A 
BRANCH  15  18
ATOM     18  O   UNL     1      19.339 -38.570  -4.078  1.00  0.00    -0.504 OA
ATOM     19  H   UNL     1      20.160 -38.159  -4.505  1.00  0.00     0.293 HD
ENDBRANCH  15  18
BRANCH  17  20
ATOM     20  O   UNL     1      18.489 -39.645  -1.607  1.00  0.00    -0.504 OA
ATOM     21  H   UNL     1      18.029 -40.140  -0.853  1.00  0.00     0.293 HD
ENDBRANCH  17  20
ENDBRANCH   1  12
BRANCH   2  22
ATOM     22  O   UNL     1      17.775 -35.164   0.912  1.00  0.00    -0.502 OA
ATOM     23  H   UNL     1      18.352 -34.371   1.169  1.00  0.00     0.293 HD
ENDBRANCH   2  22
BRANCH   6  24
ATOM     24  O   UNL     1      13.402 -33.079   3.123  1.00  0.00    -0.507 OA
ATOM     25  H   UNL     1      13.676 -32.140   3.369  1.00  0.00     0.293 HD
ENDBRANCH   6  24
BRANCH   8  26
ATOM     26  O   UNL     1      10.282 -33.651  -0.482  1.00  0.00    -0.508 OA
ATOM     27  H   UNL     1       9.587 -34.389  -0.447  1.00  0.00     0.293 HD
ENDBRANCH   8  26
TORSDOF 6
ENDMDL
MODEL 8
REMARK VINA RESULT:    -5.864      2.560      3.474
REMARK INTER + INTRA:          -7.369
REMARK INTER:                  -7.045
REMARK INTRA:                  -0.325
REMARK UNBOUND:                -0.306
REMARK SMILES O=c1c(O)c(-c2ccc(O)c(O)c2)oc2cc(O)cc(O)c12
REMARK SMILES IDX 5 1 3 2 2 3 1 4 22 5 20 6 19 7 17 8 16 9 15 10 14 11 6 12
REMARK SMILES IDX 7 13 8 14 9 15 13 16 11 17 10 18 12 20 4 22 21 24 18 26
REMARK H PARENT 10 19 12 21 4 23 21 25 18 27
REMARK Flexibility Score: inf
ROOT
ATOM      1  C   UNL     1      14.549 -34.660   0.153  1.00  0.00     0.180 A 
ATOM      2  C   UNL     1      15.077 -34.038   1.298  1.00  0.00     0.208 A 
ATOM      3  C   UNL     1      16.157 -34.641   1.963  1.00  0.00     0.238 A 
ATOM      4  O   UNL     1      16.590 -34.108   3.018  1.00  0.00    -0.285 OA
ATOM      5  C   UNL     1      16.705 -35.848   1.467  1.00  0.00     0.111 A 
ATOM      6  C   UNL     1      17.824 -36.526   2.038  1.00  0.00     0.134 A 
ATOM      7  C   UNL     1      18.199 -37.780   1.542  1.00  0.00     0.093 A 
ATOM      8  C   UNL     1      17.536 -38.352   0.454  1.00  0.00     0.123 A 
ATOM      9  C   UNL     1      16.479 -37.672  -0.148  1.00  0.00     0.094 A 
ATOM     10  C   UNL     1      16.060 -36.434   0.347  1.00  0.00     0.146 A 
ATOM     11  O   UNL     1      15.042 -35.825  -0.250  1.00  0.00    -0.452 OA
ENDROOT
BRANCH   1  12
ATOM     12  C   UNL     1      13.429 -34.072  -0.616  1.00  0.00     0.025 A 
ATOM     13  C   UNL     1      13.649 -33.085  -1.592  1.00  0.00     0.016 A 
ATOM     14  C   UNL     1      12.579 -32.562  -2.323  1.00  0.00     0.051 A 
ATOM     15  C   UNL     1      11.276 -33.025  -2.099  1.00  0.00     0.157 A 
ATOM     16  C   UNL     1      12.123 -34.549  -0.410  1.00  0.00     0.062 A 
ATOM     17  C   UNL     1      11.048 -34.026  -1.140  1.00  0.00     0.158 A 
BRANCH  15  18
ATOM     18  O   UNL     1      10.210 -32.501  -2.828  1.00  0.00    -0.504 OA
ATOM     19  H   UNL     1      10.139 -32.629  -3.831  1.00  0.00     0.293 HD
ENDBRANCH  15  18
BRANCH  17  20
ATOM     20  O   UNL     1       9.765 -34.515  -0.898  1.00  0.00    -0.504 OA
ATOM     21  H   UNL     1       9.036 -34.485  -1.601  1.00  0.00     0.293 HD
ENDBRANCH  17  20
ENDBRANCH   1  12
BRANCH   2  22
ATOM     22  O   UNL     1      14.507 -32.858   1.783  1.00  0.00    -0.502 OA
ATOM     23  H   UNL     1      15.029 -31.993   1.860  1.00  0.00     0.293 HD
ENDBRANCH   2  22
BRANCH   6  24
ATOM     24  O   UNL     1      18.612 -36.000   3.066  1.00  0.00    -0.507 OA
ATOM     25  H   UNL     1      18.252 -35.550   3.894  1.00  0.00     0.293 HD
ENDBRANCH   6  24
BRANCH   8  26
ATOM     26  O   UNL     1      17.925 -39.594  -0.044  1.00  0.00    -0.508 OA
ATOM     27  H   UNL     1      18.459 -39.677  -0.901  1.00  0.00     0.293 HD
ENDBRANCH   8  26
TORSDOF 6
ENDMDL
MODEL 9
REMARK VINA RESULT:    -5.814      1.540      3.093
REMARK INTER + INTRA:          -7.309
REMARK INTER:                  -7.162
REMARK INTRA:                  -0.146
REMARK UNBOUND:                -0.306
REMARK SMILES O=c1c(O)c(-c2ccc(O)c(O)c2)oc2cc(O)cc(O)c12
REMARK SMILES IDX 5 1 3 2 2 3 1 4 22 5 20 6 19 7 17 8 16 9 15 10 14 11 6 12
REMARK SMILES IDX 7 13 8 14 9 15 13 16 11 17 10 18 12 20 4 22 21 24 18 26
REMARK H PARENT 10 19 12 21 4 23 21 25 18 27
REMARK Flexibility Score: inf
ROOT
ATOM      1  C   UNL     1      14.581 -35.991  -1.655  1.00  0.00     0.180 A 
ATOM      2  C   UNL     1      15.152 -36.835  -2.622  1.00  0.00     0.208 A 
ATOM      3  C   UNL     1      16.170 -37.723  -2.236  1.00  0.00     0.238 A 
ATOM      4  O   UNL     1      16.715 -38.438  -3.117  1.00  0.00    -0.285 OA
ATOM      5  C   UNL     1      16.592 -37.766  -0.885  1.00  0.00     0.111 A 
ATOM      6  C   UNL     1      17.586 -38.653  -0.374  1.00  0.00     0.134 A 
ATOM      7  C   UNL     1      18.017 -38.518   0.951  1.00  0.00     0.093 A 
ATOM      8  C   UNL     1      17.443 -37.571   1.802  1.00  0.00     0.123 A 
ATOM      9  C   UNL     1      16.429 -36.740   1.330  1.00  0.00     0.094 A 
ATOM     10  C   UNL     1      16.004 -36.827   0.002  1.00  0.00     0.146 A 
ATOM     11  O   UNL     1      15.043 -36.008  -0.410  1.00  0.00    -0.452 OA
ENDROOT
BRANCH   1  12
ATOM     12  C   UNL     1      13.487 -35.048  -1.980  1.00  0.00     0.025 A 
ATOM     13  C   UNL     1      13.671 -33.657  -1.902  1.00  0.00     0.016 A 
ATOM     14  C   UNL     1      12.631 -32.786  -2.237  1.00  0.00     0.051 A 
ATOM     15  C   UNL     1      11.396 -33.290  -2.667  1.00  0.00     0.157 A 
ATOM     16  C   UNL     1      12.254 -35.548  -2.432  1.00  0.00     0.062 A 
ATOM     17  C   UNL     1      11.209 -34.679  -2.767  1.00  0.00     0.158 A 
BRANCH  15  18
ATOM     18  O   UNL     1      10.360 -32.419  -2.998  1.00  0.00    -0.504 OA
ATOM     19  H   UNL     1      10.538 -31.533  -3.456  1.00  0.00     0.293 HD
ENDBRANCH  15  18
BRANCH  17  20
ATOM     20  O   UNL     1       9.995 -35.213  -3.198  1.00  0.00    -0.504 OA
ATOM     21  H   UNL     1       9.643 -35.061  -4.136  1.00  0.00     0.293 HD
ENDBRANCH  17  20
ENDBRANCH   1  12
BRANCH   2  22
ATOM     22  O   UNL     1      14.736 -36.761  -3.954  1.00  0.00    -0.502 OA
ATOM     23  H   UNL     1      15.386 -36.808  -4.731  1.00  0.00     0.293 HD
ENDBRANCH   2  22
BRANCH   6  24
ATOM     24  O   UNL     1      18.157 -39.693  -1.114  1.00  0.00    -0.507 OA
ATOM     25  H   UNL     1      17.685 -40.549  -1.363  1.00  0.00     0.293 HD
ENDBRANCH   6  24
BRANCH   8  26
ATOM     26  O   UNL     1      17.866 -37.455   3.125  1.00  0.00    -0.508 OA
ATOM     27  H   UNL     1      18.542 -38.096   3.523  1.00  0.00     0.293 HD
ENDBRANCH   8  26
TORSDOF 6
ENDMDL
