MODEL 1
REMARK VINA RESULT:    -6.453      0.000      0.000
REMARK INTER + INTRA:          -7.989
REMARK INTER:                  -7.773
REMARK INTRA:                  -0.216
REMARK UNBOUND:                -0.216
REMARK SMILES O=c1c(O)c(-c2ccc(O)c(O)c2)oc2cc(O)cc(O)c12
REMARK SMILES IDX 5 1 3 2 2 3 1 4 22 5 20 6 19 7 17 8 16 9 15 10 14 11 6 12
REMARK SMILES IDX 7 13 8 14 9 15 13 16 11 17 10 18 12 20 4 22 21 24 18 26
REMARK H PARENT 10 19 12 21 4 23 21 25 18 27
REMARK Flexibility Score: inf
ROOT
ATOM      1  C   UNL     1     -14.511 -33.309 -13.090  1.00  0.00     0.180 A 
ATOM      2  C   UNL     1     -13.479 -33.521 -14.021  1.00  0.00     0.208 A 
ATOM      3  C   UNL     1     -13.694 -34.414 -15.083  1.00  0.00     0.238 A 
ATOM      4  O   UNL     1     -12.748 -34.641 -15.882  1.00  0.00    -0.285 OA
ATOM      5  C   UNL     1     -14.941 -35.072 -15.210  1.00  0.00     0.111 A 
ATOM      6  C   UNL     1     -15.282 -35.966 -16.269  1.00  0.00     0.134 A 
ATOM      7  C   UNL     1     -16.497 -36.660 -16.223  1.00  0.00     0.093 A 
ATOM      8  C   UNL     1     -17.412 -36.442 -15.189  1.00  0.00     0.123 A 
ATOM      9  C   UNL     1     -17.114 -35.527 -14.183  1.00  0.00     0.094 A 
ATOM     10  C   UNL     1     -15.894 -34.847 -14.182  1.00  0.00     0.146 A 
ATOM     11  O   UNL     1     -15.645 -33.990 -13.198  1.00  0.00    -0.452 OA
ENDROOT
BRANCH   1  12
ATOM     12  C   UNL     1     -14.369 -32.364 -11.958  1.00  0.00     0.025 A 
ATOM     13  C   UNL     1     -13.511 -32.638 -10.879  1.00  0.00     0.016 A 
ATOM     14  C   UNL     1     -13.374 -31.720  -9.835  1.00  0.00     0.051 A 
ATOM     15  C   UNL     1     -14.082 -30.511  -9.858  1.00  0.00     0.157 A 
ATOM     16  C   UNL     1     -15.061 -31.142 -11.988  1.00  0.00     0.062 A 
ATOM     17  C   UNL     1     -14.928 -30.220 -10.942  1.00  0.00     0.158 A 
BRANCH  15  18
ATOM     18  O   UNL     1     -13.946 -29.598  -8.814  1.00  0.00    -0.504 OA
ATOM     19  H   UNL     1     -14.751 -29.253  -8.303  1.00  0.00     0.293 HD
ENDBRANCH  15  18
BRANCH  17  20
ATOM     20  O   UNL     1     -15.640 -29.023 -11.000  1.00  0.00    -0.504 OA
ATOM     21  H   UNL     1     -16.615 -28.963 -10.731  1.00  0.00     0.293 HD
ENDBRANCH  17  20
ENDBRANCH   1  12
BRANCH   2  22
ATOM     22  O   UNL     1     -12.248 -32.878 -13.864  1.00  0.00    -0.502 OA
ATOM     23  H   UNL     1     -12.120 -32.095 -13.234  1.00  0.00     0.293 HD
ENDBRANCH   2  22
BRANCH   6  24
ATOM     24  O   UNL     1     -14.481 -36.185 -17.393  1.00  0.00    -0.507 OA
ATOM     25  H   UNL     1     -14.728 -35.923 -18.335  1.00  0.00     0.293 HD
ENDBRANCH   6  24
BRANCH   8  26
ATOM     26  O   UNL     1     -18.626 -37.125 -15.159  1.00  0.00    -0.508 OA
ATOM     27  H   UNL     1     -19.460 -36.709 -14.761  1.00  0.00     0.293 HD
ENDBRANCH   8  26
TORSDOF 6
ENDMDL
