MODEL 1
REMARK VINA RESULT:    -4.333      0.000      0.000
REMARK INTER + INTRA:         -16.899
REMARK INTER:                 -11.426
REMARK INTRA:                  -5.474
REMARK UNBOUND:                -5.474
REMARK SMILES CCCCCCCCCCCCCCCCCCCCCCCCCCCCCC(=O)[O-]
REMARK SMILES IDX 16 1 17 2 18 3 19 4 20 5 21 6 22 7 23 8 24 9 25 10 26 11
REMARK SMILES IDX 27 12 28 13 29 14 30 15 31 16 32 17 15 18 14 19 13 20 12 21
REMARK SMILES IDX 11 22 10 23 9 24 8 25 7 26 6 27 5 28 4 29 3 30 2 31 1 32
REMARK H PARENT
REMARK Flexibility Score: inf
ROOT
ATOM      1  C   UNL     1      14.476  18.804  31.487  1.00  0.00     0.000 C 
ENDROOT
BRANCH   1   2
ATOM      2  C   UNL     1      15.908  18.402  31.881  1.00  0.00     0.000 C 
BRANCH   2   3
ATOM      3  C   UNL     1      15.963  17.648  33.220  1.00  0.00     0.000 C 
BRANCH   3   4
ATOM      4  C   UNL     1      16.028  16.124  33.038  1.00  0.00     0.000 C 
BRANCH   4   5
ATOM      5  C   UNL     1      17.259  15.681  32.229  1.00  0.00     0.000 C 
BRANCH   5   6
ATOM      6  C   UNL     1      18.577  15.936  32.976  1.00  0.00     0.000 C 
BRANCH   6   7
ATOM      7  C   UNL     1      19.405  17.068  32.345  1.00  0.00     0.000 C 
BRANCH   7   8
ATOM      8  C   UNL     1      19.801  18.107  33.405  1.00  0.00     0.000 C 
BRANCH   8   9
ATOM      9  C   UNL     1      19.224  19.503  33.119  1.00  0.00     0.000 C 
BRANCH   9  10
ATOM     10  C   UNL     1      18.551  20.128  34.354  1.00  0.00     0.000 C 
BRANCH  10  11
ATOM     11  C   UNL     1      19.453  20.100  35.601  1.00  0.00     0.000 C 
BRANCH  11  12
ATOM     12  C   UNL     1      18.883  19.316  36.798  1.00  0.00     0.000 C 
BRANCH  12  13
ATOM     13  C   UNL     1      17.538  18.634  36.483  1.00  0.00     0.006 C 
BRANCH  13  14
ATOM     14  C   UNL     1      17.672  17.108  36.378  1.00  0.00     0.053 C 
BRANCH  14  15
ATOM     15  C   UNL     1      16.452  16.406  36.889  1.00  0.00     0.041 C 
ATOM     16  O   UNL     1      16.182  15.238  36.502  1.00  0.00    -0.550 OA
ATOM     17  O   UNL     1      15.628  17.031  37.816  1.00  0.00    -0.550 OA
ENDBRANCH  14  15
ENDBRANCH  13  14
ENDBRANCH  12  13
ENDBRANCH  11  12
ENDBRANCH  10  11
ENDBRANCH   9  10
ENDBRANCH   8   9
ENDBRANCH   7   8
ENDBRANCH   6   7
ENDBRANCH   5   6
ENDBRANCH   4   5
ENDBRANCH   3   4
ENDBRANCH   2   3
ENDBRANCH   1   2
BRANCH   1  18
ATOM     18  C   UNL     1      13.875  17.989  30.324  1.00  0.00     0.000 C 
BRANCH  18  19
ATOM     19  C   UNL     1      13.043  16.762  30.750  1.00  0.00     0.000 C 
BRANCH  19  20
ATOM     20  C   UNL     1      13.590  15.402  30.276  1.00  0.00     0.000 C 
BRANCH  20  21
ATOM     21  C   UNL     1      13.534  15.155  28.755  1.00  0.00     0.000 C 
BRANCH  21  22
ATOM     22  C   UNL     1      14.825  14.557  28.156  1.00  0.00     0.000 C 
BRANCH  22  23
ATOM     23  C   UNL     1      15.835  15.631  27.708  1.00  0.00     0.000 C 
BRANCH  23  24
ATOM     24  C   UNL     1      17.015  15.794  28.689  1.00  0.00    -0.000 C 
BRANCH  24  25
ATOM     25  C   UNL     1      17.456  17.256  28.908  1.00  0.00    -0.000 C 
BRANCH  25  26
ATOM     26  C   UNL     1      17.219  18.203  27.717  1.00  0.00    -0.000 C 
BRANCH  26  27
ATOM     27  C   UNL     1      16.498  19.520  28.063  1.00  0.00    -0.000 C 
BRANCH  27  28
ATOM     28  C   UNL     1      16.704  20.612  26.998  1.00  0.00    -0.000 C 
BRANCH  28  29
ATOM     29  C   UNL     1      15.374  21.057  26.353  1.00  0.00    -0.000 C 
BRANCH  29  30
ATOM     30  C   UNL     1      14.170  20.185  26.758  1.00  0.00    -0.000 C 
BRANCH  30  31
ATOM     31  C   UNL     1      13.943  18.958  25.859  1.00  0.00    -0.003 C 
ATOM     32  C   UNL     1      12.995  17.935  26.485  1.00  0.00     0.004 C 
ENDBRANCH  30  31
ENDBRANCH  29  30
ENDBRANCH  28  29
ENDBRANCH  27  28
ENDBRANCH  26  27
ENDBRANCH  25  26
ENDBRANCH  24  25
ENDBRANCH  23  24
ENDBRANCH  22  23
ENDBRANCH  21  22
ENDBRANCH  20  21
ENDBRANCH  19  20
ENDBRANCH  18  19
ENDBRANCH   1  18
TORSDOF 28
ENDMDL
MODEL 2
REMARK VINA RESULT:    -4.278      2.045      4.931
REMARK INTER + INTRA:         -16.755
REMARK INTER:                 -11.711
REMARK INTRA:                  -5.044
REMARK UNBOUND:                -5.474
REMARK SMILES CCCCCCCCCCCCCCCCCCCCCCCCCCCCCC(=O)[O-]
REMARK SMILES IDX 16 1 17 2 18 3 19 4 20 5 21 6 22 7 23 8 24 9 25 10 26 11
REMARK SMILES IDX 27 12 28 13 29 14 30 15 31 16 32 17 15 18 14 19 13 20 12 21
REMARK SMILES IDX 11 22 10 23 9 24 8 25 7 26 6 27 5 28 4 29 3 30 2 31 1 32
REMARK H PARENT
REMARK Flexibility Score: inf
ROOT
ATOM      1  C   UNL     1      18.359  17.056  36.243  1.00  0.00     0.000 C 
ENDROOT
BRANCH   1   2
ATOM      2  C   UNL     1      17.205  18.039  36.509  1.00  0.00     0.000 C 
BRANCH   2   3
ATOM      3  C   UNL     1      17.701  19.453  36.858  1.00  0.00     0.000 C 
BRANCH   3   4
ATOM      4  C   UNL     1      19.223  19.510  37.063  1.00  0.00     0.000 C 
BRANCH   4   5
ATOM      5  C   UNL     1      19.934  20.318  35.964  1.00  0.00     0.000 C 
BRANCH   5   6
ATOM      6  C   UNL     1      21.027  19.506  35.252  1.00  0.00     0.000 C 
BRANCH   6   7
ATOM      7  C   UNL     1      20.558  18.941  33.901  1.00  0.00     0.000 C 
BRANCH   7   8
ATOM      8  C   UNL     1      19.402  19.779  33.333  1.00  0.00     0.000 C 
BRANCH   8   9
ATOM      9  C   UNL     1      18.330  18.926  32.637  1.00  0.00     0.000 C 
BRANCH   9  10
ATOM     10  C   UNL     1      16.918  19.182  33.192  1.00  0.00     0.000 C 
BRANCH  10  11
ATOM     11  C   UNL     1      15.859  18.248  32.579  1.00  0.00     0.000 C 
BRANCH  11  12
ATOM     12  C   UNL     1      14.509  18.917  32.259  1.00  0.00     0.000 C 
BRANCH  12  13
ATOM     13  C   UNL     1      13.792  18.276  31.056  1.00  0.00     0.006 C 
BRANCH  13  14
ATOM     14  C   UNL     1      12.769  17.215  31.488  1.00  0.00     0.053 C 
BRANCH  14  15
ATOM     15  C   UNL     1      13.364  15.841  31.502  1.00  0.00     0.041 C 
ATOM     16  O   UNL     1      13.587  15.255  32.594  1.00  0.00    -0.550 OA
ATOM     17  O   UNL     1      13.643  15.194  30.305  1.00  0.00    -0.550 OA
ENDBRANCH  14  15
ENDBRANCH  13  14
ENDBRANCH  12  13
ENDBRANCH  11  12
ENDBRANCH  10  11
ENDBRANCH   9  10
ENDBRANCH   8   9
ENDBRANCH   7   8
ENDBRANCH   6   7
ENDBRANCH   5   6
ENDBRANCH   4   5
ENDBRANCH   3   4
ENDBRANCH   2   3
ENDBRANCH   1   2
BRANCH   1  18
ATOM     18  C   UNL     1      18.083  16.026  35.129  1.00  0.00     0.000 C 
BRANCH  18  19
ATOM     19  C   UNL     1      19.320  15.606  34.309  1.00  0.00     0.000 C 
BRANCH  19  20
ATOM     20  C   UNL     1      19.034  15.206  32.849  1.00  0.00     0.000 C 
BRANCH  20  21
ATOM     21  C   UNL     1      17.569  14.843  32.532  1.00  0.00     0.000 C 
BRANCH  21  22
ATOM     22  C   UNL     1      17.025  15.460  31.226  1.00  0.00     0.000 C 
BRANCH  22  23
ATOM     23  C   UNL     1      18.129  15.751  30.192  1.00  0.00     0.000 C 
BRANCH  23  24
ATOM     24  C   UNL     1      17.966  17.123  29.505  1.00  0.00    -0.000 C 
BRANCH  24  25
ATOM     25  C   UNL     1      16.618  17.308  28.778  1.00  0.00    -0.000 C 
BRANCH  25  26
ATOM     26  C   UNL     1      16.294  18.750  28.343  1.00  0.00    -0.000 C 
BRANCH  26  27
ATOM     27  C   UNL     1      14.995  18.910  27.531  1.00  0.00    -0.000 C 
BRANCH  27  28
ATOM     28  C   UNL     1      13.974  17.793  27.809  1.00  0.00    -0.000 C 
BRANCH  28  29
ATOM     29  C   UNL     1      13.729  16.902  26.571  1.00  0.00    -0.000 C 
BRANCH  29  30
ATOM     30  C   UNL     1      12.741  15.749  26.829  1.00  0.00    -0.000 C 
BRANCH  30  31
ATOM     31  C   UNL     1      12.146  15.124  25.556  1.00  0.00    -0.003 C 
ATOM     32  C   UNL     1      10.673  14.750  25.715  1.00  0.00     0.004 C 
ENDBRANCH  30  31
ENDBRANCH  29  30
ENDBRANCH  28  29
ENDBRANCH  27  28
ENDBRANCH  26  27
ENDBRANCH  25  26
ENDBRANCH  24  25
ENDBRANCH  23  24
ENDBRANCH  22  23
ENDBRANCH  21  22
ENDBRANCH  20  21
ENDBRANCH  19  20
ENDBRANCH  18  19
ENDBRANCH   1  18
TORSDOF 28
ENDMDL
MODEL 3
REMARK VINA RESULT:    -4.265      3.046      8.250
REMARK INTER + INTRA:         -16.720
REMARK INTER:                 -10.973
REMARK INTRA:                  -5.747
REMARK UNBOUND:                -5.474
REMARK SMILES CCCCCCCCCCCCCCCCCCCCCCCCCCCCCC(=O)[O-]
REMARK SMILES IDX 16 1 17 2 18 3 19 4 20 5 21 6 22 7 23 8 24 9 25 10 26 11
REMARK SMILES IDX 27 12 28 13 29 14 30 15 31 16 32 17 15 18 14 19 13 20 12 21
REMARK SMILES IDX 11 22 10 23 9 24 8 25 7 26 6 27 5 28 4 29 3 30 2 31 1 32
REMARK H PARENT
REMARK Flexibility Score: inf
ROOT
ATOM      1  C   UNL     1      18.694  18.435  32.428  1.00  0.00     0.000 C 
ENDROOT
BRANCH   1   2
ATOM      2  C   UNL     1      18.116  18.774  31.042  1.00  0.00     0.000 C 
BRANCH   2   3
ATOM      3  C   UNL     1      16.617  18.448  30.931  1.00  0.00     0.000 C 
BRANCH   3   4
ATOM      4  C   UNL     1      15.839  18.804  32.206  1.00  0.00     0.000 C 
BRANCH   4   5
ATOM      5  C   UNL     1      14.318  18.833  31.979  1.00  0.00     0.000 C 
BRANCH   5   6
ATOM      6  C   UNL     1      13.900  18.083  30.705  1.00  0.00     0.000 C 
BRANCH   6   7
ATOM      7  C   UNL     1      12.788  17.054  30.963  1.00  0.00     0.000 C 
BRANCH   7   8
ATOM      8  C   UNL     1      12.535  16.201  29.710  1.00  0.00     0.000 C 
BRANCH   8   9
ATOM      9  C   UNL     1      13.694  15.241  29.396  1.00  0.00     0.000 C 
BRANCH   9  10
ATOM     10  C   UNL     1      14.296  15.477  28.000  1.00  0.00     0.000 C 
BRANCH  10  11
ATOM     11  C   UNL     1      15.832  15.372  27.989  1.00  0.00     0.000 C 
BRANCH  11  12
ATOM     12  C   UNL     1      16.571  16.690  27.690  1.00  0.00     0.000 C 
BRANCH  12  13
ATOM     13  C   UNL     1      15.765  17.636  26.779  1.00  0.00     0.006 C 
BRANCH  13  14
ATOM     14  C   UNL     1      15.507  18.997  27.440  1.00  0.00     0.053 C 
BRANCH  14  15
ATOM     15  C   UNL     1      16.570  19.994  27.097  1.00  0.00     0.041 C 
ATOM     16  O   UNL     1      17.503  20.233  27.910  1.00  0.00    -0.550 OA
ATOM     17  O   UNL     1      16.548  20.637  25.866  1.00  0.00    -0.550 OA
ENDBRANCH  14  15
ENDBRANCH  13  14
ENDBRANCH  12  13
ENDBRANCH  11  12
ENDBRANCH  10  11
ENDBRANCH   9  10
ENDBRANCH   8   9
ENDBRANCH   7   8
ENDBRANCH   6   7
ENDBRANCH   5   6
ENDBRANCH   4   5
ENDBRANCH   3   4
ENDBRANCH   2   3
ENDBRANCH   1   2
BRANCH   1  18
ATOM     18  C   UNL     1      19.180  19.653  33.237  1.00  0.00     0.000 C 
BRANCH  18  19
ATOM     19  C   UNL     1      20.172  19.327  34.373  1.00  0.00     0.000 C 
BRANCH  19  20
ATOM     20  C   UNL     1      20.040  20.206  35.632  1.00  0.00     0.000 C 
BRANCH  20  21
ATOM     21  C   UNL     1      19.297  19.561  36.820  1.00  0.00     0.000 C 
BRANCH  21  22
ATOM     22  C   UNL     1      17.778  19.383  36.604  1.00  0.00     0.000 C 
BRANCH  22  23
ATOM     23  C   UNL     1      17.318  17.920  36.738  1.00  0.00     0.000 C 
BRANCH  23  24
ATOM     24  C   UNL     1      16.865  17.304  35.397  1.00  0.00    -0.000 C 
BRANCH  24  25
ATOM     25  C   UNL     1      17.664  16.055  34.975  1.00  0.00    -0.000 C 
BRANCH  25  26
ATOM     26  C   UNL     1      19.110  15.985  35.502  1.00  0.00    -0.000 C 
BRANCH  26  27
ATOM     27  C   UNL     1      20.160  15.530  34.471  1.00  0.00    -0.000 C 
BRANCH  27  28
ATOM     28  C   UNL     1      19.569  14.627  33.374  1.00  0.00    -0.000 C 
BRANCH  28  29
ATOM     29  C   UNL     1      20.029  15.046  31.961  1.00  0.00    -0.000 C 
BRANCH  29  30
ATOM     30  C   UNL     1      18.884  15.094  30.931  1.00  0.00    -0.000 C 
BRANCH  30  31
ATOM     31  C   UNL     1      17.631  14.298  31.335  1.00  0.00    -0.003 C 
ATOM     32  C   UNL     1      16.447  15.199  31.683  1.00  0.00     0.004 C 
ENDBRANCH  30  31
ENDBRANCH  29  30
ENDBRANCH  28  29
ENDBRANCH  27  28
ENDBRANCH  26  27
ENDBRANCH  25  26
ENDBRANCH  24  25
ENDBRANCH  23  24
ENDBRANCH  22  23
ENDBRANCH  21  22
ENDBRANCH  20  21
ENDBRANCH  19  20
ENDBRANCH  18  19
ENDBRANCH   1  18
TORSDOF 28
ENDMDL
MODEL 4
REMARK VINA RESULT:    -4.252      3.344      8.147
REMARK INTER + INTRA:         -16.685
REMARK INTER:                 -11.048
REMARK INTRA:                  -5.637
REMARK UNBOUND:                -5.474
REMARK SMILES CCCCCCCCCCCCCCCCCCCCCCCCCCCCCC(=O)[O-]
REMARK SMILES IDX 16 1 17 2 18 3 19 4 20 5 21 6 22 7 23 8 24 9 25 10 26 11
REMARK SMILES IDX 27 12 28 13 29 14 30 15 31 16 32 17 15 18 14 19 13 20 12 21
REMARK SMILES IDX 11 22 10 23 9 24 8 25 7 26 6 27 5 28 4 29 3 30 2 31 1 32
REMARK H PARENT
REMARK Flexibility Score: inf
ROOT
ATOM      1  C   UNL     1      14.435  18.297  31.299  1.00  0.00     0.000 C 
ENDROOT
BRANCH   1   2
ATOM      2  C   UNL     1      13.070  17.601  31.441  1.00  0.00     0.000 C 
BRANCH   2   3
ATOM      3  C   UNL     1      12.854  16.501  30.387  1.00  0.00     0.000 C 
BRANCH   3   4
ATOM      4  C   UNL     1      13.130  16.991  28.958  1.00  0.00     0.000 C 
BRANCH   4   5
ATOM      5  C   UNL     1      12.491  16.085  27.892  1.00  0.00     0.000 C 
BRANCH   5   6
ATOM      6  C   UNL     1      13.191  14.721  27.782  1.00  0.00     0.000 C 
BRANCH   6   7
ATOM      7  C   UNL     1      14.685  14.850  27.443  1.00  0.00     0.000 C 
BRANCH   7   8
ATOM      8  C   UNL     1      15.541  14.070  28.453  1.00  0.00     0.000 C 
BRANCH   8   9
ATOM      9  C   UNL     1      16.311  14.987  29.418  1.00  0.00     0.000 C 
BRANCH   9  10
ATOM     10  C   UNL     1      17.359  15.855  28.699  1.00  0.00     0.000 C 
BRANCH  10  11
ATOM     11  C   UNL     1      17.300  17.333  29.125  1.00  0.00     0.000 C 
BRANCH  11  12
ATOM     12  C   UNL     1      16.614  18.274  28.116  1.00  0.00     0.000 C 
BRANCH  12  13
ATOM     13  C   UNL     1      16.968  19.756  28.340  1.00  0.00     0.006 C 
BRANCH  13  14
ATOM     14  C   UNL     1      16.728  20.607  27.085  1.00  0.00     0.053 C 
BRANCH  14  15
ATOM     15  C   UNL     1      17.538  20.124  25.921  1.00  0.00     0.041 C 
ATOM     16  O   UNL     1      18.793  20.225  25.935  1.00  0.00    -0.550 OA
ATOM     17  O   UNL     1      16.907  19.534  24.833  1.00  0.00    -0.550 OA
ENDBRANCH  14  15
ENDBRANCH  13  14
ENDBRANCH  12  13
ENDBRANCH  11  12
ENDBRANCH  10  11
ENDBRANCH   9  10
ENDBRANCH   8   9
ENDBRANCH   7   8
ENDBRANCH   6   7
ENDBRANCH   5   6
ENDBRANCH   4   5
ENDBRANCH   3   4
ENDBRANCH   2   3
ENDBRANCH   1   2
BRANCH   1  18
ATOM     18  C   UNL     1      15.499  17.838  32.315  1.00  0.00     0.000 C 
BRANCH  18  19
ATOM     19  C   UNL     1      16.482  18.937  32.770  1.00  0.00     0.000 C 
BRANCH  19  20
ATOM     20  C   UNL     1      17.947  18.725  32.342  1.00  0.00     0.000 C 
BRANCH  20  21
ATOM     21  C   UNL     1      18.973  19.682  32.983  1.00  0.00     0.000 C 
BRANCH  21  22
ATOM     22  C   UNL     1      20.193  18.980  33.617  1.00  0.00     0.000 C 
BRANCH  22  23
ATOM     23  C   UNL     1      20.314  19.235  35.132  1.00  0.00     0.000 C 
BRANCH  23  24
ATOM     24  C   UNL     1      19.120  20.025  35.707  1.00  0.00    -0.000 C 
BRANCH  24  25
ATOM     25  C   UNL     1      18.179  19.187  36.597  1.00  0.00    -0.000 C 
BRANCH  25  26
ATOM     26  C   UNL     1      18.146  17.678  36.288  1.00  0.00    -0.000 C 
BRANCH  26  27
ATOM     27  C   UNL     1      16.761  17.119  35.911  1.00  0.00    -0.000 C 
BRANCH  27  28
ATOM     28  C   UNL     1      16.844  15.813  35.101  1.00  0.00    -0.000 C 
BRANCH  28  29
ATOM     29  C   UNL     1      18.215  15.638  34.412  1.00  0.00    -0.000 C 
BRANCH  29  30
ATOM     30  C   UNL     1      18.113  15.163  32.950  1.00  0.00    -0.000 C 
BRANCH  30  31
ATOM     31  C   UNL     1      19.460  14.793  32.306  1.00  0.00    -0.003 C 
ATOM     32  C   UNL     1      19.941  15.838  31.301  1.00  0.00     0.004 C 
ENDBRANCH  30  31
ENDBRANCH  29  30
ENDBRANCH  28  29
ENDBRANCH  27  28
ENDBRANCH  26  27
ENDBRANCH  25  26
ENDBRANCH  24  25
ENDBRANCH  23  24
ENDBRANCH  22  23
ENDBRANCH  21  22
ENDBRANCH  20  21
ENDBRANCH  19  20
ENDBRANCH  18  19
ENDBRANCH   1  18
TORSDOF 28
ENDMDL
MODEL 5
REMARK VINA RESULT:    -4.193      1.071      2.668
REMARK INTER + INTRA:         -16.530
REMARK INTER:                 -11.291
REMARK INTRA:                  -5.239
REMARK UNBOUND:                -5.474
REMARK SMILES CCCCCCCCCCCCCCCCCCCCCCCCCCCCCC(=O)[O-]
REMARK SMILES IDX 16 1 17 2 18 3 19 4 20 5 21 6 22 7 23 8 24 9 25 10 26 11
REMARK SMILES IDX 27 12 28 13 29 14 30 15 31 16 32 17 15 18 14 19 13 20 12 21
REMARK SMILES IDX 11 22 10 23 9 24 8 25 7 26 6 27 5 28 4 29 3 30 2 31 1 32
REMARK H PARENT
REMARK Flexibility Score: inf
ROOT
ATOM      1  C   UNL     1      15.449  18.389  32.043  1.00  0.00     0.000 C 
ENDROOT
BRANCH   1   2
ATOM      2  C   UNL     1      15.744  17.232  33.015  1.00  0.00     0.000 C 
BRANCH   2   3
ATOM      3  C   UNL     1      16.079  15.919  32.287  1.00  0.00     0.000 C 
BRANCH   3   4
ATOM      4  C   UNL     1      16.818  14.917  33.187  1.00  0.00     0.000 C 
BRANCH   4   5
ATOM      5  C   UNL     1      18.237  15.387  33.548  1.00  0.00     0.000 C 
BRANCH   5   6
ATOM      6  C   UNL     1      19.161  15.463  32.322  1.00  0.00     0.000 C 
BRANCH   6   7
ATOM      7  C   UNL     1      19.603  16.901  32.004  1.00  0.00     0.000 C 
BRANCH   7   8
ATOM      8  C   UNL     1      19.262  17.844  33.169  1.00  0.00     0.000 C 
BRANCH   8   9
ATOM      9  C   UNL     1      18.887  19.260  32.702  1.00  0.00     0.000 C 
BRANCH   9  10
ATOM     10  C   UNL     1      18.721  20.244  33.873  1.00  0.00     0.000 C 
BRANCH  10  11
ATOM     11  C   UNL     1      18.919  19.575  35.245  1.00  0.00     0.000 C 
BRANCH  11  12
ATOM     12  C   UNL     1      17.813  19.868  36.277  1.00  0.00     0.000 C 
BRANCH  12  13
ATOM     13  C   UNL     1      17.446  18.639  37.129  1.00  0.00     0.006 C 
BRANCH  13  14
ATOM     14  C   UNL     1      16.992  17.451  36.269  1.00  0.00     0.053 C 
BRANCH  14  15
ATOM     15  C   UNL     1      15.878  16.688  36.916  1.00  0.00     0.041 C 
ATOM     16  O   UNL     1      15.317  15.741  36.304  1.00  0.00    -0.550 OA
ATOM     17  O   UNL     1      15.478  17.005  38.208  1.00  0.00    -0.550 OA
ENDBRANCH  14  15
ENDBRANCH  13  14
ENDBRANCH  12  13
ENDBRANCH  11  12
ENDBRANCH  10  11
ENDBRANCH   9  10
ENDBRANCH   8   9
ENDBRANCH   7   8
ENDBRANCH   6   7
ENDBRANCH   5   6
ENDBRANCH   4   5
ENDBRANCH   3   4
ENDBRANCH   2   3
ENDBRANCH   1   2
BRANCH   1  18
ATOM     18  C   UNL     1      13.957  18.752  31.910  1.00  0.00     0.000 C 
BRANCH  18  19
ATOM     19  C   UNL     1      13.088  17.691  31.203  1.00  0.00     0.000 C 
BRANCH  19  20
ATOM     20  C   UNL     1      13.636  17.187  29.853  1.00  0.00     0.000 C 
BRANCH  20  21
ATOM     21  C   UNL     1      12.606  16.504  28.930  1.00  0.00     0.000 C 
BRANCH  21  22
ATOM     22  C   UNL     1      13.067  16.347  27.464  1.00  0.00     0.000 C 
BRANCH  22  23
ATOM     23  C   UNL     1      12.800  17.602  26.612  1.00  0.00     0.000 C 
BRANCH  23  24
ATOM     24  C   UNL     1      14.094  18.335  26.197  1.00  0.00    -0.000 C 
BRANCH  24  25
ATOM     25  C   UNL     1      14.492  19.491  27.136  1.00  0.00    -0.000 C 
BRANCH  25  26
ATOM     26  C   UNL     1      15.749  20.279  26.720  1.00  0.00    -0.000 C 
BRANCH  26  27
ATOM     27  C   UNL     1      17.031  19.922  27.498  1.00  0.00    -0.000 C 
BRANCH  27  28
ATOM     28  C   UNL     1      16.743  19.396  28.915  1.00  0.00    -0.000 C 
BRANCH  28  29
ATOM     29  C   UNL     1      17.610  18.169  29.271  1.00  0.00    -0.000 C 
BRANCH  29  30
ATOM     30  C   UNL     1      17.018  16.834  28.779  1.00  0.00    -0.000 C 
BRANCH  30  31
ATOM     31  C   UNL     1      17.993  15.646  28.841  1.00  0.00    -0.003 C 
ATOM     32  C   UNL     1      19.051  15.693  27.740  1.00  0.00     0.004 C 
ENDBRANCH  30  31
ENDBRANCH  29  30
ENDBRANCH  28  29
ENDBRANCH  27  28
ENDBRANCH  26  27
ENDBRANCH  25  26
ENDBRANCH  24  25
ENDBRANCH  23  24
ENDBRANCH  22  23
ENDBRANCH  21  22
ENDBRANCH  20  21
ENDBRANCH  19  20
ENDBRANCH  18  19
ENDBRANCH   1  18
TORSDOF 28
ENDMDL
MODEL 6
REMARK VINA RESULT:    -4.156      3.170      8.150
REMARK INTER + INTRA:         -16.432
REMARK INTER:                 -10.560
REMARK INTRA:                  -5.872
REMARK UNBOUND:                -5.474
REMARK SMILES CCCCCCCCCCCCCCCCCCCCCCCCCCCCCC(=O)[O-]
REMARK SMILES IDX 16 1 17 2 18 3 19 4 20 5 21 6 22 7 23 8 24 9 25 10 26 11
REMARK SMILES IDX 27 12 28 13 29 14 30 15 31 16 32 17 15 18 14 19 13 20 12 21
REMARK SMILES IDX 11 22 10 23 9 24 8 25 7 26 6 27 5 28 4 29 3 30 2 31 1 32
REMARK H PARENT
REMARK Flexibility Score: inf
ROOT
ATOM      1  C   UNL     1      15.553  18.153  32.144  1.00  0.00     0.000 C 
ENDROOT
BRANCH   1   2
ATOM      2  C   UNL     1      14.295  18.738  31.479  1.00  0.00     0.000 C 
BRANCH   2   3
ATOM      3  C   UNL     1      13.102  17.767  31.512  1.00  0.00     0.000 C 
BRANCH   3   4
ATOM      4  C   UNL     1      13.540  16.295  31.554  1.00  0.00     0.000 C 
BRANCH   4   5
ATOM      5  C   UNL     1      13.538  15.642  30.162  1.00  0.00     0.000 C 
BRANCH   5   6
ATOM      6  C   UNL     1      12.516  16.285  29.211  1.00  0.00     0.000 C 
BRANCH   6   7
ATOM      7  C   UNL     1      11.889  15.269  28.243  1.00  0.00     0.000 C 
BRANCH   7   8
ATOM      8  C   UNL     1      12.629  15.276  26.896  1.00  0.00     0.000 C 
BRANCH   8   9
ATOM      9  C   UNL     1      13.500  14.026  26.686  1.00  0.00     0.000 C 
BRANCH   9  10
ATOM     10  C   UNL     1      14.973  14.262  27.066  1.00  0.00     0.000 C 
BRANCH  10  11
ATOM     11  C   UNL     1      15.467  15.668  26.682  1.00  0.00     0.000 C 
BRANCH  11  12
ATOM     12  C   UNL     1      16.005  16.511  27.854  1.00  0.00     0.000 C 
BRANCH  12  13
ATOM     13  C   UNL     1      16.100  18.011  27.521  1.00  0.00     0.006 C 
BRANCH  13  14
ATOM     14  C   UNL     1      14.816  18.769  27.884  1.00  0.00     0.053 C 
BRANCH  14  15
ATOM     15  C   UNL     1      14.176  19.391  26.681  1.00  0.00     0.041 C 
ATOM     16  O   UNL     1      14.055  18.733  25.614  1.00  0.00    -0.550 OA
ATOM     17  O   UNL     1      13.687  20.690  26.748  1.00  0.00    -0.550 OA
ENDBRANCH  14  15
ENDBRANCH  13  14
ENDBRANCH  12  13
ENDBRANCH  11  12
ENDBRANCH  10  11
ENDBRANCH   9  10
ENDBRANCH   8   9
ENDBRANCH   7   8
ENDBRANCH   6   7
ENDBRANCH   5   6
ENDBRANCH   4   5
ENDBRANCH   3   4
ENDBRANCH   2   3
ENDBRANCH   1   2
BRANCH   1  18
ATOM     18  C   UNL     1      16.866  18.411  31.378  1.00  0.00     0.000 C 
BRANCH  18  19
ATOM     19  C   UNL     1      17.695  17.149  31.062  1.00  0.00     0.000 C 
BRANCH  19  20
ATOM     20  C   UNL     1      17.231  15.864  31.773  1.00  0.00     0.000 C 
BRANCH  20  21
ATOM     21  C   UNL     1      18.299  15.156  32.633  1.00  0.00     0.000 C 
BRANCH  21  22
ATOM     22  C   UNL     1      19.605  15.959  32.819  1.00  0.00     0.000 C 
BRANCH  22  23
ATOM     23  C   UNL     1      19.947  16.218  34.299  1.00  0.00     0.000 C 
BRANCH  23  24
ATOM     24  C   UNL     1      20.417  17.664  34.564  1.00  0.00    -0.000 C 
BRANCH  24  25
ATOM     25  C   UNL     1      19.894  18.695  33.542  1.00  0.00    -0.000 C 
BRANCH  25  26
ATOM     26  C   UNL     1      19.222  19.942  34.146  1.00  0.00    -0.000 C 
BRANCH  26  27
ATOM     27  C   UNL     1      17.833  19.700  34.767  1.00  0.00    -0.000 C 
BRANCH  27  28
ATOM     28  C   UNL     1      17.889  19.481  36.289  1.00  0.00    -0.000 C 
BRANCH  28  29
ATOM     29  C   UNL     1      17.112  18.221  36.728  1.00  0.00    -0.000 C 
BRANCH  29  30
ATOM     30  C   UNL     1      16.796  17.258  35.567  1.00  0.00    -0.000 C 
BRANCH  30  31
ATOM     31  C   UNL     1      16.712  15.777  35.975  1.00  0.00    -0.003 C 
ATOM     32  C   UNL     1      15.732  14.982  35.114  1.00  0.00     0.004 C 
ENDBRANCH  30  31
ENDBRANCH  29  30
ENDBRANCH  28  29
ENDBRANCH  27  28
ENDBRANCH  26  27
ENDBRANCH  25  26
ENDBRANCH  24  25
ENDBRANCH  23  24
ENDBRANCH  22  23
ENDBRANCH  21  22
ENDBRANCH  20  21
ENDBRANCH  19  20
ENDBRANCH  18  19
ENDBRANCH   1  18
TORSDOF 28
ENDMDL
MODEL 7
REMARK VINA RESULT:    -4.087      3.294      6.835
REMARK INTER + INTRA:         -16.251
REMARK INTER:                 -10.456
REMARK INTRA:                  -5.795
REMARK UNBOUND:                -5.474
REMARK SMILES CCCCCCCCCCCCCCCCCCCCCCCCCCCCCC(=O)[O-]
REMARK SMILES IDX 16 1 17 2 18 3 19 4 20 5 21 6 22 7 23 8 24 9 25 10 26 11
REMARK SMILES IDX 27 12 28 13 29 14 30 15 31 16 32 17 15 18 14 19 13 20 12 21
REMARK SMILES IDX 11 22 10 23 9 24 8 25 7 26 6 27 5 28 4 29 3 30 2 31 1 32
REMARK H PARENT
REMARK Flexibility Score: inf
ROOT
ATOM      1  C   UNL     1      19.187  19.664  33.901  1.00  0.00     0.000 C 
ENDROOT
BRANCH   1   2
ATOM      2  C   UNL     1      20.375  19.693  34.880  1.00  0.00     0.000 C 
BRANCH   2   3
ATOM      3  C   UNL     1      20.978  18.298  35.118  1.00  0.00     0.000 C 
BRANCH   3   4
ATOM      4  C   UNL     1      20.153  17.178  34.465  1.00  0.00     0.000 C 
BRANCH   4   5
ATOM      5  C   UNL     1      20.351  15.821  35.159  1.00  0.00     0.000 C 
BRANCH   5   6
ATOM      6  C   UNL     1      20.263  14.640  34.179  1.00  0.00     0.000 C 
BRANCH   6   7
ATOM      7  C   UNL     1      19.982  15.090  32.736  1.00  0.00     0.000 C 
BRANCH   7   8
ATOM      8  C   UNL     1      19.954  13.882  31.787  1.00  0.00     0.000 C 
BRANCH   8   9
ATOM      9  C   UNL     1      18.925  14.035  30.655  1.00  0.00     0.000 C 
BRANCH   9  10
ATOM     10  C   UNL     1      19.151  15.308  29.819  1.00  0.00     0.000 C 
BRANCH  10  11
ATOM     11  C   UNL     1      18.012  15.572  28.819  1.00  0.00     0.000 C 
BRANCH  11  12
ATOM     12  C   UNL     1      16.745  14.722  29.037  1.00  0.00     0.000 C 
BRANCH  12  13
ATOM     13  C   UNL     1      15.446  15.541  28.921  1.00  0.00     0.006 C 
BRANCH  13  14
ATOM     14  C   UNL     1      14.232  14.660  28.595  1.00  0.00     0.053 C 
BRANCH  14  15
ATOM     15  C   UNL     1      13.135  15.444  27.942  1.00  0.00     0.041 C 
ATOM     16  O   UNL     1      13.353  16.074  26.873  1.00  0.00    -0.550 OA
ATOM     17  O   UNL     1      11.862  15.454  28.499  1.00  0.00    -0.550 OA
ENDBRANCH  14  15
ENDBRANCH  13  14
ENDBRANCH  12  13
ENDBRANCH  11  12
ENDBRANCH  10  11
ENDBRANCH   9  10
ENDBRANCH   8   9
ENDBRANCH   7   8
ENDBRANCH   6   7
ENDBRANCH   5   6
ENDBRANCH   4   5
ENDBRANCH   3   4
ENDBRANCH   2   3
ENDBRANCH   1   2
BRANCH   1  18
ATOM     18  C   UNL     1      17.802  19.786  34.567  1.00  0.00     0.000 C 
BRANCH  18  19
ATOM     19  C   UNL     1      17.820  19.809  36.109  1.00  0.00     0.000 C 
BRANCH  19  20
ATOM     20  C   UNL     1      17.533  18.456  36.789  1.00  0.00     0.000 C 
BRANCH  20  21
ATOM     21  C   UNL     1      16.686  17.464  35.965  1.00  0.00     0.000 C 
BRANCH  21  22
ATOM     22  C   UNL     1      16.999  15.977  36.239  1.00  0.00     0.000 C 
BRANCH  22  23
ATOM     23  C   UNL     1      15.746  15.081  36.198  1.00  0.00     0.000 C 
BRANCH  23  24
ATOM     24  C   UNL     1      15.359  14.652  34.766  1.00  0.00    -0.000 C 
BRANCH  24  25
ATOM     25  C   UNL     1      16.500  14.784  33.738  1.00  0.00    -0.000 C 
BRANCH  25  26
ATOM     26  C   UNL     1      16.196  15.685  32.526  1.00  0.00    -0.000 C 
BRANCH  26  27
ATOM     27  C   UNL     1      17.096  16.929  32.395  1.00  0.00    -0.000 C 
BRANCH  27  28
ATOM     28  C   UNL     1      16.479  18.022  31.504  1.00  0.00    -0.000 C 
BRANCH  28  29
ATOM     29  C   UNL     1      15.120  18.519  32.044  1.00  0.00    -0.000 C 
BRANCH  29  30
ATOM     30  C   UNL     1      13.980  18.435  31.012  1.00  0.00    -0.000 C 
BRANCH  30  31
ATOM     31  C   UNL     1      12.735  17.673  31.499  1.00  0.00    -0.003 C 
ATOM     32  C   UNL     1      12.987  16.175  31.661  1.00  0.00     0.004 C 
ENDBRANCH  30  31
ENDBRANCH  29  30
ENDBRANCH  28  29
ENDBRANCH  27  28
ENDBRANCH  26  27
ENDBRANCH  25  26
ENDBRANCH  24  25
ENDBRANCH  23  24
ENDBRANCH  22  23
ENDBRANCH  21  22
ENDBRANCH  20  21
ENDBRANCH  19  20
ENDBRANCH  18  19
ENDBRANCH   1  18
TORSDOF 28
ENDMDL
MODEL 8
REMARK VINA RESULT:    -4.079      3.170      8.077
REMARK INTER + INTRA:         -16.229
REMARK INTER:                 -10.256
REMARK INTRA:                  -5.972
REMARK UNBOUND:                -5.474
REMARK SMILES CCCCCCCCCCCCCCCCCCCCCCCCCCCCCC(=O)[O-]
REMARK SMILES IDX 16 1 17 2 18 3 19 4 20 5 21 6 22 7 23 8 24 9 25 10 26 11
REMARK SMILES IDX 27 12 28 13 29 14 30 15 31 16 32 17 15 18 14 19 13 20 12 21
REMARK SMILES IDX 11 22 10 23 9 24 8 25 7 26 6 27 5 28 4 29 3 30 2 31 1 32
REMARK H PARENT
REMARK Flexibility Score: inf
ROOT
ATOM      1  C   UNL     1      17.470  17.837  30.582  1.00  0.00     0.000 C 
ENDROOT
BRANCH   1   2
ATOM      2  C   UNL     1      16.198  18.618  30.203  1.00  0.00     0.000 C 
BRANCH   2   3
ATOM      3  C   UNL     1      15.181  18.687  31.355  1.00  0.00     0.000 C 
BRANCH   3   4
ATOM      4  C   UNL     1      15.255  17.463  32.282  1.00  0.00     0.000 C 
BRANCH   4   5
ATOM      5  C   UNL     1      14.283  16.348  31.861  1.00  0.00     0.000 C 
BRANCH   5   6
ATOM      6  C   UNL     1      13.005  16.897  31.209  1.00  0.00     0.000 C 
BRANCH   6   7
ATOM      7  C   UNL     1      12.737  16.284  29.824  1.00  0.00     0.000 C 
BRANCH   7   8
ATOM      8  C   UNL     1      13.913  15.396  29.388  1.00  0.00     0.000 C 
BRANCH   8   9
ATOM      9  C   UNL     1      14.667  15.958  28.171  1.00  0.00     0.000 C 
BRANCH   9  10
ATOM     10  C   UNL     1      15.138  14.855  27.206  1.00  0.00     0.000 C 
BRANCH  10  11
ATOM     11  C   UNL     1      16.515  15.154  26.588  1.00  0.00     0.000 C 
BRANCH  11  12
ATOM     12  C   UNL     1      16.524  16.280  25.536  1.00  0.00     0.000 C 
BRANCH  12  13
ATOM     13  C   UNL     1      17.421  17.467  25.936  1.00  0.00     0.006 C 
BRANCH  13  14
ATOM     14  C   UNL     1      16.654  18.797  25.946  1.00  0.00     0.053 C 
BRANCH  14  15
ATOM     15  C   UNL     1      17.474  19.908  26.525  1.00  0.00     0.041 C 
ATOM     16  O   UNL     1      17.075  20.525  27.549  1.00  0.00    -0.550 OA
ATOM     17  O   UNL     1      18.694  20.243  25.951  1.00  0.00    -0.550 OA
ENDBRANCH  14  15
ENDBRANCH  13  14
ENDBRANCH  12  13
ENDBRANCH  11  12
ENDBRANCH  10  11
ENDBRANCH   9  10
ENDBRANCH   8   9
ENDBRANCH   7   8
ENDBRANCH   6   7
ENDBRANCH   5   6
ENDBRANCH   4   5
ENDBRANCH   3   4
ENDBRANCH   2   3
ENDBRANCH   1   2
BRANCH   1  18
ATOM     18  C   UNL     1      18.095  17.028  29.429  1.00  0.00     0.000 C 
BRANCH  18  19
ATOM     19  C   UNL     1      18.417  15.557  29.765  1.00  0.00     0.000 C 
BRANCH  19  20
ATOM     20  C   UNL     1      17.352  14.828  30.605  1.00  0.00     0.000 C 
BRANCH  20  21
ATOM     21  C   UNL     1      17.783  14.437  32.034  1.00  0.00     0.000 C 
BRANCH  21  22
ATOM     22  C   UNL     1      19.277  14.682  32.341  1.00  0.00     0.000 C 
BRANCH  22  23
ATOM     23  C   UNL     1      19.516  15.930  33.212  1.00  0.00     0.000 C 
BRANCH  23  24
ATOM     24  C   UNL     1      18.327  16.253  34.142  1.00  0.00    -0.000 C 
BRANCH  24  25
ATOM     25  C   UNL     1      18.722  16.485  35.614  1.00  0.00    -0.000 C 
BRANCH  25  26
ATOM     26  C   UNL     1      20.217  16.299  35.934  1.00  0.00    -0.000 C 
BRANCH  26  27
ATOM     27  C   UNL     1      21.085  17.560  35.755  1.00  0.00    -0.000 C 
BRANCH  27  28
ATOM     28  C   UNL     1      20.557  18.767  36.551  1.00  0.00    -0.000 C 
BRANCH  28  29
ATOM     29  C   UNL     1      20.053  19.899  35.631  1.00  0.00    -0.000 C 
BRANCH  29  30
ATOM     30  C   UNL     1      20.133  19.555  34.131  1.00  0.00    -0.000 C 
BRANCH  30  31
ATOM     31  C   UNL     1      18.899  19.975  33.315  1.00  0.00    -0.003 C 
ATOM     32  C   UNL     1      17.593  19.808  34.091  1.00  0.00     0.004 C 
ENDBRANCH  30  31
ENDBRANCH  29  30
ENDBRANCH  28  29
ENDBRANCH  27  28
ENDBRANCH  26  27
ENDBRANCH  25  26
ENDBRANCH  24  25
ENDBRANCH  23  24
ENDBRANCH  22  23
ENDBRANCH  21  22
ENDBRANCH  20  21
ENDBRANCH  19  20
ENDBRANCH  18  19
ENDBRANCH   1  18
TORSDOF 28
ENDMDL
MODEL 9
REMARK VINA RESULT:    -4.052      1.146      2.220
REMARK INTER + INTRA:         -16.158
REMARK INTER:                 -10.655
REMARK INTRA:                  -5.503
REMARK UNBOUND:                -5.474
REMARK SMILES CCCCCCCCCCCCCCCCCCCCCCCCCCCCCC(=O)[O-]
REMARK SMILES IDX 16 1 17 2 18 3 19 4 20 5 21 6 22 7 23 8 24 9 25 10 26 11
REMARK SMILES IDX 27 12 28 13 29 14 30 15 31 16 32 17 15 18 14 19 13 20 12 21
REMARK SMILES IDX 11 22 10 23 9 24 8 25 7 26 6 27 5 28 4 29 3 30 2 31 1 32
REMARK H PARENT
REMARK Flexibility Score: inf
ROOT
ATOM      1  C   UNL     1      14.804  18.111  31.620  1.00  0.00     0.000 C 
ENDROOT
BRANCH   1   2
ATOM      2  C   UNL     1      15.427  17.202  32.694  1.00  0.00     0.000 C 
BRANCH   2   3
ATOM      3  C   UNL     1      16.060  15.932  32.100  1.00  0.00     0.000 C 
BRANCH   3   4
ATOM      4  C   UNL     1      16.767  15.073  33.160  1.00  0.00     0.000 C 
BRANCH   4   5
ATOM      5  C   UNL     1      18.297  15.219  33.109  1.00  0.00     0.000 C 
BRANCH   5   6
ATOM      6  C   UNL     1      18.813  15.525  31.695  1.00  0.00     0.000 C 
BRANCH   6   7
ATOM      7  C   UNL     1      19.637  16.821  31.633  1.00  0.00     0.000 C 
BRANCH   7   8
ATOM      8  C   UNL     1      19.415  17.666  32.897  1.00  0.00     0.000 C 
BRANCH   8   9
ATOM      9  C   UNL     1      18.669  18.980  32.615  1.00  0.00     0.000 C 
BRANCH   9  10
ATOM     10  C   UNL     1      18.044  19.589  33.883  1.00  0.00     0.000 C 
BRANCH  10  11
ATOM     11  C   UNL     1      18.918  19.383  35.134  1.00  0.00     0.000 C 
BRANCH  11  12
ATOM     12  C   UNL     1      18.226  18.643  36.295  1.00  0.00     0.000 C 
BRANCH  12  13
ATOM     13  C   UNL     1      17.097  17.708  35.822  1.00  0.00     0.006 C 
BRANCH  13  14
ATOM     14  C   UNL     1      17.094  16.372  36.578  1.00  0.00     0.053 C 
BRANCH  14  15
ATOM     15  C   UNL     1      15.714  15.975  37.002  1.00  0.00     0.041 C 
ATOM     16  O   UNL     1      14.998  15.262  36.249  1.00  0.00    -0.550 OA
ATOM     17  O   UNL     1      15.228  16.366  38.243  1.00  0.00    -0.550 OA
ENDBRANCH  14  15
ENDBRANCH  13  14
ENDBRANCH  12  13
ENDBRANCH  11  12
ENDBRANCH  10  11
ENDBRANCH   9  10
ENDBRANCH   8   9
ENDBRANCH   7   8
ENDBRANCH   6   7
ENDBRANCH   5   6
ENDBRANCH   4   5
ENDBRANCH   3   4
ENDBRANCH   2   3
ENDBRANCH   1   2
BRANCH   1  18
ATOM     18  C   UNL     1      13.269  18.023  31.514  1.00  0.00     0.000 C 
BRANCH  18  19
ATOM     19  C   UNL     1      12.724  16.647  31.079  1.00  0.00     0.000 C 
BRANCH  19  20
ATOM     20  C   UNL     1      12.835  16.344  29.572  1.00  0.00     0.000 C 
BRANCH  20  21
ATOM     21  C   UNL     1      13.473  14.986  29.211  1.00  0.00     0.000 C 
BRANCH  21  22
ATOM     22  C   UNL     1      14.981  15.054  28.888  1.00  0.00     0.000 C 
BRANCH  22  23
ATOM     23  C   UNL     1      15.346  14.353  27.566  1.00  0.00     0.000 C 
BRANCH  23  24
ATOM     24  C   UNL     1      15.505  15.336  26.386  1.00  0.00    -0.000 C 
BRANCH  24  25
ATOM     25  C   UNL     1      14.191  15.646  25.641  1.00  0.00    -0.000 C 
BRANCH  25  26
ATOM     26  C   UNL     1      14.285  16.741  24.563  1.00  0.00    -0.000 C 
BRANCH  26  27
ATOM     27  C   UNL     1      14.746  18.121  25.071  1.00  0.00    -0.000 C 
BRANCH  27  28
ATOM     28  C   UNL     1      13.753  18.756  26.060  1.00  0.00    -0.000 C 
BRANCH  28  29
ATOM     29  C   UNL     1      14.463  19.588  27.149  1.00  0.00    -0.000 C 
BRANCH  29  30
ATOM     30  C   UNL     1      15.124  18.731  28.245  1.00  0.00    -0.000 C 
BRANCH  30  31
ATOM     31  C   UNL     1      16.615  19.030  28.474  1.00  0.00    -0.003 C 
ATOM     32  C   UNL     1      17.401  17.800  28.925  1.00  0.00     0.004 C 
ENDBRANCH  30  31
ENDBRANCH  29  30
ENDBRANCH  28  29
ENDBRANCH  27  28
ENDBRANCH  26  27
ENDBRANCH  25  26
ENDBRANCH  24  25
ENDBRANCH  23  24
ENDBRANCH  22  23
ENDBRANCH  21  22
ENDBRANCH  20  21
ENDBRANCH  19  20
ENDBRANCH  18  19
ENDBRANCH   1  18
TORSDOF 28
ENDMDL
