MODEL 1
REMARK VINA RESULT:    -6.152      0.000      0.000
REMARK INTER + INTRA:          -7.223
REMARK INTER:                  -7.411
REMARK INTRA:                   0.188
REMARK UNBOUND:                 0.188
REMARK SMILES O=c1c(O)c(-c2ccc(O)c(O)c2)oc2cc(O)cc(O)c12
REMARK SMILES IDX 5 1 3 2 2 3 1 4 22 5 20 6 19 7 17 8 16 9 15 10 14 11 6 12
REMARK SMILES IDX 7 13 8 14 9 15 13 16 11 17 10 18 12 20 4 22 21 24 18 26
REMARK H PARENT 10 19 12 21 4 23 21 25 18 27
REMARK Flexibility Score: inf
ROOT
ATOM      1  C   UNL     1      17.968  29.974  32.083  1.00  0.00     0.180 A 
ATOM      2  C   UNL     1      18.517  29.252  33.156  1.00  0.00     0.208 A 
ATOM      3  C   UNL     1      18.337  29.731  34.463  1.00  0.00     0.238 A 
ATOM      4  O   UNL     1      18.767  29.041  35.423  1.00  0.00    -0.285 OA
ATOM      5  C   UNL     1      17.660  30.956  34.677  1.00  0.00     0.111 A 
ATOM      6  C   UNL     1      17.458  31.561  35.956  1.00  0.00     0.134 A 
ATOM      7  C   UNL     1      16.682  32.721  36.056  1.00  0.00     0.093 A 
ATOM      8  C   UNL     1      16.151  33.334  34.919  1.00  0.00     0.123 A 
ATOM      9  C   UNL     1      16.387  32.783  33.662  1.00  0.00     0.094 A 
ATOM     10  C   UNL     1      17.127  31.605  33.533  1.00  0.00     0.146 A 
ATOM     11  O   UNL     1      17.310  31.103  32.318  1.00  0.00    -0.452 OA
ENDROOT
BRANCH   1  12
ATOM     12  C   UNL     1      18.103  29.524  30.678  1.00  0.00     0.025 A 
ATOM     13  C   UNL     1      18.379  30.431  29.643  1.00  0.00     0.016 A 
ATOM     14  C   UNL     1      18.524  29.979  28.330  1.00  0.00     0.051 A 
ATOM     15  C   UNL     1      18.412  28.618  28.026  1.00  0.00     0.157 A 
ATOM     16  C   UNL     1      18.011  28.156  30.379  1.00  0.00     0.062 A 
ATOM     17  C   UNL     1      18.156  27.693  29.066  1.00  0.00     0.158 A 
BRANCH  15  18
ATOM     18  O   UNL     1      18.564  28.233  26.693  1.00  0.00    -0.504 OA
ATOM     19  H   UNL     1      18.845  28.860  25.953  1.00  0.00     0.293 HD
ENDBRANCH  15  18
BRANCH  17  20
ATOM     20  O   UNL     1      18.040  26.320  28.842  1.00  0.00    -0.504 OA
ATOM     21  H   UNL     1      18.446  25.614  29.439  1.00  0.00     0.293 HD
ENDBRANCH  17  20
ENDBRANCH   1  12
BRANCH   2  22
ATOM     22  O   UNL     1      19.248  28.084  32.918  1.00  0.00    -0.502 OA
ATOM     23  H   UNL     1      19.821  27.961  32.092  1.00  0.00     0.293 HD
ENDBRANCH   2  22
BRANCH   6  24
ATOM     24  O   UNL     1      18.016  31.082  37.145  1.00  0.00    -0.507 OA
ATOM     25  H   UNL     1      17.579  30.413  37.760  1.00  0.00     0.293 HD
ENDBRANCH   6  24
BRANCH   8  26
ATOM     26  O   UNL     1      15.393  34.499  35.026  1.00  0.00    -0.508 OA
ATOM     27  H   UNL     1      14.959  34.924  34.215  1.00  0.00     0.293 HD
ENDBRANCH   8  26
TORSDOF 6
ENDMDL
MODEL 2
REMARK VINA RESULT:    -6.014      1.526      7.535
REMARK INTER + INTRA:          -7.057
REMARK INTER:                  -7.355
REMARK INTRA:                   0.297
REMARK UNBOUND:                 0.188
REMARK SMILES O=c1c(O)c(-c2ccc(O)c(O)c2)oc2cc(O)cc(O)c12
REMARK SMILES IDX 5 1 3 2 2 3 1 4 22 5 20 6 19 7 17 8 16 9 15 10 14 11 6 12
REMARK SMILES IDX 7 13 8 14 9 15 13 16 11 17 10 18 12 20 4 22 21 24 18 26
REMARK H PARENT 10 19 12 21 4 23 21 25 18 27
REMARK Flexibility Score: inf
ROOT
ATOM      1  C   UNL     1      18.138  29.667  30.946  1.00  0.00     0.180 A 
ATOM      2  C   UNL     1      18.403  30.675  30.003  1.00  0.00     0.208 A 
ATOM      3  C   UNL     1      18.690  30.312  28.678  1.00  0.00     0.238 A 
ATOM      4  O   UNL     1      18.853  31.222  27.825  1.00  0.00    -0.285 OA
ATOM      5  C   UNL     1      18.763  28.943  28.323  1.00  0.00     0.111 A 
ATOM      6  C   UNL     1      19.090  28.458  27.020  1.00  0.00     0.134 A 
ATOM      7  C   UNL     1      19.029  27.084  26.760  1.00  0.00     0.093 A 
ATOM      8  C   UNL     1      18.714  26.172  27.770  1.00  0.00     0.123 A 
ATOM      9  C   UNL     1      18.448  26.630  29.057  1.00  0.00     0.094 A 
ATOM     10  C   UNL     1      18.464  27.999  29.340  1.00  0.00     0.146 A 
ATOM     11  O   UNL     1      18.182  28.393  30.575  1.00  0.00    -0.452 OA
ENDROOT
BRANCH   1  12
ATOM     12  C   UNL     1      17.813  29.972  32.358  1.00  0.00     0.025 A 
ATOM     13  C   UNL     1      18.212  29.121  33.401  1.00  0.00     0.016 A 
ATOM     14  C   UNL     1      17.914  29.442  34.726  1.00  0.00     0.051 A 
ATOM     15  C   UNL     1      17.228  30.621  35.039  1.00  0.00     0.157 A 
ATOM     16  C   UNL     1      17.144  31.165  32.671  1.00  0.00     0.062 A 
ATOM     17  C   UNL     1      16.841  31.496  33.997  1.00  0.00     0.158 A 
BRANCH  15  18
ATOM     18  O   UNL     1      16.958  30.881  36.384  1.00  0.00    -0.504 OA
ATOM     19  H   UNL     1      16.773  31.802  36.754  1.00  0.00     0.293 HD
ENDBRANCH  15  18
BRANCH  17  20
ATOM     20  O   UNL     1      16.163  32.694  34.231  1.00  0.00    -0.504 OA
ATOM     21  H   UNL     1      15.962  33.378  33.516  1.00  0.00     0.293 HD
ENDBRANCH  17  20
ENDBRANCH   1  12
BRANCH   2  22
ATOM     22  O   UNL     1      18.401  32.019  30.391  1.00  0.00    -0.502 OA
ATOM     23  H   UNL     1      17.925  32.737  29.860  1.00  0.00     0.293 HD
ENDBRANCH   2  22
BRANCH   6  24
ATOM     24  O   UNL     1      19.503  29.273  25.962  1.00  0.00    -0.507 OA
ATOM     25  H   UNL     1      20.084  30.092  26.057  1.00  0.00     0.293 HD
ENDBRANCH   6  24
BRANCH   8  26
ATOM     26  O   UNL     1      18.673  24.804  27.506  1.00  0.00    -0.508 OA
ATOM     27  H   UNL     1      18.631  24.449  26.558  1.00  0.00     0.293 HD
ENDBRANCH   8  26
TORSDOF 6
ENDMDL
MODEL 3
REMARK VINA RESULT:    -5.988      1.357      1.810
REMARK INTER + INTRA:          -7.026
REMARK INTER:                  -7.340
REMARK INTRA:                   0.314
REMARK UNBOUND:                 0.188
REMARK SMILES O=c1c(O)c(-c2ccc(O)c(O)c2)oc2cc(O)cc(O)c12
REMARK SMILES IDX 5 1 3 2 2 3 1 4 22 5 20 6 19 7 17 8 16 9 15 10 14 11 6 12
REMARK SMILES IDX 7 13 8 14 9 15 13 16 11 17 10 18 12 20 4 22 21 24 18 26
REMARK H PARENT 10 19 12 21 4 23 21 25 18 27
REMARK Flexibility Score: inf
ROOT
ATOM      1  C   UNL     1      18.497  28.514  31.306  1.00  0.00     0.180 A 
ATOM      2  C   UNL     1      19.218  27.779  32.263  1.00  0.00     0.208 A 
ATOM      3  C   UNL     1      19.174  28.181  33.607  1.00  0.00     0.238 A 
ATOM      4  O   UNL     1      19.761  27.476  34.467  1.00  0.00    -0.285 OA
ATOM      5  C   UNL     1      18.455  29.345  33.971  1.00  0.00     0.111 A 
ATOM      6  C   UNL     1      18.377  29.872  35.297  1.00  0.00     0.134 A 
ATOM      7  C   UNL     1      17.549  30.970  35.556  1.00  0.00     0.093 A 
ATOM      8  C   UNL     1      16.844  31.600  34.529  1.00  0.00     0.123 A 
ATOM      9  C   UNL     1      16.955  31.129  33.223  1.00  0.00     0.094 A 
ATOM     10  C   UNL     1      17.745  30.011  32.938  1.00  0.00     0.146 A 
ATOM     11  O   UNL     1      17.805  29.583  31.683  1.00  0.00    -0.452 OA
ENDROOT
BRANCH   1  12
ATOM     12  C   UNL     1      18.483  28.144  29.873  1.00  0.00     0.025 A 
ATOM     13  C   UNL     1      18.386  29.118  28.866  1.00  0.00     0.016 A 
ATOM     14  C   UNL     1      18.398  28.745  27.521  1.00  0.00     0.051 A 
ATOM     15  C   UNL     1      18.520  27.401  27.153  1.00  0.00     0.157 A 
ATOM     16  C   UNL     1      18.627  26.797  29.506  1.00  0.00     0.062 A 
ATOM     17  C   UNL     1      18.640  26.413  28.159  1.00  0.00     0.158 A 
BRANCH  15  18
ATOM     18  O   UNL     1      18.522  27.095  25.791  1.00  0.00    -0.504 OA
ATOM     19  H   UNL     1      19.345  26.817  25.276  1.00  0.00     0.293 HD
ENDBRANCH  15  18
BRANCH  17  20
ATOM     20  O   UNL     1      18.775  25.054  27.870  1.00  0.00    -0.504 OA
ATOM     21  H   UNL     1      17.997  24.434  27.698  1.00  0.00     0.293 HD
ENDBRANCH  17  20
ENDBRANCH   1  12
BRANCH   2  22
ATOM     22  O   UNL     1      19.984  26.677  31.872  1.00  0.00    -0.502 OA
ATOM     23  H   UNL     1      20.174  25.899  32.491  1.00  0.00     0.293 HD
ENDBRANCH   2  22
BRANCH   6  24
ATOM     24  O   UNL     1      19.108  29.375  36.380  1.00  0.00    -0.507 OA
ATOM     25  H   UNL     1      19.705  29.926  36.976  1.00  0.00     0.293 HD
ENDBRANCH   6  24
BRANCH   8  26
ATOM     26  O   UNL     1      16.036  32.704  34.793  1.00  0.00    -0.508 OA
ATOM     27  H   UNL     1      15.082  32.596  35.118  1.00  0.00     0.293 HD
ENDBRANCH   8  26
TORSDOF 6
ENDMDL
MODEL 4
REMARK VINA RESULT:    -5.961      2.558      7.600
REMARK INTER + INTRA:          -6.993
REMARK INTER:                  -6.730
REMARK INTRA:                  -0.262
REMARK UNBOUND:                 0.188
REMARK SMILES O=c1c(O)c(-c2ccc(O)c(O)c2)oc2cc(O)cc(O)c12
REMARK SMILES IDX 5 1 3 2 2 3 1 4 22 5 20 6 19 7 17 8 16 9 15 10 14 11 6 12
REMARK SMILES IDX 7 13 8 14 9 15 13 16 11 17 10 18 12 20 4 22 21 24 18 26
REMARK H PARENT 10 19 12 21 4 23 21 25 18 27
REMARK Flexibility Score: inf
ROOT
ATOM      1  C   UNL     1      17.611  30.626  35.130  1.00  0.00     0.180 A 
ATOM      2  C   UNL     1      17.334  30.768  33.759  1.00  0.00     0.208 A 
ATOM      3  C   UNL     1      17.831  29.812  32.860  1.00  0.00     0.238 A 
ATOM      4  O   UNL     1      17.517  29.906  31.645  1.00  0.00    -0.285 OA
ATOM      5  C   UNL     1      18.646  28.755  33.334  1.00  0.00     0.111 A 
ATOM      6  C   UNL     1      19.241  27.754  32.507  1.00  0.00     0.134 A 
ATOM      7  C   UNL     1      19.941  26.696  33.099  1.00  0.00     0.093 A 
ATOM      8  C   UNL     1      20.121  26.636  34.483  1.00  0.00     0.123 A 
ATOM      9  C   UNL     1      19.592  27.636  35.293  1.00  0.00     0.094 A 
ATOM     10  C   UNL     1      18.856  28.686  34.736  1.00  0.00     0.146 A 
ATOM     11  O   UNL     1      18.351  29.606  35.548  1.00  0.00    -0.452 OA
ENDROOT
BRANCH   1  12
ATOM     12  C   UNL     1      17.110  31.585  36.140  1.00  0.00     0.025 A 
ATOM     13  C   UNL     1      15.759  31.607  36.521  1.00  0.00     0.016 A 
ATOM     14  C   UNL     1      15.315  32.505  37.493  1.00  0.00     0.051 A 
ATOM     15  C   UNL     1      16.207  33.386  38.113  1.00  0.00     0.157 A 
ATOM     16  C   UNL     1      18.011  32.452  36.776  1.00  0.00     0.062 A 
ATOM     17  C   UNL     1      17.575  33.356  37.753  1.00  0.00     0.158 A 
BRANCH  15  18
ATOM     18  O   UNL     1      15.698  34.261  39.075  1.00  0.00    -0.504 OA
ATOM     19  H   UNL     1      14.967  34.934  38.894  1.00  0.00     0.293 HD
ENDBRANCH  15  18
BRANCH  17  20
ATOM     20  O   UNL     1      18.527  34.197  38.334  1.00  0.00    -0.504 OA
ATOM     21  H   UNL     1      18.717  35.137  38.018  1.00  0.00     0.293 HD
ENDBRANCH  17  20
ENDBRANCH   1  12
BRANCH   2  22
ATOM     22  O   UNL     1      16.591  31.861  33.302  1.00  0.00    -0.502 OA
ATOM     23  H   UNL     1      16.026  31.822  32.463  1.00  0.00     0.293 HD
ENDBRANCH   2  22
BRANCH   6  24
ATOM     24  O   UNL     1      19.198  27.766  31.110  1.00  0.00    -0.507 OA
ATOM     25  H   UNL     1      19.283  28.591  30.536  1.00  0.00     0.293 HD
ENDBRANCH   6  24
BRANCH   8  26
ATOM     26  O   UNL     1      20.835  25.588  35.062  1.00  0.00    -0.508 OA
ATOM     27  H   UNL     1      21.240  25.672  35.987  1.00  0.00     0.293 HD
ENDBRANCH   8  26
TORSDOF 6
ENDMDL
MODEL 5
REMARK VINA RESULT:    -5.932      1.976      3.572
REMARK INTER + INTRA:          -6.958
REMARK INTER:                  -6.810
REMARK INTRA:                  -0.149
REMARK UNBOUND:                 0.188
REMARK SMILES O=c1c(O)c(-c2ccc(O)c(O)c2)oc2cc(O)cc(O)c12
REMARK SMILES IDX 5 1 3 2 2 3 1 4 22 5 20 6 19 7 17 8 16 9 15 10 14 11 6 12
REMARK SMILES IDX 7 13 8 14 9 15 13 16 11 17 10 18 12 20 4 22 21 24 18 26
REMARK H PARENT 10 19 12 21 4 23 21 25 18 27
REMARK Flexibility Score: inf
ROOT
ATOM      1  C   UNL     1      18.352  29.124  30.294  1.00  0.00     0.180 A 
ATOM      2  C   UNL     1      18.682  30.350  29.691  1.00  0.00     0.208 A 
ATOM      3  C   UNL     1      18.505  31.537  30.418  1.00  0.00     0.238 A 
ATOM      4  O   UNL     1      18.872  32.623  29.899  1.00  0.00    -0.285 OA
ATOM      5  C   UNL     1      17.948  31.490  31.719  1.00  0.00     0.111 A 
ATOM      6  C   UNL     1      17.681  32.635  32.531  1.00  0.00     0.134 A 
ATOM      7  C   UNL     1      17.227  32.460  33.843  1.00  0.00     0.093 A 
ATOM      8  C   UNL     1      16.969  31.186  34.353  1.00  0.00     0.123 A 
ATOM      9  C   UNL     1      17.173  30.066  33.552  1.00  0.00     0.094 A 
ATOM     10  C   UNL     1      17.662  30.205  32.250  1.00  0.00     0.146 A 
ATOM     11  O   UNL     1      17.862  29.110  31.528  1.00  0.00    -0.452 OA
ENDROOT
BRANCH   1  12
ATOM     12  C   UNL     1      18.525  27.829  29.597  1.00  0.00     0.025 A 
ATOM     13  C   UNL     1      17.812  27.528  28.425  1.00  0.00     0.016 A 
ATOM     14  C   UNL     1      18.010  26.310  27.773  1.00  0.00     0.051 A 
ATOM     15  C   UNL     1      18.929  25.377  28.265  1.00  0.00     0.157 A 
ATOM     16  C   UNL     1      19.463  26.904  30.080  1.00  0.00     0.062 A 
ATOM     17  C   UNL     1      19.668  25.680  29.433  1.00  0.00     0.158 A 
BRANCH  15  18
ATOM     18  O   UNL     1      19.076  24.177  27.568  1.00  0.00    -0.504 OA
ATOM     19  H   UNL     1      19.014  24.097  26.563  1.00  0.00     0.293 HD
ENDBRANCH  15  18
BRANCH  17  20
ATOM     20  O   UNL     1      20.609  24.804  29.978  1.00  0.00    -0.504 OA
ATOM     21  H   UNL     1      21.238  24.237  29.427  1.00  0.00     0.293 HD
ENDBRANCH  17  20
ENDBRANCH   1  12
BRANCH   2  22
ATOM     22  O   UNL     1      19.160  30.381  28.377  1.00  0.00    -0.502 OA
ATOM     23  H   UNL     1      19.916  30.989  28.088  1.00  0.00     0.293 HD
ENDBRANCH   2  22
BRANCH   6  24
ATOM     24  O   UNL     1      17.820  33.955  32.093  1.00  0.00    -0.507 OA
ATOM     25  H   UNL     1      18.651  34.339  31.668  1.00  0.00     0.293 HD
ENDBRANCH   6  24
BRANCH   8  26
ATOM     26  O   UNL     1      16.499  31.021  35.655  1.00  0.00    -0.508 OA
ATOM     27  H   UNL     1      15.584  30.629  35.842  1.00  0.00     0.293 HD
ENDBRANCH   8  26
TORSDOF 6
ENDMDL
MODEL 6
REMARK VINA RESULT:    -5.928      1.517      7.173
REMARK INTER + INTRA:          -6.953
REMARK INTER:                  -6.758
REMARK INTRA:                  -0.196
REMARK UNBOUND:                 0.188
REMARK SMILES O=c1c(O)c(-c2ccc(O)c(O)c2)oc2cc(O)cc(O)c12
REMARK SMILES IDX 5 1 3 2 2 3 1 4 22 5 20 6 19 7 17 8 16 9 15 10 14 11 6 12
REMARK SMILES IDX 7 13 8 14 9 15 13 16 11 17 10 18 12 20 4 22 21 24 18 26
REMARK H PARENT 10 19 12 21 4 23 21 25 18 27
REMARK Flexibility Score: inf
ROOT
ATOM      1  C   UNL     1      17.902  31.288  32.272  1.00  0.00     0.180 A 
ATOM      2  C   UNL     1      18.233  32.296  31.349  1.00  0.00     0.208 A 
ATOM      3  C   UNL     1      18.491  31.942  30.016  1.00  0.00     0.238 A 
ATOM      4  O   UNL     1      18.713  32.857  29.181  1.00  0.00    -0.285 OA
ATOM      5  C   UNL     1      18.470  30.579  29.632  1.00  0.00     0.111 A 
ATOM      6  C   UNL     1      18.760  30.101  28.318  1.00  0.00     0.134 A 
ATOM      7  C   UNL     1      18.605  28.740  28.028  1.00  0.00     0.093 A 
ATOM      8  C   UNL     1      18.231  27.830  29.020  1.00  0.00     0.123 A 
ATOM      9  C   UNL     1      18.000  28.278  30.318  1.00  0.00     0.094 A 
ATOM     10  C   UNL     1      18.110  29.636  30.629  1.00  0.00     0.146 A 
ATOM     11  O   UNL     1      17.859  30.022  31.874  1.00  0.00    -0.452 OA
ENDROOT
BRANCH   1  12
ATOM     12  C   UNL     1      17.603  31.584  33.691  1.00  0.00     0.025 A 
ATOM     13  C   UNL     1      16.475  32.334  34.060  1.00  0.00     0.016 A 
ATOM     14  C   UNL     1      16.201  32.580  35.406  1.00  0.00     0.051 A 
ATOM     15  C   UNL     1      17.035  32.074  36.410  1.00  0.00     0.157 A 
ATOM     16  C   UNL     1      18.429  31.057  34.696  1.00  0.00     0.062 A 
ATOM     17  C   UNL     1      18.162  31.299  36.049  1.00  0.00     0.158 A 
BRANCH  15  18
ATOM     18  O   UNL     1      16.707  32.360  37.736  1.00  0.00    -0.504 OA
ATOM     19  H   UNL     1      17.168  33.066  38.292  1.00  0.00     0.293 HD
ENDBRANCH  15  18
BRANCH  17  20
ATOM     20  O   UNL     1      19.034  30.752  36.993  1.00  0.00    -0.504 OA
ATOM     21  H   UNL     1      19.206  29.763  37.097  1.00  0.00     0.293 HD
ENDBRANCH  17  20
ENDBRANCH   1  12
BRANCH   2  22
ATOM     22  O   UNL     1      18.323  33.628  31.766  1.00  0.00    -0.502 OA
ATOM     23  H   UNL     1      19.130  33.990  32.258  1.00  0.00     0.293 HD
ENDBRANCH   2  22
BRANCH   6  24
ATOM     24  O   UNL     1      19.224  30.908  27.275  1.00  0.00    -0.507 OA
ATOM     25  H   UNL     1      19.080  30.726  26.294  1.00  0.00     0.293 HD
ENDBRANCH   6  24
BRANCH   8  26
ATOM     26  O   UNL     1      18.096  26.474  28.728  1.00  0.00    -0.508 OA
ATOM     27  H   UNL     1      18.332  26.104  27.814  1.00  0.00     0.293 HD
ENDBRANCH   8  26
TORSDOF 6
ENDMDL
MODEL 7
REMARK VINA RESULT:    -5.905      1.851      6.933
REMARK INTER + INTRA:          -6.926
REMARK INTER:                  -6.813
REMARK INTRA:                  -0.112
REMARK UNBOUND:                 0.188
REMARK SMILES O=c1c(O)c(-c2ccc(O)c(O)c2)oc2cc(O)cc(O)c12
REMARK SMILES IDX 5 1 3 2 2 3 1 4 22 5 20 6 19 7 17 8 16 9 15 10 14 11 6 12
REMARK SMILES IDX 7 13 8 14 9 15 13 16 11 17 10 18 12 20 4 22 21 24 18 26
REMARK H PARENT 10 19 12 21 4 23 21 25 18 27
REMARK Flexibility Score: inf
ROOT
ATOM      1  C   UNL     1      18.377  28.916  31.903  1.00  0.00     0.180 A 
ATOM      2  C   UNL     1      19.350  28.071  32.464  1.00  0.00     0.208 A 
ATOM      3  C   UNL     1      19.881  27.031  31.685  1.00  0.00     0.238 A 
ATOM      4  O   UNL     1      20.804  26.326  32.168  1.00  0.00    -0.285 OA
ATOM      5  C   UNL     1      19.393  26.813  30.374  1.00  0.00     0.111 A 
ATOM      6  C   UNL     1      19.826  25.762  29.509  1.00  0.00     0.134 A 
ATOM      7  C   UNL     1      19.348  25.708  28.194  1.00  0.00     0.093 A 
ATOM      8  C   UNL     1      18.407  26.630  27.731  1.00  0.00     0.123 A 
ATOM      9  C   UNL     1      17.937  27.626  28.582  1.00  0.00     0.094 A 
ATOM     10  C   UNL     1      18.422  27.729  29.889  1.00  0.00     0.146 A 
ATOM     11  O   UNL     1      17.963  28.707  30.660  1.00  0.00    -0.452 OA
ENDROOT
BRANCH   1  12
ATOM     12  C   UNL     1      17.781  30.043  32.657  1.00  0.00     0.025 A 
ATOM     13  C   UNL     1      17.085  29.833  33.858  1.00  0.00     0.016 A 
ATOM     14  C   UNL     1      16.552  30.914  34.562  1.00  0.00     0.051 A 
ATOM     15  C   UNL     1      16.715  32.222  34.094  1.00  0.00     0.157 A 
ATOM     16  C   UNL     1      17.965  31.356  32.197  1.00  0.00     0.062 A 
ATOM     17  C   UNL     1      17.435  32.447  32.897  1.00  0.00     0.158 A 
BRANCH  15  18
ATOM     18  O   UNL     1      16.155  33.258  34.844  1.00  0.00    -0.504 OA
ATOM     19  H   UNL     1      15.515  33.116  35.612  1.00  0.00     0.293 HD
ENDBRANCH  15  18
BRANCH  17  20
ATOM     20  O   UNL     1      17.647  33.723  32.372  1.00  0.00    -0.504 OA
ATOM     21  H   UNL     1      17.436  33.984  31.419  1.00  0.00     0.293 HD
ENDBRANCH  17  20
ENDBRANCH   1  12
BRANCH   2  22
ATOM     22  O   UNL     1      19.764  28.255  33.787  1.00  0.00    -0.502 OA
ATOM     23  H   UNL     1      19.217  28.778  34.460  1.00  0.00     0.293 HD
ENDBRANCH   2  22
BRANCH   6  24
ATOM     24  O   UNL     1      20.695  24.738  29.897  1.00  0.00    -0.507 OA
ATOM     25  H   UNL     1      21.101  24.058  29.273  1.00  0.00     0.293 HD
ENDBRANCH   6  24
BRANCH   8  26
ATOM     26  O   UNL     1      17.924  26.559  26.425  1.00  0.00    -0.508 OA
ATOM     27  H   UNL     1      18.549  26.446  25.636  1.00  0.00     0.293 HD
ENDBRANCH   8  26
TORSDOF 6
ENDMDL
MODEL 8
REMARK VINA RESULT:    -5.900      1.428      6.666
REMARK INTER + INTRA:          -6.920
REMARK INTER:                  -6.917
REMARK INTRA:                  -0.003
REMARK UNBOUND:                 0.188
REMARK SMILES O=c1c(O)c(-c2ccc(O)c(O)c2)oc2cc(O)cc(O)c12
REMARK SMILES IDX 5 1 3 2 2 3 1 4 22 5 20 6 19 7 17 8 16 9 15 10 14 11 6 12
REMARK SMILES IDX 7 13 8 14 9 15 13 16 11 17 10 18 12 20 4 22 21 24 18 26
REMARK H PARENT 10 19 12 21 4 23 21 25 18 27
REMARK Flexibility Score: inf
ROOT
ATOM      1  C   UNL     1      17.905  30.234  33.815  1.00  0.00     0.180 A 
ATOM      2  C   UNL     1      18.700  29.290  34.487  1.00  0.00     0.208 A 
ATOM      3  C   UNL     1      19.281  28.243  33.755  1.00  0.00     0.238 A 
ATOM      4  O   UNL     1      20.051  27.445  34.349  1.00  0.00    -0.285 OA
ATOM      5  C   UNL     1      19.015  28.120  32.369  1.00  0.00     0.111 A 
ATOM      6  C   UNL     1      19.515  27.073  31.535  1.00  0.00     0.134 A 
ATOM      7  C   UNL     1      19.273  27.113  30.157  1.00  0.00     0.093 A 
ATOM      8  C   UNL     1      18.497  28.127  29.590  1.00  0.00     0.123 A 
ATOM      9  C   UNL     1      17.960  29.122  30.402  1.00  0.00     0.094 A 
ATOM     10  C   UNL     1      18.215  29.131  31.776  1.00  0.00     0.146 A 
ATOM     11  O   UNL     1      17.700  30.111  32.509  1.00  0.00    -0.452 OA
ENDROOT
BRANCH   1  12
ATOM     12  C   UNL     1      17.270  31.374  34.516  1.00  0.00     0.025 A 
ATOM     13  C   UNL     1      17.413  32.690  34.050  1.00  0.00     0.016 A 
ATOM     14  C   UNL     1      16.786  33.745  34.715  1.00  0.00     0.051 A 
ATOM     15  C   UNL     1      15.996  33.509  35.845  1.00  0.00     0.157 A 
ATOM     16  C   UNL     1      16.461  31.131  35.636  1.00  0.00     0.062 A 
ATOM     17  C   UNL     1      15.828  32.183  36.310  1.00  0.00     0.158 A 
BRANCH  15  18
ATOM     18  O   UNL     1      15.400  34.608  36.466  1.00  0.00    -0.504 OA
ATOM     19  H   UNL     1      15.798  35.094  37.257  1.00  0.00     0.293 HD
ENDBRANCH  15  18
BRANCH  17  20
ATOM     20  O   UNL     1      15.047  31.868  37.424  1.00  0.00    -0.504 OA
ATOM     21  H   UNL     1      15.402  31.826  38.369  1.00  0.00     0.293 HD
ENDBRANCH  17  20
ENDBRANCH   1  12
BRANCH   2  22
ATOM     22  O   UNL     1      18.888  29.385  35.869  1.00  0.00    -0.502 OA
ATOM     23  H   UNL     1      19.799  29.292  36.302  1.00  0.00     0.293 HD
ENDBRANCH   2  22
BRANCH   6  24
ATOM     24  O   UNL     1      20.226  25.967  32.009  1.00  0.00    -0.507 OA
ATOM     25  H   UNL     1      20.023  25.473  32.866  1.00  0.00     0.293 HD
ENDBRANCH   6  24
BRANCH   8  26
ATOM     26  O   UNL     1      18.246  28.149  28.220  1.00  0.00    -0.508 OA
ATOM     27  H   UNL     1      18.778  27.576  27.575  1.00  0.00     0.293 HD
ENDBRANCH   8  26
TORSDOF 6
ENDMDL
MODEL 9
REMARK VINA RESULT:    -5.827      1.675      6.739
REMARK INTER + INTRA:          -6.831
REMARK INTER:                  -6.501
REMARK INTRA:                  -0.331
REMARK UNBOUND:                 0.188
REMARK SMILES O=c1c(O)c(-c2ccc(O)c(O)c2)oc2cc(O)cc(O)c12
REMARK SMILES IDX 5 1 3 2 2 3 1 4 22 5 20 6 19 7 17 8 16 9 15 10 14 11 6 12
REMARK SMILES IDX 7 13 8 14 9 15 13 16 11 17 10 18 12 20 4 22 21 24 18 26
REMARK H PARENT 10 19 12 21 4 23 21 25 18 27
REMARK Flexibility Score: inf
ROOT
ATOM      1  C   UNL     1      18.189  30.510  33.726  1.00  0.00     0.180 A 
ATOM      2  C   UNL     1      18.476  29.141  33.579  1.00  0.00     0.208 A 
ATOM      3  C   UNL     1      18.720  28.630  32.296  1.00  0.00     0.238 A 
ATOM      4  O   UNL     1      19.048  27.421  32.181  1.00  0.00    -0.285 OA
ATOM      5  C   UNL     1      18.621  29.480  31.167  1.00  0.00     0.111 A 
ATOM      6  C   UNL     1      18.804  29.059  29.814  1.00  0.00     0.134 A 
ATOM      7  C   UNL     1      18.785  30.011  28.787  1.00  0.00     0.093 A 
ATOM      8  C   UNL     1      18.528  31.357  29.056  1.00  0.00     0.123 A 
ATOM      9  C   UNL     1      18.294  31.768  30.365  1.00  0.00     0.094 A 
ATOM     10  C   UNL     1      18.343  30.849  31.417  1.00  0.00     0.146 A 
ATOM     11  O   UNL     1      18.135  31.289  32.652  1.00  0.00    -0.452 OA
ENDROOT
BRANCH   1  12
ATOM     12  C   UNL     1      17.935  31.126  35.048  1.00  0.00     0.025 A 
ATOM     13  C   UNL     1      18.976  31.686  35.806  1.00  0.00     0.016 A 
ATOM     14  C   UNL     1      18.707  32.282  37.039  1.00  0.00     0.051 A 
ATOM     15  C   UNL     1      17.400  32.344  37.534  1.00  0.00     0.157 A 
ATOM     16  C   UNL     1      16.620  31.207  35.531  1.00  0.00     0.062 A 
ATOM     17  C   UNL     1      16.341  31.802  36.767  1.00  0.00     0.158 A 
BRANCH  15  18
ATOM     18  O   UNL     1      17.200  32.950  38.775  1.00  0.00    -0.504 OA
ATOM     19  H   UNL     1      17.476  32.538  39.655  1.00  0.00     0.293 HD
ENDBRANCH  15  18
BRANCH  17  20
ATOM     20  O   UNL     1      15.011  31.835  37.190  1.00  0.00    -0.504 OA
ATOM     21  H   UNL     1      14.643  32.508  37.847  1.00  0.00     0.293 HD
ENDBRANCH  17  20
ENDBRANCH   1  12
BRANCH   2  22
ATOM     22  O   UNL     1      18.494  28.303  34.698  1.00  0.00    -0.502 OA
ATOM     23  H   UNL     1      18.753  27.326  34.641  1.00  0.00     0.293 HD
ENDBRANCH   2  22
BRANCH   6  24
ATOM     24  O   UNL     1      18.979  27.728  29.425  1.00  0.00    -0.507 OA
ATOM     25  H   UNL     1      19.790  27.167  29.635  1.00  0.00     0.293 HD
ENDBRANCH   6  24
BRANCH   8  26
ATOM     26  O   UNL     1      18.494  32.294  28.025  1.00  0.00    -0.508 OA
ATOM     27  H   UNL     1      18.402  32.012  27.057  1.00  0.00     0.293 HD
ENDBRANCH   8  26
TORSDOF 6
ENDMDL
