MODEL 1
REMARK VINA RESULT:   148.996      0.000      0.000
REMARK INTER + INTRA:         161.721
REMARK INTER:                 162.062
REMARK INTRA:                  -0.341
REMARK UNBOUND:                -0.341
REMARK SMILES CC1(C)CC[C@@]2(C(=O)[O-])CC[C@@]3(C)C(=CC[C@H]4[C@]5(C)CC[C@H](O)C(C)(C)[C@H]5CC[C@@]43C)[C@H]2C1
REMARK SMILES IDX 6 1 5 2 10 3 32 4 4 5 11 6 14 7 33 8 2 9 12 10 15 11 1 12
REMARK SMILES IDX 3 13 13 14 30 15 16 16 17 17 29 18 31 19 18 20 28 21 27 22
REMARK SMILES IDX 20 23 19 24 24 25 21 26 22 27 25 28 26 29 7 30 8 31 9 32
REMARK SMILES IDX 23 33
REMARK H PARENT 23 34
REMARK Flexibility Score: inf
ROOT
ATOM      1  C   UNL     1     -37.894  28.158 -21.694  1.00  0.00     0.017 C 
ATOM      2  C   UNL     1     -36.883  27.260 -20.908  1.00  0.00     0.014 C 
ATOM      3  C   UNL     1     -39.076  27.226 -22.027  1.00  0.00     0.014 C 
ATOM      4  C   UNL     1     -38.343  29.407 -20.830  1.00  0.00     0.028 C 
ATOM      5  C   UNL     1     -35.788  28.065 -20.191  1.00  0.00     0.007 C 
ATOM      6  C   UNL     1     -40.287  27.920 -22.642  1.00  0.00     0.013 C 
ATOM      7  C   UNL     1     -39.831  29.794 -20.892  1.00  0.00    -0.064 C 
ATOM      8  C   UNL     1     -37.899  29.272 -19.349  1.00  0.00     0.015 C 
ATOM      9  C   UNL     1     -36.374  29.091 -19.176  1.00  0.00    -0.035 C 
ATOM     10  C   UNL     1     -40.893  29.041 -21.725  1.00  0.00    -0.006 C 
ATOM     11  C   UNL     1     -40.204  30.979 -20.332  1.00  0.00    -0.027 C 
ATOM     12  C   UNL     1     -35.648  30.440 -19.357  1.00  0.00     0.011 C 
ATOM     13  C   UNL     1     -36.110  28.603 -17.734  1.00  0.00     0.011 C 
ATOM     14  C   UNL     1     -41.807  28.305 -20.701  1.00  0.00     0.017 C 
ATOM     15  C   UNL     1     -41.681  30.143 -22.593  1.00  0.00    -0.020 C 
ATOM     16  C   UNL     1     -41.607  31.544 -20.373  1.00  0.00     0.032 C 
ATOM     17  C   UNL     1     -42.473  31.077 -21.588  1.00  0.00     0.006 C 
ATOM     18  C   UNL     1     -42.721  29.516 -23.574  1.00  0.00     0.008 C 
ATOM     19  C   UNL     1     -40.649  30.944 -23.466  1.00  0.00     0.012 C 
ATOM     20  C   UNL     1     -43.419  32.185 -22.232  1.00  0.00    -0.025 C 
ATOM     21  C   UNL     1     -43.616  30.564 -24.267  1.00  0.00     0.005 C 
ATOM     22  C   UNL     1     -44.380  31.446 -23.248  1.00  0.00     0.003 C 
ATOM     23  C   UNL     1     -44.337  32.812 -21.129  1.00  0.00     0.010 C 
ATOM     24  C   UNL     1     -42.557  33.326 -22.859  1.00  0.00     0.012 C 
ATOM     25  C   UNL     1     -45.534  32.333 -23.870  1.00  0.00    -0.006 C 
ATOM     26  C   UNL     1     -45.470  33.706 -21.686  1.00  0.00     0.033 C 
ATOM     27  C   UNL     1     -46.363  32.977 -22.710  1.00  0.00     0.120 C 
ATOM     28  C   UNL     1     -46.499  31.453 -24.713  1.00  0.00     0.014 C 
ATOM     29  C   UNL     1     -45.018  33.435 -24.830  1.00  0.00     0.014 C 
ENDROOT
BRANCH   1  30
ATOM     30  C   UNL     1     -37.206  28.642 -22.975  1.00  0.00     0.048 C 
ATOM     31  O   UNL     1     -36.693  27.832 -23.785  1.00  0.00    -0.550 OA
ATOM     32  O   UNL     1     -36.986  29.998 -23.195  1.00  0.00    -0.550 OA
ENDBRANCH   1  30
BRANCH  27  33
ATOM     33  O   UNL     1     -47.125  31.989 -22.049  1.00  0.00    -0.393 OA
ATOM     34  H   UNL     1     -47.257  32.304 -21.112  1.00  0.00     0.210 HD
ENDBRANCH  27  33
TORSDOF 2
ENDMDL
