MODEL 1
REMARK VINA RESULT:     2.845      0.000      0.000
REMARK INTER + INTRA:           4.338
REMARK INTER:                   5.507
REMARK INTRA:                  -1.169
REMARK UNBOUND:                -1.169
REMARK SMILES CCCCCCCCCCCCCCCCCC(=O)[O-]
REMARK SMILES IDX 10 1 11 2 12 3 13 4 14 5 15 6 16 7 17 8 18 9 19 10 20 11
REMARK SMILES IDX 9 12 8 13 7 14 6 15 5 16 4 17 3 18 2 19 1 20
REMARK H PARENT
REMARK Flexibility Score: inf
ROOT
ATOM      1  C   UNL     1     -17.361  34.368 -18.740  1.00  0.00     0.000 C 
ENDROOT
BRANCH   1   2
ATOM      2  C   UNL     1     -16.639  33.107 -19.259  1.00  0.00     0.000 C 
BRANCH   2   3
ATOM      3  C   UNL     1     -15.126  33.057 -18.982  1.00  0.00     0.000 C 
BRANCH   3   4
ATOM      4  C   UNL     1     -14.340  34.116 -19.773  1.00  0.00     0.000 C 
BRANCH   4   5
ATOM      5  C   UNL     1     -13.751  35.214 -18.871  1.00  0.00     0.000 C 
BRANCH   5   6
ATOM      6  C   UNL     1     -14.710  35.654 -17.757  1.00  0.00     0.000 C 
BRANCH   6   7
ATOM      7  C   UNL     1     -13.940  36.023 -16.482  1.00  0.00     0.006 C 
BRANCH   7   8
ATOM      8  C   UNL     1     -14.091  34.934 -15.415  1.00  0.00     0.053 C 
BRANCH   8   9
ATOM      9  C   UNL     1     -13.000  35.039 -14.397  1.00  0.00     0.041 C 
ATOM     10  O   UNL     1     -12.355  36.110 -14.267  1.00  0.00    -0.550 OA
ATOM     11  O   UNL     1     -12.725  33.965 -13.561  1.00  0.00    -0.550 OA
ENDBRANCH   8   9
ENDBRANCH   7   8
ENDBRANCH   6   7
ENDBRANCH   5   6
ENDBRANCH   4   5
ENDBRANCH   3   4
ENDBRANCH   2   3
ENDBRANCH   1   2
BRANCH   1  12
ATOM     12  C   UNL     1     -17.732  35.405 -19.820  1.00  0.00     0.000 C 
BRANCH  12  13
ATOM     13  C   UNL     1     -18.342  34.815 -21.105  1.00  0.00    -0.000 C 
BRANCH  13  14
ATOM     14  C   UNL     1     -19.713  34.139 -20.919  1.00  0.00    -0.000 C 
BRANCH  14  15
ATOM     15  C   UNL     1     -20.908  35.102 -21.081  1.00  0.00    -0.000 C 
BRANCH  15  16
ATOM     16  C   UNL     1     -21.043  36.078 -19.901  1.00  0.00    -0.000 C 
BRANCH  16  17
ATOM     17  C   UNL     1     -21.125  35.321 -18.570  1.00  0.00    -0.000 C 
BRANCH  17  18
ATOM     18  C   UNL     1     -20.461  36.120 -17.440  1.00  0.00    -0.000 C 
BRANCH  18  19
ATOM     19  C   UNL     1     -20.914  35.658 -16.047  1.00  0.00    -0.003 C 
ATOM     20  C   UNL     1     -19.804  35.753 -15.000  1.00  0.00     0.004 C 
ENDBRANCH  18  19
ENDBRANCH  17  18
ENDBRANCH  16  17
ENDBRANCH  15  16
ENDBRANCH  14  15
ENDBRANCH  13  14
ENDBRANCH  12  13
ENDBRANCH   1  12
TORSDOF 16
ENDMDL
MODEL 2
REMARK VINA RESULT:     3.481      2.633      6.293
REMARK INTER + INTRA:           5.569
REMARK INTER:                   4.197
REMARK INTRA:                   1.372
REMARK UNBOUND:                -1.169
REMARK SMILES CCCCCCCCCCCCCCCCCC(=O)[O-]
REMARK SMILES IDX 10 1 11 2 12 3 13 4 14 5 15 6 16 7 17 8 18 9 19 10 20 11
REMARK SMILES IDX 9 12 8 13 7 14 6 15 5 16 4 17 3 18 2 19 1 20
REMARK H PARENT
REMARK Flexibility Score: inf
ROOT
ATOM      1  C   UNL     1     -17.296  36.119 -19.406  1.00  0.00     0.000 C 
ENDROOT
BRANCH   1   2
ATOM      2  C   UNL     1     -18.631  36.110 -20.180  1.00  0.00     0.000 C 
BRANCH   2   3
ATOM      3  C   UNL     1     -18.833  34.912 -21.125  1.00  0.00     0.000 C 
BRANCH   3   4
ATOM      4  C   UNL     1     -19.394  33.674 -20.406  1.00  0.00     0.000 C 
BRANCH   4   5
ATOM      5  C   UNL     1     -20.645  33.991 -19.568  1.00  0.00     0.000 C 
BRANCH   5   6
ATOM      6  C   UNL     1     -21.063  35.466 -19.648  1.00  0.00     0.000 C 
BRANCH   6   7
ATOM      7  C   UNL     1     -21.125  36.096 -18.250  1.00  0.00     0.006 C 
BRANCH   7   8
ATOM      8  C   UNL     1     -20.852  35.052 -17.164  1.00  0.00     0.053 C 
BRANCH   8   9
ATOM      9  C   UNL     1     -20.248  35.695 -15.955  1.00  0.00     0.041 C 
ATOM     10  O   UNL     1     -19.066  36.123 -15.989  1.00  0.00    -0.550 OA
ATOM     11  O   UNL     1     -21.008  35.861 -14.805  1.00  0.00    -0.550 OA
ENDBRANCH   8   9
ENDBRANCH   7   8
ENDBRANCH   6   7
ENDBRANCH   5   6
ENDBRANCH   4   5
ENDBRANCH   3   4
ENDBRANCH   2   3
ENDBRANCH   1   2
BRANCH   1  12
ATOM     12  C   UNL     1     -17.272  35.258 -18.127  1.00  0.00     0.000 C 
BRANCH  12  13
ATOM     13  C   UNL     1     -16.935  33.772 -18.350  1.00  0.00    -0.000 C 
BRANCH  13  14
ATOM     14  C   UNL     1     -15.486  33.495 -18.792  1.00  0.00    -0.000 C 
BRANCH  14  15
ATOM     15  C   UNL     1     -14.747  34.744 -19.316  1.00  0.00    -0.000 C 
BRANCH  15  16
ATOM     16  C   UNL     1     -14.051  35.533 -18.195  1.00  0.00    -0.000 C 
BRANCH  16  17
ATOM     17  C   UNL     1     -14.134  34.779 -16.862  1.00  0.00    -0.000 C 
BRANCH  17  18
ATOM     18  C   UNL     1     -13.941  35.734 -15.677  1.00  0.00    -0.000 C 
BRANCH  18  19
ATOM     19  C   UNL     1     -13.162  35.088 -14.520  1.00  0.00    -0.003 C 
ATOM     20  C   UNL     1     -11.974  35.933 -14.061  1.00  0.00     0.004 C 
ENDBRANCH  18  19
ENDBRANCH  17  18
ENDBRANCH  16  17
ENDBRANCH  15  16
ENDBRANCH  14  15
ENDBRANCH  13  14
ENDBRANCH  12  13
ENDBRANCH   1  12
TORSDOF 16
ENDMDL
MODEL 3
REMARK VINA RESULT:     4.810      2.565      6.944
REMARK INTER + INTRA:           8.141
REMARK INTER:                   8.376
REMARK INTRA:                  -0.235
REMARK UNBOUND:                -1.169
REMARK SMILES CCCCCCCCCCCCCCCCCC(=O)[O-]
REMARK SMILES IDX 10 1 11 2 12 3 13 4 14 5 15 6 16 7 17 8 18 9 19 10 20 11
REMARK SMILES IDX 9 12 8 13 7 14 6 15 5 16 4 17 3 18 2 19 1 20
REMARK H PARENT
REMARK Flexibility Score: inf
ROOT
ATOM      1  C   UNL     1     -16.108  33.841 -19.299  1.00  0.00     0.000 C 
ENDROOT
BRANCH   1   2
ATOM      2  C   UNL     1     -16.366  35.158 -20.061  1.00  0.00     0.000 C 
BRANCH   2   3
ATOM      3  C   UNL     1     -17.485  35.096 -21.116  1.00  0.00     0.000 C 
BRANCH   3   4
ATOM      4  C   UNL     1     -18.863  35.471 -20.546  1.00  0.00     0.000 C 
BRANCH   4   5
ATOM      5  C   UNL     1     -19.669  34.244 -20.087  1.00  0.00     0.000 C 
BRANCH   5   6
ATOM      6  C   UNL     1     -21.040  34.613 -19.502  1.00  0.00     0.000 C 
BRANCH   6   7
ATOM      7  C   UNL     1     -21.000  35.994 -18.834  1.00  0.00     0.006 C 
BRANCH   7   8
ATOM      8  C   UNL     1     -21.101  35.871 -17.311  1.00  0.00     0.053 C 
BRANCH   8   9
ATOM      9  C   UNL     1     -19.750  36.002 -16.682  1.00  0.00     0.041 C 
ATOM     10  O   UNL     1     -18.717  36.042 -17.399  1.00  0.00    -0.550 OA
ATOM     11  O   UNL     1     -19.636  36.124 -15.303  1.00  0.00    -0.550 OA
ENDBRANCH   8   9
ENDBRANCH   7   8
ENDBRANCH   6   7
ENDBRANCH   5   6
ENDBRANCH   4   5
ENDBRANCH   3   4
ENDBRANCH   2   3
ENDBRANCH   1   2
BRANCH   1  12
ATOM     12  C   UNL     1     -14.624  33.516 -19.033  1.00  0.00     0.000 C 
BRANCH  12  13
ATOM     13  C   UNL     1     -13.779  34.701 -18.532  1.00  0.00    -0.000 C 
BRANCH  13  14
ATOM     14  C   UNL     1     -14.589  35.938 -18.101  1.00  0.00    -0.000 C 
BRANCH  14  15
ATOM     15  C   UNL     1     -14.718  36.093 -16.571  1.00  0.00    -0.000 C 
BRANCH  15  16
ATOM     16  C   UNL     1     -13.368  35.968 -15.848  1.00  0.00    -0.000 C 
BRANCH  16  17
ATOM     17  C   UNL     1     -13.419  34.873 -14.775  1.00  0.00    -0.000 C 
BRANCH  17  18
ATOM     18  C   UNL     1     -12.367  35.119 -13.686  1.00  0.00    -0.000 C 
BRANCH  18  19
ATOM     19  C   UNL     1     -10.959  35.333 -14.263  1.00  0.00    -0.003 C 
ATOM     20  C   UNL     1      -9.921  34.385 -13.663  1.00  0.00     0.004 C 
ENDBRANCH  18  19
ENDBRANCH  17  18
ENDBRANCH  16  17
ENDBRANCH  15  16
ENDBRANCH  14  15
ENDBRANCH  13  14
ENDBRANCH  12  13
ENDBRANCH   1  12
TORSDOF 16
ENDMDL
