MODEL 1
REMARK VINA RESULT:    -3.553      0.000      0.000
REMARK INTER + INTRA:          -3.657
REMARK INTER:                  -3.657
REMARK INTRA:                   0.000
REMARK UNBOUND:                 0.000
REMARK SMILES CC1(C)CC[C@]2(C)CC[C@@]3(C)C(=CC[C@H]4[C@]5(C)CC[C@H](O)C(C)(C)[C@@H]5CC[C@@]43C)[C@@H]2C1
REMARK SMILES IDX 1 1 2 2 4 3 5 4 6 5 8 6 9 7 10 8 12 9 13 10 14 11 15 12
REMARK SMILES IDX 28 13 27 14 26 15 25 16 16 17 18 18 19 19 20 20 22 21 23 22
REMARK SMILES IDX 24 23 17 24 29 25 30 26 31 27 11 28 7 29 3 30 21 31
REMARK H PARENT 21 32
REMARK Flexibility Score: inf
ROOT
ATOM      1  C   UNL     1      44.124  12.063 -11.386  1.00  0.00     0.011 C 
ATOM      2  C   UNL     1      43.132  11.097 -10.690  1.00  0.00    -0.035 C 
ATOM      3  C   UNL     1      42.036  11.933  -9.984  1.00  0.00     0.007 C 
ATOM      4  C   UNL     1      40.809  12.123 -10.864  1.00  0.00     0.008 C 
ATOM      5  C   UNL     1      40.060  10.785 -11.106  1.00  0.00    -0.026 C 
ATOM      6  C   UNL     1      39.376  10.319  -9.770  1.00  0.00     0.008 C 
ATOM      7  C   UNL     1      39.978   9.058  -9.135  1.00  0.00     0.012 C 
ATOM      8  C   UNL     1      40.007   7.835 -10.101  1.00  0.00    -0.006 C 
ATOM      9  C   UNL     1      40.852   8.237 -11.308  1.00  0.00    -0.064 C 
ATOM     10  C   UNL     1      41.432   7.279 -12.072  1.00  0.00    -0.027 C 
ATOM     11  C   UNL     1      41.715   5.876 -11.607  1.00  0.00     0.032 C 
ATOM     12  C   UNL     1      40.832   5.376 -10.432  1.00  0.00     0.006 C 
ATOM     13  C   UNL     1      40.637   6.526  -9.388  1.00  0.00    -0.020 C 
ATOM     14  C   UNL     1      39.664   5.982  -8.315  1.00  0.00     0.008 C 
ATOM     15  C   UNL     1      40.105   4.712  -7.582  1.00  0.00     0.005 C 
ATOM     16  C   UNL     1      41.181   3.806  -8.255  1.00  0.00     0.003 C 
ATOM     17  C   UNL     1      41.172   3.897  -9.849  1.00  0.00    -0.025 C 
ATOM     18  C   UNL     1      40.074   2.921 -10.380  1.00  0.00     0.010 C 
ATOM     19  C   UNL     1      40.165   1.486  -9.850  1.00  0.00     0.033 C 
ATOM     20  C   UNL     1      40.091   1.426  -8.319  1.00  0.00     0.120 C 
ATOM     21  C   UNL     1      41.170   2.326  -7.632  1.00  0.00    -0.006 C 
ATOM     22  C   UNL     1      42.571   1.634  -7.754  1.00  0.00     0.014 C 
ATOM     23  C   UNL     1      40.893   2.365  -6.094  1.00  0.00     0.014 C 
ATOM     24  C   UNL     1      42.555   3.433 -10.402  1.00  0.00     0.012 C 
ATOM     25  C   UNL     1      42.008   6.903  -8.748  1.00  0.00     0.012 C 
ATOM     26  C   UNL     1      41.037   9.707 -11.745  1.00  0.00     0.022 C 
ATOM     27  C   UNL     1      42.560  10.112 -11.777  1.00  0.00     0.015 C 
ATOM     28  C   UNL     1      38.544   7.588 -10.603  1.00  0.00     0.017 C 
ATOM     29  C   UNL     1      38.936  11.131 -12.125  1.00  0.00     0.012 C 
ATOM     30  C   UNL     1      43.936  10.323  -9.622  1.00  0.00     0.011 C 
ENDROOT
BRANCH  20  31
ATOM     31  O   UNL     1      38.790   1.793  -7.926  1.00  0.00    -0.393 OA
ATOM     32  H   UNL     1      38.628   1.407  -7.025  1.00  0.00     0.210 HD
ENDBRANCH  20  31
TORSDOF 1
ENDMDL
MODEL 2
REMARK VINA RESULT:    -1.287      2.550      7.690
REMARK INTER + INTRA:          -1.325
REMARK INTER:                  -1.325
REMARK INTRA:                   0.000
REMARK UNBOUND:                 0.000
REMARK SMILES CC1(C)CC[C@]2(C)CC[C@@]3(C)C(=CC[C@H]4[C@]5(C)CC[C@H](O)C(C)(C)[C@@H]5CC[C@@]43C)[C@@H]2C1
REMARK SMILES IDX 1 1 2 2 4 3 5 4 6 5 8 6 9 7 10 8 12 9 13 10 14 11 15 12
REMARK SMILES IDX 28 13 27 14 26 15 25 16 16 17 18 18 19 19 20 20 22 21 23 22
REMARK SMILES IDX 24 23 17 24 29 25 30 26 31 27 11 28 7 29 3 30 21 31
REMARK H PARENT 21 32
REMARK Flexibility Score: inf
ROOT
ATOM      1  C   UNL     1      39.895   0.609  -7.961  1.00  0.00     0.011 C 
ATOM      2  C   UNL     1      40.025   1.794  -8.951  1.00  0.00    -0.035 C 
ATOM      3  C   UNL     1      39.672   1.293 -10.374  1.00  0.00     0.007 C 
ATOM      4  C   UNL     1      38.207   1.526 -10.712  1.00  0.00     0.008 C 
ATOM      5  C   UNL     1      37.876   3.038 -10.833  1.00  0.00    -0.026 C 
ATOM      6  C   UNL     1      38.557   3.622 -12.124  1.00  0.00     0.008 C 
ATOM      7  C   UNL     1      39.703   4.609 -11.866  1.00  0.00     0.012 C 
ATOM      8  C   UNL     1      39.289   5.813 -10.966  1.00  0.00    -0.006 C 
ATOM      9  C   UNL     1      38.819   5.235  -9.632  1.00  0.00    -0.064 C 
ATOM     10  C   UNL     1      38.837   6.010  -8.520  1.00  0.00    -0.027 C 
ATOM     11  C   UNL     1      39.692   7.237  -8.352  1.00  0.00     0.032 C 
ATOM     12  C   UNL     1      40.137   7.921  -9.673  1.00  0.00     0.006 C 
ATOM     13  C   UNL     1      40.523   6.834 -10.730  1.00  0.00    -0.020 C 
ATOM     14  C   UNL     1      40.846   7.592 -12.040  1.00  0.00     0.008 C 
ATOM     15  C   UNL     1      41.968   8.631 -11.961  1.00  0.00     0.005 C 
ATOM     16  C   UNL     1      42.349   9.203 -10.562  1.00  0.00     0.003 C 
ATOM     17  C   UNL     1      41.133   9.199  -9.528  1.00  0.00    -0.025 C 
ATOM     18  C   UNL     1      40.283  10.485  -9.779  1.00  0.00     0.010 C 
ATOM     19  C   UNL     1      41.075  11.798  -9.786  1.00  0.00     0.033 C 
ATOM     20  C   UNL     1      42.185  11.801 -10.845  1.00  0.00     0.120 C 
ATOM     21  C   UNL     1      43.157  10.584 -10.696  1.00  0.00    -0.006 C 
ATOM     22  C   UNL     1      44.101  10.827  -9.469  1.00  0.00     0.014 C 
ATOM     23  C   UNL     1      44.122  10.555 -11.924  1.00  0.00     0.014 C 
ATOM     24  C   UNL     1      41.691   9.251  -8.072  1.00  0.00     0.012 C 
ATOM     25  C   UNL     1      41.765   6.029 -10.239  1.00  0.00     0.012 C 
ATOM     26  C   UNL     1      38.262   3.801  -9.494  1.00  0.00     0.022 C 
ATOM     27  C   UNL     1      39.091   2.958  -8.452  1.00  0.00     0.015 C 
ATOM     28  C   UNL     1      38.063   6.514 -11.641  1.00  0.00     0.017 C 
ATOM     29  C   UNL     1      36.335   3.098 -11.035  1.00  0.00     0.012 C 
ATOM     30  C   UNL     1      41.506   2.235  -8.930  1.00  0.00     0.011 C 
ENDROOT
BRANCH  20  31
ATOM     31  O   UNL     1      41.581  11.825 -12.116  1.00  0.00    -0.393 OA
ATOM     32  H   UNL     1      41.606  12.762 -12.443  1.00  0.00     0.210 HD
ENDBRANCH  20  31
TORSDOF 1
ENDMDL
MODEL 3
REMARK VINA RESULT:    -0.624      2.265      7.848
REMARK INTER + INTRA:          -0.642
REMARK INTER:                  -0.642
REMARK INTRA:                   0.000
REMARK UNBOUND:                 0.000
REMARK SMILES CC1(C)CC[C@]2(C)CC[C@@]3(C)C(=CC[C@H]4[C@]5(C)CC[C@H](O)C(C)(C)[C@@H]5CC[C@@]43C)[C@@H]2C1
REMARK SMILES IDX 1 1 2 2 4 3 5 4 6 5 8 6 9 7 10 8 12 9 13 10 14 11 15 12
REMARK SMILES IDX 28 13 27 14 26 15 25 16 16 17 18 18 19 19 20 20 22 21 23 22
REMARK SMILES IDX 24 23 17 24 29 25 30 26 31 27 11 28 7 29 3 30 21 31
REMARK H PARENT 21 32
REMARK Flexibility Score: inf
ROOT
ATOM      1  C   UNL     1      41.831   1.017  -5.099  1.00  0.00     0.011 C 
ATOM      2  C   UNL     1      41.830   1.902  -6.371  1.00  0.00    -0.035 C 
ATOM      3  C   UNL     1      41.866   0.981  -7.616  1.00  0.00     0.007 C 
ATOM      4  C   UNL     1      40.471   0.689  -8.149  1.00  0.00     0.008 C 
ATOM      5  C   UNL     1      39.797   1.961  -8.732  1.00  0.00    -0.026 C 
ATOM      6  C   UNL     1      40.523   2.374 -10.063  1.00  0.00     0.008 C 
ATOM      7  C   UNL     1      41.322   3.682  -9.990  1.00  0.00     0.012 C 
ATOM      8  C   UNL     1      40.470   4.900  -9.520  1.00  0.00    -0.006 C 
ATOM      9  C   UNL     1      39.937   4.564  -8.129  1.00  0.00    -0.064 C 
ATOM     10  C   UNL     1      39.566   5.563  -7.292  1.00  0.00    -0.027 C 
ATOM     11  C   UNL     1      40.043   6.986  -7.402  1.00  0.00     0.032 C 
ATOM     12  C   UNL     1      40.526   7.417  -8.814  1.00  0.00     0.006 C 
ATOM     13  C   UNL     1      41.349   6.259  -9.470  1.00  0.00    -0.020 C 
ATOM     14  C   UNL     1      41.693   6.725 -10.904  1.00  0.00     0.008 C 
ATOM     15  C   UNL     1      42.487   8.029 -11.020  1.00  0.00     0.005 C 
ATOM     16  C   UNL     1      42.465   9.017  -9.814  1.00  0.00     0.003 C 
ATOM     17  C   UNL     1      41.128   8.921  -8.947  1.00  0.00    -0.025 C 
ATOM     18  C   UNL     1      40.040   9.802  -9.639  1.00  0.00     0.010 C 
ATOM     19  C   UNL     1      40.466  11.242  -9.947  1.00  0.00     0.033 C 
ATOM     20  C   UNL     1      41.706  11.301 -10.848  1.00  0.00     0.120 C 
ATOM     21  C   UNL     1      42.911  10.494 -10.261  1.00  0.00    -0.006 C 
ATOM     22  C   UNL     1      43.537  11.297  -9.070  1.00  0.00     0.014 C 
ATOM     23  C   UNL     1      44.051  10.438 -11.329  1.00  0.00     0.014 C 
ATOM     24  C   UNL     1      41.394   9.494  -7.520  1.00  0.00     0.012 C 
ATOM     25  C   UNL     1      42.648   5.997  -8.648  1.00  0.00     0.012 C 
ATOM     26  C   UNL     1      39.741   3.112  -7.639  1.00  0.00     0.022 C 
ATOM     27  C   UNL     1      40.562   2.833  -6.322  1.00  0.00     0.015 C 
ATOM     28  C   UNL     1      39.244   5.025 -10.485  1.00  0.00     0.017 C 
ATOM     29  C   UNL     1      38.349   1.521  -9.092  1.00  0.00     0.012 C 
ATOM     30  C   UNL     1      43.125   2.742  -6.334  1.00  0.00     0.011 C 
ENDROOT
BRANCH  20  31
ATOM     31  O   UNL     1      41.346  10.830 -12.125  1.00  0.00    -0.393 OA
ATOM     32  H   UNL     1      40.482  10.347 -12.035  1.00  0.00     0.210 HD
ENDBRANCH  20  31
TORSDOF 1
ENDMDL
