MODEL 1
REMARK VINA RESULT:    -5.119      0.000      0.000
REMARK INTER + INTRA:         -17.532
REMARK INTER:                 -12.899
REMARK INTRA:                  -4.633
REMARK UNBOUND:                -4.633
REMARK SMILES CCCCCCCCCCCCCCCCCCCCCCCCCCCC(=O)[O-]
REMARK SMILES IDX 15 1 16 2 17 3 18 4 19 5 20 6 21 7 22 8 23 9 24 10 25 11
REMARK SMILES IDX 26 12 27 13 28 14 29 15 30 16 14 17 13 18 12 19 11 20 10 21
REMARK SMILES IDX 9 22 8 23 7 24 6 25 5 26 4 27 3 28 2 29 1 30
REMARK H PARENT
REMARK Flexibility Score: inf
ROOT
ATOM      1  C   UNL     1      18.821 -25.673 -26.583  1.00  0.00     0.000 C 
ENDROOT
BRANCH   1   2
ATOM      2  C   UNL     1      18.879 -26.586 -27.819  1.00  0.00     0.000 C 
BRANCH   2   3
ATOM      3  C   UNL     1      17.606 -27.430 -27.994  1.00  0.00     0.000 C 
BRANCH   3   4
ATOM      4  C   UNL     1      17.369 -27.982 -29.412  1.00  0.00     0.000 C 
BRANCH   4   5
ATOM      5  C   UNL     1      16.737 -26.965 -30.386  1.00  0.00     0.000 C 
BRANCH   5   6
ATOM      6  C   UNL     1      15.886 -25.903 -29.665  1.00  0.00     0.000 C 
BRANCH   6   7
ATOM      7  C   UNL     1      15.858 -24.561 -30.415  1.00  0.00     0.000 C 
BRANCH   7   8
ATOM      8  C   UNL     1      15.297 -23.413 -29.558  1.00  0.00     0.000 C 
BRANCH   8   9
ATOM      9  C   UNL     1      15.454 -23.665 -28.050  1.00  0.00     0.000 C 
BRANCH   9  10
ATOM     10  C   UNL     1      14.688 -22.639 -27.195  1.00  0.00     0.000 C 
BRANCH  10  11
ATOM     11  C   UNL     1      13.191 -22.581 -27.563  1.00  0.00     0.000 C 
BRANCH  11  12
ATOM     12  C   UNL     1      12.539 -21.221 -27.254  1.00  0.00     0.006 C 
BRANCH  12  13
ATOM     13  C   UNL     1      12.036 -20.499 -28.510  1.00  0.00     0.053 C 
BRANCH  13  14
ATOM     14  C   UNL     1      11.371 -19.211 -28.145  1.00  0.00     0.041 C 
ATOM     15  O   UNL     1      11.819 -18.518 -27.192  1.00  0.00    -0.550 OA
ATOM     16  O   UNL     1      10.281 -18.755 -28.875  1.00  0.00    -0.550 OA
ENDBRANCH  13  14
ENDBRANCH  12  13
ENDBRANCH  11  12
ENDBRANCH  10  11
ENDBRANCH   9  10
ENDBRANCH   8   9
ENDBRANCH   7   8
ENDBRANCH   6   7
ENDBRANCH   5   6
ENDBRANCH   4   5
ENDBRANCH   3   4
ENDBRANCH   2   3
ENDBRANCH   1   2
BRANCH   1  17
ATOM     17  C   UNL     1      17.422 -25.614 -25.946  1.00  0.00     0.000 C 
BRANCH  17  18
ATOM     18  C   UNL     1      17.400 -25.446 -24.412  1.00  0.00     0.000 C 
BRANCH  18  19
ATOM     19  C   UNL     1      17.001 -24.048 -23.906  1.00  0.00     0.000 C 
BRANCH  19  20
ATOM     20  C   UNL     1      18.076 -23.402 -23.017  1.00  0.00     0.000 C 
BRANCH  20  21
ATOM     21  C   UNL     1      19.502 -23.801 -23.432  1.00  0.00     0.000 C 
BRANCH  21  22
ATOM     22  C   UNL     1      20.030 -22.979 -24.621  1.00  0.00    -0.000 C 
BRANCH  22  23
ATOM     23  C   UNL     1      19.886 -21.458 -24.390  1.00  0.00    -0.000 C 
BRANCH  23  24
ATOM     24  C   UNL     1      19.110 -20.728 -25.504  1.00  0.00    -0.000 C 
BRANCH  24  25
ATOM     25  C   UNL     1      18.191 -21.621 -26.355  1.00  0.00    -0.000 C 
BRANCH  25  26
ATOM     26  C   UNL     1      18.497 -21.616 -27.867  1.00  0.00    -0.000 C 
BRANCH  26  27
ATOM     27  C   UNL     1      19.272 -22.860 -28.350  1.00  0.00    -0.000 C 
BRANCH  27  28
ATOM     28  C   UNL     1      19.136 -23.082 -29.864  1.00  0.00    -0.000 C 
BRANCH  28  29
ATOM     29  C   UNL     1      19.994 -24.267 -30.324  1.00  0.00    -0.003 C 
ATOM     30  C   UNL     1      21.458 -24.067 -29.945  1.00  0.00     0.004 C 
ENDBRANCH  28  29
ENDBRANCH  27  28
ENDBRANCH  26  27
ENDBRANCH  25  26
ENDBRANCH  24  25
ENDBRANCH  23  24
ENDBRANCH  22  23
ENDBRANCH  21  22
ENDBRANCH  20  21
ENDBRANCH  19  20
ENDBRANCH  18  19
ENDBRANCH  17  18
ENDBRANCH   1  17
TORSDOF 26
ENDMDL
MODEL 2
REMARK VINA RESULT:    -5.002      1.828      4.741
REMARK INTER + INTRA:         -17.238
REMARK INTER:                 -11.919
REMARK INTRA:                  -5.319
REMARK UNBOUND:                -4.633
REMARK SMILES CCCCCCCCCCCCCCCCCCCCCCCCCCCC(=O)[O-]
REMARK SMILES IDX 15 1 16 2 17 3 18 4 19 5 20 6 21 7 22 8 23 9 24 10 25 11
REMARK SMILES IDX 26 12 27 13 28 14 29 15 30 16 14 17 13 18 12 19 11 20 10 21
REMARK SMILES IDX 9 22 8 23 7 24 6 25 5 26 4 27 3 28 2 29 1 30
REMARK H PARENT
REMARK Flexibility Score: inf
ROOT
ATOM      1  C   UNL     1      17.398 -25.542 -25.985  1.00  0.00     0.000 C 
ENDROOT
BRANCH   1   2
ATOM      2  C   UNL     1      17.266 -25.238 -24.484  1.00  0.00     0.000 C 
BRANCH   2   3
ATOM      3  C   UNL     1      18.564 -24.683 -23.874  1.00  0.00     0.000 C 
BRANCH   3   4
ATOM      4  C   UNL     1      18.421 -23.350 -23.115  1.00  0.00     0.000 C 
BRANCH   4   5
ATOM      5  C   UNL     1      19.432 -22.267 -23.548  1.00  0.00     0.000 C 
BRANCH   5   6
ATOM      6  C   UNL     1      19.714 -22.290 -25.062  1.00  0.00     0.000 C 
BRANCH   6   7
ATOM      7  C   UNL     1      18.831 -21.303 -25.843  1.00  0.00     0.000 C 
BRANCH   7   8
ATOM      8  C   UNL     1      18.177 -21.941 -27.080  1.00  0.00     0.000 C 
BRANCH   8   9
ATOM      9  C   UNL     1      16.667 -22.164 -26.907  1.00  0.00     0.000 C 
BRANCH   9  10
ATOM     10  C   UNL     1      16.058 -23.004 -28.045  1.00  0.00     0.000 C 
BRANCH  10  11
ATOM     11  C   UNL     1      14.619 -23.458 -27.724  1.00  0.00     0.000 C 
BRANCH  11  12
ATOM     12  C   UNL     1      13.626 -22.289 -27.592  1.00  0.00     0.006 C 
BRANCH  12  13
ATOM     13  C   UNL     1      12.173 -22.707 -27.848  1.00  0.00     0.053 C 
BRANCH  13  14
ATOM     14  C   UNL     1      11.608 -21.959 -29.012  1.00  0.00     0.041 C 
ATOM     15  O   UNL     1      11.504 -20.704 -28.966  1.00  0.00    -0.550 OA
ATOM     16  O   UNL     1      11.229 -22.639 -30.163  1.00  0.00    -0.550 OA
ENDBRANCH  13  14
ENDBRANCH  12  13
ENDBRANCH  11  12
ENDBRANCH  10  11
ENDBRANCH   9  10
ENDBRANCH   8   9
ENDBRANCH   7   8
ENDBRANCH   6   7
ENDBRANCH   5   6
ENDBRANCH   4   5
ENDBRANCH   3   4
ENDBRANCH   2   3
ENDBRANCH   1   2
BRANCH   1  17
ATOM     17  C   UNL     1      18.861 -25.589 -26.462  1.00  0.00     0.000 C 
BRANCH  17  18
ATOM     18  C   UNL     1      19.113 -26.410 -27.743  1.00  0.00     0.000 C 
BRANCH  18  19
ATOM     19  C   UNL     1      17.927 -26.487 -28.722  1.00  0.00     0.000 C 
BRANCH  19  20
ATOM     20  C   UNL     1      18.179 -25.717 -30.030  1.00  0.00     0.000 C 
BRANCH  20  21
ATOM     21  C   UNL     1      18.957 -24.411 -29.804  1.00  0.00     0.000 C 
BRANCH  21  22
ATOM     22  C   UNL     1      20.214 -24.305 -30.686  1.00  0.00    -0.000 C 
BRANCH  22  23
ATOM     23  C   UNL     1      21.482 -23.991 -29.862  1.00  0.00    -0.000 C 
BRANCH  23  24
ATOM     24  C   UNL     1      21.190 -23.436 -28.453  1.00  0.00    -0.000 C 
BRANCH  24  25
ATOM     25  C   UNL     1      22.340 -22.639 -27.814  1.00  0.00    -0.000 C 
BRANCH  25  26
ATOM     26  C   UNL     1      22.077 -21.127 -27.661  1.00  0.00    -0.000 C 
BRANCH  26  27
ATOM     27  C   UNL     1      21.752 -20.413 -28.990  1.00  0.00    -0.000 C 
BRANCH  27  28
ATOM     28  C   UNL     1      20.272 -20.014 -29.093  1.00  0.00    -0.000 C 
BRANCH  28  29
ATOM     29  C   UNL     1      19.773 -20.125 -30.538  1.00  0.00    -0.003 C 
ATOM     30  C   UNL     1      18.500 -20.962 -30.619  1.00  0.00     0.004 C 
ENDBRANCH  28  29
ENDBRANCH  27  28
ENDBRANCH  26  27
ENDBRANCH  25  26
ENDBRANCH  24  25
ENDBRANCH  23  24
ENDBRANCH  22  23
ENDBRANCH  21  22
ENDBRANCH  20  21
ENDBRANCH  19  20
ENDBRANCH  18  19
ENDBRANCH  17  18
ENDBRANCH   1  17
TORSDOF 26
ENDMDL
MODEL 3
REMARK VINA RESULT:    -4.962      1.556      5.197
REMARK INTER + INTRA:         -17.137
REMARK INTER:                 -11.931
REMARK INTRA:                  -5.205
REMARK UNBOUND:                -4.633
REMARK SMILES CCCCCCCCCCCCCCCCCCCCCCCCCCCC(=O)[O-]
REMARK SMILES IDX 15 1 16 2 17 3 18 4 19 5 20 6 21 7 22 8 23 9 24 10 25 11
REMARK SMILES IDX 26 12 27 13 28 14 29 15 30 16 14 17 13 18 12 19 11 20 10 21
REMARK SMILES IDX 9 22 8 23 7 24 6 25 5 26 4 27 3 28 2 29 1 30
REMARK H PARENT
REMARK Flexibility Score: inf
ROOT
ATOM      1  C   UNL     1      17.782 -25.487 -24.986  1.00  0.00     0.000 C 
ENDROOT
BRANCH   1   2
ATOM      2  C   UNL     1      16.700 -24.667 -24.265  1.00  0.00     0.000 C 
BRANCH   2   3
ATOM      3  C   UNL     1      17.265 -23.817 -23.115  1.00  0.00     0.000 C 
BRANCH   3   4
ATOM      4  C   UNL     1      18.801 -23.714 -23.063  1.00  0.00     0.000 C 
BRANCH   4   5
ATOM      5  C   UNL     1      19.364 -22.397 -23.637  1.00  0.00     0.000 C 
BRANCH   5   6
ATOM      6  C   UNL     1      19.518 -22.435 -25.169  1.00  0.00     0.000 C 
BRANCH   6   7
ATOM      7  C   UNL     1      18.656 -21.375 -25.876  1.00  0.00     0.000 C 
BRANCH   7   8
ATOM      8  C   UNL     1      17.464 -21.987 -26.631  1.00  0.00     0.000 C 
BRANCH   8   9
ATOM      9  C   UNL     1      17.812 -22.383 -28.074  1.00  0.00     0.000 C 
BRANCH   9  10
ATOM     10  C   UNL     1      16.649 -23.093 -28.791  1.00  0.00     0.000 C 
BRANCH  10  11
ATOM     11  C   UNL     1      15.327 -22.979 -28.003  1.00  0.00     0.000 C 
BRANCH  11  12
ATOM     12  C   UNL     1      14.120 -23.573 -28.749  1.00  0.00     0.006 C 
BRANCH  12  13
ATOM     13  C   UNL     1      12.785 -23.293 -28.047  1.00  0.00     0.053 C 
BRANCH  13  14
ATOM     14  C   UNL     1      12.377 -21.869 -28.243  1.00  0.00     0.041 C 
ATOM     15  O   UNL     1      12.006 -21.469 -29.379  1.00  0.00    -0.550 OA
ATOM     16  O   UNL     1      12.370 -20.988 -27.168  1.00  0.00    -0.550 OA
ENDBRANCH  13  14
ENDBRANCH  12  13
ENDBRANCH  11  12
ENDBRANCH  10  11
ENDBRANCH   9  10
ENDBRANCH   8   9
ENDBRANCH   7   8
ENDBRANCH   6   7
ENDBRANCH   5   6
ENDBRANCH   4   5
ENDBRANCH   3   4
ENDBRANCH   2   3
ENDBRANCH   1   2
BRANCH   1  17
ATOM     17  C   UNL     1      17.470 -25.715 -26.475  1.00  0.00     0.000 C 
BRANCH  17  18
ATOM     18  C   UNL     1      18.688 -26.042 -27.364  1.00  0.00     0.000 C 
BRANCH  18  19
ATOM     19  C   UNL     1      18.545 -27.296 -28.246  1.00  0.00     0.000 C 
BRANCH  19  20
ATOM     20  C   UNL     1      17.130 -27.464 -28.823  1.00  0.00     0.000 C 
BRANCH  20  21
ATOM     21  C   UNL     1      17.102 -27.357 -30.356  1.00  0.00     0.000 C 
BRANCH  21  22
ATOM     22  C   UNL     1      16.513 -26.024 -30.850  1.00  0.00    -0.000 C 
BRANCH  22  23
ATOM     23  C   UNL     1      17.430 -25.323 -31.876  1.00  0.00    -0.000 C 
BRANCH  23  24
ATOM     24  C   UNL     1      18.933 -25.441 -31.553  1.00  0.00    -0.000 C 
BRANCH  24  25
ATOM     25  C   UNL     1      19.502 -24.317 -30.670  1.00  0.00    -0.000 C 
BRANCH  25  26
ATOM     26  C   UNL     1      20.866 -24.628 -30.020  1.00  0.00    -0.000 C 
BRANCH  26  27
ATOM     27  C   UNL     1      21.182 -23.755 -28.786  1.00  0.00    -0.000 C 
BRANCH  27  28
ATOM     28  C   UNL     1      21.292 -22.264 -29.137  1.00  0.00    -0.000 C 
BRANCH  28  29
ATOM     29  C   UNL     1      21.796 -21.454 -27.938  1.00  0.00    -0.003 C 
ATOM     30  C   UNL     1      22.767 -22.271 -27.090  1.00  0.00     0.004 C 
ENDBRANCH  28  29
ENDBRANCH  27  28
ENDBRANCH  26  27
ENDBRANCH  25  26
ENDBRANCH  24  25
ENDBRANCH  23  24
ENDBRANCH  22  23
ENDBRANCH  21  22
ENDBRANCH  20  21
ENDBRANCH  19  20
ENDBRANCH  18  19
ENDBRANCH  17  18
ENDBRANCH   1  17
TORSDOF 26
ENDMDL
MODEL 4
REMARK VINA RESULT:    -4.909      1.831      5.316
REMARK INTER + INTRA:         -17.003
REMARK INTER:                 -11.549
REMARK INTRA:                  -5.455
REMARK UNBOUND:                -4.633
REMARK SMILES CCCCCCCCCCCCCCCCCCCCCCCCCCCC(=O)[O-]
REMARK SMILES IDX 15 1 16 2 17 3 18 4 19 5 20 6 21 7 22 8 23 9 24 10 25 11
REMARK SMILES IDX 26 12 27 13 28 14 29 15 30 16 14 17 13 18 12 19 11 20 10 21
REMARK SMILES IDX 9 22 8 23 7 24 6 25 5 26 4 27 3 28 2 29 1 30
REMARK H PARENT
REMARK Flexibility Score: inf
ROOT
ATOM      1  C   UNL     1      19.205 -25.433 -26.622  1.00  0.00     0.000 C 
ENDROOT
BRANCH   1   2
ATOM      2  C   UNL     1      17.798 -25.824 -26.140  1.00  0.00     0.000 C 
BRANCH   2   3
ATOM      3  C   UNL     1      17.454 -25.228 -24.765  1.00  0.00     0.000 C 
BRANCH   3   4
ATOM      4  C   UNL     1      18.637 -24.604 -24.001  1.00  0.00     0.000 C 
BRANCH   4   5
ATOM      5  C   UNL     1      18.498 -23.087 -23.755  1.00  0.00     0.000 C 
BRANCH   5   6
ATOM      6  C   UNL     1      19.237 -22.243 -24.810  1.00  0.00     0.000 C 
BRANCH   6   7
ATOM      7  C   UNL     1      18.283 -21.366 -25.639  1.00  0.00     0.000 C 
BRANCH   7   8
ATOM      8  C   UNL     1      17.902 -22.010 -26.982  1.00  0.00     0.000 C 
BRANCH   8   9
ATOM      9  C   UNL     1      16.435 -22.464 -27.031  1.00  0.00     0.000 C 
BRANCH   9  10
ATOM     10  C   UNL     1      16.200 -23.605 -28.037  1.00  0.00     0.000 C 
BRANCH  10  11
ATOM     11  C   UNL     1      15.211 -23.200 -29.151  1.00  0.00     0.000 C 
BRANCH  11  12
ATOM     12  C   UNL     1      13.781 -23.717 -28.913  1.00  0.00     0.006 C 
BRANCH  12  13
ATOM     13  C   UNL     1      12.801 -22.607 -28.516  1.00  0.00     0.053 C 
BRANCH  13  14
ATOM     14  C   UNL     1      11.392 -23.029 -28.782  1.00  0.00     0.041 C 
ATOM     15  O   UNL     1      10.779 -23.746 -27.947  1.00  0.00    -0.550 OA
ATOM     16  O   UNL     1      10.740 -22.604 -29.933  1.00  0.00    -0.550 OA
ENDBRANCH  13  14
ENDBRANCH  12  13
ENDBRANCH  11  12
ENDBRANCH  10  11
ENDBRANCH   9  10
ENDBRANCH   8   9
ENDBRANCH   7   8
ENDBRANCH   6   7
ENDBRANCH   5   6
ENDBRANCH   4   5
ENDBRANCH   3   4
ENDBRANCH   2   3
ENDBRANCH   1   2
BRANCH   1  17
ATOM     17  C   UNL     1      19.312 -25.350 -28.155  1.00  0.00     0.000 C 
BRANCH  17  18
ATOM     18  C   UNL     1      20.627 -24.749 -28.695  1.00  0.00     0.000 C 
BRANCH  18  19
ATOM     19  C   UNL     1      20.831 -23.249 -28.415  1.00  0.00     0.000 C 
BRANCH  19  20
ATOM     20  C   UNL     1      20.859 -22.399 -29.697  1.00  0.00     0.000 C 
BRANCH  20  21
ATOM     21  C   UNL     1      19.703 -21.388 -29.758  1.00  0.00     0.000 C 
BRANCH  21  22
ATOM     22  C   UNL     1      18.544 -21.861 -30.653  1.00  0.00    -0.000 C 
BRANCH  22  23
ATOM     23  C   UNL     1      18.925 -23.094 -31.502  1.00  0.00    -0.000 C 
BRANCH  23  24
ATOM     24  C   UNL     1      17.950 -24.280 -31.355  1.00  0.00    -0.000 C 
BRANCH  24  25
ATOM     25  C   UNL     1      18.511 -25.645 -31.789  1.00  0.00    -0.000 C 
BRANCH  25  26
ATOM     26  C   UNL     1      17.778 -26.866 -31.198  1.00  0.00    -0.000 C 
BRANCH  26  27
ATOM     27  C   UNL     1      16.350 -26.556 -30.701  1.00  0.00    -0.000 C 
BRANCH  27  28
ATOM     28  C   UNL     1      16.109 -27.051 -29.267  1.00  0.00    -0.000 C 
BRANCH  28  29
ATOM     29  C   UNL     1      17.007 -28.251 -28.943  1.00  0.00    -0.003 C 
ATOM     30  C   UNL     1      16.669 -28.839 -27.576  1.00  0.00     0.004 C 
ENDBRANCH  28  29
ENDBRANCH  27  28
ENDBRANCH  26  27
ENDBRANCH  25  26
ENDBRANCH  24  25
ENDBRANCH  23  24
ENDBRANCH  22  23
ENDBRANCH  21  22
ENDBRANCH  20  21
ENDBRANCH  19  20
ENDBRANCH  18  19
ENDBRANCH  17  18
ENDBRANCH   1  17
TORSDOF 26
ENDMDL
MODEL 5
REMARK VINA RESULT:    -4.889      1.743      4.413
REMARK INTER + INTRA:         -16.953
REMARK INTER:                 -12.386
REMARK INTRA:                  -4.567
REMARK UNBOUND:                -4.633
REMARK SMILES CCCCCCCCCCCCCCCCCCCCCCCCCCCC(=O)[O-]
REMARK SMILES IDX 15 1 16 2 17 3 18 4 19 5 20 6 21 7 22 8 23 9 24 10 25 11
REMARK SMILES IDX 26 12 27 13 28 14 29 15 30 16 14 17 13 18 12 19 11 20 10 21
REMARK SMILES IDX 9 22 8 23 7 24 6 25 5 26 4 27 3 28 2 29 1 30
REMARK H PARENT
REMARK Flexibility Score: inf
ROOT
ATOM      1  C   UNL     1      18.112 -24.325 -23.047  1.00  0.00     0.000 C 
ENDROOT
BRANCH   1   2
ATOM      2  C   UNL     1      18.853 -22.978 -23.012  1.00  0.00     0.000 C 
BRANCH   2   3
ATOM      3  C   UNL     1      20.215 -23.030 -23.725  1.00  0.00     0.000 C 
BRANCH   3   4
ATOM      4  C   UNL     1      20.349 -22.122 -24.961  1.00  0.00     0.000 C 
BRANCH   4   5
ATOM      5  C   UNL     1      19.085 -21.294 -25.275  1.00  0.00     0.000 C 
BRANCH   5   6
ATOM      6  C   UNL     1      18.580 -21.504 -26.714  1.00  0.00     0.000 C 
BRANCH   6   7
ATOM      7  C   UNL     1      17.139 -22.041 -26.761  1.00  0.00     0.000 C 
BRANCH   7   8
ATOM      8  C   UNL     1      16.839 -22.822 -28.052  1.00  0.00     0.000 C 
BRANCH   8   9
ATOM      9  C   UNL     1      15.433 -23.442 -28.060  1.00  0.00     0.000 C 
BRANCH   9  10
ATOM     10  C   UNL     1      14.495 -22.796 -27.024  1.00  0.00     0.000 C 
BRANCH  10  11
ATOM     11  C   UNL     1      13.019 -23.173 -27.266  1.00  0.00     0.000 C 
BRANCH  11  12
ATOM     12  C   UNL     1      12.025 -22.143 -26.699  1.00  0.00     0.006 C 
BRANCH  12  13
ATOM     13  C   UNL     1      12.356 -20.703 -27.111  1.00  0.00     0.053 C 
BRANCH  13  14
ATOM     14  C   UNL     1      11.788 -20.399 -28.459  1.00  0.00     0.041 C 
ATOM     15  O   UNL     1      11.320 -21.327 -29.171  1.00  0.00    -0.550 OA
ATOM     16  O   UNL     1      11.740 -19.089 -28.919  1.00  0.00    -0.550 OA
ENDBRANCH  13  14
ENDBRANCH  12  13
ENDBRANCH  11  12
ENDBRANCH  10  11
ENDBRANCH   9  10
ENDBRANCH   8   9
ENDBRANCH   7   8
ENDBRANCH   6   7
ENDBRANCH   5   6
ENDBRANCH   4   5
ENDBRANCH   3   4
ENDBRANCH   2   3
ENDBRANCH   1   2
BRANCH   1  17
ATOM     17  C   UNL     1      17.067 -24.406 -24.174  1.00  0.00     0.000 C 
BRANCH  17  18
ATOM     18  C   UNL     1      17.346 -25.467 -25.259  1.00  0.00     0.000 C 
BRANCH  18  19
ATOM     19  C   UNL     1      18.664 -25.290 -26.033  1.00  0.00     0.000 C 
BRANCH  19  20
ATOM     20  C   UNL     1      18.716 -26.120 -27.327  1.00  0.00     0.000 C 
BRANCH  20  21
ATOM     21  C   UNL     1      19.277 -25.323 -28.516  1.00  0.00     0.000 C 
BRANCH  21  22
ATOM     22  C   UNL     1      20.396 -24.348 -28.107  1.00  0.00    -0.000 C 
BRANCH  22  23
ATOM     23  C   UNL     1      20.764 -23.370 -29.244  1.00  0.00    -0.000 C 
BRANCH  23  24
ATOM     24  C   UNL     1      19.924 -23.555 -30.524  1.00  0.00    -0.000 C 
BRANCH  24  25
ATOM     25  C   UNL     1      19.271 -22.273 -31.067  1.00  0.00    -0.000 C 
BRANCH  25  26
ATOM     26  C   UNL     1      19.160 -21.118 -30.051  1.00  0.00    -0.000 C 
BRANCH  26  27
ATOM     27  C   UNL     1      20.075 -19.916 -30.371  1.00  0.00    -0.000 C 
BRANCH  27  28
ATOM     28  C   UNL     1      21.248 -19.795 -29.387  1.00  0.00    -0.000 C 
BRANCH  28  29
ATOM     29  C   UNL     1      20.827 -19.036 -28.123  1.00  0.00    -0.003 C 
ATOM     30  C   UNL     1      20.181 -17.699 -28.473  1.00  0.00     0.004 C 
ENDBRANCH  28  29
ENDBRANCH  27  28
ENDBRANCH  26  27
ENDBRANCH  25  26
ENDBRANCH  24  25
ENDBRANCH  23  24
ENDBRANCH  22  23
ENDBRANCH  21  22
ENDBRANCH  20  21
ENDBRANCH  19  20
ENDBRANCH  18  19
ENDBRANCH  17  18
ENDBRANCH   1  17
TORSDOF 26
ENDMDL
MODEL 6
REMARK VINA RESULT:    -4.879      3.016      7.802
REMARK INTER + INTRA:         -16.928
REMARK INTER:                 -13.234
REMARK INTRA:                  -3.693
REMARK UNBOUND:                -4.633
REMARK SMILES CCCCCCCCCCCCCCCCCCCCCCCCCCCC(=O)[O-]
REMARK SMILES IDX 15 1 16 2 17 3 18 4 19 5 20 6 21 7 22 8 23 9 24 10 25 11
REMARK SMILES IDX 26 12 27 13 28 14 29 15 30 16 14 17 13 18 12 19 11 20 10 21
REMARK SMILES IDX 9 22 8 23 7 24 6 25 5 26 4 27 3 28 2 29 1 30
REMARK H PARENT
REMARK Flexibility Score: inf
ROOT
ATOM      1  C   UNL     1      19.552 -22.184 -25.502  1.00  0.00     0.000 C 
ENDROOT
BRANCH   1   2
ATOM      2  C   UNL     1      19.312 -22.198 -23.984  1.00  0.00     0.000 C 
BRANCH   2   3
ATOM      3  C   UNL     1      18.794 -23.554 -23.476  1.00  0.00     0.000 C 
BRANCH   3   4
ATOM      4  C   UNL     1      17.304 -23.836 -23.749  1.00  0.00     0.000 C 
BRANCH   4   5
ATOM      5  C   UNL     1      17.041 -25.156 -24.503  1.00  0.00     0.000 C 
BRANCH   5   6
ATOM      6  C   UNL     1      18.238 -25.597 -25.366  1.00  0.00     0.000 C 
BRANCH   6   7
ATOM      7  C   UNL     1      17.810 -26.129 -26.743  1.00  0.00     0.000 C 
BRANCH   7   8
ATOM      8  C   UNL     1      18.988 -26.254 -27.724  1.00  0.00     0.000 C 
BRANCH   8   9
ATOM      9  C   UNL     1      19.598 -24.894 -28.098  1.00  0.00     0.000 C 
BRANCH   9  10
ATOM     10  C   UNL     1      20.011 -24.818 -29.579  1.00  0.00     0.000 C 
BRANCH  10  11
ATOM     11  C   UNL     1      19.134 -23.828 -30.375  1.00  0.00     0.000 C 
BRANCH  11  12
ATOM     12  C   UNL     1      18.580 -24.420 -31.683  1.00  0.00     0.006 C 
BRANCH  12  13
ATOM     13  C   UNL     1      18.368 -25.937 -31.612  1.00  0.00     0.053 C 
BRANCH  13  14
ATOM     14  C   UNL     1      16.930 -26.254 -31.356  1.00  0.00     0.041 C 
ATOM     15  O   UNL     1      16.538 -26.510 -30.185  1.00  0.00    -0.550 OA
ATOM     16  O   UNL     1      16.012 -26.233 -32.398  1.00  0.00    -0.550 OA
ENDBRANCH  13  14
ENDBRANCH  12  13
ENDBRANCH  11  12
ENDBRANCH  10  11
ENDBRANCH   9  10
ENDBRANCH   8   9
ENDBRANCH   7   8
ENDBRANCH   6   7
ENDBRANCH   5   6
ENDBRANCH   4   5
ENDBRANCH   3   4
ENDBRANCH   2   3
ENDBRANCH   1   2
BRANCH   1  17
ATOM     17  C   UNL     1      18.566 -21.276 -26.257  1.00  0.00     0.000 C 
BRANCH  17  18
ATOM     18  C   UNL     1      17.845 -21.932 -27.454  1.00  0.00     0.000 C 
BRANCH  18  19
ATOM     19  C   UNL     1      16.469 -22.544 -27.140  1.00  0.00     0.000 C 
BRANCH  19  20
ATOM     20  C   UNL     1      15.941 -23.442 -28.272  1.00  0.00     0.000 C 
BRANCH  20  21
ATOM     21  C   UNL     1      14.407 -23.416 -28.378  1.00  0.00     0.000 C 
BRANCH  21  22
ATOM     22  C   UNL     1      13.745 -22.603 -27.251  1.00  0.00    -0.000 C 
BRANCH  22  23
ATOM     23  C   UNL     1      12.623 -21.680 -27.777  1.00  0.00    -0.000 C 
BRANCH  23  24
ATOM     24  C   UNL     1      12.051 -20.723 -26.712  1.00  0.00    -0.000 C 
BRANCH  24  25
ATOM     25  C   UNL     1      12.748 -19.355 -26.620  1.00  0.00    -0.000 C 
BRANCH  25  26
ATOM     26  C   UNL     1      12.013 -18.202 -27.333  1.00  0.00    -0.000 C 
BRANCH  26  27
ATOM     27  C   UNL     1      10.502 -18.139 -27.024  1.00  0.00    -0.000 C 
BRANCH  27  28
ATOM     28  C   UNL     1       9.672 -17.707 -28.242  1.00  0.00    -0.000 C 
BRANCH  28  29
ATOM     29  C   UNL     1       8.172 -17.809 -27.948  1.00  0.00    -0.003 C 
ATOM     30  C   UNL     1       7.705 -16.662 -27.057  1.00  0.00     0.004 C 
ENDBRANCH  28  29
ENDBRANCH  27  28
ENDBRANCH  26  27
ENDBRANCH  25  26
ENDBRANCH  24  25
ENDBRANCH  23  24
ENDBRANCH  22  23
ENDBRANCH  21  22
ENDBRANCH  20  21
ENDBRANCH  19  20
ENDBRANCH  18  19
ENDBRANCH  17  18
ENDBRANCH   1  17
TORSDOF 26
ENDMDL
MODEL 7
REMARK VINA RESULT:    -4.870      1.766      4.694
REMARK INTER + INTRA:         -16.904
REMARK INTER:                 -13.544
REMARK INTRA:                  -3.360
REMARK UNBOUND:                -4.633
REMARK SMILES CCCCCCCCCCCCCCCCCCCCCCCCCCCC(=O)[O-]
REMARK SMILES IDX 15 1 16 2 17 3 18 4 19 5 20 6 21 7 22 8 23 9 24 10 25 11
REMARK SMILES IDX 26 12 27 13 28 14 29 15 30 16 14 17 13 18 12 19 11 20 10 21
REMARK SMILES IDX 9 22 8 23 7 24 6 25 5 26 4 27 3 28 2 29 1 30
REMARK H PARENT
REMARK Flexibility Score: inf
ROOT
ATOM      1  C   UNL     1      17.966 -22.445 -28.410  1.00  0.00     0.000 C 
ENDROOT
BRANCH   1   2
ATOM      2  C   UNL     1      17.326 -23.477 -29.354  1.00  0.00     0.000 C 
BRANCH   2   3
ATOM      3  C   UNL     1      15.822 -23.665 -29.097  1.00  0.00     0.000 C 
BRANCH   3   4
ATOM      4  C   UNL     1      15.281 -22.997 -27.818  1.00  0.00     0.000 C 
BRANCH   4   5
ATOM      5  C   UNL     1      13.765 -23.183 -27.604  1.00  0.00     0.000 C 
BRANCH   5   6
ATOM      6  C   UNL     1      12.986 -21.857 -27.687  1.00  0.00     0.000 C 
BRANCH   6   7
ATOM      7  C   UNL     1      11.899 -21.742 -26.606  1.00  0.00     0.000 C 
BRANCH   7   8
ATOM      8  C   UNL     1      11.788 -20.322 -26.025  1.00  0.00     0.000 C 
BRANCH   8   9
ATOM      9  C   UNL     1      12.927 -19.400 -26.484  1.00  0.00     0.000 C 
BRANCH   9  10
ATOM     10  C   UNL     1      12.414 -18.076 -27.081  1.00  0.00     0.000 C 
BRANCH  10  11
ATOM     11  C   UNL     1      11.973 -18.236 -28.551  1.00  0.00     0.000 C 
BRANCH  11  12
ATOM     12  C   UNL     1      10.453 -18.103 -28.750  1.00  0.00     0.006 C 
BRANCH  12  13
ATOM     13  C   UNL     1       9.706 -17.776 -27.451  1.00  0.00     0.053 C 
BRANCH  13  14
ATOM     14  C   UNL     1       8.276 -17.449 -27.736  1.00  0.00     0.041 C 
ATOM     15  O   UNL     1       7.879 -17.334 -28.927  1.00  0.00    -0.550 OA
ATOM     16  O   UNL     1       7.369 -17.307 -26.693  1.00  0.00    -0.550 OA
ENDBRANCH  13  14
ENDBRANCH  12  13
ENDBRANCH  11  12
ENDBRANCH  10  11
ENDBRANCH   9  10
ENDBRANCH   8   9
ENDBRANCH   7   8
ENDBRANCH   6   7
ENDBRANCH   5   6
ENDBRANCH   4   5
ENDBRANCH   3   4
ENDBRANCH   2   3
ENDBRANCH   1   2
BRANCH   1  17
ATOM     17  C   UNL     1      19.223 -21.786 -29.005  1.00  0.00     0.000 C 
BRANCH  17  18
ATOM     18  C   UNL     1      19.391 -20.283 -28.696  1.00  0.00     0.000 C 
BRANCH  18  19
ATOM     19  C   UNL     1      20.584 -19.925 -27.792  1.00  0.00     0.000 C 
BRANCH  19  20
ATOM     20  C   UNL     1      20.158 -19.258 -26.473  1.00  0.00     0.000 C 
BRANCH  20  21
ATOM     21  C   UNL     1      20.699 -19.997 -25.238  1.00  0.00     0.000 C 
BRANCH  21  22
ATOM     22  C   UNL     1      20.344 -21.495 -25.235  1.00  0.00    -0.000 C 
BRANCH  22  23
ATOM     23  C   UNL     1      18.828 -21.737 -25.068  1.00  0.00    -0.000 C 
BRANCH  23  24
ATOM     24  C   UNL     1      18.483 -23.002 -24.257  1.00  0.00    -0.000 C 
BRANCH  24  25
ATOM     25  C   UNL     1      17.730 -24.093 -25.038  1.00  0.00    -0.000 C 
BRANCH  25  26
ATOM     26  C   UNL     1      18.632 -25.117 -25.758  1.00  0.00    -0.000 C 
BRANCH  26  27
ATOM     27  C   UNL     1      17.882 -25.995 -26.783  1.00  0.00    -0.000 C 
BRANCH  27  28
ATOM     28  C   UNL     1      18.830 -26.637 -27.807  1.00  0.00    -0.000 C 
BRANCH  28  29
ATOM     29  C   UNL     1      18.044 -27.415 -28.868  1.00  0.00    -0.003 C 
ATOM     30  C   UNL     1      16.694 -27.875 -28.328  1.00  0.00     0.004 C 
ENDBRANCH  28  29
ENDBRANCH  27  28
ENDBRANCH  26  27
ENDBRANCH  25  26
ENDBRANCH  24  25
ENDBRANCH  23  24
ENDBRANCH  22  23
ENDBRANCH  21  22
ENDBRANCH  20  21
ENDBRANCH  19  20
ENDBRANCH  18  19
ENDBRANCH  17  18
ENDBRANCH   1  17
TORSDOF 26
ENDMDL
MODEL 8
REMARK VINA RESULT:    -4.802      1.905      2.395
REMARK INTER + INTRA:         -16.735
REMARK INTER:                 -11.647
REMARK INTRA:                  -5.088
REMARK UNBOUND:                -4.633
REMARK SMILES CCCCCCCCCCCCCCCCCCCCCCCCCCCC(=O)[O-]
REMARK SMILES IDX 15 1 16 2 17 3 18 4 19 5 20 6 21 7 22 8 23 9 24 10 25 11
REMARK SMILES IDX 26 12 27 13 28 14 29 15 30 16 14 17 13 18 12 19 11 20 10 21
REMARK SMILES IDX 9 22 8 23 7 24 6 25 5 26 4 27 3 28 2 29 1 30
REMARK H PARENT
REMARK Flexibility Score: inf
ROOT
ATOM      1  C   UNL     1      18.614 -26.301 -27.592  1.00  0.00     0.000 C 
ENDROOT
BRANCH   1   2
ATOM      2  C   UNL     1      18.167 -27.492 -28.455  1.00  0.00     0.000 C 
BRANCH   2   3
ATOM      3  C   UNL     1      16.650 -27.505 -28.710  1.00  0.00     0.000 C 
BRANCH   3   4
ATOM      4  C   UNL     1      16.228 -27.411 -30.189  1.00  0.00     0.000 C 
BRANCH   4   5
ATOM      5  C   UNL     1      17.409 -27.415 -31.182  1.00  0.00     0.000 C 
BRANCH   5   6
ATOM      6  C   UNL     1      17.494 -26.120 -32.010  1.00  0.00     0.000 C 
BRANCH   6   7
ATOM      7  C   UNL     1      18.206 -24.983 -31.257  1.00  0.00     0.000 C 
BRANCH   7   8
ATOM      8  C   UNL     1      17.273 -23.799 -30.951  1.00  0.00     0.000 C 
BRANCH   8   9
ATOM      9  C   UNL     1      17.077 -23.569 -29.444  1.00  0.00     0.000 C 
BRANCH   9  10
ATOM     10  C   UNL     1      15.591 -23.498 -29.045  1.00  0.00     0.000 C 
BRANCH  10  11
ATOM     11  C   UNL     1      15.404 -22.984 -27.602  1.00  0.00     0.000 C 
BRANCH  11  12
ATOM     12  C   UNL     1      13.928 -22.784 -27.213  1.00  0.00     0.006 C 
BRANCH  12  13
ATOM     13  C   UNL     1      12.977 -22.859 -28.414  1.00  0.00     0.053 C 
BRANCH  13  14
ATOM     14  C   UNL     1      11.925 -23.895 -28.187  1.00  0.00     0.041 C 
ATOM     15  O   UNL     1      12.119 -25.084 -28.557  1.00  0.00    -0.550 OA
ATOM     16  O   UNL     1      10.745 -23.563 -27.533  1.00  0.00    -0.550 OA
ENDBRANCH  13  14
ENDBRANCH  12  13
ENDBRANCH  11  12
ENDBRANCH  10  11
ENDBRANCH   9  10
ENDBRANCH   8   9
ENDBRANCH   7   8
ENDBRANCH   6   7
ENDBRANCH   5   6
ENDBRANCH   4   5
ENDBRANCH   3   4
ENDBRANCH   2   3
ENDBRANCH   1   2
BRANCH   1  17
ATOM     17  C   UNL     1      17.494 -25.764 -26.684  1.00  0.00     0.000 C 
BRANCH  17  18
ATOM     18  C   UNL     1      17.968 -25.053 -25.399  1.00  0.00     0.000 C 
BRANCH  18  19
ATOM     19  C   UNL     1      16.848 -24.534 -24.480  1.00  0.00     0.000 C 
BRANCH  19  20
ATOM     20  C   UNL     1      17.383 -23.855 -23.207  1.00  0.00     0.000 C 
BRANCH  20  21
ATOM     21  C   UNL     1      18.895 -24.061 -23.021  1.00  0.00     0.000 C 
BRANCH  21  22
ATOM     22  C   UNL     1      19.664 -22.735 -22.882  1.00  0.00    -0.000 C 
BRANCH  22  23
ATOM     23  C   UNL     1      20.396 -22.344 -24.185  1.00  0.00    -0.000 C 
BRANCH  23  24
ATOM     24  C   UNL     1      19.819 -21.091 -24.874  1.00  0.00    -0.000 C 
BRANCH  24  25
ATOM     25  C   UNL     1      18.540 -21.328 -25.695  1.00  0.00    -0.000 C 
BRANCH  25  26
ATOM     26  C   UNL     1      18.766 -21.526 -27.208  1.00  0.00    -0.000 C 
BRANCH  26  27
ATOM     27  C   UNL     1      20.236 -21.801 -27.588  1.00  0.00    -0.000 C 
BRANCH  27  28
ATOM     28  C   UNL     1      20.492 -23.283 -27.902  1.00  0.00    -0.000 C 
BRANCH  28  29
ATOM     29  C   UNL     1      21.290 -23.438 -29.201  1.00  0.00    -0.003 C 
ATOM     30  C   UNL     1      20.787 -22.480 -30.276  1.00  0.00     0.004 C 
ENDBRANCH  28  29
ENDBRANCH  27  28
ENDBRANCH  26  27
ENDBRANCH  25  26
ENDBRANCH  24  25
ENDBRANCH  23  24
ENDBRANCH  22  23
ENDBRANCH  21  22
ENDBRANCH  20  21
ENDBRANCH  19  20
ENDBRANCH  18  19
ENDBRANCH  17  18
ENDBRANCH   1  17
TORSDOF 26
ENDMDL
MODEL 9
REMARK VINA RESULT:    -4.778      1.507      3.737
REMARK INTER + INTRA:         -16.674
REMARK INTER:                 -12.829
REMARK INTRA:                  -3.845
REMARK UNBOUND:                -4.633
REMARK SMILES CCCCCCCCCCCCCCCCCCCCCCCCCCCC(=O)[O-]
REMARK SMILES IDX 15 1 16 2 17 3 18 4 19 5 20 6 21 7 22 8 23 9 24 10 25 11
REMARK SMILES IDX 26 12 27 13 28 14 29 15 30 16 14 17 13 18 12 19 11 20 10 21
REMARK SMILES IDX 9 22 8 23 7 24 6 25 5 26 4 27 3 28 2 29 1 30
REMARK H PARENT
REMARK Flexibility Score: inf
ROOT
ATOM      1  C   UNL     1      18.490 -22.988 -23.940  1.00  0.00     0.000 C 
ENDROOT
BRANCH   1   2
ATOM      2  C   UNL     1      17.787 -24.336 -24.171  1.00  0.00     0.000 C 
BRANCH   2   3
ATOM      3  C   UNL     1      16.514 -24.203 -25.023  1.00  0.00     0.000 C 
BRANCH   3   4
ATOM      4  C   UNL     1      16.730 -23.691 -26.459  1.00  0.00     0.000 C 
BRANCH   4   5
ATOM      5  C   UNL     1      15.552 -22.868 -27.019  1.00  0.00     0.000 C 
BRANCH   5   6
ATOM      6  C   UNL     1      15.366 -23.051 -28.536  1.00  0.00     0.000 C 
BRANCH   6   7
ATOM      7  C   UNL     1      14.195 -23.988 -28.879  1.00  0.00     0.000 C 
BRANCH   7   8
ATOM      8  C   UNL     1      12.897 -23.608 -28.147  1.00  0.00     0.000 C 
BRANCH   8   9
ATOM      9  C   UNL     1      11.961 -22.743 -29.005  1.00  0.00     0.000 C 
BRANCH   9  10
ATOM     10  C   UNL     1      12.130 -21.237 -28.732  1.00  0.00     0.000 C 
BRANCH  10  11
ATOM     11  C   UNL     1      12.512 -20.954 -27.264  1.00  0.00     0.000 C 
BRANCH  11  12
ATOM     12  C   UNL     1      11.854 -19.683 -26.698  1.00  0.00     0.006 C 
BRANCH  12  13
ATOM     13  C   UNL     1      11.808 -18.531 -27.709  1.00  0.00     0.053 C 
BRANCH  13  14
ATOM     14  C   UNL     1      10.394 -18.198 -28.061  1.00  0.00     0.041 C 
ATOM     15  O   UNL     1       9.982 -18.360 -29.241  1.00  0.00    -0.550 OA
ATOM     16  O   UNL     1       9.517 -17.745 -27.083  1.00  0.00    -0.550 OA
ENDBRANCH  13  14
ENDBRANCH  12  13
ENDBRANCH  11  12
ENDBRANCH  10  11
ENDBRANCH   9  10
ENDBRANCH   8   9
ENDBRANCH   7   8
ENDBRANCH   6   7
ENDBRANCH   5   6
ENDBRANCH   4   5
ENDBRANCH   3   4
ENDBRANCH   2   3
ENDBRANCH   1   2
BRANCH   1  17
ATOM     17  C   UNL     1      19.937 -22.968 -24.465  1.00  0.00     0.000 C 
BRANCH  17  18
ATOM     18  C   UNL     1      20.268 -21.825 -25.448  1.00  0.00     0.000 C 
BRANCH  18  19
ATOM     19  C   UNL     1      19.253 -20.669 -25.482  1.00  0.00     0.000 C 
BRANCH  19  20
ATOM     20  C   UNL     1      19.896 -19.316 -25.832  1.00  0.00     0.000 C 
BRANCH  20  21
ATOM     21  C   UNL     1      20.897 -19.423 -26.994  1.00  0.00     0.000 C 
BRANCH  21  22
ATOM     22  C   UNL     1      20.293 -18.993 -28.343  1.00  0.00    -0.000 C 
BRANCH  22  23
ATOM     23  C   UNL     1      20.255 -20.151 -29.363  1.00  0.00    -0.000 C 
BRANCH  23  24
ATOM     24  C   UNL     1      18.874 -20.826 -29.491  1.00  0.00    -0.000 C 
BRANCH  24  25
ATOM     25  C   UNL     1      18.772 -22.228 -28.867  1.00  0.00    -0.000 C 
BRANCH  25  26
ATOM     26  C   UNL     1      20.091 -23.026 -28.838  1.00  0.00    -0.000 C 
BRANCH  26  27
ATOM     27  C   UNL     1      20.065 -24.306 -29.701  1.00  0.00    -0.000 C 
BRANCH  27  28
ATOM     28  C   UNL     1      18.660 -24.622 -30.236  1.00  0.00    -0.000 C 
BRANCH  28  29
ATOM     29  C   UNL     1      18.249 -26.055 -29.882  1.00  0.00    -0.003 C 
ATOM     30  C   UNL     1      18.321 -26.294 -28.377  1.00  0.00     0.004 C 
ENDBRANCH  28  29
ENDBRANCH  27  28
ENDBRANCH  26  27
ENDBRANCH  25  26
ENDBRANCH  24  25
ENDBRANCH  23  24
ENDBRANCH  22  23
ENDBRANCH  21  22
ENDBRANCH  20  21
ENDBRANCH  19  20
ENDBRANCH  18  19
ENDBRANCH  17  18
ENDBRANCH   1  17
TORSDOF 26
ENDMDL
