MODEL 1
REMARK VINA RESULT:    -2.584      0.000      0.000
REMARK INTER + INTRA:          -3.258
REMARK INTER:                  -3.113
REMARK INTRA:                  -0.145
REMARK UNBOUND:                -0.145
REMARK SMILES O=c1c(O)c(-c2ccc(O)cc2O)oc2cc(O)cc(O)c12
REMARK SMILES IDX 5 1 3 2 2 3 1 4 22 5 20 6 19 7 17 8 16 9 15 10 14 11 6 12
REMARK SMILES IDX 8 13 7 14 9 15 11 16 12 17 10 18 13 20 4 22 21 24 18 26
REMARK H PARENT 10 19 13 21 4 23 21 25 18 27
REMARK Flexibility Score: inf
ROOT
ATOM      1  C   UNL     1      48.232   6.280  67.554  1.00  0.00     0.184 A 
ATOM      2  C   UNL     1      47.853   5.030  67.037  1.00  0.00     0.208 A 
ATOM      3  C   UNL     1      46.673   4.429  67.505  1.00  0.00     0.238 A 
ATOM      4  O   UNL     1      46.369   3.284  67.081  1.00  0.00    -0.285 OA
ATOM      5  C   UNL     1      45.878   5.096  68.468  1.00  0.00     0.111 A 
ATOM      6  C   UNL     1      44.642   4.599  68.983  1.00  0.00     0.134 A 
ATOM      7  C   UNL     1      44.005   5.282  70.026  1.00  0.00     0.093 A 
ATOM      8  C   UNL     1      44.524   6.479  70.527  1.00  0.00     0.123 A 
ATOM      9  C   UNL     1      45.698   7.002  69.990  1.00  0.00     0.094 A 
ATOM     10  C   UNL     1      46.376   6.324  68.975  1.00  0.00     0.146 A 
ATOM     11  O   UNL     1      47.498   6.852  68.500  1.00  0.00    -0.451 OA
ENDROOT
BRANCH   1  12
ATOM     12  C   UNL     1      49.452   6.980  67.087  1.00  0.00     0.063 A 
ATOM     13  C   UNL     1      51.811   6.937  66.490  1.00  0.00     0.047 A 
ATOM     14  C   UNL     1      50.667   6.285  66.957  1.00  0.00     0.020 A 
ATOM     15  C   UNL     1      51.755   8.290  66.137  1.00  0.00     0.119 A 
ATOM     16  C   UNL     1      50.548   8.987  66.249  1.00  0.00     0.093 A 
ATOM     17  C   UNL     1      49.395   8.340  66.719  1.00  0.00     0.130 A 
BRANCH  15  18
ATOM     18  O   UNL     1      52.889   8.951  65.670  1.00  0.00    -0.508 OA
ATOM     19  H   UNL     1      53.244   9.782  66.130  1.00  0.00     0.293 HD
ENDBRANCH  15  18
BRANCH  17  20
ATOM     20  O   UNL     1      48.200   9.050  66.833  1.00  0.00    -0.507 OA
ATOM     21  H   UNL     1      47.339   8.711  66.419  1.00  0.00     0.293 HD
ENDBRANCH  17  20
ENDBRANCH   1  12
BRANCH   2  22
ATOM     22  O   UNL     1      48.662   4.385  66.097  1.00  0.00    -0.502 OA
ATOM     23  H   UNL     1      49.650   4.587  66.001  1.00  0.00     0.293 HD
ENDBRANCH   2  22
BRANCH   6  24
ATOM     24  O   UNL     1      43.991   3.464  68.490  1.00  0.00    -0.507 OA
ATOM     25  H   UNL     1      43.135   3.480  67.957  1.00  0.00     0.293 HD
ENDBRANCH   6  24
BRANCH   8  26
ATOM     26  O   UNL     1      43.875   7.159  71.555  1.00  0.00    -0.508 OA
ATOM     27  H   UNL     1      43.236   7.922  71.365  1.00  0.00     0.293 HD
ENDBRANCH   8  26
TORSDOF 6
ENDMDL
MODEL 2
REMARK VINA RESULT:    -1.914      1.305      2.875
REMARK INTER + INTRA:          -2.451
REMARK INTER:                  -2.114
REMARK INTRA:                  -0.337
REMARK UNBOUND:                -0.145
REMARK SMILES O=c1c(O)c(-c2ccc(O)cc2O)oc2cc(O)cc(O)c12
REMARK SMILES IDX 5 1 3 2 2 3 1 4 22 5 20 6 19 7 17 8 16 9 15 10 14 11 6 12
REMARK SMILES IDX 8 13 7 14 9 15 11 16 12 17 10 18 13 20 4 22 21 24 18 26
REMARK H PARENT 10 19 13 21 4 23 21 25 18 27
REMARK Flexibility Score: inf
ROOT
ATOM      1  C   UNL     1      47.931   6.402  67.842  1.00  0.00     0.184 A 
ATOM      2  C   UNL     1      47.398   6.737  69.098  1.00  0.00     0.208 A 
ATOM      3  C   UNL     1      46.233   6.087  69.538  1.00  0.00     0.238 A 
ATOM      4  O   UNL     1      45.728   6.433  70.638  1.00  0.00    -0.285 OA
ATOM      5  C   UNL     1      45.629   5.098  68.726  1.00  0.00     0.111 A 
ATOM      6  C   UNL     1      44.470   4.348  69.089  1.00  0.00     0.134 A 
ATOM      7  C   UNL     1      43.885   3.485  68.154  1.00  0.00     0.093 A 
ATOM      8  C   UNL     1      44.455   3.296  66.892  1.00  0.00     0.123 A 
ATOM      9  C   UNL     1      45.620   3.979  66.550  1.00  0.00     0.094 A 
ATOM     10  C   UNL     1      46.206   4.875  67.448  1.00  0.00     0.146 A 
ATOM     11  O   UNL     1      47.309   5.514  67.078  1.00  0.00    -0.451 OA
ENDROOT
BRANCH   1  12
ATOM     12  C   UNL     1      49.171   7.031  67.328  1.00  0.00     0.063 A 
ATOM     13  C   UNL     1      51.532   6.883  66.758  1.00  0.00     0.047 A 
ATOM     14  C   UNL     1      50.370   6.299  67.270  1.00  0.00     0.020 A 
ATOM     15  C   UNL     1      51.510   8.200  66.289  1.00  0.00     0.119 A 
ATOM     16  C   UNL     1      50.319   8.932  66.328  1.00  0.00     0.093 A 
ATOM     17  C   UNL     1      49.148   8.355  66.842  1.00  0.00     0.130 A 
BRANCH  15  18
ATOM     18  O   UNL     1      52.663   8.792  65.776  1.00  0.00    -0.508 OA
ATOM     19  H   UNL     1      52.615   9.551  65.105  1.00  0.00     0.293 HD
ENDBRANCH  15  18
BRANCH  17  20
ATOM     20  O   UNL     1      47.969   9.098  66.883  1.00  0.00    -0.507 OA
ATOM     21  H   UNL     1      47.352   9.074  67.686  1.00  0.00     0.293 HD
ENDBRANCH  17  20
ENDBRANCH   1  12
BRANCH   2  22
ATOM     22  O   UNL     1      48.004   7.727  69.876  1.00  0.00    -0.502 OA
ATOM     23  H   UNL     1      48.931   8.083  69.678  1.00  0.00     0.293 HD
ENDBRANCH   2  22
BRANCH   6  24
ATOM     24  O   UNL     1      43.876   4.392  70.354  1.00  0.00    -0.507 OA
ATOM     25  H   UNL     1      43.542   3.586  70.859  1.00  0.00     0.293 HD
ENDBRANCH   6  24
BRANCH   8  26
ATOM     26  O   UNL     1      43.875   2.425  65.973  1.00  0.00    -0.508 OA
ATOM     27  H   UNL     1      43.634   1.473  66.225  1.00  0.00     0.293 HD
ENDBRANCH   8  26
TORSDOF 6
ENDMDL
MODEL 3
REMARK VINA RESULT:    -1.417      1.612      3.183
REMARK INTER + INTRA:          -1.853
REMARK INTER:                  -1.630
REMARK INTRA:                  -0.222
REMARK UNBOUND:                -0.145
REMARK SMILES O=c1c(O)c(-c2ccc(O)cc2O)oc2cc(O)cc(O)c12
REMARK SMILES IDX 5 1 3 2 2 3 1 4 22 5 20 6 19 7 17 8 16 9 15 10 14 11 6 12
REMARK SMILES IDX 8 13 7 14 9 15 11 16 12 17 10 18 13 20 4 22 21 24 18 26
REMARK H PARENT 10 19 13 21 4 23 21 25 18 27
REMARK Flexibility Score: inf
ROOT
ATOM      1  C   UNL     1      48.559   6.918  66.865  1.00  0.00     0.184 A 
ATOM      2  C   UNL     1      47.451   7.743  67.123  1.00  0.00     0.208 A 
ATOM      3  C   UNL     1      46.251   7.155  67.556  1.00  0.00     0.238 A 
ATOM      4  O   UNL     1      45.246   7.893  67.729  1.00  0.00    -0.285 OA
ATOM      5  C   UNL     1      46.180   5.754  67.744  1.00  0.00     0.111 A 
ATOM      6  C   UNL     1      45.028   5.057  68.217  1.00  0.00     0.134 A 
ATOM      7  C   UNL     1      45.031   3.657  68.244  1.00  0.00     0.093 A 
ATOM      8  C   UNL     1      46.168   2.931  67.877  1.00  0.00     0.123 A 
ATOM      9  C   UNL     1      47.317   3.605  67.470  1.00  0.00     0.094 A 
ATOM     10  C   UNL     1      47.332   5.000  67.397  1.00  0.00     0.146 A 
ATOM     11  O   UNL     1      48.444   5.602  66.993  1.00  0.00    -0.451 OA
ENDROOT
BRANCH   1  12
ATOM     12  C   UNL     1      49.862   7.474  66.430  1.00  0.00     0.063 A 
ATOM     13  C   UNL     1      51.151   8.917  64.955  1.00  0.00     0.047 A 
ATOM     14  C   UNL     1      49.927   8.371  65.349  1.00  0.00     0.020 A 
ATOM     15  C   UNL     1      52.324   8.585  65.642  1.00  0.00     0.119 A 
ATOM     16  C   UNL     1      52.267   7.706  66.727  1.00  0.00     0.093 A 
ATOM     17  C   UNL     1      51.043   7.150  67.128  1.00  0.00     0.130 A 
BRANCH  15  18
ATOM     18  O   UNL     1      53.550   9.124  65.258  1.00  0.00    -0.508 OA
ATOM     19  H   UNL     1      54.098   8.714  64.510  1.00  0.00     0.293 HD
ENDBRANCH  15  18
BRANCH  17  20
ATOM     20  O   UNL     1      51.002   6.269  68.208  1.00  0.00    -0.507 OA
ATOM     21  H   UNL     1      51.764   6.206  68.873  1.00  0.00     0.293 HD
ENDBRANCH  17  20
ENDBRANCH   1  12
BRANCH   2  22
ATOM     22  O   UNL     1      47.540   9.122  66.917  1.00  0.00    -0.502 OA
ATOM     23  H   UNL     1      47.590   9.531  65.991  1.00  0.00     0.293 HD
ENDBRANCH   2  22
BRANCH   6  24
ATOM     24  O   UNL     1      43.875   5.687  68.695  1.00  0.00    -0.507 OA
ATOM     25  H   UNL     1      43.514   6.562  68.348  1.00  0.00     0.293 HD
ENDBRANCH   6  24
BRANCH   8  26
ATOM     26  O   UNL     1      46.167   1.539  67.920  1.00  0.00    -0.508 OA
ATOM     27  H   UNL     1      45.328   1.016  68.145  1.00  0.00     0.293 HD
ENDBRANCH   8  26
TORSDOF 6
ENDMDL
MODEL 4
REMARK VINA RESULT:    -0.663      1.423      1.750
REMARK INTER + INTRA:          -0.944
REMARK INTER:                  -0.618
REMARK INTRA:                  -0.326
REMARK UNBOUND:                -0.145
REMARK SMILES O=c1c(O)c(-c2ccc(O)cc2O)oc2cc(O)cc(O)c12
REMARK SMILES IDX 5 1 3 2 2 3 1 4 22 5 20 6 19 7 17 8 16 9 15 10 14 11 6 12
REMARK SMILES IDX 8 13 7 14 9 15 11 16 12 17 10 18 13 20 4 22 21 24 18 26
REMARK H PARENT 10 19 13 21 4 23 21 25 18 27
REMARK Flexibility Score: inf
ROOT
ATOM      1  C   UNL     1      48.597   6.836  67.133  1.00  0.00     0.184 A 
ATOM      2  C   UNL     1      48.218   5.485  67.061  1.00  0.00     0.208 A 
ATOM      3  C   UNL     1      46.968   5.100  67.571  1.00  0.00     0.238 A 
ATOM      4  O   UNL     1      46.659   3.880  67.555  1.00  0.00    -0.285 OA
ATOM      5  C   UNL     1      46.104   6.073  68.127  1.00  0.00     0.111 A 
ATOM      6  C   UNL     1      44.798   5.802  68.637  1.00  0.00     0.134 A 
ATOM      7  C   UNL     1      44.083   6.820  69.280  1.00  0.00     0.093 A 
ATOM      8  C   UNL     1      44.600   8.115  69.374  1.00  0.00     0.123 A 
ATOM      9  C   UNL     1      45.848   8.403  68.827  1.00  0.00     0.094 A 
ATOM     10  C   UNL     1      46.601   7.400  68.213  1.00  0.00     0.146 A 
ATOM     11  O   UNL     1      47.791   7.715  67.715  1.00  0.00    -0.451 OA
ENDROOT
BRANCH   1  12
ATOM     12  C   UNL     1      49.891   7.314  66.593  1.00  0.00     0.063 A 
ATOM     13  C   UNL     1      51.158   8.472  64.868  1.00  0.00     0.047 A 
ATOM     14  C   UNL     1      49.942   7.996  65.365  1.00  0.00     0.020 A 
ATOM     15  C   UNL     1      52.337   8.284  65.596  1.00  0.00     0.119 A 
ATOM     16  C   UNL     1      52.296   7.620  66.825  1.00  0.00     0.093 A 
ATOM     17  C   UNL     1      51.079   7.136  67.331  1.00  0.00     0.130 A 
BRANCH  15  18
ATOM     18  O   UNL     1      53.556   8.754  65.110  1.00  0.00    -0.508 OA
ATOM     19  H   UNL     1      53.801   8.675  64.130  1.00  0.00     0.293 HD
ENDBRANCH  15  18
BRANCH  17  20
ATOM     20  O   UNL     1      51.053   6.469  68.555  1.00  0.00    -0.507 OA
ATOM     21  H   UNL     1      50.606   5.565  68.659  1.00  0.00     0.293 HD
ENDBRANCH  17  20
ENDBRANCH   1  12
BRANCH   2  22
ATOM     22  O   UNL     1      49.094   4.539  66.520  1.00  0.00    -0.502 OA
ATOM     23  H   UNL     1      48.956   4.134  65.602  1.00  0.00     0.293 HD
ENDBRANCH   2  22
BRANCH   6  24
ATOM     24  O   UNL     1      44.152   4.568  68.513  1.00  0.00    -0.507 OA
ATOM     25  H   UNL     1      44.366   3.751  69.063  1.00  0.00     0.293 HD
ENDBRANCH   6  24
BRANCH   8  26
ATOM     26  O   UNL     1      43.875   9.125  70.002  1.00  0.00    -0.508 OA
ATOM     27  H   UNL     1      44.281  10.036  70.181  1.00  0.00     0.293 HD
ENDBRANCH   8  26
TORSDOF 6
ENDMDL
