MODEL 1
REMARK VINA RESULT:    -6.897      0.000      0.000
REMARK INTER + INTRA:         -11.430
REMARK INTER:                 -10.122
REMARK INTRA:                  -1.308
REMARK UNBOUND:                -1.308
REMARK SMILES O=c1c(O[C@H]2O[C@H](CO)[C@H](O)[C@H](O)[C@H]2O)c(-c2ccc(O)c(O)c2)oc2cc(O)cc(O)c12
REMARK SMILES IDX 4 1 3 2 16 3 25 4 2 5 26 6 1 7 33 8 27 9 31 10 28 11 30 12
REMARK SMILES IDX 17 13 18 14 19 15 20 16 24 17 22 18 21 19 23 21 32 23 29 25
REMARK SMILES IDX 5 27 14 28 6 29 12 30 7 31 10 32 15 33 13 35 8 37 9 38 11 40
REMARK H PARENT 21 20 23 22 32 24 29 26 15 34 13 36 9 39 11 41
REMARK Flexibility Score: inf
ROOT
ATOM      1  O   UNL     1       0.009 -22.242  26.830  1.00  0.00    -0.454 OA
ENDROOT
BRANCH   1   2
ATOM      2  C   UNL     1       0.671 -23.057  27.759  1.00  0.00     0.214 A 
ATOM      3  C   UNL     1       0.495 -22.840  29.142  1.00  0.00     0.180 A 
ATOM      4  O   UNL     1       1.066 -23.659  30.020  1.00  0.00    -0.452 OA
ATOM      5  C   UNL     1       1.425 -24.172  27.346  1.00  0.00     0.239 A 
ATOM      6  C   UNL     1       1.815 -24.700  29.670  1.00  0.00     0.146 A 
ATOM      7  O   UNL     1       1.514 -24.448  26.119  1.00  0.00    -0.285 OA
ATOM      8  C   UNL     1       2.032 -25.005  28.309  1.00  0.00     0.111 A 
ATOM      9  C   UNL     1       2.364 -25.507  30.670  1.00  0.00     0.094 A 
ATOM     10  C   UNL     1       2.814 -26.135  27.970  1.00  0.00     0.134 A 
ATOM     11  C   UNL     1       3.125 -26.633  30.331  1.00  0.00     0.123 A 
ATOM     12  C   UNL     1       3.349 -26.941  28.984  1.00  0.00     0.093 A 
BRANCH   3  13
ATOM     13  C   UNL     1      -0.351 -21.752  29.672  1.00  0.00     0.025 A 
ATOM     14  C   UNL     1      -1.746 -21.882  29.763  1.00  0.00     0.016 A 
ATOM     15  C   UNL     1      -2.526 -20.828  30.245  1.00  0.00     0.051 A 
ATOM     16  C   UNL     1      -1.924 -19.615  30.607  1.00  0.00     0.157 A 
ATOM     17  C   UNL     1       0.241 -20.526  30.015  1.00  0.00     0.062 A 
ATOM     18  C   UNL     1      -0.535 -19.464  30.486  1.00  0.00     0.158 A 
BRANCH  16  19
ATOM     19  O   UNL     1      -2.705 -18.558  31.072  1.00  0.00    -0.504 OA
ATOM     20  H   UNL     1      -3.146 -17.902  30.437  1.00  0.00     0.293 HD
ENDBRANCH  16  19
BRANCH  18  21
ATOM     21  O   UNL     1       0.094 -18.266  30.828  1.00  0.00    -0.504 OA
ATOM     22  H   UNL     1      -0.122 -17.391  30.363  1.00  0.00     0.293 HD
ENDBRANCH  18  21
ENDBRANCH   3  13
BRANCH  10  23
ATOM     23  O   UNL     1       3.063 -26.469  26.638  1.00  0.00    -0.507 OA
ATOM     24  H   UNL     1       3.445 -27.372  26.379  1.00  0.00     0.293 HD
ENDBRANCH  10  23
BRANCH  11  25
ATOM     25  O   UNL     1       3.658 -27.456  31.322  1.00  0.00    -0.508 OA
ATOM     26  H   UNL     1       3.688 -27.168  32.294  1.00  0.00     0.293 HD
ENDBRANCH  11  25
ENDBRANCH   1   2
BRANCH   1  27
ATOM     27  C   UNL     1       0.493 -20.966  26.394  1.00  0.00     0.339 C 
ATOM     28  C   UNL     1      -0.431 -20.430  25.262  1.00  0.00     0.214 C 
ATOM     29  O   UNL     1       1.857 -21.095  26.012  1.00  0.00    -0.332 OA
ATOM     30  C   UNL     1       0.195 -20.693  23.885  1.00  0.00     0.180 C 
ATOM     31  C   UNL     1       2.325 -20.045  25.182  1.00  0.00     0.179 C 
ATOM     32  C   UNL     1       1.621 -20.090  23.795  1.00  0.00     0.177 C 
BRANCH  28  33
ATOM     33  O   UNL     1      -1.695 -21.042  25.340  1.00  0.00    -0.384 OA
ATOM     34  H   UNL     1      -1.967 -21.024  26.295  1.00  0.00     0.211 HD
ENDBRANCH  28  33
BRANCH  30  35
ATOM     35  O   UNL     1      -0.630 -20.172  22.875  1.00  0.00    -0.387 OA
ATOM     36  H   UNL     1      -0.501 -19.186  22.876  1.00  0.00     0.211 HD
ENDBRANCH  30  35
BRANCH  31  37
ATOM     37  C   UNL     1       2.302 -18.653  25.884  1.00  0.00     0.191 C 
BRANCH  37  38
ATOM     38  O   UNL     1       3.106 -17.716  25.221  1.00  0.00    -0.394 OA
ATOM     39  H   UNL     1       3.012 -16.850  25.696  1.00  0.00     0.210 HD
ENDBRANCH  37  38
ENDBRANCH  31  37
BRANCH  32  40
ATOM     40  O   UNL     1       1.585 -18.810  23.214  1.00  0.00    -0.387 OA
ATOM     41  H   UNL     1       0.639 -18.632  22.954  1.00  0.00     0.211 HD
ENDBRANCH  32  40
ENDBRANCH   1  27
TORSDOF 12
ENDMDL
MODEL 2
REMARK VINA RESULT:    -6.837      2.710      5.563
REMARK INTER + INTRA:         -11.343
REMARK INTER:                  -9.951
REMARK INTRA:                  -1.392
REMARK UNBOUND:                -1.308
REMARK SMILES O=c1c(O[C@H]2O[C@H](CO)[C@H](O)[C@H](O)[C@H]2O)c(-c2ccc(O)c(O)c2)oc2cc(O)cc(O)c12
REMARK SMILES IDX 4 1 3 2 16 3 25 4 2 5 26 6 1 7 33 8 27 9 31 10 28 11 30 12
REMARK SMILES IDX 17 13 18 14 19 15 20 16 24 17 22 18 21 19 23 21 32 23 29 25
REMARK SMILES IDX 5 27 14 28 6 29 12 30 7 31 10 32 15 33 13 35 8 37 9 38 11 40
REMARK H PARENT 21 20 23 22 32 24 29 26 15 34 13 36 9 39 11 41
REMARK Flexibility Score: inf
ROOT
ATOM      1  O   UNL     1       1.211 -20.630  28.444  1.00  0.00    -0.454 OA
ENDROOT
BRANCH   1   2
ATOM      2  C   UNL     1       0.591 -21.842  28.781  1.00  0.00     0.214 A 
ATOM      3  C   UNL     1       0.672 -22.945  27.906  1.00  0.00     0.180 A 
ATOM      4  O   UNL     1       0.146 -24.114  28.261  1.00  0.00    -0.452 OA
ATOM      5  C   UNL     1      -0.020 -22.024  30.036  1.00  0.00     0.239 A 
ATOM      6  C   UNL     1      -0.471 -24.316  29.420  1.00  0.00     0.146 A 
ATOM      7  O   UNL     1      -0.017 -21.086  30.878  1.00  0.00    -0.285 OA
ATOM      8  C   UNL     1      -0.585 -23.274  30.366  1.00  0.00     0.111 A 
ATOM      9  C   UNL     1      -0.984 -25.585  29.704  1.00  0.00     0.094 A 
ATOM     10  C   UNL     1      -1.226 -23.530  31.602  1.00  0.00     0.134 A 
ATOM     11  C   UNL     1      -1.604 -25.838  30.933  1.00  0.00     0.123 A 
ATOM     12  C   UNL     1      -1.726 -24.810  31.876  1.00  0.00     0.093 A 
BRANCH   3  13
ATOM     13  C   UNL     1       1.372 -22.877  26.607  1.00  0.00     0.025 A 
ATOM     14  C   UNL     1       2.774 -22.847  26.526  1.00  0.00     0.016 A 
ATOM     15  C   UNL     1       3.410 -22.758  25.286  1.00  0.00     0.051 A 
ATOM     16  C   UNL     1       2.651 -22.658  24.111  1.00  0.00     0.157 A 
ATOM     17  C   UNL     1       0.620 -22.754  25.427  1.00  0.00     0.062 A 
ATOM     18  C   UNL     1       1.251 -22.651  24.185  1.00  0.00     0.158 A 
BRANCH  16  19
ATOM     19  O   UNL     1       3.287 -22.551  22.875  1.00  0.00    -0.504 OA
ATOM     20  H   UNL     1       4.066 -23.151  22.623  1.00  0.00     0.293 HD
ENDBRANCH  16  19
BRANCH  18  21
ATOM     21  O   UNL     1       0.468 -22.542  23.035  1.00  0.00    -0.504 OA
ATOM     22  H   UNL     1       0.686 -21.886  22.294  1.00  0.00     0.293 HD
ENDBRANCH  18  21
ENDBRANCH   3  13
BRANCH  10  23
ATOM     23  O   UNL     1      -1.370 -22.527  32.563  1.00  0.00    -0.507 OA
ATOM     24  H   UNL     1      -2.087 -21.815  32.483  1.00  0.00     0.293 HD
ENDBRANCH  10  23
BRANCH  11  25
ATOM     25  O   UNL     1      -2.098 -27.107  31.233  1.00  0.00    -0.508 OA
ATOM     26  H   UNL     1      -2.520 -27.696  30.523  1.00  0.00     0.293 HD
ENDBRANCH  11  25
ENDBRANCH   1   2
BRANCH   1  27
ATOM     27  C   UNL     1       0.585 -19.596  27.674  1.00  0.00     0.339 C 
ATOM     28  C   UNL     1       0.217 -18.413  28.616  1.00  0.00     0.214 C 
ATOM     29  O   UNL     1      -0.526 -20.146  26.979  1.00  0.00    -0.332 OA
ATOM     30  C   UNL     1      -1.267 -18.474  29.004  1.00  0.00     0.180 C 
ATOM     31  C   UNL     1      -1.463 -19.179  26.533  1.00  0.00     0.179 C 
ATOM     32  C   UNL     1      -2.172 -18.508  27.744  1.00  0.00     0.177 C 
BRANCH  28  33
ATOM     33  O   UNL     1       1.017 -18.448  29.773  1.00  0.00    -0.384 OA
ATOM     34  H   UNL     1       1.503 -17.582  29.814  1.00  0.00     0.211 HD
ENDBRANCH  28  33
BRANCH  30  35
ATOM     35  O   UNL     1      -1.595 -17.381  29.823  1.00  0.00    -0.387 OA
ATOM     36  H   UNL     1      -2.196 -16.793  29.292  1.00  0.00     0.211 HD
ENDBRANCH  30  35
BRANCH  31  37
ATOM     37  C   UNL     1      -0.869 -18.187  25.489  1.00  0.00     0.191 C 
BRANCH  37  38
ATOM     38  O   UNL     1      -0.558 -18.822  24.278  1.00  0.00    -0.394 OA
ATOM     39  H   UNL     1      -0.240 -18.126  23.647  1.00  0.00     0.210 HD
ENDBRANCH  37  38
ENDBRANCH  31  37
BRANCH  32  40
ATOM     40  O   UNL     1      -2.611 -17.214  27.410  1.00  0.00    -0.387 OA
ATOM     41  H   UNL     1      -2.905 -17.241  26.457  1.00  0.00     0.211 HD
ENDBRANCH  32  40
ENDBRANCH   1  27
TORSDOF 12
ENDMDL
MODEL 3
REMARK VINA RESULT:    -6.791      1.749      6.810
REMARK INTER + INTRA:         -11.274
REMARK INTER:                 -10.064
REMARK INTRA:                  -1.211
REMARK UNBOUND:                -1.308
REMARK SMILES O=c1c(O[C@H]2O[C@H](CO)[C@H](O)[C@H](O)[C@H]2O)c(-c2ccc(O)c(O)c2)oc2cc(O)cc(O)c12
REMARK SMILES IDX 4 1 3 2 16 3 25 4 2 5 26 6 1 7 33 8 27 9 31 10 28 11 30 12
REMARK SMILES IDX 17 13 18 14 19 15 20 16 24 17 22 18 21 19 23 21 32 23 29 25
REMARK SMILES IDX 5 27 14 28 6 29 12 30 7 31 10 32 15 33 13 35 8 37 9 38 11 40
REMARK H PARENT 21 20 23 22 32 24 29 26 15 34 13 36 9 39 11 41
REMARK Flexibility Score: inf
ROOT
ATOM      1  O   UNL     1       2.008 -22.986  29.037  1.00  0.00    -0.454 OA
ENDROOT
BRANCH   1   2
ATOM      2  C   UNL     1       1.294 -22.404  27.979  1.00  0.00     0.214 A 
ATOM      3  C   UNL     1      -0.068 -22.077  28.142  1.00  0.00     0.180 A 
ATOM      4  O   UNL     1      -0.723 -21.459  27.163  1.00  0.00    -0.452 OA
ATOM      5  C   UNL     1       1.937 -22.027  26.785  1.00  0.00     0.239 A 
ATOM      6  C   UNL     1      -0.162 -21.120  26.007  1.00  0.00     0.146 A 
ATOM      7  O   UNL     1       3.177 -22.215  26.654  1.00  0.00    -0.285 OA
ATOM      8  C   UNL     1       1.202 -21.392  25.763  1.00  0.00     0.111 A 
ATOM      9  C   UNL     1      -0.934 -20.465  25.044  1.00  0.00     0.094 A 
ATOM     10  C   UNL     1       1.776 -20.996  24.531  1.00  0.00     0.134 A 
ATOM     11  C   UNL     1      -0.359 -20.061  23.833  1.00  0.00     0.123 A 
ATOM     12  C   UNL     1       0.991 -20.330  23.579  1.00  0.00     0.093 A 
BRANCH   3  13
ATOM     13  C   UNL     1      -0.805 -22.349  29.392  1.00  0.00     0.025 A 
ATOM     14  C   UNL     1      -1.299 -23.629  29.693  1.00  0.00     0.016 A 
ATOM     15  C   UNL     1      -2.014 -23.853  30.870  1.00  0.00     0.051 A 
ATOM     16  C   UNL     1      -2.279 -22.791  31.748  1.00  0.00     0.157 A 
ATOM     17  C   UNL     1      -1.094 -21.287  30.264  1.00  0.00     0.062 A 
ATOM     18  C   UNL     1      -1.820 -21.503  31.438  1.00  0.00     0.158 A 
BRANCH  16  19
ATOM     19  O   UNL     1      -3.008 -23.013  32.915  1.00  0.00    -0.504 OA
ATOM     20  H   UNL     1      -2.649 -22.748  33.825  1.00  0.00     0.293 HD
ENDBRANCH  16  19
BRANCH  18  21
ATOM     21  O   UNL     1      -2.077 -20.423  32.284  1.00  0.00    -0.504 OA
ATOM     22  H   UNL     1      -2.544 -19.583  31.961  1.00  0.00     0.293 HD
ENDBRANCH  18  21
ENDBRANCH   3  13
BRANCH  10  23
ATOM     23  O   UNL     1       3.117 -21.253  24.242  1.00  0.00    -0.507 OA
ATOM     24  H   UNL     1       3.866 -20.828  24.777  1.00  0.00     0.293 HD
ENDBRANCH  10  23
BRANCH  11  25
ATOM     25  O   UNL     1      -1.117 -19.387  22.876  1.00  0.00    -0.508 OA
ATOM     26  H   UNL     1      -1.544 -18.488  23.070  1.00  0.00     0.293 HD
ENDBRANCH  11  25
ENDBRANCH   1   2
BRANCH   1  27
ATOM     27  C   UNL     1       1.907 -24.366  29.409  1.00  0.00     0.339 C 
ATOM     28  C   UNL     1       2.179 -24.503  30.936  1.00  0.00     0.214 C 
ATOM     29  O   UNL     1       2.790 -25.129  28.597  1.00  0.00    -0.332 OA
ATOM     30  C   UNL     1       3.625 -24.951  31.188  1.00  0.00     0.180 C 
ATOM     31  C   UNL     1       3.103 -26.406  29.127  1.00  0.00     0.179 C 
ATOM     32  C   UNL     1       3.943 -26.266  30.429  1.00  0.00     0.177 C 
BRANCH  28  33
ATOM     33  O   UNL     1       1.936 -23.277  31.582  1.00  0.00    -0.384 OA
ATOM     34  H   UNL     1       2.306 -22.564  30.997  1.00  0.00     0.211 HD
ENDBRANCH  28  33
BRANCH  30  35
ATOM     35  O   UNL     1       3.845 -25.107  32.567  1.00  0.00    -0.387 OA
ATOM     36  H   UNL     1       3.244 -24.465  33.030  1.00  0.00     0.211 HD
ENDBRANCH  30  35
BRANCH  31  37
ATOM     37  C   UNL     1       1.861 -27.340  29.245  1.00  0.00     0.191 C 
BRANCH  37  38
ATOM     38  O   UNL     1       2.227 -28.680  29.441  1.00  0.00    -0.394 OA
ATOM     39  H   UNL     1       2.972 -28.694  30.097  1.00  0.00     0.210 HD
ENDBRANCH  37  38
ENDBRANCH  31  37
BRANCH  32  40
ATOM     40  O   UNL     1       3.756 -27.382  31.264  1.00  0.00    -0.387 OA
ATOM     41  H   UNL     1       4.257 -28.142  30.855  1.00  0.00     0.211 HD
ENDBRANCH  32  40
ENDBRANCH   1  27
TORSDOF 12
ENDMDL
MODEL 4
REMARK VINA RESULT:    -6.706      2.522      5.477
REMARK INTER + INTRA:         -11.150
REMARK INTER:                  -9.582
REMARK INTRA:                  -1.568
REMARK UNBOUND:                -1.308
REMARK SMILES O=c1c(O[C@H]2O[C@H](CO)[C@H](O)[C@H](O)[C@H]2O)c(-c2ccc(O)c(O)c2)oc2cc(O)cc(O)c12
REMARK SMILES IDX 4 1 3 2 16 3 25 4 2 5 26 6 1 7 33 8 27 9 31 10 28 11 30 12
REMARK SMILES IDX 17 13 18 14 19 15 20 16 24 17 22 18 21 19 23 21 32 23 29 25
REMARK SMILES IDX 5 27 14 28 6 29 12 30 7 31 10 32 15 33 13 35 8 37 9 38 11 40
REMARK H PARENT 21 20 23 22 32 24 29 26 15 34 13 36 9 39 11 41
REMARK Flexibility Score: inf
ROOT
ATOM      1  O   UNL     1      -1.435 -19.741  28.117  1.00  0.00    -0.454 OA
ENDROOT
BRANCH   1   2
ATOM      2  C   UNL     1      -1.162 -21.097  28.351  1.00  0.00     0.214 A 
ATOM      3  C   UNL     1      -0.296 -21.802  27.490  1.00  0.00     0.180 A 
ATOM      4  O   UNL     1       0.018 -23.067  27.756  1.00  0.00    -0.452 OA
ATOM      5  C   UNL     1      -1.643 -21.750  29.501  1.00  0.00     0.239 A 
ATOM      6  C   UNL     1      -0.444 -23.730  28.810  1.00  0.00     0.146 A 
ATOM      7  O   UNL     1      -2.337 -21.114  30.340  1.00  0.00    -0.285 OA
ATOM      8  C   UNL     1      -1.303 -23.099  29.736  1.00  0.00     0.111 A 
ATOM      9  C   UNL     1      -0.047 -25.056  29.006  1.00  0.00     0.094 A 
ATOM     10  C   UNL     1      -1.759 -23.826  30.862  1.00  0.00     0.134 A 
ATOM     11  C   UNL     1      -0.488 -25.766  30.130  1.00  0.00     0.123 A 
ATOM     12  C   UNL     1      -1.344 -25.151  31.051  1.00  0.00     0.093 A 
BRANCH   3  13
ATOM     13  C   UNL     1       0.332 -21.176  26.309  1.00  0.00     0.025 A 
ATOM     14  C   UNL     1       1.692 -20.828  26.295  1.00  0.00     0.016 A 
ATOM     15  C   UNL     1       2.254 -20.214  25.175  1.00  0.00     0.051 A 
ATOM     16  C   UNL     1       1.455 -19.904  24.065  1.00  0.00     0.157 A 
ATOM     17  C   UNL     1      -0.467 -20.841  25.204  1.00  0.00     0.062 A 
ATOM     18  C   UNL     1       0.087 -20.215  24.085  1.00  0.00     0.158 A 
BRANCH  16  19
ATOM     19  O   UNL     1       2.014 -19.275  22.954  1.00  0.00    -0.504 OA
ATOM     20  H   UNL     1       2.901 -18.787  23.008  1.00  0.00     0.293 HD
ENDBRANCH  16  19
BRANCH  18  21
ATOM     21  O   UNL     1      -0.738 -19.910  23.001  1.00  0.00    -0.504 OA
ATOM     22  H   UNL     1      -0.987 -20.599  22.301  1.00  0.00     0.293 HD
ENDBRANCH  18  21
ENDBRANCH   3  13
BRANCH  10  23
ATOM     23  O   UNL     1      -2.618 -23.246  31.798  1.00  0.00    -0.507 OA
ATOM     24  H   UNL     1      -2.431 -23.298  32.793  1.00  0.00     0.293 HD
ENDBRANCH  10  23
BRANCH  11  25
ATOM     25  O   UNL     1      -0.078 -27.082  30.344  1.00  0.00    -0.508 OA
ATOM     26  H   UNL     1       0.568 -27.324  31.087  1.00  0.00     0.293 HD
ENDBRANCH  11  25
ENDBRANCH   1   2
BRANCH   1  27
ATOM     27  C   UNL     1      -0.613 -18.665  28.584  1.00  0.00     0.339 C 
ATOM     28  C   UNL     1      -1.462 -17.733  29.496  1.00  0.00     0.214 C 
ATOM     29  O   UNL     1      -0.037 -18.005  27.463  1.00  0.00    -0.332 OA
ATOM     30  C   UNL     1      -1.940 -16.503  28.714  1.00  0.00     0.180 C 
ATOM     31  C   UNL     1       0.439 -16.700  27.746  1.00  0.00     0.179 C 
ATOM     32  C   UNL     1      -0.745 -15.746  28.077  1.00  0.00     0.177 C 
BRANCH  28  33
ATOM     33  O   UNL     1      -2.568 -18.436  30.009  1.00  0.00    -0.384 OA
ATOM     34  H   UNL     1      -3.298 -18.353  29.341  1.00  0.00     0.211 HD
ENDBRANCH  28  33
BRANCH  30  35
ATOM     35  O   UNL     1      -2.674 -15.652  29.558  1.00  0.00    -0.387 OA
ATOM     36  H   UNL     1      -3.613 -15.661  29.231  1.00  0.00     0.211 HD
ENDBRANCH  30  35
BRANCH  31  37
ATOM     37  C   UNL     1       1.604 -16.684  28.782  1.00  0.00     0.191 C 
BRANCH  37  38
ATOM     38  O   UNL     1       2.425 -15.557  28.633  1.00  0.00    -0.394 OA
ATOM     39  H   UNL     1       1.840 -14.788  28.405  1.00  0.00     0.210 HD
ENDBRANCH  37  38
ENDBRANCH  31  37
BRANCH  32  40
ATOM     40  O   UNL     1      -0.320 -14.695  28.908  1.00  0.00    -0.387 OA
ATOM     41  H   UNL     1      -0.456 -14.992  29.851  1.00  0.00     0.211 HD
ENDBRANCH  32  40
ENDBRANCH   1  27
TORSDOF 12
ENDMDL
MODEL 5
REMARK VINA RESULT:    -6.568      2.863      5.459
REMARK INTER + INTRA:         -10.948
REMARK INTER:                  -9.525
REMARK INTRA:                  -1.423
REMARK UNBOUND:                -1.308
REMARK SMILES O=c1c(O[C@H]2O[C@H](CO)[C@H](O)[C@H](O)[C@H]2O)c(-c2ccc(O)c(O)c2)oc2cc(O)cc(O)c12
REMARK SMILES IDX 4 1 3 2 16 3 25 4 2 5 26 6 1 7 33 8 27 9 31 10 28 11 30 12
REMARK SMILES IDX 17 13 18 14 19 15 20 16 24 17 22 18 21 19 23 21 32 23 29 25
REMARK SMILES IDX 5 27 14 28 6 29 12 30 7 31 10 32 15 33 13 35 8 37 9 38 11 40
REMARK H PARENT 21 20 23 22 32 24 29 26 15 34 13 36 9 39 11 41
REMARK Flexibility Score: inf
ROOT
ATOM      1  O   UNL     1      -1.630 -19.898  29.875  1.00  0.00    -0.454 OA
ENDROOT
BRANCH   1   2
ATOM      2  C   UNL     1      -1.676 -21.300  29.909  1.00  0.00     0.214 A 
ATOM      3  C   UNL     1      -1.311 -22.046  28.769  1.00  0.00     0.180 A 
ATOM      4  O   UNL     1      -1.286 -23.375  28.827  1.00  0.00    -0.452 OA
ATOM      5  C   UNL     1      -1.970 -21.991  31.099  1.00  0.00     0.239 A 
ATOM      6  C   UNL     1      -1.592 -24.066  29.920  1.00  0.00     0.146 A 
ATOM      7  O   UNL     1      -2.200 -21.348  32.158  1.00  0.00    -0.285 OA
ATOM      8  C   UNL     1      -1.952 -23.402  31.113  1.00  0.00     0.111 A 
ATOM      9  C   UNL     1      -1.526 -25.461  29.881  1.00  0.00     0.094 A 
ATOM     10  C   UNL     1      -2.248 -24.167  32.267  1.00  0.00     0.134 A 
ATOM     11  C   UNL     1      -1.805 -26.214  31.028  1.00  0.00     0.123 A 
ATOM     12  C   UNL     1      -2.168 -25.565  32.215  1.00  0.00     0.093 A 
BRANCH   3  13
ATOM     13  C   UNL     1      -0.898 -21.409  27.502  1.00  0.00     0.025 A 
ATOM     14  C   UNL     1      -1.794 -20.648  26.735  1.00  0.00     0.016 A 
ATOM     15  C   UNL     1      -1.385 -20.077  25.528  1.00  0.00     0.051 A 
ATOM     16  C   UNL     1      -0.083 -20.290  25.053  1.00  0.00     0.157 A 
ATOM     17  C   UNL     1       0.397 -21.637  27.009  1.00  0.00     0.062 A 
ATOM     18  C   UNL     1       0.808 -21.079  25.796  1.00  0.00     0.158 A 
BRANCH  16  19
ATOM     19  O   UNL     1       0.319 -19.734  23.840  1.00  0.00    -0.504 OA
ATOM     20  H   UNL     1       1.279 -19.452  23.676  1.00  0.00     0.293 HD
ENDBRANCH  16  19
BRANCH  18  21
ATOM     21  O   UNL     1       2.106 -21.319  25.346  1.00  0.00    -0.504 OA
ATOM     22  H   UNL     1       2.691 -20.584  24.967  1.00  0.00     0.293 HD
ENDBRANCH  18  21
ENDBRANCH   3  13
BRANCH  10  23
ATOM     23  O   UNL     1      -2.620 -23.554  33.465  1.00  0.00    -0.507 OA
ATOM     24  H   UNL     1      -3.492 -23.780  33.928  1.00  0.00     0.293 HD
ENDBRANCH  10  23
BRANCH  11  25
ATOM     25  O   UNL     1      -1.721 -27.605  31.004  1.00  0.00    -0.508 OA
ATOM     26  H   UNL     1      -1.995 -28.170  31.800  1.00  0.00     0.293 HD
ENDBRANCH  11  25
ENDBRANCH   1   2
BRANCH   1  27
ATOM     27  C   UNL     1      -0.521 -19.120  30.341  1.00  0.00     0.339 C 
ATOM     28  C   UNL     1      -0.264 -17.952  29.345  1.00  0.00     0.214 C 
ATOM     29  O   UNL     1       0.599 -19.978  30.525  1.00  0.00    -0.332 OA
ATOM     30  C   UNL     1       0.889 -18.299  28.393  1.00  0.00     0.180 C 
ATOM     31  C   UNL     1       1.843 -19.299  30.568  1.00  0.00     0.179 C 
ATOM     32  C   UNL     1       2.172 -18.673  29.182  1.00  0.00     0.177 C 
BRANCH  28  33
ATOM     33  O   UNL     1      -1.430 -17.680  28.607  1.00  0.00    -0.384 OA
ATOM     34  H   UNL     1      -1.803 -16.830  28.959  1.00  0.00     0.211 HD
ENDBRANCH  28  33
BRANCH  30  35
ATOM     35  O   UNL     1       1.136 -17.223  27.525  1.00  0.00    -0.387 OA
ATOM     36  H   UNL     1       1.739 -16.596  28.006  1.00  0.00     0.211 HD
ENDBRANCH  30  35
BRANCH  31  37
ATOM     37  C   UNL     1       1.965 -18.321  31.775  1.00  0.00     0.191 C 
BRANCH  37  38
ATOM     38  O   UNL     1       2.224 -18.998  32.976  1.00  0.00    -0.394 OA
ATOM     39  H   UNL     1       3.102 -18.684  33.314  1.00  0.00     0.210 HD
ENDBRANCH  37  38
ENDBRANCH  31  37
BRANCH  32  40
ATOM     40  O   UNL     1       3.011 -17.554  29.328  1.00  0.00    -0.387 OA
ATOM     41  H   UNL     1       3.071 -17.357  30.305  1.00  0.00     0.211 HD
ENDBRANCH  32  40
ENDBRANCH   1  27
TORSDOF 12
ENDMDL
MODEL 6
REMARK VINA RESULT:    -6.547      6.472     10.768
REMARK INTER + INTRA:         -10.917
REMARK INTER:                  -9.335
REMARK INTRA:                  -1.582
REMARK UNBOUND:                -1.308
REMARK SMILES O=c1c(O[C@H]2O[C@H](CO)[C@H](O)[C@H](O)[C@H]2O)c(-c2ccc(O)c(O)c2)oc2cc(O)cc(O)c12
REMARK SMILES IDX 4 1 3 2 16 3 25 4 2 5 26 6 1 7 33 8 27 9 31 10 28 11 30 12
REMARK SMILES IDX 17 13 18 14 19 15 20 16 24 17 22 18 21 19 23 21 32 23 29 25
REMARK SMILES IDX 5 27 14 28 6 29 12 30 7 31 10 32 15 33 13 35 8 37 9 38 11 40
REMARK H PARENT 21 20 23 22 32 24 29 26 15 34 13 36 9 39 11 41
REMARK Flexibility Score: inf
ROOT
ATOM      1  O   UNL     1      -2.180 -14.369  26.584  1.00  0.00    -0.454 OA
ENDROOT
BRANCH   1   2
ATOM      2  C   UNL     1      -2.720 -13.691  27.686  1.00  0.00     0.214 A 
ATOM      3  C   UNL     1      -2.168 -12.460  28.099  1.00  0.00     0.180 A 
ATOM      4  O   UNL     1      -2.727 -11.784  29.098  1.00  0.00    -0.452 OA
ATOM      5  C   UNL     1      -3.884 -14.153  28.328  1.00  0.00     0.239 A 
ATOM      6  C   UNL     1      -3.804 -12.204  29.753  1.00  0.00     0.146 A 
ATOM      7  O   UNL     1      -4.457 -15.196  27.913  1.00  0.00    -0.285 OA
ATOM      8  C   UNL     1      -4.435 -13.416  29.398  1.00  0.00     0.111 A 
ATOM      9  C   UNL     1      -4.322 -11.416  30.785  1.00  0.00     0.094 A 
ATOM     10  C   UNL     1      -5.595 -13.823  30.099  1.00  0.00     0.134 A 
ATOM     11  C   UNL     1      -5.478 -11.814  31.466  1.00  0.00     0.123 A 
ATOM     12  C   UNL     1      -6.108 -13.017  31.124  1.00  0.00     0.093 A 
BRANCH   3  13
ATOM     13  C   UNL     1      -1.002 -11.850  27.428  1.00  0.00     0.025 A 
ATOM     14  C   UNL     1       0.313 -12.177  27.794  1.00  0.00     0.016 A 
ATOM     15  C   UNL     1       1.397 -11.566  27.160  1.00  0.00     0.051 A 
ATOM     16  C   UNL     1       1.180 -10.590  26.176  1.00  0.00     0.157 A 
ATOM     17  C   UNL     1      -1.211 -10.856  26.458  1.00  0.00     0.062 A 
ATOM     18  C   UNL     1      -0.131 -10.232  25.830  1.00  0.00     0.158 A 
BRANCH  16  19
ATOM     19  O   UNL     1       2.263  -9.969  25.557  1.00  0.00    -0.504 OA
ATOM     20  H   UNL     1       2.134  -9.224  24.880  1.00  0.00     0.293 HD
ENDBRANCH  16  19
BRANCH  18  21
ATOM     21  O   UNL     1      -0.380  -9.257  24.863  1.00  0.00    -0.504 OA
ATOM     22  H   UNL     1      -1.154  -9.328  24.212  1.00  0.00     0.293 HD
ENDBRANCH  18  21
ENDBRANCH   3  13
BRANCH  10  23
ATOM     23  O   UNL     1      -6.246 -15.018  29.789  1.00  0.00    -0.507 OA
ATOM     24  H   UNL     1      -6.111 -15.856  30.344  1.00  0.00     0.293 HD
ENDBRANCH  10  23
BRANCH  11  25
ATOM     25  O   UNL     1      -6.014 -11.022  32.481  1.00  0.00    -0.508 OA
ATOM     26  H   UNL     1      -5.460 -10.733  33.280  1.00  0.00     0.293 HD
ENDBRANCH  11  25
ENDBRANCH   1   2
BRANCH   1  27
ATOM     27  C   UNL     1      -1.127 -15.337  26.675  1.00  0.00     0.339 C 
ATOM     28  C   UNL     1      -0.234 -15.239  25.404  1.00  0.00     0.214 C 
ATOM     29  O   UNL     1      -1.699 -16.623  26.880  1.00  0.00    -0.332 OA
ATOM     30  C   UNL     1      -0.613 -16.331  24.394  1.00  0.00     0.180 C 
ATOM     31  C   UNL     1      -0.827 -17.697  26.568  1.00  0.00     0.179 C 
ATOM     32  C   UNL     1      -0.538 -17.740  25.040  1.00  0.00     0.177 C 
BRANCH  28  33
ATOM     33  O   UNL     1      -0.372 -13.970  24.812  1.00  0.00    -0.384 OA
ATOM     34  H   UNL     1      -0.406 -14.111  23.830  1.00  0.00     0.211 HD
ENDBRANCH  28  33
BRANCH  30  35
ATOM     35  O   UNL     1       0.225 -16.256  23.269  1.00  0.00    -0.387 OA
ATOM     36  H   UNL     1       0.361 -17.187  22.947  1.00  0.00     0.211 HD
ENDBRANCH  30  35
BRANCH  31  37
ATOM     37  C   UNL     1       0.439 -17.742  27.477  1.00  0.00     0.191 C 
BRANCH  37  38
ATOM     38  O   UNL     1       0.924 -19.047  27.638  1.00  0.00    -0.394 OA
ATOM     39  H   UNL     1       1.349 -19.317  26.784  1.00  0.00     0.210 HD
ENDBRANCH  37  38
ENDBRANCH  31  37
BRANCH  32  40
ATOM     40  O   UNL     1       0.708 -18.340  24.786  1.00  0.00    -0.387 OA
ATOM     41  H   UNL     1       0.669 -19.266  25.156  1.00  0.00     0.211 HD
ENDBRANCH  32  40
ENDBRANCH   1  27
TORSDOF 12
ENDMDL
MODEL 7
REMARK VINA RESULT:    -6.457      2.531      7.981
REMARK INTER + INTRA:         -10.784
REMARK INTER:                  -9.463
REMARK INTRA:                  -1.321
REMARK UNBOUND:                -1.308
REMARK SMILES O=c1c(O[C@H]2O[C@H](CO)[C@H](O)[C@H](O)[C@H]2O)c(-c2ccc(O)c(O)c2)oc2cc(O)cc(O)c12
REMARK SMILES IDX 4 1 3 2 16 3 25 4 2 5 26 6 1 7 33 8 27 9 31 10 28 11 30 12
REMARK SMILES IDX 17 13 18 14 19 15 20 16 24 17 22 18 21 19 23 21 32 23 29 25
REMARK SMILES IDX 5 27 14 28 6 29 12 30 7 31 10 32 15 33 13 35 8 37 9 38 11 40
REMARK H PARENT 21 20 23 22 32 24 29 26 15 34 13 36 9 39 11 41
REMARK Flexibility Score: inf
ROOT
ATOM      1  O   UNL     1      -0.111 -20.948  29.538  1.00  0.00    -0.454 OA
ENDROOT
BRANCH   1   2
ATOM      2  C   UNL     1       0.084 -20.178  28.382  1.00  0.00     0.214 A 
ATOM      3  C   UNL     1       1.001 -20.600  27.397  1.00  0.00     0.180 A 
ATOM      4  O   UNL     1       1.130 -19.906  26.270  1.00  0.00    -0.452 OA
ATOM      5  C   UNL     1      -0.705 -19.042  28.121  1.00  0.00     0.239 A 
ATOM      6  C   UNL     1       0.431 -18.808  26.003  1.00  0.00     0.146 A 
ATOM      7  O   UNL     1      -1.603 -18.701  28.938  1.00  0.00    -0.285 OA
ATOM      8  C   UNL     1      -0.523 -18.321  26.922  1.00  0.00     0.111 A 
ATOM      9  C   UNL     1       0.634 -18.154  24.784  1.00  0.00     0.094 A 
ATOM     10  C   UNL     1      -1.269 -17.163  26.596  1.00  0.00     0.134 A 
ATOM     11  C   UNL     1      -0.117 -17.018  24.459  1.00  0.00     0.123 A 
ATOM     12  C   UNL     1      -1.062 -16.524  25.366  1.00  0.00     0.093 A 
BRANCH   3  13
ATOM     13  C   UNL     1       1.807 -21.829  27.539  1.00  0.00     0.025 A 
ATOM     14  C   UNL     1       2.939 -21.877  28.369  1.00  0.00     0.016 A 
ATOM     15  C   UNL     1       3.698 -23.044  28.466  1.00  0.00     0.051 A 
ATOM     16  C   UNL     1       3.357 -24.172  27.704  1.00  0.00     0.157 A 
ATOM     17  C   UNL     1       1.485 -22.955  26.763  1.00  0.00     0.062 A 
ATOM     18  C   UNL     1       2.248 -24.122  26.846  1.00  0.00     0.158 A 
BRANCH  16  19
ATOM     19  O   UNL     1       4.125 -25.332  27.789  1.00  0.00    -0.504 OA
ATOM     20  H   UNL     1       5.096 -25.350  27.497  1.00  0.00     0.293 HD
ENDBRANCH  16  19
BRANCH  18  21
ATOM     21  O   UNL     1       1.889 -25.223  26.067  1.00  0.00    -0.504 OA
ATOM     22  H   UNL     1       2.573 -25.769  25.556  1.00  0.00     0.293 HD
ENDBRANCH  18  21
ENDBRANCH   3  13
BRANCH  10  23
ATOM     23  O   UNL     1      -2.215 -16.640  27.480  1.00  0.00    -0.507 OA
ATOM     24  H   UNL     1      -2.829 -15.879  27.210  1.00  0.00     0.293 HD
ENDBRANCH  10  23
BRANCH  11  25
ATOM     25  O   UNL     1       0.064 -16.373  23.236  1.00  0.00    -0.508 OA
ATOM     26  H   UNL     1      -0.539 -16.558  22.441  1.00  0.00     0.293 HD
ENDBRANCH  11  25
ENDBRANCH   1   2
BRANCH   1  27
ATOM     27  C   UNL     1      -0.673 -22.266  29.538  1.00  0.00     0.339 C 
ATOM     28  C   UNL     1      -2.012 -22.248  30.331  1.00  0.00     0.214 C 
ATOM     29  O   UNL     1       0.289 -23.178  30.052  1.00  0.00    -0.332 OA
ATOM     30  C   UNL     1      -1.800 -22.768  31.759  1.00  0.00     0.180 C 
ATOM     31  C   UNL     1      -0.263 -24.407  30.498  1.00  0.00     0.179 C 
ATOM     32  C   UNL     1      -1.158 -24.181  31.750  1.00  0.00     0.177 C 
BRANCH  28  33
ATOM     33  O   UNL     1      -2.535 -20.942  30.368  1.00  0.00    -0.384 OA
ATOM     34  H   UNL     1      -3.504 -21.024  30.569  1.00  0.00     0.211 HD
ENDBRANCH  28  33
BRANCH  30  35
ATOM     35  O   UNL     1      -3.022 -22.782  32.452  1.00  0.00    -0.387 OA
ATOM     36  H   UNL     1      -3.738 -22.644  31.776  1.00  0.00     0.211 HD
ENDBRANCH  30  35
BRANCH  31  37
ATOM     37  C   UNL     1      -0.930 -25.229  29.354  1.00  0.00     0.191 C 
BRANCH  37  38
ATOM     38  O   UNL     1       0.019 -25.867  28.543  1.00  0.00    -0.394 OA
ATOM     39  H   UNL     1      -0.470 -26.472  27.928  1.00  0.00     0.210 HD
ENDBRANCH  37  38
ENDBRANCH  31  37
BRANCH  32  40
ATOM     40  O   UNL     1      -2.146 -25.178  31.842  1.00  0.00    -0.387 OA
ATOM     41  H   UNL     1      -2.875 -24.816  32.419  1.00  0.00     0.211 HD
ENDBRANCH  32  40
ENDBRANCH   1  27
TORSDOF 12
ENDMDL
MODEL 8
REMARK VINA RESULT:    -6.400      2.476      6.835
REMARK INTER + INTRA:         -10.701
REMARK INTER:                  -9.132
REMARK INTRA:                  -1.569
REMARK UNBOUND:                -1.308
REMARK SMILES O=c1c(O[C@H]2O[C@H](CO)[C@H](O)[C@H](O)[C@H]2O)c(-c2ccc(O)c(O)c2)oc2cc(O)cc(O)c12
REMARK SMILES IDX 4 1 3 2 16 3 25 4 2 5 26 6 1 7 33 8 27 9 31 10 28 11 30 12
REMARK SMILES IDX 17 13 18 14 19 15 20 16 24 17 22 18 21 19 23 21 32 23 29 25
REMARK SMILES IDX 5 27 14 28 6 29 12 30 7 31 10 32 15 33 13 35 8 37 9 38 11 40
REMARK H PARENT 21 20 23 22 32 24 29 26 15 34 13 36 9 39 11 41
REMARK Flexibility Score: inf
ROOT
ATOM      1  O   UNL     1       1.578 -22.067  29.326  1.00  0.00    -0.454 OA
ENDROOT
BRANCH   1   2
ATOM      2  C   UNL     1       1.256 -21.121  28.342  1.00  0.00     0.214 A 
ATOM      3  C   UNL     1       1.464 -19.747  28.587  1.00  0.00     0.180 A 
ATOM      4  O   UNL     1       1.226 -18.859  27.626  1.00  0.00    -0.452 OA
ATOM      5  C   UNL     1       0.836 -21.517  27.059  1.00  0.00     0.239 A 
ATOM      6  C   UNL     1       0.794 -19.189  26.415  1.00  0.00     0.146 A 
ATOM      7  O   UNL     1       0.741 -22.743  26.780  1.00  0.00    -0.285 OA
ATOM      8  C   UNL     1       0.575 -20.541  26.073  1.00  0.00     0.111 A 
ATOM      9  C   UNL     1       0.583 -18.180  25.471  1.00  0.00     0.094 A 
ATOM     10  C   UNL     1       0.138 -20.862  24.766  1.00  0.00     0.134 A 
ATOM     11  C   UNL     1       0.165 -18.502  24.174  1.00  0.00     0.123 A 
ATOM     12  C   UNL     1      -0.060 -19.840  23.827  1.00  0.00     0.093 A 
BRANCH   3  13
ATOM     13  C   UNL     1       1.990 -19.242  29.872  1.00  0.00     0.025 A 
ATOM     14  C   UNL     1       3.353 -19.327  30.194  1.00  0.00     0.016 A 
ATOM     15  C   UNL     1       3.820 -18.864  31.426  1.00  0.00     0.051 A 
ATOM     16  C   UNL     1       2.923 -18.343  32.369  1.00  0.00     0.157 A 
ATOM     17  C   UNL     1       1.094 -18.740  30.830  1.00  0.00     0.062 A 
ATOM     18  C   UNL     1       1.554 -18.287  32.069  1.00  0.00     0.158 A 
BRANCH  16  19
ATOM     19  O   UNL     1       3.388 -17.897  33.605  1.00  0.00    -0.504 OA
ATOM     20  H   UNL     1       3.898 -17.025  33.699  1.00  0.00     0.293 HD
ENDBRANCH  16  19
BRANCH  18  21
ATOM     21  O   UNL     1       0.634 -17.784  32.990  1.00  0.00    -0.504 OA
ATOM     22  H   UNL     1       0.827 -17.754  33.985  1.00  0.00     0.293 HD
ENDBRANCH  18  21
ENDBRANCH   3  13
BRANCH  10  23
ATOM     23  O   UNL     1      -0.101 -22.184  24.387  1.00  0.00    -0.507 OA
ATOM     24  H   UNL     1      -0.587 -22.832  24.997  1.00  0.00     0.293 HD
ENDBRANCH  10  23
BRANCH  11  25
ATOM     25  O   UNL     1      -0.027 -17.504  23.220  1.00  0.00    -0.508 OA
ATOM     26  H   UNL     1      -0.953 -17.178  22.968  1.00  0.00     0.293 HD
ENDBRANCH  11  25
ENDBRANCH   1   2
BRANCH   1  27
ATOM     27  C   UNL     1       0.646 -22.567  30.293  1.00  0.00     0.339 C 
ATOM     28  C   UNL     1       0.763 -24.118  30.358  1.00  0.00     0.214 C 
ATOM     29  O   UNL     1      -0.657 -22.101  29.962  1.00  0.00    -0.332 OA
ATOM     30  C   UNL     1      -0.349 -24.777  29.531  1.00  0.00     0.180 C 
ATOM     31  C   UNL     1      -1.704 -22.844  30.563  1.00  0.00     0.179 C 
ATOM     32  C   UNL     1      -1.750 -24.288  29.986  1.00  0.00     0.177 C 
BRANCH  28  33
ATOM     33  O   UNL     1       2.022 -24.528  29.884  1.00  0.00    -0.384 OA
ATOM     34  H   UNL     1       2.180 -25.442  30.239  1.00  0.00     0.211 HD
ENDBRANCH  28  33
BRANCH  30  35
ATOM     35  O   UNL     1      -0.255 -26.175  29.629  1.00  0.00    -0.387 OA
ATOM     36  H   UNL     1       0.671 -26.382  29.925  1.00  0.00     0.211 HD
ENDBRANCH  30  35
BRANCH  31  37
ATOM     37  C   UNL     1      -1.700 -22.760  32.119  1.00  0.00     0.191 C 
BRANCH  37  38
ATOM     38  O   UNL     1      -2.977 -22.968  32.660  1.00  0.00    -0.394 OA
ATOM     39  H   UNL     1      -2.969 -22.624  33.590  1.00  0.00     0.210 HD
ENDBRANCH  37  38
ENDBRANCH  31  37
BRANCH  32  40
ATOM     40  O   UNL     1      -2.311 -25.179  30.917  1.00  0.00    -0.387 OA
ATOM     41  H   UNL     1      -1.639 -25.307  31.644  1.00  0.00     0.211 HD
ENDBRANCH  32  40
ENDBRANCH   1  27
TORSDOF 12
ENDMDL
MODEL 9
REMARK VINA RESULT:    -6.237      2.190      3.116
REMARK INTER + INTRA:         -10.461
REMARK INTER:                  -8.881
REMARK INTRA:                  -1.580
REMARK UNBOUND:                -1.308
REMARK SMILES O=c1c(O[C@H]2O[C@H](CO)[C@H](O)[C@H](O)[C@H]2O)c(-c2ccc(O)c(O)c2)oc2cc(O)cc(O)c12
REMARK SMILES IDX 4 1 3 2 16 3 25 4 2 5 26 6 1 7 33 8 27 9 31 10 28 11 30 12
REMARK SMILES IDX 17 13 18 14 19 15 20 16 24 17 22 18 21 19 23 21 32 23 29 25
REMARK SMILES IDX 5 27 14 28 6 29 12 30 7 31 10 32 15 33 13 35 8 37 9 38 11 40
REMARK H PARENT 21 20 23 22 32 24 29 26 15 34 13 36 9 39 11 41
REMARK Flexibility Score: inf
ROOT
ATOM      1  O   UNL     1       1.613 -21.654  27.575  1.00  0.00    -0.454 OA
ENDROOT
BRANCH   1   2
ATOM      2  C   UNL     1       0.864 -22.425  28.477  1.00  0.00     0.214 A 
ATOM      3  C   UNL     1      -0.109 -21.811  29.293  1.00  0.00     0.180 A 
ATOM      4  O   UNL     1      -0.867 -22.554  30.094  1.00  0.00    -0.452 OA
ATOM      5  C   UNL     1       0.978 -23.827  28.507  1.00  0.00     0.239 A 
ATOM      6  C   UNL     1      -0.765 -23.876  30.180  1.00  0.00     0.146 A 
ATOM      7  O   UNL     1       1.767 -24.410  27.716  1.00  0.00    -0.285 OA
ATOM      8  C   UNL     1       0.169 -24.577  29.387  1.00  0.00     0.111 A 
ATOM      9  C   UNL     1      -1.615 -24.568  31.046  1.00  0.00     0.094 A 
ATOM     10  C   UNL     1       0.235 -25.988  29.483  1.00  0.00     0.134 A 
ATOM     11  C   UNL     1      -1.557 -25.964  31.128  1.00  0.00     0.123 A 
ATOM     12  C   UNL     1      -0.631 -26.669  30.349  1.00  0.00     0.093 A 
BRANCH   3  13
ATOM     13  C   UNL     1      -0.365 -20.356  29.264  1.00  0.00     0.025 A 
ATOM     14  C   UNL     1       0.406 -19.457  30.018  1.00  0.00     0.016 A 
ATOM     15  C   UNL     1       0.127 -18.090  29.992  1.00  0.00     0.051 A 
ATOM     16  C   UNL     1      -0.953 -17.605  29.239  1.00  0.00     0.157 A 
ATOM     17  C   UNL     1      -1.458 -19.867  28.531  1.00  0.00     0.062 A 
ATOM     18  C   UNL     1      -1.750 -18.501  28.511  1.00  0.00     0.158 A 
BRANCH  16  19
ATOM     19  O   UNL     1      -1.242 -16.242  29.227  1.00  0.00    -0.504 OA
ATOM     20  H   UNL     1      -0.775 -15.604  28.591  1.00  0.00     0.293 HD
ENDBRANCH  16  19
BRANCH  18  21
ATOM     21  O   UNL     1      -2.838 -18.052  27.761  1.00  0.00    -0.504 OA
ATOM     22  H   UNL     1      -3.155 -18.534  26.927  1.00  0.00     0.293 HD
ENDBRANCH  18  21
ENDBRANCH   3  13
BRANCH  10  23
ATOM     23  O   UNL     1       1.150 -26.723  28.726  1.00  0.00    -0.507 OA
ATOM     24  H   UNL     1       1.509 -26.375  27.844  1.00  0.00     0.293 HD
ENDBRANCH  10  23
BRANCH  11  25
ATOM     25  O   UNL     1      -2.417 -26.664  31.974  1.00  0.00    -0.508 OA
ATOM     26  H   UNL     1      -2.119 -26.989  32.887  1.00  0.00     0.293 HD
ENDBRANCH  11  25
ENDBRANCH   1   2
BRANCH   1  27
ATOM     27  C   UNL     1       1.155 -21.275  26.271  1.00  0.00     0.339 C 
ATOM     28  C   UNL     1       2.184 -21.762  25.209  1.00  0.00     0.214 C 
ATOM     29  O   UNL     1       0.927 -19.872  26.252  1.00  0.00    -0.332 OA
ATOM     30  C   UNL     1       3.107 -20.611  24.785  1.00  0.00     0.180 C 
ATOM     31  C   UNL     1       0.887 -19.313  24.949  1.00  0.00     0.179 C 
ATOM     32  C   UNL     1       2.287 -19.397  24.275  1.00  0.00     0.177 C 
BRANCH  28  33
ATOM     33  O   UNL     1       2.948 -22.824  25.727  1.00  0.00    -0.384 OA
ATOM     34  H   UNL     1       2.899 -22.759  26.717  1.00  0.00     0.211 HD
ENDBRANCH  28  33
BRANCH  30  35
ATOM     35  O   UNL     1       4.005 -21.054  23.800  1.00  0.00    -0.387 OA
ATOM     36  H   UNL     1       4.737 -21.533  24.272  1.00  0.00     0.211 HD
ENDBRANCH  30  35
BRANCH  31  37
ATOM     37  C   UNL     1      -0.290 -19.858  24.085  1.00  0.00     0.191 C 
BRANCH  37  38
ATOM     38  O   UNL     1      -0.719 -18.923  23.132  1.00  0.00    -0.394 OA
ATOM     39  H   UNL     1      -0.991 -18.102  23.617  1.00  0.00     0.210 HD
ENDBRANCH  37  38
ENDBRANCH  31  37
BRANCH  32  40
ATOM     40  O   UNL     1       2.164 -19.431  22.875  1.00  0.00    -0.387 OA
ATOM     41  H   UNL     1       1.702 -18.590  22.600  1.00  0.00     0.211 HD
ENDBRANCH  32  40
ENDBRANCH   1  27
TORSDOF 12
ENDMDL
