MODEL 1
REMARK VINA RESULT:    -6.292      0.000      0.000
REMARK INTER + INTRA:         -10.647
REMARK INTER:                  -8.683
REMARK INTRA:                  -1.965
REMARK UNBOUND:                -1.965
REMARK SMILES CC[C@@H](CC[C@H](C)[C@H]1CC[C@H]2[C@H]3CC=C4C[C@H](O)CC[C@@]4(C)[C@@H]3CC[C@]12C)C(C)C
REMARK SMILES IDX 5 1 4 2 3 3 2 4 1 5 28 6 29 7 30 8 6 9 7 10 8 11 9 12 26 13
REMARK SMILES IDX 10 14 11 15 25 16 27 17 12 18 24 19 23 20 13 21 21 22 14 23
REMARK SMILES IDX 15 24 20 25 22 26 16 27 19 28 17 29 18 30
REMARK H PARENT 18 31
REMARK Flexibility Score: inf
ROOT
ATOM      1  C   UNL     1     163.597 163.447 182.716  1.00  0.00     0.004 C 
ENDROOT
BRANCH   1   2
ATOM      2  C   UNL     1     162.104 163.609 183.107  1.00  0.00     0.004 C 
BRANCH   2   3
ATOM      3  C   UNL     1     161.062 163.185 182.029  1.00  0.00    -0.009 C 
BRANCH   3   4
ATOM      4  C   UNL     1     160.212 164.369 181.494  1.00  0.00     0.000 C 
ATOM      5  C   UNL     1     160.864 165.733 181.734  1.00  0.00     0.004 C 
ENDBRANCH   3   4
BRANCH   3   6
ATOM      6  C   UNL     1     160.186 161.934 182.378  1.00  0.00    -0.014 C 
ATOM      7  C   UNL     1     160.624 161.147 183.625  1.00  0.00     0.007 C 
ATOM      8  C   UNL     1     160.017 160.983 181.183  1.00  0.00     0.007 C 
ENDBRANCH   3   6
ENDBRANCH   2   3
ENDBRANCH   1   2
BRANCH   1   9
ATOM      9  C   UNL     1     164.031 162.164 181.925  1.00  0.00    -0.011 C 
ATOM     10  C   UNL     1     164.833 161.163 182.772  1.00  0.00     0.008 C 
BRANCH   9  11
ATOM     11  C   UNL     1     164.580 162.285 180.454  1.00  0.00    -0.002 C 
ATOM     12  C   UNL     1     166.009 161.712 180.225  1.00  0.00     0.005 C 
ATOM     13  C   UNL     1     163.750 161.821 179.215  1.00  0.00    -0.026 C 
ATOM     14  C   UNL     1     166.093 161.309 178.743  1.00  0.00     0.005 C 
ATOM     15  C   UNL     1     164.841 161.918 178.130  1.00  0.00    -0.001 C 
ATOM     16  C   UNL     1     162.561 162.768 178.815  1.00  0.00     0.007 C 
ATOM     17  C   UNL     1     163.253 160.367 179.433  1.00  0.00     0.012 C 
ATOM     18  C   UNL     1     164.415 161.553 176.678  1.00  0.00     0.000 C 
ATOM     19  C   UNL     1     162.421 163.018 177.282  1.00  0.00     0.005 C 
ATOM     20  C   UNL     1     162.899 161.802 176.449  1.00  0.00     0.003 C 
ATOM     21  C   UNL     1     164.780 160.152 176.184  1.00  0.00     0.031 C 
ATOM     22  C   UNL     1     162.563 161.824 174.914  1.00  0.00    -0.008 C 
ATOM     23  C   UNL     1     164.273 159.931 174.777  1.00  0.00    -0.027 C 
ATOM     24  C   UNL     1     163.250 160.631 174.217  1.00  0.00    -0.065 C 
ATOM     25  C   UNL     1     161.017 161.683 174.729  1.00  0.00     0.014 C 
ATOM     26  C   UNL     1     163.035 163.145 174.252  1.00  0.00     0.016 C 
ATOM     27  C   UNL     1     162.807 160.273 172.812  1.00  0.00     0.063 C 
ATOM     28  C   UNL     1     160.587 161.369 173.286  1.00  0.00     0.033 C 
ATOM     29  C   UNL     1     161.284 160.109 172.761  1.00  0.00     0.118 C 
BRANCH  29  30
ATOM     30  O   UNL     1     160.877 159.876 171.438  1.00  0.00    -0.393 OA
ATOM     31  H   UNL     1     161.649 160.096 170.856  1.00  0.00     0.210 HD
ENDBRANCH  29  30
ENDBRANCH   9  11
ENDBRANCH   1   9
TORSDOF 7
ENDMDL
MODEL 2
REMARK VINA RESULT:    -5.916     13.984     17.340
REMARK INTER + INTRA:         -10.129
REMARK INTER:                  -8.134
REMARK INTRA:                  -1.995
REMARK UNBOUND:                -1.965
REMARK SMILES CC[C@@H](CC[C@H](C)[C@H]1CC[C@H]2[C@H]3CC=C4C[C@H](O)CC[C@@]4(C)[C@@H]3CC[C@]12C)C(C)C
REMARK SMILES IDX 5 1 4 2 3 3 2 4 1 5 28 6 29 7 30 8 6 9 7 10 8 11 9 12 26 13
REMARK SMILES IDX 10 14 11 15 25 16 27 17 12 18 24 19 23 20 13 21 21 22 14 23
REMARK SMILES IDX 15 24 20 25 22 26 16 27 19 28 17 29 18 30
REMARK H PARENT 18 31
REMARK Flexibility Score: inf
ROOT
ATOM      1  C   UNL     1     179.837 171.164 179.883  1.00  0.00     0.004 C 
ENDROOT
BRANCH   1   2
ATOM      2  C   UNL     1     179.895 172.654 180.309  1.00  0.00     0.004 C 
BRANCH   2   3
ATOM      3  C   UNL     1     179.736 172.939 181.833  1.00  0.00    -0.009 C 
BRANCH   3   4
ATOM      4  C   UNL     1     180.116 171.728 182.729  1.00  0.00     0.000 C 
ATOM      5  C   UNL     1     178.932 171.177 183.526  1.00  0.00     0.004 C 
ENDBRANCH   3   4
BRANCH   3   6
ATOM      6  C   UNL     1     178.385 173.600 182.270  1.00  0.00    -0.014 C 
ATOM      7  C   UNL     1     177.446 174.006 181.120  1.00  0.00     0.007 C 
ATOM      8  C   UNL     1     178.592 174.785 183.226  1.00  0.00     0.007 C 
ENDBRANCH   3   6
ENDBRANCH   2   3
ENDBRANCH   1   2
BRANCH   1   9
ATOM      9  C   UNL     1     178.438 170.523 179.577  1.00  0.00    -0.011 C 
ATOM     10  C   UNL     1     177.579 171.356 178.614  1.00  0.00     0.008 C 
BRANCH   9  11
ATOM     11  C   UNL     1     177.590 169.877 180.737  1.00  0.00    -0.002 C 
ATOM     12  C   UNL     1     176.169 170.481 180.942  1.00  0.00     0.005 C 
ATOM     13  C   UNL     1     177.400 168.333 180.868  1.00  0.00    -0.026 C 
ATOM     14  C   UNL     1     175.304 169.377 181.572  1.00  0.00     0.005 C 
ATOM     15  C   UNL     1     176.311 168.305 181.960  1.00  0.00    -0.001 C 
ATOM     16  C   UNL     1     178.656 167.548 181.394  1.00  0.00     0.007 C 
ATOM     17  C   UNL     1     176.906 167.750 179.517  1.00  0.00     0.012 C 
ATOM     18  C   UNL     1     175.829 166.901 182.428  1.00  0.00     0.000 C 
ATOM     19  C   UNL     1     178.335 166.449 182.451  1.00  0.00     0.005 C 
ATOM     20  C   UNL     1     176.933 165.825 182.235  1.00  0.00     0.003 C 
ATOM     21  C   UNL     1     174.514 166.390 181.834  1.00  0.00     0.031 C 
ATOM     22  C   UNL     1     176.602 164.531 183.063  1.00  0.00    -0.008 C 
ATOM     23  C   UNL     1     174.195 165.006 182.351  1.00  0.00    -0.027 C 
ATOM     24  C   UNL     1     175.122 164.146 182.851  1.00  0.00    -0.065 C 
ATOM     25  C   UNL     1     177.498 163.356 182.552  1.00  0.00     0.014 C 
ATOM     26  C   UNL     1     176.863 164.748 184.577  1.00  0.00     0.016 C 
ATOM     27  C   UNL     1     174.674 162.766 183.289  1.00  0.00     0.063 C 
ATOM     28  C   UNL     1     177.054 161.970 183.050  1.00  0.00     0.033 C 
ATOM     29  C   UNL     1     175.590 161.694 182.689  1.00  0.00     0.118 C 
BRANCH  29  30
ATOM     30  O   UNL     1     175.226 160.430 183.181  1.00  0.00    -0.393 OA
ATOM     31  H   UNL     1     174.728 160.583 184.025  1.00  0.00     0.210 HD
ENDBRANCH  29  30
ENDBRANCH   9  11
ENDBRANCH   1   9
TORSDOF 7
ENDMDL
MODEL 3
REMARK VINA RESULT:    -5.891     15.523     18.618
REMARK INTER + INTRA:         -10.095
REMARK INTER:                  -8.857
REMARK INTRA:                  -1.238
REMARK UNBOUND:                -1.965
REMARK SMILES CC[C@@H](CC[C@H](C)[C@H]1CC[C@H]2[C@H]3CC=C4C[C@H](O)CC[C@@]4(C)[C@@H]3CC[C@]12C)C(C)C
REMARK SMILES IDX 5 1 4 2 3 3 2 4 1 5 28 6 29 7 30 8 6 9 7 10 8 11 9 12 26 13
REMARK SMILES IDX 10 14 11 15 25 16 27 17 12 18 24 19 23 20 13 21 21 22 14 23
REMARK SMILES IDX 15 24 20 25 22 26 16 27 19 28 17 29 18 30
REMARK H PARENT 18 31
REMARK Flexibility Score: inf
ROOT
ATOM      1  C   UNL     1     174.401 176.981 181.190  1.00  0.00     0.004 C 
ENDROOT
BRANCH   1   2
ATOM      2  C   UNL     1     175.598 176.320 181.921  1.00  0.00     0.004 C 
BRANCH   2   3
ATOM      3  C   UNL     1     175.332 174.918 182.546  1.00  0.00    -0.009 C 
BRANCH   3   4
ATOM      4  C   UNL     1     173.821 174.591 182.705  1.00  0.00     0.000 C 
ATOM      5  C   UNL     1     173.355 173.455 181.793  1.00  0.00     0.004 C 
ENDBRANCH   3   4
BRANCH   3   6
ATOM      6  C   UNL     1     176.153 174.574 183.835  1.00  0.00    -0.014 C 
ATOM      7  C   UNL     1     175.396 173.767 184.904  1.00  0.00     0.007 C 
ATOM      8  C   UNL     1     176.801 175.815 184.468  1.00  0.00     0.007 C 
ENDBRANCH   3   6
ENDBRANCH   2   3
ENDBRANCH   1   2
BRANCH   1   9
ATOM      9  C   UNL     1     173.934 178.407 181.647  1.00  0.00    -0.011 C 
ATOM     10  C   UNL     1     175.090 179.319 182.085  1.00  0.00     0.008 C 
BRANCH   9  11
ATOM     11  C   UNL     1     172.658 178.572 182.556  1.00  0.00    -0.002 C 
ATOM     12  C   UNL     1     172.393 180.013 183.081  1.00  0.00     0.005 C 
ATOM     13  C   UNL     1     171.258 178.028 182.130  1.00  0.00    -0.026 C 
ATOM     14  C   UNL     1     170.880 180.122 183.333  1.00  0.00     0.005 C 
ATOM     15  C   UNL     1     170.389 178.687 183.221  1.00  0.00    -0.001 C 
ATOM     16  C   UNL     1     171.087 176.469 182.230  1.00  0.00     0.007 C 
ATOM     17  C   UNL     1     170.911 178.534 180.704  1.00  0.00     0.012 C 
ATOM     18  C   UNL     1     168.864 178.375 183.181  1.00  0.00     0.000 C 
ATOM     19  C   UNL     1     169.728 176.004 182.836  1.00  0.00     0.005 C 
ATOM     20  C   UNL     1     168.582 176.997 182.521  1.00  0.00     0.003 C 
ATOM     21  C   UNL     1     167.959 179.435 182.551  1.00  0.00     0.031 C 
ATOM     22  C   UNL     1     167.122 176.514 182.844  1.00  0.00    -0.008 C 
ATOM     23  C   UNL     1     166.518 178.979 182.552  1.00  0.00    -0.027 C 
ATOM     24  C   UNL     1     166.131 177.677 182.627  1.00  0.00    -0.065 C 
ATOM     25  C   UNL     1     166.743 175.352 181.869  1.00  0.00     0.014 C 
ATOM     26  C   UNL     1     167.005 176.008 184.307  1.00  0.00     0.016 C 
ATOM     27  C   UNL     1     164.651 177.353 182.566  1.00  0.00     0.063 C 
ATOM     28  C   UNL     1     165.243 175.006 181.862  1.00  0.00     0.033 C 
ATOM     29  C   UNL     1     164.392 176.241 181.545  1.00  0.00     0.118 C 
BRANCH  29  30
ATOM     30  O   UNL     1     163.035 175.882 181.569  1.00  0.00    -0.393 OA
ATOM     31  H   UNL     1     162.775 175.676 180.635  1.00  0.00     0.210 HD
ENDBRANCH  29  30
ENDBRANCH   9  11
ENDBRANCH   1   9
TORSDOF 7
ENDMDL
MODEL 4
REMARK VINA RESULT:    -5.871     12.079     13.762
REMARK INTER + INTRA:         -10.067
REMARK INTER:                  -8.286
REMARK INTRA:                  -1.781
REMARK UNBOUND:                -1.965
REMARK SMILES CC[C@@H](CC[C@H](C)[C@H]1CC[C@H]2[C@H]3CC=C4C[C@H](O)CC[C@@]4(C)[C@@H]3CC[C@]12C)C(C)C
REMARK SMILES IDX 5 1 4 2 3 3 2 4 1 5 28 6 29 7 30 8 6 9 7 10 8 11 9 12 26 13
REMARK SMILES IDX 10 14 11 15 25 16 27 17 12 18 24 19 23 20 13 21 21 22 14 23
REMARK SMILES IDX 15 24 20 25 22 26 16 27 19 28 17 29 18 30
REMARK H PARENT 18 31
REMARK Flexibility Score: inf
ROOT
ATOM      1  C   UNL     1     177.310 162.727 182.863  1.00  0.00     0.004 C 
ENDROOT
BRANCH   1   2
ATOM      2  C   UNL     1     177.239 163.817 183.965  1.00  0.00     0.004 C 
BRANCH   2   3
ATOM      3  C   UNL     1     177.068 165.284 183.469  1.00  0.00    -0.009 C 
BRANCH   3   4
ATOM      4  C   UNL     1     175.664 165.877 183.771  1.00  0.00     0.000 C 
ATOM      5  C   UNL     1     174.882 165.069 184.809  1.00  0.00     0.004 C 
ENDBRANCH   3   4
BRANCH   3   6
ATOM      6  C   UNL     1     177.531 165.570 182.001  1.00  0.00    -0.014 C 
ATOM      7  C   UNL     1     178.602 166.664 181.847  1.00  0.00     0.007 C 
ATOM      8  C   UNL     1     176.351 165.847 181.056  1.00  0.00     0.007 C 
ENDBRANCH   3   6
ENDBRANCH   2   3
ENDBRANCH   1   2
BRANCH   1   9
ATOM      9  C   UNL     1     175.980 162.271 182.170  1.00  0.00    -0.011 C 
ATOM     10  C   UNL     1     174.919 161.756 183.155  1.00  0.00     0.008 C 
BRANCH   9  11
ATOM     11  C   UNL     1     176.025 161.430 180.839  1.00  0.00    -0.002 C 
ATOM     12  C   UNL     1     175.055 160.214 180.783  1.00  0.00     0.005 C 
ATOM     13  C   UNL     1     175.927 162.096 179.430  1.00  0.00    -0.026 C 
ATOM     14  C   UNL     1     174.748 159.958 179.298  1.00  0.00     0.005 C 
ATOM     15  C   UNL     1     175.755 160.831 178.564  1.00  0.00    -0.001 C 
ATOM     16  C   UNL     1     177.221 162.853 178.957  1.00  0.00     0.007 C 
ATOM     17  C   UNL     1     174.687 163.028 179.377  1.00  0.00     0.012 C 
ATOM     18  C   UNL     1     175.640 161.048 177.027  1.00  0.00     0.000 C 
ATOM     19  C   UNL     1     177.606 162.607 177.467  1.00  0.00     0.005 C 
ATOM     20  C   UNL     1     176.362 162.348 176.580  1.00  0.00     0.003 C 
ATOM     21  C   UNL     1     174.233 161.017 176.430  1.00  0.00     0.031 C 
ATOM     22  C   UNL     1     176.592 162.352 175.025  1.00  0.00    -0.008 C 
ATOM     23  C   UNL     1     174.276 161.277 174.941  1.00  0.00    -0.027 C 
ATOM     24  C   UNL     1     175.295 161.918 174.309  1.00  0.00    -0.065 C 
ATOM     25  C   UNL     1     176.950 163.803 174.566  1.00  0.00     0.014 C 
ATOM     26  C   UNL     1     177.744 161.393 174.623  1.00  0.00     0.016 C 
ATOM     27  C   UNL     1     175.189 162.159 172.816  1.00  0.00     0.063 C 
ATOM     28  C   UNL     1     176.885 164.010 173.043  1.00  0.00     0.033 C 
ATOM     29  C   UNL     1     175.510 163.621 172.489  1.00  0.00     0.118 C 
BRANCH  29  30
ATOM     30  O   UNL     1     175.505 163.807 171.098  1.00  0.00    -0.393 OA
ATOM     31  H   UNL     1     174.733 164.393 170.889  1.00  0.00     0.210 HD
ENDBRANCH  29  30
ENDBRANCH   9  11
ENDBRANCH   1   9
TORSDOF 7
ENDMDL
MODEL 5
REMARK VINA RESULT:    -5.838      1.644      4.106
REMARK INTER + INTRA:         -10.021
REMARK INTER:                  -8.385
REMARK INTRA:                  -1.636
REMARK UNBOUND:                -1.965
REMARK SMILES CC[C@@H](CC[C@H](C)[C@H]1CC[C@H]2[C@H]3CC=C4C[C@H](O)CC[C@@]4(C)[C@@H]3CC[C@]12C)C(C)C
REMARK SMILES IDX 5 1 4 2 3 3 2 4 1 5 28 6 29 7 30 8 6 9 7 10 8 11 9 12 26 13
REMARK SMILES IDX 10 14 11 15 25 16 27 17 12 18 24 19 23 20 13 21 21 22 14 23
REMARK SMILES IDX 15 24 20 25 22 26 16 27 19 28 17 29 18 30
REMARK H PARENT 18 31
REMARK Flexibility Score: inf
ROOT
ATOM      1  C   UNL     1     163.572 163.918 182.814  1.00  0.00     0.004 C 
ENDROOT
BRANCH   1   2
ATOM      2  C   UNL     1     164.495 163.132 183.782  1.00  0.00     0.004 C 
BRANCH   2   3
ATOM      3  C   UNL     1     165.502 162.144 183.119  1.00  0.00    -0.009 C 
BRANCH   3   4
ATOM      4  C   UNL     1     164.851 160.804 182.679  1.00  0.00     0.000 C 
ATOM      5  C   UNL     1     165.209 160.405 181.246  1.00  0.00     0.004 C 
ENDBRANCH   3   4
BRANCH   3   6
ATOM      6  C   UNL     1     166.852 161.926 183.882  1.00  0.00    -0.014 C 
ATOM      7  C   UNL     1     167.078 160.508 184.434  1.00  0.00     0.007 C 
ATOM      8  C   UNL     1     167.076 162.968 184.989  1.00  0.00     0.007 C 
ENDBRANCH   3   6
ENDBRANCH   2   3
ENDBRANCH   1   2
BRANCH   1   9
ATOM      9  C   UNL     1     162.170 163.313 182.454  1.00  0.00    -0.011 C 
ATOM     10  C   UNL     1     161.335 162.927 183.685  1.00  0.00     0.008 C 
BRANCH   9  11
ATOM     11  C   UNL     1     162.031 162.272 181.280  1.00  0.00    -0.002 C 
ATOM     12  C   UNL     1     160.779 161.349 181.350  1.00  0.00     0.005 C 
ATOM     13  C   UNL     1     162.148 162.690 179.780  1.00  0.00    -0.026 C 
ATOM     14  C   UNL     1     160.457 160.928 179.906  1.00  0.00     0.005 C 
ATOM     15  C   UNL     1     161.676 161.380 179.116  1.00  0.00    -0.001 C 
ATOM     16  C   UNL     1     163.606 163.004 179.285  1.00  0.00     0.007 C 
ATOM     17  C   UNL     1     161.195 163.881 179.493  1.00  0.00     0.012 C 
ATOM     18  C   UNL     1     161.663 161.352 177.560  1.00  0.00     0.000 C 
ATOM     19  C   UNL     1     163.954 162.417 177.884  1.00  0.00     0.005 C 
ATOM     20  C   UNL     1     162.710 162.332 176.964  1.00  0.00     0.003 C 
ATOM     21  C   UNL     1     160.312 161.575 176.877  1.00  0.00     0.031 C 
ATOM     22  C   UNL     1     162.975 162.012 175.448  1.00  0.00    -0.008 C 
ATOM     23  C   UNL     1     160.462 161.557 175.373  1.00  0.00    -0.027 C 
ATOM     24  C   UNL     1     161.630 161.803 174.720  1.00  0.00    -0.065 C 
ATOM     25  C   UNL     1     163.710 163.225 174.791  1.00  0.00     0.014 C 
ATOM     26  C   UNL     1     163.848 160.739 175.285  1.00  0.00     0.016 C 
ATOM     27  C   UNL     1     161.630 161.803 173.205  1.00  0.00     0.063 C 
ATOM     28  C   UNL     1     163.743 163.178 173.254  1.00  0.00     0.033 C 
ATOM     29  C   UNL     1     162.329 163.059 172.673  1.00  0.00     0.118 C 
BRANCH  29  30
ATOM     30  O   UNL     1     162.411 162.999 171.273  1.00  0.00    -0.393 OA
ATOM     31  H   UNL     1     161.613 162.500 170.960  1.00  0.00     0.210 HD
ENDBRANCH  29  30
ENDBRANCH   9  11
ENDBRANCH   1   9
TORSDOF 7
ENDMDL
MODEL 6
REMARK VINA RESULT:    -5.796      2.962      8.106
REMARK INTER + INTRA:          -9.963
REMARK INTER:                  -8.643
REMARK INTRA:                  -1.320
REMARK UNBOUND:                -1.965
REMARK SMILES CC[C@@H](CC[C@H](C)[C@H]1CC[C@H]2[C@H]3CC=C4C[C@H](O)CC[C@@]4(C)[C@@H]3CC[C@]12C)C(C)C
REMARK SMILES IDX 5 1 4 2 3 3 2 4 1 5 28 6 29 7 30 8 6 9 7 10 8 11 9 12 26 13
REMARK SMILES IDX 10 14 11 15 25 16 27 17 12 18 24 19 23 20 13 21 21 22 14 23
REMARK SMILES IDX 15 24 20 25 22 26 16 27 19 28 17 29 18 30
REMARK H PARENT 18 31
REMARK Flexibility Score: inf
ROOT
ATOM      1  C   UNL     1     163.910 162.463 172.660  1.00  0.00     0.004 C 
ENDROOT
BRANCH   1   2
ATOM      2  C   UNL     1     163.144 161.208 172.166  1.00  0.00     0.004 C 
BRANCH   2   3
ATOM      3  C   UNL     1     161.817 161.474 171.393  1.00  0.00    -0.009 C 
BRANCH   3   4
ATOM      4  C   UNL     1     160.626 161.838 172.321  1.00  0.00     0.000 C 
ATOM      5  C   UNL     1     160.569 160.982 173.588  1.00  0.00     0.004 C 
ENDBRANCH   3   4
BRANCH   3   6
ATOM      6  C   UNL     1     161.426 160.407 170.315  1.00  0.00    -0.014 C 
ATOM      7  C   UNL     1     162.348 160.342 169.085  1.00  0.00     0.007 C 
ATOM      8  C   UNL     1     159.960 160.528 169.873  1.00  0.00     0.007 C 
ENDBRANCH   3   6
ENDBRANCH   2   3
ENDBRANCH   1   2
BRANCH   1   9
ATOM      9  C   UNL     1     164.759 162.357 173.975  1.00  0.00    -0.011 C 
ATOM     10  C   UNL     1     166.274 162.323 173.725  1.00  0.00     0.008 C 
BRANCH   9  11
ATOM     11  C   UNL     1     164.316 161.382 175.130  1.00  0.00    -0.002 C 
ATOM     12  C   UNL     1     165.346 160.275 175.502  1.00  0.00     0.005 C 
ATOM     13  C   UNL     1     163.766 161.904 176.494  1.00  0.00    -0.026 C 
ATOM     14  C   UNL     1     165.083 159.900 176.970  1.00  0.00     0.005 C 
ATOM     15  C   UNL     1     163.760 160.581 177.287  1.00  0.00    -0.001 C 
ATOM     16  C   UNL     1     162.299 162.468 176.453  1.00  0.00     0.007 C 
ATOM     17  C   UNL     1     164.747 162.951 177.088  1.00  0.00     0.012 C 
ATOM     18  C   UNL     1     163.238 160.647 178.752  1.00  0.00     0.000 C 
ATOM     19  C   UNL     1     161.403 162.029 177.650  1.00  0.00     0.005 C 
ATOM     20  C   UNL     1     162.227 161.812 178.944  1.00  0.00     0.003 C 
ATOM     21  C   UNL     1     164.292 160.703 179.858  1.00  0.00     0.031 C 
ATOM     22  C   UNL     1     161.413 161.630 180.276  1.00  0.00    -0.008 C 
ATOM     23  C   UNL     1     163.638 160.800 181.218  1.00  0.00    -0.027 C 
ATOM     24  C   UNL     1     162.376 161.262 181.425  1.00  0.00    -0.065 C 
ATOM     25  C   UNL     1     160.709 162.979 180.632  1.00  0.00     0.014 C 
ATOM     26  C   UNL     1     160.339 160.518 180.133  1.00  0.00     0.016 C 
ATOM     27  C   UNL     1     161.859 161.356 182.847  1.00  0.00     0.063 C 
ATOM     28  C   UNL     1     160.148 163.032 182.063  1.00  0.00     0.033 C 
ATOM     29  C   UNL     1     161.239 162.735 183.097  1.00  0.00     0.118 C 
BRANCH  29  30
ATOM     30  O   UNL     1     160.677 162.775 184.383  1.00  0.00    -0.393 OA
ATOM     31  H   UNL     1     161.093 163.541 184.855  1.00  0.00     0.210 HD
ENDBRANCH  29  30
ENDBRANCH   9  11
ENDBRANCH   1   9
TORSDOF 7
ENDMDL
MODEL 7
REMARK VINA RESULT:    -5.790     13.969     17.166
REMARK INTER + INTRA:          -9.955
REMARK INTER:                  -7.717
REMARK INTRA:                  -2.238
REMARK UNBOUND:                -1.965
REMARK SMILES CC[C@@H](CC[C@H](C)[C@H]1CC[C@H]2[C@H]3CC=C4C[C@H](O)CC[C@@]4(C)[C@@H]3CC[C@]12C)C(C)C
REMARK SMILES IDX 5 1 4 2 3 3 2 4 1 5 28 6 29 7 30 8 6 9 7 10 8 11 9 12 26 13
REMARK SMILES IDX 10 14 11 15 25 16 27 17 12 18 24 19 23 20 13 21 21 22 14 23
REMARK SMILES IDX 15 24 20 25 22 26 16 27 19 28 17 29 18 30
REMARK H PARENT 18 31
REMARK Flexibility Score: inf
ROOT
ATOM      1  C   UNL     1     174.770 164.313 180.731  1.00  0.00     0.004 C 
ENDROOT
BRANCH   1   2
ATOM      2  C   UNL     1     174.303 164.445 182.204  1.00  0.00     0.004 C 
BRANCH   2   3
ATOM      3  C   UNL     1     175.062 163.569 183.246  1.00  0.00    -0.009 C 
BRANCH   3   4
ATOM      4  C   UNL     1     175.856 164.401 184.289  1.00  0.00     0.000 C 
ATOM      5  C   UNL     1     175.302 165.815 184.476  1.00  0.00     0.004 C 
ENDBRANCH   3   4
BRANCH   3   6
ATOM      6  C   UNL     1     175.906 162.386 182.661  1.00  0.00    -0.014 C 
ATOM      7  C   UNL     1     175.284 160.988 182.821  1.00  0.00     0.007 C 
ATOM      8  C   UNL     1     177.353 162.384 183.180  1.00  0.00     0.007 C 
ENDBRANCH   3   6
ENDBRANCH   2   3
ENDBRANCH   1   2
BRANCH   1   9
ATOM      9  C   UNL     1     176.104 165.017 180.300  1.00  0.00    -0.011 C 
ATOM     10  C   UNL     1     177.094 164.077 179.596  1.00  0.00     0.008 C 
BRANCH   9  11
ATOM     11  C   UNL     1     176.819 166.029 181.272  1.00  0.00    -0.002 C 
ATOM     12  C   UNL     1     178.268 165.642 181.690  1.00  0.00     0.005 C 
ATOM     13  C   UNL     1     176.871 167.563 180.986  1.00  0.00    -0.026 C 
ATOM     14  C   UNL     1     178.996 166.954 182.030  1.00  0.00     0.005 C 
ATOM     15  C   UNL     1     177.881 167.987 182.072  1.00  0.00    -0.001 C 
ATOM     16  C   UNL     1     175.523 168.334 181.229  1.00  0.00     0.007 C 
ATOM     17  C   UNL     1     177.401 167.810 179.549  1.00  0.00     0.012 C 
ATOM     18  C   UNL     1     178.215 169.505 182.159  1.00  0.00     0.000 C 
ATOM     19  C   UNL     1     175.683 169.701 181.960  1.00  0.00     0.005 C 
ATOM     20  C   UNL     1     177.039 170.378 181.638  1.00  0.00     0.003 C 
ATOM     21  C   UNL     1     179.518 169.964 181.502  1.00  0.00     0.031 C 
ATOM     22  C   UNL     1     177.208 171.871 182.095  1.00  0.00    -0.008 C 
ATOM     23  C   UNL     1     179.688 171.460 181.636  1.00  0.00    -0.027 C 
ATOM     24  C   UNL     1     178.662 172.328 181.846  1.00  0.00    -0.065 C 
ATOM     25  C   UNL     1     176.253 172.775 181.249  1.00  0.00     0.014 C 
ATOM     26  C   UNL     1     176.869 172.043 183.600  1.00  0.00     0.016 C 
ATOM     27  C   UNL     1     178.965 173.812 181.910  1.00  0.00     0.063 C 
ATOM     28  C   UNL     1     176.548 174.280 181.369  1.00  0.00     0.033 C 
ATOM     29  C   UNL     1     178.004 174.590 181.006  1.00  0.00     0.118 C 
BRANCH  29  30
ATOM     30  O   UNL     1     178.230 175.969 181.149  1.00  0.00    -0.393 OA
ATOM     31  H   UNL     1     177.349 176.387 181.330  1.00  0.00     0.210 HD
ENDBRANCH  29  30
ENDBRANCH   9  11
ENDBRANCH   1   9
TORSDOF 7
ENDMDL
MODEL 8
REMARK VINA RESULT:    -5.768      6.021      9.275
REMARK INTER + INTRA:          -9.924
REMARK INTER:                  -9.004
REMARK INTRA:                  -0.920
REMARK UNBOUND:                -1.965
REMARK SMILES CC[C@@H](CC[C@H](C)[C@H]1CC[C@H]2[C@H]3CC=C4C[C@H](O)CC[C@@]4(C)[C@@H]3CC[C@]12C)C(C)C
REMARK SMILES IDX 5 1 4 2 3 3 2 4 1 5 28 6 29 7 30 8 6 9 7 10 8 11 9 12 26 13
REMARK SMILES IDX 10 14 11 15 25 16 27 17 12 18 24 19 23 20 13 21 21 22 14 23
REMARK SMILES IDX 15 24 20 25 22 26 16 27 19 28 17 29 18 30
REMARK H PARENT 18 31
REMARK Flexibility Score: inf
ROOT
ATOM      1  C   UNL     1     164.415 160.544 182.688  1.00  0.00     0.004 C 
ENDROOT
BRANCH   1   2
ATOM      2  C   UNL     1     162.954 160.818 183.131  1.00  0.00     0.004 C 
BRANCH   2   3
ATOM      3  C   UNL     1     162.049 161.550 182.095  1.00  0.00    -0.009 C 
BRANCH   3   4
ATOM      4  C   UNL     1     160.746 162.126 182.714  1.00  0.00     0.000 C 
ATOM      5  C   UNL     1     160.565 163.622 182.446  1.00  0.00     0.004 C 
ENDBRANCH   3   4
BRANCH   3   6
ATOM      6  C   UNL     1     161.783 160.785 180.755  1.00  0.00    -0.014 C 
ATOM      7  C   UNL     1     162.182 161.538 179.474  1.00  0.00     0.007 C 
ATOM      8  C   UNL     1     160.336 160.281 180.643  1.00  0.00     0.007 C 
ENDBRANCH   3   6
ENDBRANCH   2   3
ENDBRANCH   1   2
BRANCH   1   9
ATOM      9  C   UNL     1     165.481 161.680 182.871  1.00  0.00    -0.011 C 
ATOM     10  C   UNL     1     164.869 163.046 183.217  1.00  0.00     0.008 C 
BRANCH   9  11
ATOM     11  C   UNL     1     166.695 161.798 181.874  1.00  0.00    -0.002 C 
ATOM     12  C   UNL     1     166.662 163.032 180.925  1.00  0.00     0.005 C 
ATOM     13  C   UNL     1     168.177 161.688 182.351  1.00  0.00    -0.026 C 
ATOM     14  C   UNL     1     168.122 163.345 180.554  1.00  0.00     0.005 C 
ATOM     15  C   UNL     1     168.892 162.134 181.058  1.00  0.00    -0.001 C 
ATOM     16  C   UNL     1     168.658 160.236 182.711  1.00  0.00     0.007 C 
ATOM     17  C   UNL     1     168.420 162.663 183.534  1.00  0.00     0.012 C 
ATOM     18  C   UNL     1     170.448 162.146 181.090  1.00  0.00     0.000 C 
ATOM     19  C   UNL     1     170.080 159.876 182.184  1.00  0.00     0.005 C 
ATOM     20  C   UNL     1     171.005 161.116 182.112  1.00  0.00     0.003 C 
ATOM     21  C   UNL     1     171.124 163.500 181.314  1.00  0.00     0.031 C 
ATOM     22  C   UNL     1     172.531 160.844 181.855  1.00  0.00    -0.008 C 
ATOM     23  C   UNL     1     172.627 163.348 181.356  1.00  0.00    -0.027 C 
ATOM     24  C   UNL     1     173.268 162.185 181.649  1.00  0.00    -0.065 C 
ATOM     25  C   UNL     1     173.139 160.131 183.106  1.00  0.00     0.014 C 
ATOM     26  C   UNL     1     172.741 159.947 180.606  1.00  0.00     0.016 C 
ATOM     27  C   UNL     1     174.783 162.183 181.707  1.00  0.00     0.063 C 
ATOM     28  C   UNL     1     174.677 160.097 183.118  1.00  0.00     0.033 C 
ATOM     29  C   UNL     1     175.264 161.507 182.995  1.00  0.00     0.118 C 
BRANCH  29  30
ATOM     30  O   UNL     1     176.666 161.423 182.991  1.00  0.00    -0.393 OA
ATOM     31  H   UNL     1     176.914 160.809 182.254  1.00  0.00     0.210 HD
ENDBRANCH  29  30
ENDBRANCH   9  11
ENDBRANCH   1   9
TORSDOF 7
ENDMDL
MODEL 9
REMARK VINA RESULT:    -5.204      5.430      9.679
REMARK INTER + INTRA:          -9.146
REMARK INTER:                  -8.069
REMARK INTRA:                  -1.077
REMARK UNBOUND:                -1.965
REMARK SMILES CC[C@@H](CC[C@H](C)[C@H]1CC[C@H]2[C@H]3CC=C4C[C@H](O)CC[C@@]4(C)[C@@H]3CC[C@]12C)C(C)C
REMARK SMILES IDX 5 1 4 2 3 3 2 4 1 5 28 6 29 7 30 8 6 9 7 10 8 11 9 12 26 13
REMARK SMILES IDX 10 14 11 15 25 16 27 17 12 18 24 19 23 20 13 21 21 22 14 23
REMARK SMILES IDX 15 24 20 25 22 26 16 27 19 28 17 29 18 30
REMARK H PARENT 18 31
REMARK Flexibility Score: inf
ROOT
ATOM      1  C   UNL     1     161.237 163.318 183.178  1.00  0.00     0.004 C 
ENDROOT
BRANCH   1   2
ATOM      2  C   UNL     1     160.785 161.882 182.803  1.00  0.00     0.004 C 
BRANCH   2   3
ATOM      3  C   UNL     1     161.891 160.939 182.241  1.00  0.00    -0.009 C 
BRANCH   3   4
ATOM      4  C   UNL     1     163.332 161.444 182.522  1.00  0.00     0.000 C 
ATOM      5  C   UNL     1     164.306 160.316 182.872  1.00  0.00     0.004 C 
ENDBRANCH   3   4
BRANCH   3   6
ATOM      6  C   UNL     1     161.703 160.469 180.759  1.00  0.00    -0.014 C 
ATOM      7  C   UNL     1     162.551 161.219 179.717  1.00  0.00     0.007 C 
ATOM      8  C   UNL     1     160.228 160.453 180.329  1.00  0.00     0.007 C 
ENDBRANCH   3   6
ENDBRANCH   2   3
ENDBRANCH   1   2
BRANCH   1   9
ATOM      9  C   UNL     1     160.919 164.490 182.186  1.00  0.00    -0.011 C 
ATOM     10  C   UNL     1     160.488 164.012 180.791  1.00  0.00     0.008 C 
BRANCH   9  11
ATOM     11  C   UNL     1     161.853 165.757 182.128  1.00  0.00    -0.002 C 
ATOM     12  C   UNL     1     163.015 165.684 181.095  1.00  0.00     0.005 C 
ATOM     13  C   UNL     1     161.282 167.205 182.000  1.00  0.00    -0.026 C 
ATOM     14  C   UNL     1     163.357 167.133 180.708  1.00  0.00     0.005 C 
ATOM     15  C   UNL     1     162.594 167.969 181.725  1.00  0.00    -0.001 C 
ATOM     16  C   UNL     1     160.632 167.785 183.308  1.00  0.00     0.007 C 
ATOM     17  C   UNL     1     160.290 167.274 180.808  1.00  0.00     0.012 C 
ATOM     18  C   UNL     1     162.480 169.512 181.551  1.00  0.00     0.000 C 
ATOM     19  C   UNL     1     161.003 169.268 183.612  1.00  0.00     0.005 C 
ATOM     20  C   UNL     1     161.254 170.082 182.318  1.00  0.00     0.003 C 
ATOM     21  C   UNL     1     162.476 170.047 180.118  1.00  0.00     0.031 C 
ATOM     22  C   UNL     1     161.372 171.641 182.477  1.00  0.00    -0.008 C 
ATOM     23  C   UNL     1     162.323 171.550 180.108  1.00  0.00    -0.027 C 
ATOM     24  C   UNL     1     161.784 172.269 181.128  1.00  0.00    -0.065 C 
ATOM     25  C   UNL     1     159.979 172.218 182.887  1.00  0.00     0.014 C 
ATOM     26  C   UNL     1     162.418 172.020 183.559  1.00  0.00     0.016 C 
ATOM     27  C   UNL     1     161.643 173.770 180.967  1.00  0.00     0.063 C 
ATOM     28  C   UNL     1     159.875 173.748 182.764  1.00  0.00     0.033 C 
ATOM     29  C   UNL     1     160.226 174.215 181.347  1.00  0.00     0.118 C 
BRANCH  29  30
ATOM     30  O   UNL     1     160.138 175.614 181.289  1.00  0.00    -0.393 OA
ATOM     31  H   UNL     1     159.644 175.905 182.098  1.00  0.00     0.210 HD
ENDBRANCH  29  30
ENDBRANCH   9  11
ENDBRANCH   1   9
TORSDOF 7
ENDMDL
