MODEL 1
REMARK VINA RESULT:    -4.733      0.000      0.000
REMARK INTER + INTRA:          -6.032
REMARK INTER:                  -5.702
REMARK INTRA:                  -0.330
REMARK UNBOUND:                -0.330
REMARK SMILES O=c1c(O)c(-c2ccc(O)c(O)c2)oc2cc(O)cc(O)c12
REMARK SMILES IDX 5 1 3 2 2 3 1 4 22 5 20 6 19 7 17 8 16 9 15 10 14 11 6 12
REMARK SMILES IDX 7 13 8 14 9 15 13 16 11 17 10 18 12 20 4 22 21 24 18 26
REMARK H PARENT 10 19 12 21 4 23 21 25 18 27
REMARK Flexibility Score: inf
ROOT
ATOM      1  C   UNL     1     135.606 128.272 119.300  1.00  0.00     0.180 A 
ATOM      2  C   UNL     1     135.436 129.659 119.126  1.00  0.00     0.208 A 
ATOM      3  C   UNL     1     134.894 130.130 117.920  1.00  0.00     0.238 A 
ATOM      4  O   UNL     1     134.747 131.370 117.749  1.00  0.00    -0.285 OA
ATOM      5  C   UNL     1     134.512 129.210 116.921  1.00  0.00     0.111 A 
ATOM      6  C   UNL     1     133.954 129.602 115.681  1.00  0.00     0.134 A 
ATOM      7  C   UNL     1     133.591 128.625 114.742  1.00  0.00     0.093 A 
ATOM      8  C   UNL     1     133.775 127.265 115.021  1.00  0.00     0.123 A 
ATOM      9  C   UNL     1     134.325 126.875 116.242  1.00  0.00     0.094 A 
ATOM     10  C   UNL     1     134.695 127.834 117.190  1.00  0.00     0.146 A 
ATOM     11  O   UNL     1     135.221 127.434 118.342  1.00  0.00    -0.452 OA
ENDROOT
BRANCH   1  12
ATOM     12  C   UNL     1     136.190 127.700 120.534  1.00  0.00     0.025 A 
ATOM     13  C   UNL     1     135.339 127.213 121.538  1.00  0.00     0.016 A 
ATOM     14  C   UNL     1     135.869 126.653 122.702  1.00  0.00     0.051 A 
ATOM     15  C   UNL     1     137.252 126.552 122.881  1.00  0.00     0.157 A 
ATOM     16  C   UNL     1     137.580 127.579 120.701  1.00  0.00     0.062 A 
ATOM     17  C   UNL     1     138.120 127.015 121.863  1.00  0.00     0.158 A 
BRANCH  15  18
ATOM     18  O   UNL     1     137.717 125.987 124.071  1.00  0.00    -0.504 OA
ATOM     19  H   UNL     1     137.816 126.497 124.937  1.00  0.00     0.293 HD
ENDBRANCH  15  18
BRANCH  17  20
ATOM     20  O   UNL     1     139.510 126.929 121.962  1.00  0.00    -0.504 OA
ATOM     21  H   UNL     1     140.125 126.790 121.173  1.00  0.00     0.293 HD
ENDBRANCH  17  20
ENDBRANCH   1  12
BRANCH   2  22
ATOM     22  O   UNL     1     135.777 130.546 120.150  1.00  0.00    -0.502 OA
ATOM     23  H   UNL     1     135.104 130.862 120.840  1.00  0.00     0.293 HD
ENDBRANCH   2  22
BRANCH   6  24
ATOM     24  O   UNL     1     133.757 130.949 115.375  1.00  0.00    -0.507 OA
ATOM     25  H   UNL     1     134.487 131.512 114.952  1.00  0.00     0.293 HD
ENDBRANCH   6  24
BRANCH   8  26
ATOM     26  O   UNL     1     133.414 126.295 114.088  1.00  0.00    -0.508 OA
ATOM     27  H   UNL     1     133.823 126.273 113.161  1.00  0.00     0.293 HD
ENDBRANCH   8  26
TORSDOF 6
ENDMDL
MODEL 2
REMARK VINA RESULT:    -4.681      2.635      4.338
REMARK INTER + INTRA:          -5.969
REMARK INTER:                  -5.820
REMARK INTRA:                  -0.150
REMARK UNBOUND:                -0.330
REMARK SMILES O=c1c(O)c(-c2ccc(O)c(O)c2)oc2cc(O)cc(O)c12
REMARK SMILES IDX 5 1 3 2 2 3 1 4 22 5 20 6 19 7 17 8 16 9 15 10 14 11 6 12
REMARK SMILES IDX 7 13 8 14 9 15 13 16 11 17 10 18 12 20 4 22 21 24 18 26
REMARK H PARENT 10 19 12 21 4 23 21 25 18 27
REMARK Flexibility Score: inf
ROOT
ATOM      1  C   UNL     1     133.619 127.923 115.932  1.00  0.00     0.180 A 
ATOM      2  C   UNL     1     134.246 128.693 114.934  1.00  0.00     0.208 A 
ATOM      3  C   UNL     1     133.577 128.904 113.718  1.00  0.00     0.238 A 
ATOM      4  O   UNL     1     134.133 129.583 112.813  1.00  0.00    -0.285 OA
ATOM      5  C   UNL     1     132.289 128.361 113.529  1.00  0.00     0.111 A 
ATOM      6  C   UNL     1     131.546 128.529 112.336  1.00  0.00     0.134 A 
ATOM      7  C   UNL     1     130.266 127.965 112.228  1.00  0.00     0.093 A 
ATOM      8  C   UNL     1     129.717 127.236 113.290  1.00  0.00     0.123 A 
ATOM      9  C   UNL     1     130.447 127.067 114.467  1.00  0.00     0.094 A 
ATOM     10  C   UNL     1     131.724 127.621 114.593  1.00  0.00     0.146 A 
ATOM     11  O   UNL     1     132.398 127.439 115.723  1.00  0.00    -0.452 OA
ENDROOT
BRANCH   1  12
ATOM     12  C   UNL     1     134.269 127.640 117.232  1.00  0.00     0.025 A 
ATOM     13  C   UNL     1     134.632 126.324 117.549  1.00  0.00     0.016 A 
ATOM     14  C   UNL     1     135.263 126.038 118.761  1.00  0.00     0.051 A 
ATOM     15  C   UNL     1     135.559 127.058 119.671  1.00  0.00     0.157 A 
ATOM     16  C   UNL     1     134.585 128.671 118.133  1.00  0.00     0.062 A 
ATOM     17  C   UNL     1     135.221 128.394 119.349  1.00  0.00     0.158 A 
BRANCH  15  18
ATOM     18  O   UNL     1     136.185 126.705 120.868  1.00  0.00    -0.504 OA
ATOM     19  H   UNL     1     137.179 126.549 120.961  1.00  0.00     0.293 HD
ENDBRANCH  15  18
BRANCH  17  20
ATOM     20  O   UNL     1     135.503 129.468 120.198  1.00  0.00    -0.504 OA
ATOM     21  H   UNL     1     135.569 129.391 121.202  1.00  0.00     0.293 HD
ENDBRANCH  17  20
ENDBRANCH   1  12
BRANCH   2  22
ATOM     22  O   UNL     1     135.501 129.262 115.165  1.00  0.00    -0.502 OA
ATOM     23  H   UNL     1     135.694 129.839 115.975  1.00  0.00     0.293 HD
ENDBRANCH   2  22
BRANCH   6  24
ATOM     24  O   UNL     1     132.066 129.251 111.261  1.00  0.00    -0.507 OA
ATOM     25  H   UNL     1     131.712 130.168 111.012  1.00  0.00     0.293 HD
ENDBRANCH   6  24
BRANCH   8  26
ATOM     26  O   UNL     1     128.445 126.676 113.183  1.00  0.00    -0.508 OA
ATOM     27  H   UNL     1     127.822 126.918 112.422  1.00  0.00     0.293 HD
ENDBRANCH   8  26
TORSDOF 6
ENDMDL
MODEL 3
REMARK VINA RESULT:    -4.656      2.188      4.151
REMARK INTER + INTRA:          -5.939
REMARK INTER:                  -5.838
REMARK INTRA:                  -0.101
REMARK UNBOUND:                -0.330
REMARK SMILES O=c1c(O)c(-c2ccc(O)c(O)c2)oc2cc(O)cc(O)c12
REMARK SMILES IDX 5 1 3 2 2 3 1 4 22 5 20 6 19 7 17 8 16 9 15 10 14 11 6 12
REMARK SMILES IDX 7 13 8 14 9 15 13 16 11 17 10 18 12 20 4 22 21 24 18 26
REMARK H PARENT 10 19 12 21 4 23 21 25 18 27
REMARK Flexibility Score: inf
ROOT
ATOM      1  C   UNL     1     133.835 127.529 116.659  1.00  0.00     0.180 A 
ATOM      2  C   UNL     1     132.652 126.786 116.479  1.00  0.00     0.208 A 
ATOM      3  C   UNL     1     131.917 126.955 115.296  1.00  0.00     0.238 A 
ATOM      4  O   UNL     1     130.851 126.303 115.129  1.00  0.00    -0.285 OA
ATOM      5  C   UNL     1     132.385 127.844 114.306  1.00  0.00     0.111 A 
ATOM      6  C   UNL     1     131.707 128.069 113.084  1.00  0.00     0.134 A 
ATOM      7  C   UNL     1     132.243 128.963 112.145  1.00  0.00     0.093 A 
ATOM      8  C   UNL     1     133.442 129.636 112.406  1.00  0.00     0.123 A 
ATOM      9  C   UNL     1     134.113 129.418 113.610  1.00  0.00     0.094 A 
ATOM     10  C   UNL     1     133.595 128.531 114.558  1.00  0.00     0.146 A 
ATOM     11  O   UNL     1     134.253 128.347 115.698  1.00  0.00    -0.452 OA
ENDROOT
BRANCH   1  12
ATOM     12  C   UNL     1     134.653 127.421 117.888  1.00  0.00     0.025 A 
ATOM     13  C   UNL     1     135.222 126.186 118.230  1.00  0.00     0.016 A 
ATOM     14  C   UNL     1     136.012 126.065 119.375  1.00  0.00     0.051 A 
ATOM     15  C   UNL     1     136.264 127.174 120.189  1.00  0.00     0.157 A 
ATOM     16  C   UNL     1     134.922 128.542 118.691  1.00  0.00     0.062 A 
ATOM     17  C   UNL     1     135.717 128.431 119.839  1.00  0.00     0.158 A 
BRANCH  15  18
ATOM     18  O   UNL     1     137.057 126.985 121.323  1.00  0.00    -0.504 OA
ATOM     19  H   UNL     1     136.766 126.459 122.135  1.00  0.00     0.293 HD
ENDBRANCH  15  18
BRANCH  17  20
ATOM     20  O   UNL     1     135.941 129.586 120.591  1.00  0.00    -0.504 OA
ATOM     21  H   UNL     1     135.860 130.523 120.224  1.00  0.00     0.293 HD
ENDBRANCH  17  20
ENDBRANCH   1  12
BRANCH   2  22
ATOM     22  O   UNL     1     132.236 125.875 117.454  1.00  0.00    -0.502 OA
ATOM     23  H   UNL     1     132.726 125.761 118.334  1.00  0.00     0.293 HD
ENDBRANCH   2  22
BRANCH   6  24
ATOM     24  O   UNL     1     130.510 127.413 112.796  1.00  0.00    -0.507 OA
ATOM     25  H   UNL     1     129.673 127.921 112.532  1.00  0.00     0.293 HD
ENDBRANCH   6  24
BRANCH   8  26
ATOM     26  O   UNL     1     133.974 130.524 111.473  1.00  0.00    -0.508 OA
ATOM     27  H   UNL     1     133.475 130.764 110.625  1.00  0.00     0.293 HD
ENDBRANCH   8  26
TORSDOF 6
ENDMDL
MODEL 4
REMARK VINA RESULT:    -4.630      2.145      7.229
REMARK INTER + INTRA:          -5.908
REMARK INTER:                  -5.697
REMARK INTRA:                  -0.210
REMARK UNBOUND:                -0.330
REMARK SMILES O=c1c(O)c(-c2ccc(O)c(O)c2)oc2cc(O)cc(O)c12
REMARK SMILES IDX 5 1 3 2 2 3 1 4 22 5 20 6 19 7 17 8 16 9 15 10 14 11 6 12
REMARK SMILES IDX 7 13 8 14 9 15 13 16 11 17 10 18 12 20 4 22 21 24 18 26
REMARK H PARENT 10 19 12 21 4 23 21 25 18 27
REMARK Flexibility Score: inf
ROOT
ATOM      1  C   UNL     1     133.713 128.406 116.082  1.00  0.00     0.180 A 
ATOM      2  C   UNL     1     134.427 129.611 115.936  1.00  0.00     0.208 A 
ATOM      3  C   UNL     1     135.144 130.113 117.032  1.00  0.00     0.238 A 
ATOM      4  O   UNL     1     135.778 131.196 116.916  1.00  0.00    -0.285 OA
ATOM      5  C   UNL     1     135.153 129.395 118.246  1.00  0.00     0.111 A 
ATOM      6  C   UNL     1     135.854 129.829 119.397  1.00  0.00     0.134 A 
ATOM      7  C   UNL     1     135.822 129.052 120.565  1.00  0.00     0.093 A 
ATOM      8  C   UNL     1     135.103 127.852 120.603  1.00  0.00     0.123 A 
ATOM      9  C   UNL     1     134.411 127.421 119.471  1.00  0.00     0.094 A 
ATOM     10  C   UNL     1     134.429 128.181 118.298  1.00  0.00     0.146 A 
ATOM     11  O   UNL     1     133.756 127.749 117.237  1.00  0.00    -0.452 OA
ENDROOT
BRANCH   1  12
ATOM     12  C   UNL     1     132.917 127.825 114.978  1.00  0.00     0.025 A 
ATOM     13  C   UNL     1     133.283 126.580 114.446  1.00  0.00     0.016 A 
ATOM     14  C   UNL     1     132.535 126.005 113.417  1.00  0.00     0.051 A 
ATOM     15  C   UNL     1     131.402 126.648 112.911  1.00  0.00     0.157 A 
ATOM     16  C   UNL     1     131.765 128.464 114.488  1.00  0.00     0.062 A 
ATOM     17  C   UNL     1     131.007 127.892 113.458  1.00  0.00     0.158 A 
BRANCH  15  18
ATOM     18  O   UNL     1     130.701 126.022 111.877  1.00  0.00    -0.504 OA
ATOM     19  H   UNL     1     129.859 126.393 111.460  1.00  0.00     0.293 HD
ENDBRANCH  15  18
BRANCH  17  20
ATOM     20  O   UNL     1     129.876 128.585 113.019  1.00  0.00    -0.504 OA
ATOM     21  H   UNL     1     129.545 129.444 113.432  1.00  0.00     0.293 HD
ENDBRANCH  17  20
ENDBRANCH   1  12
BRANCH   2  22
ATOM     22  O   UNL     1     134.441 130.278 114.708  1.00  0.00    -0.502 OA
ATOM     23  H   UNL     1     134.165 129.828 113.843  1.00  0.00     0.293 HD
ENDBRANCH   2  22
BRANCH   6  24
ATOM     24  O   UNL     1     136.580 131.020 119.390  1.00  0.00    -0.507 OA
ATOM     25  H   UNL     1     137.571 131.041 119.176  1.00  0.00     0.293 HD
ENDBRANCH   6  24
BRANCH   8  26
ATOM     26  O   UNL     1     135.072 127.080 121.763  1.00  0.00    -0.508 OA
ATOM     27  H   UNL     1     134.227 126.988 122.315  1.00  0.00     0.293 HD
ENDBRANCH   8  26
TORSDOF 6
ENDMDL
MODEL 5
REMARK VINA RESULT:    -4.601      2.514      4.043
REMARK INTER + INTRA:          -5.873
REMARK INTER:                  -5.637
REMARK INTRA:                  -0.236
REMARK UNBOUND:                -0.330
REMARK SMILES O=c1c(O)c(-c2ccc(O)c(O)c2)oc2cc(O)cc(O)c12
REMARK SMILES IDX 5 1 3 2 2 3 1 4 22 5 20 6 19 7 17 8 16 9 15 10 14 11 6 12
REMARK SMILES IDX 7 13 8 14 9 15 13 16 11 17 10 18 12 20 4 22 21 24 18 26
REMARK H PARENT 10 19 12 21 4 23 21 25 18 27
REMARK Flexibility Score: inf
ROOT
ATOM      1  C   UNL     1     137.987 128.116 122.052  1.00  0.00     0.180 A 
ATOM      2  C   UNL     1     138.274 129.356 121.449  1.00  0.00     0.208 A 
ATOM      3  C   UNL     1     137.435 129.823 120.426  1.00  0.00     0.238 A 
ATOM      4  O   UNL     1     137.688 130.927 119.872  1.00  0.00    -0.285 OA
ATOM      5  C   UNL     1     136.316 129.057 120.038  1.00  0.00     0.111 A 
ATOM      6  C   UNL     1     135.419 129.458 119.019  1.00  0.00     0.134 A 
ATOM      7  C   UNL     1     134.323 128.644 118.697  1.00  0.00     0.093 A 
ATOM      8  C   UNL     1     134.108 127.438 119.374  1.00  0.00     0.123 A 
ATOM      9  C   UNL     1     134.990 127.039 120.379  1.00  0.00     0.094 A 
ATOM     10  C   UNL     1     136.089 127.836 120.713  1.00  0.00     0.146 A 
ATOM     11  O   UNL     1     136.915 127.428 121.670  1.00  0.00    -0.452 OA
ENDROOT
BRANCH   1  12
ATOM     12  C   UNL     1     138.836 127.547 123.123  1.00  0.00     0.025 A 
ATOM     13  C   UNL     1     139.693 126.477 122.828  1.00  0.00     0.016 A 
ATOM     14  C   UNL     1     140.516 125.938 123.819  1.00  0.00     0.051 A 
ATOM     15  C   UNL     1     140.513 126.464 125.115  1.00  0.00     0.157 A 
ATOM     16  C   UNL     1     138.847 128.093 124.418  1.00  0.00     0.062 A 
ATOM     17  C   UNL     1     139.672 127.561 125.417  1.00  0.00     0.158 A 
BRANCH  15  18
ATOM     18  O   UNL     1     141.355 125.875 126.061  1.00  0.00    -0.504 OA
ATOM     19  H   UNL     1     142.364 125.898 126.012  1.00  0.00     0.293 HD
ENDBRANCH  15  18
BRANCH  17  20
ATOM     20  O   UNL     1     139.629 128.152 126.682  1.00  0.00    -0.504 OA
ATOM     21  H   UNL     1     139.257 129.073 126.862  1.00  0.00     0.293 HD
ENDBRANCH  17  20
ENDBRANCH   1  12
BRANCH   2  22
ATOM     22  O   UNL     1     139.360 130.118 121.887  1.00  0.00    -0.502 OA
ATOM     23  H   UNL     1     140.288 129.727 121.996  1.00  0.00     0.293 HD
ENDBRANCH   2  22
BRANCH   6  24
ATOM     24  O   UNL     1     135.607 130.655 118.327  1.00  0.00    -0.507 OA
ATOM     25  H   UNL     1     135.248 131.536 118.677  1.00  0.00     0.293 HD
ENDBRANCH   6  24
BRANCH   8  26
ATOM     26  O   UNL     1     133.019 126.629 119.054  1.00  0.00    -0.508 OA
ATOM     27  H   UNL     1     132.671 125.929 119.698  1.00  0.00     0.293 HD
ENDBRANCH   8  26
TORSDOF 6
ENDMDL
MODEL 6
REMARK VINA RESULT:    -4.428      4.015      7.913
REMARK INTER + INTRA:          -5.664
REMARK INTER:                  -5.371
REMARK INTRA:                  -0.293
REMARK UNBOUND:                -0.330
REMARK SMILES O=c1c(O)c(-c2ccc(O)c(O)c2)oc2cc(O)cc(O)c12
REMARK SMILES IDX 5 1 3 2 2 3 1 4 22 5 20 6 19 7 17 8 16 9 15 10 14 11 6 12
REMARK SMILES IDX 7 13 8 14 9 15 13 16 11 17 10 18 12 20 4 22 21 24 18 26
REMARK H PARENT 10 19 12 21 4 23 21 25 18 27
REMARK Flexibility Score: inf
ROOT
ATOM      1  C   UNL     1     138.369 129.423 121.629  1.00  0.00     0.180 A 
ATOM      2  C   UNL     1     139.475 130.016 120.989  1.00  0.00     0.208 A 
ATOM      3  C   UNL     1     140.313 130.863 121.729  1.00  0.00     0.238 A 
ATOM      4  O   UNL     1     141.299 131.409 121.165  1.00  0.00    -0.285 OA
ATOM      5  C   UNL     1     140.046 131.087 123.096  1.00  0.00     0.111 A 
ATOM      6  C   UNL     1     140.843 131.923 123.914  1.00  0.00     0.134 A 
ATOM      7  C   UNL     1     140.517 132.088 125.269  1.00  0.00     0.093 A 
ATOM      8  C   UNL     1     139.410 131.432 125.819  1.00  0.00     0.123 A 
ATOM      9  C   UNL     1     138.621 130.607 125.016  1.00  0.00     0.094 A 
ATOM     10  C   UNL     1     138.929 130.432 123.664  1.00  0.00     0.146 A 
ATOM     11  O   UNL     1     138.157 129.645 122.922  1.00  0.00    -0.452 OA
ENDROOT
BRANCH   1  12
ATOM     12  C   UNL     1     137.429 128.533 120.910  1.00  0.00     0.025 A 
ATOM     13  C   UNL     1     137.776 127.192 120.697  1.00  0.00     0.016 A 
ATOM     14  C   UNL     1     136.896 126.331 120.038  1.00  0.00     0.051 A 
ATOM     15  C   UNL     1     135.650 126.785 119.594  1.00  0.00     0.157 A 
ATOM     16  C   UNL     1     136.169 128.988 120.486  1.00  0.00     0.062 A 
ATOM     17  C   UNL     1     135.278 128.131 119.828  1.00  0.00     0.158 A 
BRANCH  15  18
ATOM     18  O   UNL     1     134.819 125.876 118.936  1.00  0.00    -0.504 OA
ATOM     19  H   UNL     1     133.821 125.994 118.835  1.00  0.00     0.293 HD
ENDBRANCH  15  18
BRANCH  17  20
ATOM     20  O   UNL     1     134.043 128.651 119.433  1.00  0.00    -0.504 OA
ATOM     21  H   UNL     1     133.544 129.367 119.940  1.00  0.00     0.293 HD
ENDBRANCH  17  20
ENDBRANCH   1  12
BRANCH   2  22
ATOM     22  O   UNL     1     139.746 129.739 119.647  1.00  0.00    -0.502 OA
ATOM     23  H   UNL     1     140.691 129.663 119.288  1.00  0.00     0.293 HD
ENDBRANCH   2  22
BRANCH   6  24
ATOM     24  O   UNL     1     141.953 132.590 123.394  1.00  0.00    -0.507 OA
ATOM     25  H   UNL     1     142.391 133.362 123.884  1.00  0.00     0.293 HD
ENDBRANCH   6  24
BRANCH   8  26
ATOM     26  O   UNL     1     139.086 131.595 127.165  1.00  0.00    -0.508 OA
ATOM     27  H   UNL     1     139.620 132.209 127.767  1.00  0.00     0.293 HD
ENDBRANCH   8  26
TORSDOF 6
ENDMDL
MODEL 7
REMARK VINA RESULT:    -4.420      2.922      4.788
REMARK INTER + INTRA:          -5.655
REMARK INTER:                  -5.340
REMARK INTRA:                  -0.315
REMARK UNBOUND:                -0.330
REMARK SMILES O=c1c(O)c(-c2ccc(O)c(O)c2)oc2cc(O)cc(O)c12
REMARK SMILES IDX 5 1 3 2 2 3 1 4 22 5 20 6 19 7 17 8 16 9 15 10 14 11 6 12
REMARK SMILES IDX 7 13 8 14 9 15 13 16 11 17 10 18 12 20 4 22 21 24 18 26
REMARK H PARENT 10 19 12 21 4 23 21 25 18 27
REMARK Flexibility Score: inf
ROOT
ATOM      1  C   UNL     1     137.767 127.931 122.199  1.00  0.00     0.180 A 
ATOM      2  C   UNL     1     136.508 127.333 121.995  1.00  0.00     0.208 A 
ATOM      3  C   UNL     1     135.636 127.894 121.049  1.00  0.00     0.238 A 
ATOM      4  O   UNL     1     134.502 127.375 120.865  1.00  0.00    -0.285 OA
ATOM      5  C   UNL     1     136.043 129.025 120.311  1.00  0.00     0.111 A 
ATOM      6  C   UNL     1     135.227 129.648 119.336  1.00  0.00     0.134 A 
ATOM      7  C   UNL     1     135.708 130.765 118.636  1.00  0.00     0.093 A 
ATOM      8  C   UNL     1     136.988 131.269 118.893  1.00  0.00     0.123 A 
ATOM      9  C   UNL     1     137.795 130.658 119.853  1.00  0.00     0.094 A 
ATOM     10  C   UNL     1     137.333 129.545 120.562  1.00  0.00     0.146 A 
ATOM     11  O   UNL     1     138.122 128.987 121.474  1.00  0.00    -0.452 OA
ENDROOT
BRANCH   1  12
ATOM     12  C   UNL     1     138.733 127.409 123.192  1.00  0.00     0.025 A 
ATOM     13  C   UNL     1     139.602 126.370 122.830  1.00  0.00     0.016 A 
ATOM     14  C   UNL     1     140.533 125.876 123.745  1.00  0.00     0.051 A 
ATOM     15  C   UNL     1     140.628 126.418 125.031  1.00  0.00     0.157 A 
ATOM     16  C   UNL     1     138.840 127.972 124.476  1.00  0.00     0.062 A 
ATOM     17  C   UNL     1     139.774 127.485 125.399  1.00  0.00     0.158 A 
BRANCH  15  18
ATOM     18  O   UNL     1     141.575 125.875 125.901  1.00  0.00    -0.504 OA
ATOM     19  H   UNL     1     142.502 126.255 126.035  1.00  0.00     0.293 HD
ENDBRANCH  15  18
BRANCH  17  20
ATOM     20  O   UNL     1     139.823 128.090 126.657  1.00  0.00    -0.504 OA
ATOM     21  H   UNL     1     139.008 128.392 127.171  1.00  0.00     0.293 HD
ENDBRANCH  17  20
ENDBRANCH   1  12
BRANCH   2  22
ATOM     22  O   UNL     1     136.148 126.184 122.704  1.00  0.00    -0.502 OA
ATOM     23  H   UNL     1     136.563 125.946 123.597  1.00  0.00     0.293 HD
ENDBRANCH   2  22
BRANCH   6  24
ATOM     24  O   UNL     1     133.946 129.168 119.058  1.00  0.00    -0.507 OA
ATOM     25  H   UNL     1     133.794 128.379 118.440  1.00  0.00     0.293 HD
ENDBRANCH   6  24
BRANCH   8  26
ATOM     26  O   UNL     1     137.466 132.378 118.198  1.00  0.00    -0.508 OA
ATOM     27  H   UNL     1     137.997 133.106 118.661  1.00  0.00     0.293 HD
ENDBRANCH   8  26
TORSDOF 6
ENDMDL
MODEL 8
REMARK VINA RESULT:    -4.413      2.775      8.382
REMARK INTER + INTRA:          -5.647
REMARK INTER:                  -5.371
REMARK INTRA:                  -0.276
REMARK UNBOUND:                -0.330
REMARK SMILES O=c1c(O)c(-c2ccc(O)c(O)c2)oc2cc(O)cc(O)c12
REMARK SMILES IDX 5 1 3 2 2 3 1 4 22 5 20 6 19 7 17 8 16 9 15 10 14 11 6 12
REMARK SMILES IDX 7 13 8 14 9 15 13 16 11 17 10 18 12 20 4 22 21 24 18 26
REMARK H PARENT 10 19 12 21 4 23 21 25 18 27
REMARK Flexibility Score: inf
ROOT
ATOM      1  C   UNL     1     137.741 128.709 121.843  1.00  0.00     0.180 A 
ATOM      2  C   UNL     1     138.609 127.613 121.676  1.00  0.00     0.208 A 
ATOM      3  C   UNL     1     139.410 127.212 122.756  1.00  0.00     0.238 A 
ATOM      4  O   UNL     1     140.200 126.240 122.616  1.00  0.00    -0.285 OA
ATOM      5  C   UNL     1     139.315 127.896 123.986  1.00  0.00     0.111 A 
ATOM      6  C   UNL     1     140.084 127.553 125.124  1.00  0.00     0.134 A 
ATOM      7  C   UNL     1     139.925 128.277 126.316  1.00  0.00     0.093 A 
ATOM      8  C   UNL     1     139.012 129.336 126.389  1.00  0.00     0.123 A 
ATOM      9  C   UNL     1     138.253 129.678 125.269  1.00  0.00     0.094 A 
ATOM     10  C   UNL     1     138.399 128.969 124.072  1.00  0.00     0.146 A 
ATOM     11  O   UNL     1     137.667 129.320 123.021  1.00  0.00    -0.452 OA
ENDROOT
BRANCH   1  12
ATOM     12  C   UNL     1     136.879 129.203 120.744  1.00  0.00     0.025 A 
ATOM     13  C   UNL     1     137.273 130.336 120.017  1.00  0.00     0.016 A 
ATOM     14  C   UNL     1     136.485 130.808 118.966  1.00  0.00     0.051 A 
ATOM     15  C   UNL     1     135.302 130.153 118.608  1.00  0.00     0.157 A 
ATOM     16  C   UNL     1     135.704 128.529 120.374  1.00  0.00     0.062 A 
ATOM     17  C   UNL     1     134.909 128.993 119.318  1.00  0.00     0.158 A 
BRANCH  15  18
ATOM     18  O   UNL     1     134.557 130.680 117.551  1.00  0.00    -0.504 OA
ATOM     19  H   UNL     1     134.963 131.080 116.718  1.00  0.00     0.293 HD
ENDBRANCH  15  18
BRANCH  17  20
ATOM     20  O   UNL     1     133.753 128.274 119.007  1.00  0.00    -0.504 OA
ATOM     21  H   UNL     1     132.816 128.625 119.145  1.00  0.00     0.293 HD
ENDBRANCH  17  20
ENDBRANCH   1  12
BRANCH   2  22
ATOM     22  O   UNL     1     138.649 126.921 120.463  1.00  0.00    -0.502 OA
ATOM     23  H   UNL     1     139.252 127.201 119.698  1.00  0.00     0.293 HD
ENDBRANCH   2  22
BRANCH   6  24
ATOM     24  O   UNL     1     141.001 126.502 125.082  1.00  0.00    -0.507 OA
ATOM     25  H   UNL     1     141.356 126.139 124.205  1.00  0.00     0.293 HD
ENDBRANCH   6  24
BRANCH   8  26
ATOM     26  O   UNL     1     138.854 130.055 127.572  1.00  0.00    -0.508 OA
ATOM     27  H   UNL     1     139.533 129.998 128.321  1.00  0.00     0.293 HD
ENDBRANCH   8  26
TORSDOF 6
ENDMDL
