MODEL 1
REMARK VINA RESULT:    -5.058      0.000      0.000
REMARK INTER + INTRA:          -5.206
REMARK INTER:                  -5.206
REMARK INTRA:                   0.000
REMARK UNBOUND:                 0.000
REMARK SMILES O=c1ccc2ccc(O)cc2o1
REMARK SMILES IDX 6 1 7 2 8 3 10 4 11 5 5 6 4 7 3 8 2 9 1 10 12 11 9 12
REMARK H PARENT 9 13
REMARK Flexibility Score: inf
ROOT
ATOM      1  C   UNL     1      14.065 -12.653  -0.884  1.00  0.00     0.016 A 
ATOM      2  C   UNL     1      13.071 -13.402  -0.248  1.00  0.00     0.047 A 
ATOM      3  C   UNL     1      12.135 -14.120  -1.003  1.00  0.00     0.119 A 
ATOM      4  C   UNL     1      12.194 -14.088  -2.405  1.00  0.00     0.094 A 
ATOM      5  C   UNL     1      13.185 -13.341  -3.049  1.00  0.00     0.142 A 
ATOM      6  C   UNL     1      14.127 -12.617  -2.284  1.00  0.00     0.018 A 
ATOM      7  C   UNL     1      15.107 -11.880  -2.957  1.00  0.00     0.019 A 
ATOM      8  C   UNL     1      15.125 -11.878  -4.351  1.00  0.00     0.094 A 
ATOM      9  C   UNL     1      14.159 -12.618  -5.044  1.00  0.00     0.336 A 
ATOM     10  O   UNL     1      14.159 -12.629  -6.302  1.00  0.00    -0.246 OA
ATOM     11  O   UNL     1      13.238 -13.312  -4.378  1.00  0.00    -0.423 OA
ENDROOT
BRANCH   3  12
ATOM     12  O   UNL     1      11.152 -14.862  -0.352  1.00  0.00    -0.508 OA
ATOM     13  H   UNL     1      10.178 -14.804  -0.624  1.00  0.00     0.293 HD
ENDBRANCH   3  12
TORSDOF 1
ENDMDL
MODEL 2
REMARK VINA RESULT:    -4.385      2.025      4.682
REMARK INTER + INTRA:          -4.513
REMARK INTER:                  -4.513
REMARK INTRA:                   0.000
REMARK UNBOUND:                 0.000
REMARK SMILES O=c1ccc2ccc(O)cc2o1
REMARK SMILES IDX 6 1 7 2 8 3 10 4 11 5 5 6 4 7 3 8 2 9 1 10 12 11 9 12
REMARK H PARENT 9 13
REMARK Flexibility Score: inf
ROOT
ATOM      1  C   UNL     1      13.074 -13.910  -3.411  1.00  0.00     0.016 A 
ATOM      2  C   UNL     1      13.619 -13.395  -4.592  1.00  0.00     0.047 A 
ATOM      3  C   UNL     1      14.589 -12.386  -4.542  1.00  0.00     0.119 A 
ATOM      4  C   UNL     1      15.018 -11.888  -3.302  1.00  0.00     0.094 A 
ATOM      5  C   UNL     1      14.478 -12.397  -2.116  1.00  0.00     0.142 A 
ATOM      6  C   UNL     1      13.500 -13.415  -2.171  1.00  0.00     0.018 A 
ATOM      7  C   UNL     1      12.979 -13.903  -0.968  1.00  0.00     0.019 A 
ATOM      8  C   UNL     1      13.436 -13.377   0.239  1.00  0.00     0.094 A 
ATOM      9  C   UNL     1      14.408 -12.370   0.217  1.00  0.00     0.336 A 
ATOM     10  O   UNL     1      14.832 -11.882   1.296  1.00  0.00    -0.246 OA
ATOM     11  O   UNL     1      14.887 -11.923  -0.942  1.00  0.00    -0.423 OA
ENDROOT
BRANCH   3  12
ATOM     12  O   UNL     1      15.120 -11.886  -5.729  1.00  0.00    -0.508 OA
ATOM     13  H   UNL     1      14.620 -11.961  -6.606  1.00  0.00     0.293 HD
ENDBRANCH   3  12
TORSDOF 1
ENDMDL
MODEL 3
REMARK VINA RESULT:    -4.147      1.722      2.450
REMARK INTER + INTRA:          -4.268
REMARK INTER:                  -4.268
REMARK INTRA:                   0.000
REMARK UNBOUND:                 0.000
REMARK SMILES O=c1ccc2ccc(O)cc2o1
REMARK SMILES IDX 6 1 7 2 8 3 10 4 11 5 5 6 4 7 3 8 2 9 1 10 12 11 9 12
REMARK H PARENT 9 13
REMARK Flexibility Score: inf
ROOT
ATOM      1  C   UNL     1      12.676 -14.002  -1.294  1.00  0.00     0.016 A 
ATOM      2  C   UNL     1      13.295 -13.846  -0.049  1.00  0.00     0.047 A 
ATOM      3  C   UNL     1      14.510 -13.158   0.056  1.00  0.00     0.119 A 
ATOM      4  C   UNL     1      15.111 -12.621  -1.093  1.00  0.00     0.094 A 
ATOM      5  C   UNL     1      14.500 -12.773  -2.342  1.00  0.00     0.142 A 
ATOM      6  C   UNL     1      13.274 -13.469  -2.444  1.00  0.00     0.018 A 
ATOM      7  C   UNL     1      12.687 -13.604  -3.706  1.00  0.00     0.019 A 
ATOM      8  C   UNL     1      13.323 -13.054  -4.818  1.00  0.00     0.094 A 
ATOM      9  C   UNL     1      14.536 -12.379  -4.642  1.00  0.00     0.336 A 
ATOM     10  O   UNL     1      15.124 -11.876  -5.634  1.00  0.00    -0.246 OA
ATOM     11  O   UNL     1      15.073 -12.264  -3.430  1.00  0.00    -0.423 OA
ENDROOT
BRANCH   3  12
ATOM     12  O   UNL     1      15.110 -13.012   1.304  1.00  0.00    -0.508 OA
ATOM     13  H   UNL     1      15.601 -12.163   1.560  1.00  0.00     0.293 HD
ENDBRANCH   3  12
TORSDOF 1
ENDMDL
MODEL 4
REMARK VINA RESULT:    -3.224      1.378      4.421
REMARK INTER + INTRA:          -3.318
REMARK INTER:                  -3.318
REMARK INTRA:                   0.000
REMARK UNBOUND:                 0.000
REMARK SMILES O=c1ccc2ccc(O)cc2o1
REMARK SMILES IDX 6 1 7 2 8 3 10 4 11 5 5 6 4 7 3 8 2 9 1 10 12 11 9 12
REMARK H PARENT 9 13
REMARK Flexibility Score: inf
ROOT
ATOM      1  C   UNL     1      13.813 -11.875  -3.898  1.00  0.00     0.016 A 
ATOM      2  C   UNL     1      14.302 -12.171  -5.175  1.00  0.00     0.047 A 
ATOM      3  C   UNL     1      14.352 -13.497  -5.623  1.00  0.00     0.119 A 
ATOM      4  C   UNL     1      13.910 -14.535  -4.789  1.00  0.00     0.094 A 
ATOM      5  C   UNL     1      13.420 -14.248  -3.510  1.00  0.00     0.142 A 
ATOM      6  C   UNL     1      13.372 -12.909  -3.061  1.00  0.00     0.018 A 
ATOM      7  C   UNL     1      12.876 -12.654  -1.779  1.00  0.00     0.019 A 
ATOM      8  C   UNL     1      12.449 -13.718  -0.986  1.00  0.00     0.094 A 
ATOM      9  C   UNL     1      12.527 -15.019  -1.497  1.00  0.00     0.336 A 
ATOM     10  O   UNL     1      12.146 -15.993  -0.796  1.00  0.00    -0.246 OA
ATOM     11  O   UNL     1      13.002 -15.234  -2.721  1.00  0.00    -0.423 OA
ENDROOT
BRANCH   3  12
ATOM     12  O   UNL     1      14.841 -13.772  -6.898  1.00  0.00    -0.508 OA
ATOM     13  H   UNL     1      15.277 -14.659  -7.118  1.00  0.00     0.293 HD
ENDBRANCH   3  12
TORSDOF 1
ENDMDL
MODEL 5
REMARK VINA RESULT:    -2.893     22.159     23.776
REMARK INTER + INTRA:          -2.977
REMARK INTER:                  -2.977
REMARK INTRA:                   0.000
REMARK UNBOUND:                 0.000
REMARK SMILES O=c1ccc2ccc(O)cc2o1
REMARK SMILES IDX 6 1 7 2 8 3 10 4 11 5 5 6 4 7 3 8 2 9 1 10 12 11 9 12
REMARK H PARENT 9 13
REMARK Flexibility Score: inf
ROOT
ATOM      1  C   UNL     1      -1.872 -31.120  -3.904  1.00  0.00     0.016 A 
ATOM      2  C   UNL     1      -3.160 -31.375  -4.384  1.00  0.00     0.047 A 
ATOM      3  C   UNL     1      -3.347 -31.876  -5.679  1.00  0.00     0.119 A 
ATOM      4  C   UNL     1      -2.236 -32.123  -6.500  1.00  0.00     0.094 A 
ATOM      5  C   UNL     1      -0.943 -31.871  -6.028  1.00  0.00     0.142 A 
ATOM      6  C   UNL     1      -0.760 -31.365  -4.721  1.00  0.00     0.018 A 
ATOM      7  C   UNL     1       0.544 -31.122  -4.278  1.00  0.00     0.019 A 
ATOM      8  C   UNL     1       1.616 -31.383  -5.130  1.00  0.00     0.094 A 
ATOM      9  C   UNL     1       1.359 -31.883  -6.412  1.00  0.00     0.336 A 
ATOM     10  O   UNL     1       2.313 -32.125  -7.195  1.00  0.00    -0.246 OA
ATOM     11  O   UNL     1       0.108 -32.106  -6.809  1.00  0.00    -0.423 OA
ENDROOT
BRANCH   3  12
ATOM     12  O   UNL     1      -4.638 -32.125  -6.139  1.00  0.00    -0.508 OA
ATOM     13  H   UNL     1      -4.807 -32.698  -6.956  1.00  0.00     0.293 HD
ENDBRANCH   3  12
TORSDOF 1
ENDMDL
MODEL 6
REMARK VINA RESULT:    -2.840     22.140     23.963
REMARK INTER + INTRA:          -2.923
REMARK INTER:                  -2.923
REMARK INTRA:                   0.000
REMARK UNBOUND:                 0.000
REMARK SMILES O=c1ccc2ccc(O)cc2o1
REMARK SMILES IDX 6 1 7 2 8 3 10 4 11 5 5 6 4 7 3 8 2 9 1 10 12 11 9 12
REMARK H PARENT 9 13
REMARK Flexibility Score: inf
ROOT
ATOM      1  C   UNL     1       0.573 -31.148  -4.296  1.00  0.00     0.016 A 
ATOM      2  C   UNL     1       1.646 -31.397  -5.157  1.00  0.00     0.047 A 
ATOM      3  C   UNL     1       1.418 -31.884  -6.450  1.00  0.00     0.119 A 
ATOM      4  C   UNL     1       0.106 -32.123  -6.886  1.00  0.00     0.094 A 
ATOM      5  C   UNL     1      -0.974 -31.877  -6.031  1.00  0.00     0.142 A 
ATOM      6  C   UNL     1      -0.739 -31.387  -4.727  1.00  0.00     0.018 A 
ATOM      7  C   UNL     1      -1.839 -31.151  -3.896  1.00  0.00     0.019 A 
ATOM      8  C   UNL     1      -3.124 -31.404  -4.373  1.00  0.00     0.094 A 
ATOM      9  C   UNL     1      -3.281 -31.890  -5.676  1.00  0.00     0.336 A 
ATOM     10  O   UNL     1      -4.433 -32.125  -6.125  1.00  0.00    -0.246 OA
ATOM     11  O   UNL     1      -2.217 -32.106  -6.447  1.00  0.00    -0.423 OA
ENDROOT
BRANCH   3  12
ATOM     12  O   UNL     1       2.500 -32.125  -7.294  1.00  0.00    -0.508 OA
ATOM     13  H   UNL     1       2.485 -32.876  -7.972  1.00  0.00     0.293 HD
ENDBRANCH   3  12
TORSDOF 1
ENDMDL
MODEL 7
REMARK VINA RESULT:    -2.781      2.244      3.000
REMARK INTER + INTRA:          -2.862
REMARK INTER:                  -2.862
REMARK INTRA:                   0.000
REMARK UNBOUND:                 0.000
REMARK SMILES O=c1ccc2ccc(O)cc2o1
REMARK SMILES IDX 6 1 7 2 8 3 10 4 11 5 5 6 4 7 3 8 2 9 1 10 12 11 9 12
REMARK H PARENT 9 13
REMARK Flexibility Score: inf
ROOT
ATOM      1  C   UNL     1      14.752 -12.390  -0.383  1.00  0.00     0.016 A 
ATOM      2  C   UNL     1      15.125 -13.236   0.666  1.00  0.00     0.047 A 
ATOM      3  C   UNL     1      14.415 -14.419   0.907  1.00  0.00     0.119 A 
ATOM      4  C   UNL     1      13.323 -14.757   0.093  1.00  0.00     0.094 A 
ATOM      5  C   UNL     1      12.943 -13.916  -0.958  1.00  0.00     0.142 A 
ATOM      6  C   UNL     1      13.662 -12.724  -1.198  1.00  0.00     0.018 A 
ATOM      7  C   UNL     1      13.258 -11.904  -2.256  1.00  0.00     0.019 A 
ATOM      8  C   UNL     1      12.167 -12.282  -3.037  1.00  0.00     0.094 A 
ATOM      9  C   UNL     1      11.501 -13.477  -2.740  1.00  0.00     0.336 A 
ATOM     10  O   UNL     1      10.515 -13.835  -3.434  1.00  0.00    -0.246 OA
ATOM     11  O   UNL     1      11.907 -14.240  -1.728  1.00  0.00    -0.423 OA
ENDROOT
BRANCH   3  12
ATOM     12  O   UNL     1      14.801 -15.250   1.956  1.00  0.00    -0.508 OA
ATOM     13  H   UNL     1      15.117 -14.873   2.841  1.00  0.00     0.293 HD
ENDBRANCH   3  12
TORSDOF 1
ENDMDL
MODEL 8
REMARK VINA RESULT:    -2.706      2.296      3.993
REMARK INTER + INTRA:          -2.785
REMARK INTER:                  -2.785
REMARK INTRA:                   0.000
REMARK UNBOUND:                 0.000
REMARK SMILES O=c1ccc2ccc(O)cc2o1
REMARK SMILES IDX 6 1 7 2 8 3 10 4 11 5 5 6 4 7 3 8 2 9 1 10 12 11 9 12
REMARK H PARENT 9 13
REMARK Flexibility Score: inf
ROOT
ATOM      1  C   UNL     1      13.152 -11.885  -2.766  1.00  0.00     0.016 A 
ATOM      2  C   UNL     1      12.052 -12.458  -3.411  1.00  0.00     0.047 A 
ATOM      3  C   UNL     1      11.403 -13.567  -2.854  1.00  0.00     0.119 A 
ATOM      4  C   UNL     1      11.859 -14.107  -1.641  1.00  0.00     0.094 A 
ATOM      5  C   UNL     1      12.959 -13.541  -0.989  1.00  0.00     0.142 A 
ATOM      6  C   UNL     1      13.611 -12.423  -1.556  1.00  0.00     0.018 A 
ATOM      7  C   UNL     1      14.708 -11.878  -0.880  1.00  0.00     0.019 A 
ATOM      8  C   UNL     1      15.125 -12.450   0.321  1.00  0.00     0.094 A 
ATOM      9  C   UNL     1      14.431 -13.558   0.822  1.00  0.00     0.336 A 
ATOM     10  O   UNL     1      14.792 -14.088   1.905  1.00  0.00    -0.246 OA
ATOM     11  O   UNL     1      13.390 -14.056   0.160  1.00  0.00    -0.423 OA
ENDROOT
BRANCH   3  12
ATOM     12  O   UNL     1      10.307 -14.123  -3.510  1.00  0.00    -0.508 OA
ATOM     13  H   UNL     1      10.050 -13.836  -4.446  1.00  0.00     0.293 HD
ENDBRANCH   3  12
TORSDOF 1
ENDMDL
MODEL 9
REMARK VINA RESULT:    -2.071     14.554     15.950
REMARK INTER + INTRA:          -2.132
REMARK INTER:                  -2.132
REMARK INTRA:                   0.000
REMARK UNBOUND:                 0.000
REMARK SMILES O=c1ccc2ccc(O)cc2o1
REMARK SMILES IDX 6 1 7 2 8 3 10 4 11 5 5 6 4 7 3 8 2 9 1 10 12 11 9 12
REMARK H PARENT 9 13
REMARK Flexibility Score: inf
ROOT
ATOM      1  C   UNL     1       2.706 -11.875   8.335  1.00  0.00     0.016 A 
ATOM      2  C   UNL     1       2.380 -12.558   7.160  1.00  0.00     0.047 A 
ATOM      3  C   UNL     1       2.777 -13.889   6.981  1.00  0.00     0.119 A 
ATOM      4  C   UNL     1       3.506 -14.542   7.986  1.00  0.00     0.094 A 
ATOM      5  C   UNL     1       3.837 -13.866   9.166  1.00  0.00     0.142 A 
ATOM      6  C   UNL     1       3.435 -12.524   9.342  1.00  0.00     0.018 A 
ATOM      7  C   UNL     1       3.781 -11.875  10.531  1.00  0.00     0.019 A 
ATOM      8  C   UNL     1       4.507 -12.565  11.501  1.00  0.00     0.094 A 
ATOM      9  C   UNL     1       4.872 -13.894  11.258  1.00  0.00     0.336 A 
ATOM     10  O   UNL     1       5.527 -14.534  12.121  1.00  0.00    -0.246 OA
ATOM     11  O   UNL     1       4.529 -14.488  10.117  1.00  0.00    -0.423 OA
ENDROOT
BRANCH   3  12
ATOM     12  O   UNL     1       2.442 -14.553   5.803  1.00  0.00    -0.508 OA
ATOM     13  H   UNL     1       1.914 -15.417   5.815  1.00  0.00     0.293 HD
ENDBRANCH   3  12
TORSDOF 1
ENDMDL
