MODEL 1
REMARK VINA RESULT:    -4.516      0.000      0.000
REMARK INTER + INTRA:         -11.809
REMARK INTER:                  -8.741
REMARK INTRA:                  -3.068
REMARK UNBOUND:                -3.068
REMARK SMILES CCCCCCCCCCCCCCCCCC(=O)[O-]
REMARK SMILES IDX 10 1 11 2 12 3 13 4 14 5 15 6 16 7 17 8 18 9 19 10 20 11
REMARK SMILES IDX 9 12 8 13 7 14 6 15 5 16 4 17 3 18 2 19 1 20
REMARK H PARENT
REMARK Flexibility Score: inf
ROOT
ATOM      1  C   UNL     1      -1.470 -47.840  17.361  1.00  0.00     0.000 C 
ENDROOT
BRANCH   1   2
ATOM      2  C   UNL     1      -1.624 -46.756  18.439  1.00  0.00     0.000 C 
BRANCH   2   3
ATOM      3  C   UNL     1      -2.151 -45.449  17.836  1.00  0.00     0.000 C 
BRANCH   3   4
ATOM      4  C   UNL     1      -1.658 -45.268  16.393  1.00  0.00     0.000 C 
BRANCH   4   5
ATOM      5  C   UNL     1      -2.804 -44.949  15.417  1.00  0.00     0.000 C 
BRANCH   5   6
ATOM      6  C   UNL     1      -4.171 -44.900  16.120  1.00  0.00     0.000 C 
BRANCH   6   7
ATOM      7  C   UNL     1      -5.253 -45.691  15.369  1.00  0.00     0.006 C 
BRANCH   7   8
ATOM      8  C   UNL     1      -6.673 -45.200  15.682  1.00  0.00     0.053 C 
BRANCH   8   9
ATOM      9  C   UNL     1      -7.444 -44.993  14.416  1.00  0.00     0.041 C 
ATOM     10  O   UNL     1      -6.849 -44.997  13.306  1.00  0.00    -0.550 OA
ATOM     11  O   UNL     1      -8.826 -44.851  14.458  1.00  0.00    -0.550 OA
ENDBRANCH   8   9
ENDBRANCH   7   8
ENDBRANCH   6   7
ENDBRANCH   5   6
ENDBRANCH   4   5
ENDBRANCH   3   4
ENDBRANCH   2   3
ENDBRANCH   1   2
BRANCH   1  12
ATOM     12  C   UNL     1      -2.455 -49.003  17.547  1.00  0.00     0.000 C 
BRANCH  12  13
ATOM     13  C   UNL     1      -3.776 -48.793  16.787  1.00  0.00    -0.000 C 
BRANCH  13  14
ATOM     14  C   UNL     1      -4.962 -48.553  17.744  1.00  0.00    -0.000 C 
BRANCH  14  15
ATOM     15  C   UNL     1      -4.601 -48.732  19.229  1.00  0.00    -0.000 C 
BRANCH  15  16
ATOM     16  C   UNL     1      -4.655 -47.414  20.020  1.00  0.00    -0.000 C 
BRANCH  16  17
ATOM     17  C   UNL     1      -5.435 -46.314  19.281  1.00  0.00    -0.000 C 
BRANCH  17  18
ATOM     18  C   UNL     1      -5.686 -45.075  20.159  1.00  0.00    -0.000 C 
BRANCH  18  19
ATOM     19  C   UNL     1      -5.097 -43.794  19.548  1.00  0.00    -0.003 C 
ATOM     20  C   UNL     1      -6.096 -43.048  18.665  1.00  0.00     0.004 C 
ENDBRANCH  18  19
ENDBRANCH  17  18
ENDBRANCH  16  17
ENDBRANCH  15  16
ENDBRANCH  14  15
ENDBRANCH  13  14
ENDBRANCH  12  13
ENDBRANCH   1  12
TORSDOF 16
ENDMDL
MODEL 2
REMARK VINA RESULT:    -4.449      2.029      4.580
REMARK INTER + INTRA:         -11.677
REMARK INTER:                  -8.797
REMARK INTRA:                  -2.881
REMARK UNBOUND:                -3.068
REMARK SMILES CCCCCCCCCCCCCCCCCC(=O)[O-]
REMARK SMILES IDX 10 1 11 2 12 3 13 4 14 5 15 6 16 7 17 8 18 9 19 10 20 11
REMARK SMILES IDX 9 12 8 13 7 14 6 15 5 16 4 17 3 18 2 19 1 20
REMARK H PARENT
REMARK Flexibility Score: inf
ROOT
ATOM      1  C   UNL     1      -2.026 -48.991  17.765  1.00  0.00     0.000 C 
ENDROOT
BRANCH   1   2
ATOM      2  C   UNL     1      -2.948 -49.400  16.607  1.00  0.00     0.000 C 
BRANCH   2   3
ATOM      3  C   UNL     1      -4.393 -48.962  16.871  1.00  0.00     0.000 C 
BRANCH   3   4
ATOM      4  C   UNL     1      -4.650 -48.785  18.375  1.00  0.00     0.000 C 
BRANCH   4   5
ATOM      5  C   UNL     1      -5.323 -47.440  18.700  1.00  0.00     0.000 C 
BRANCH   5   6
ATOM      6  C   UNL     1      -4.855 -46.866  20.048  1.00  0.00     0.000 C 
BRANCH   6   7
ATOM      7  C   UNL     1      -5.641 -45.612  20.464  1.00  0.00     0.006 C 
BRANCH   7   8
ATOM      8  C   UNL     1      -5.164 -44.345  19.742  1.00  0.00     0.053 C 
BRANCH   8   9
ATOM      9  C   UNL     1      -6.319 -43.430  19.480  1.00  0.00     0.041 C 
ATOM     10  O   UNL     1      -6.148 -42.368  18.824  1.00  0.00    -0.550 OA
ATOM     11  O   UNL     1      -7.593 -43.775  19.915  1.00  0.00    -0.550 OA
ENDBRANCH   8   9
ENDBRANCH   7   8
ENDBRANCH   6   7
ENDBRANCH   5   6
ENDBRANCH   4   5
ENDBRANCH   3   4
ENDBRANCH   2   3
ENDBRANCH   1   2
BRANCH   1  12
ATOM     12  C   UNL     1      -1.298 -47.664  17.501  1.00  0.00     0.000 C 
BRANCH  12  13
ATOM     13  C   UNL     1      -1.695 -46.558  18.492  1.00  0.00    -0.000 C 
BRANCH  13  14
ATOM     14  C   UNL     1      -2.128 -45.264  17.772  1.00  0.00    -0.000 C 
BRANCH  14  15
ATOM     15  C   UNL     1      -1.774 -45.245  16.274  1.00  0.00    -0.000 C 
BRANCH  15  16
ATOM     16  C   UNL     1      -2.726 -44.365  15.446  1.00  0.00    -0.000 C 
BRANCH  16  17
ATOM     17  C   UNL     1      -3.651 -45.191  14.536  1.00  0.00    -0.000 C 
BRANCH  17  18
ATOM     18  C   UNL     1      -4.827 -45.821  15.305  1.00  0.00    -0.000 C 
BRANCH  18  19
ATOM     19  C   UNL     1      -5.670 -44.774  16.049  1.00  0.00    -0.003 C 
ATOM     20  C   UNL     1      -7.102 -45.241  16.303  1.00  0.00     0.004 C 
ENDBRANCH  18  19
ENDBRANCH  17  18
ENDBRANCH  16  17
ENDBRANCH  15  16
ENDBRANCH  14  15
ENDBRANCH  13  14
ENDBRANCH  12  13
ENDBRANCH   1  12
TORSDOF 16
ENDMDL
MODEL 3
REMARK VINA RESULT:    -4.345      1.876      3.165
REMARK INTER + INTRA:         -11.478
REMARK INTER:                  -8.525
REMARK INTRA:                  -2.953
REMARK UNBOUND:                -3.068
REMARK SMILES CCCCCCCCCCCCCCCCCC(=O)[O-]
REMARK SMILES IDX 10 1 11 2 12 3 13 4 14 5 15 6 16 7 17 8 18 9 19 10 20 11
REMARK SMILES IDX 9 12 8 13 7 14 6 15 5 16 4 17 3 18 2 19 1 20
REMARK H PARENT
REMARK Flexibility Score: inf
ROOT
ATOM      1  C   UNL     1      -2.044 -45.329  17.721  1.00  0.00     0.000 C 
ENDROOT
BRANCH   1   2
ATOM      2  C   UNL     1      -1.611 -45.194  16.253  1.00  0.00     0.000 C 
BRANCH   2   3
ATOM      3  C   UNL     1      -2.757 -44.654  15.388  1.00  0.00     0.000 C 
BRANCH   3   4
ATOM      4  C   UNL     1      -3.647 -45.796  14.875  1.00  0.00     0.000 C 
BRANCH   4   5
ATOM      5  C   UNL     1      -5.089 -45.697  15.400  1.00  0.00     0.000 C 
BRANCH   5   6
ATOM      6  C   UNL     1      -5.296 -44.472  16.307  1.00  0.00     0.000 C 
BRANCH   6   7
ATOM      7  C   UNL     1      -6.486 -43.603  15.868  1.00  0.00     0.006 C 
BRANCH   7   8
ATOM      8  C   UNL     1      -6.500 -42.229  16.551  1.00  0.00     0.053 C 
BRANCH   8   9
ATOM      9  C   UNL     1      -6.816 -42.375  18.007  1.00  0.00     0.041 C 
ATOM     10  O   UNL     1      -7.807 -43.060  18.373  1.00  0.00    -0.550 OA
ATOM     11  O   UNL     1      -5.984 -41.798  18.960  1.00  0.00    -0.550 OA
ENDBRANCH   8   9
ENDBRANCH   7   8
ENDBRANCH   6   7
ENDBRANCH   5   6
ENDBRANCH   4   5
ENDBRANCH   3   4
ENDBRANCH   2   3
ENDBRANCH   1   2
BRANCH   1  12
ATOM     12  C   UNL     1      -1.663 -46.688  18.327  1.00  0.00     0.000 C 
BRANCH  12  13
ATOM     13  C   UNL     1      -1.475 -47.783  17.264  1.00  0.00    -0.000 C 
BRANCH  13  14
ATOM     14  C   UNL     1      -2.376 -49.007  17.530  1.00  0.00    -0.000 C 
BRANCH  14  15
ATOM     15  C   UNL     1      -3.738 -48.936  16.817  1.00  0.00    -0.000 C 
BRANCH  15  16
ATOM     16  C   UNL     1      -4.904 -48.659  17.781  1.00  0.00    -0.000 C 
BRANCH  16  17
ATOM     17  C   UNL     1      -4.510 -48.855  19.254  1.00  0.00    -0.000 C 
BRANCH  17  18
ATOM     18  C   UNL     1      -4.587 -47.549  20.065  1.00  0.00    -0.000 C 
BRANCH  18  19
ATOM     19  C   UNL     1      -5.341 -46.438  19.318  1.00  0.00    -0.003 C 
ATOM     20  C   UNL     1      -5.171 -45.067  19.970  1.00  0.00     0.004 C 
ENDBRANCH  18  19
ENDBRANCH  17  18
ENDBRANCH  16  17
ENDBRANCH  15  16
ENDBRANCH  14  15
ENDBRANCH  13  14
ENDBRANCH  12  13
ENDBRANCH   1  12
TORSDOF 16
ENDMDL
MODEL 4
REMARK VINA RESULT:    -4.342      1.877      4.623
REMARK INTER + INTRA:         -11.471
REMARK INTER:                  -8.571
REMARK INTRA:                  -2.900
REMARK UNBOUND:                -3.068
REMARK SMILES CCCCCCCCCCCCCCCCCC(=O)[O-]
REMARK SMILES IDX 10 1 11 2 12 3 13 4 14 5 15 6 16 7 17 8 18 9 19 10 20 11
REMARK SMILES IDX 9 12 8 13 7 14 6 15 5 16 4 17 3 18 2 19 1 20
REMARK H PARENT
REMARK Flexibility Score: inf
ROOT
ATOM      1  C   UNL     1      -1.551 -47.817  17.302  1.00  0.00     0.000 C 
ENDROOT
BRANCH   1   2
ATOM      2  C   UNL     1      -2.487 -49.003  17.578  1.00  0.00     0.000 C 
BRANCH   2   3
ATOM      3  C   UNL     1      -3.795 -48.869  16.789  1.00  0.00     0.000 C 
BRANCH   3   4
ATOM      4  C   UNL     1      -4.974 -48.556  17.722  1.00  0.00     0.000 C 
BRANCH   4   5
ATOM      5  C   UNL     1      -4.633 -48.807  19.201  1.00  0.00     0.000 C 
BRANCH   5   6
ATOM      6  C   UNL     1      -4.639 -47.511  20.029  1.00  0.00     0.000 C 
BRANCH   6   7
ATOM      7  C   UNL     1      -5.365 -46.357  19.319  1.00  0.00     0.006 C 
BRANCH   7   8
ATOM      8  C   UNL     1      -5.140 -45.003  20.005  1.00  0.00     0.053 C 
BRANCH   8   9
ATOM      9  C   UNL     1      -5.958 -43.940  19.340  1.00  0.00     0.041 C 
ATOM     10  O   UNL     1      -7.200 -44.092  19.203  1.00  0.00    -0.550 OA
ATOM     11  O   UNL     1      -5.356 -42.759  18.920  1.00  0.00    -0.550 OA
ENDBRANCH   8   9
ENDBRANCH   7   8
ENDBRANCH   6   7
ENDBRANCH   5   6
ENDBRANCH   4   5
ENDBRANCH   3   4
ENDBRANCH   2   3
ENDBRANCH   1   2
BRANCH   1  12
ATOM     12  C   UNL     1      -1.637 -46.732  18.386  1.00  0.00     0.000 C 
BRANCH  12  13
ATOM     13  C   UNL     1      -2.095 -45.372  17.834  1.00  0.00    -0.000 C 
BRANCH  13  14
ATOM     14  C   UNL     1      -1.694 -45.183  16.356  1.00  0.00    -0.000 C 
BRANCH  14  15
ATOM     15  C   UNL     1      -2.861 -44.745  15.452  1.00  0.00    -0.000 C 
BRANCH  15  16
ATOM     16  C   UNL     1      -3.523 -45.923  14.718  1.00  0.00    -0.000 C 
BRANCH  16  17
ATOM     17  C   UNL     1      -5.031 -45.710  14.504  1.00  0.00    -0.000 C 
BRANCH  17  18
ATOM     18  C   UNL     1      -5.770 -45.363  15.809  1.00  0.00    -0.000 C 
BRANCH  18  19
ATOM     19  C   UNL     1      -6.537 -44.035  15.713  1.00  0.00    -0.003 C 
ATOM     20  C   UNL     1      -6.764 -43.587  14.270  1.00  0.00     0.004 C 
ENDBRANCH  18  19
ENDBRANCH  17  18
ENDBRANCH  16  17
ENDBRANCH  15  16
ENDBRANCH  14  15
ENDBRANCH  13  14
ENDBRANCH  12  13
ENDBRANCH   1  12
TORSDOF 16
ENDMDL
MODEL 5
REMARK VINA RESULT:    -4.339      2.860      4.002
REMARK INTER + INTRA:         -11.465
REMARK INTER:                  -8.692
REMARK INTRA:                  -2.774
REMARK UNBOUND:                -3.068
REMARK SMILES CCCCCCCCCCCCCCCCCC(=O)[O-]
REMARK SMILES IDX 10 1 11 2 12 3 13 4 14 5 15 6 16 7 17 8 18 9 19 10 20 11
REMARK SMILES IDX 9 12 8 13 7 14 6 15 5 16 4 17 3 18 2 19 1 20
REMARK H PARENT
REMARK Flexibility Score: inf
ROOT
ATOM      1  C   UNL     1      -2.065 -45.318  17.656  1.00  0.00     0.000 C 
ENDROOT
BRANCH   1   2
ATOM      2  C   UNL     1      -1.953 -45.414  16.127  1.00  0.00     0.000 C 
BRANCH   2   3
ATOM      3  C   UNL     1      -2.962 -44.486  15.441  1.00  0.00     0.000 C 
BRANCH   3   4
ATOM      4  C   UNL     1      -3.885 -45.273  14.499  1.00  0.00     0.000 C 
BRANCH   4   5
ATOM      5  C   UNL     1      -3.755 -46.794  14.686  1.00  0.00     0.000 C 
BRANCH   5   6
ATOM      6  C   UNL     1      -3.749 -47.548  13.345  1.00  0.00     0.000 C 
BRANCH   6   7
ATOM      7  C   UNL     1      -3.082 -48.929  13.444  1.00  0.00     0.006 C 
BRANCH   7   8
ATOM      8  C   UNL     1      -3.945 -50.049  12.847  1.00  0.00     0.053 C 
BRANCH   8   9
ATOM      9  C   UNL     1      -3.951 -49.960  11.353  1.00  0.00     0.041 C 
ATOM     10  O   UNL     1      -5.042 -49.980  10.723  1.00  0.00    -0.550 OA
ATOM     11  O   UNL     1      -2.757 -49.801  10.659  1.00  0.00    -0.550 OA
ENDBRANCH   8   9
ENDBRANCH   7   8
ENDBRANCH   6   7
ENDBRANCH   5   6
ENDBRANCH   4   5
ENDBRANCH   3   4
ENDBRANCH   2   3
ENDBRANCH   1   2
BRANCH   1  12
ATOM     12  C   UNL     1      -1.586 -46.594  18.365  1.00  0.00     0.000 C 
BRANCH  12  13
ATOM     13  C   UNL     1      -1.476 -47.799  17.415  1.00  0.00    -0.000 C 
BRANCH  13  14
ATOM     14  C   UNL     1      -2.326 -48.994  17.897  1.00  0.00    -0.000 C 
BRANCH  14  15
ATOM     15  C   UNL     1      -3.583 -49.239  17.044  1.00  0.00    -0.000 C 
BRANCH  15  16
ATOM     16  C   UNL     1      -4.885 -48.880  17.780  1.00  0.00    -0.000 C 
BRANCH  16  17
ATOM     17  C   UNL     1      -4.633 -48.380  19.213  1.00  0.00    -0.000 C 
BRANCH  17  18
ATOM     18  C   UNL     1      -5.044 -46.910  19.406  1.00  0.00    -0.000 C 
BRANCH  18  19
ATOM     19  C   UNL     1      -5.714 -46.319  18.156  1.00  0.00    -0.003 C 
ATOM     20  C   UNL     1      -5.616 -44.795  18.098  1.00  0.00     0.004 C 
ENDBRANCH  18  19
ENDBRANCH  17  18
ENDBRANCH  16  17
ENDBRANCH  15  16
ENDBRANCH  14  15
ENDBRANCH  13  14
ENDBRANCH  12  13
ENDBRANCH   1  12
TORSDOF 16
ENDMDL
MODEL 6
REMARK VINA RESULT:    -4.281      2.815      4.483
REMARK INTER + INTRA:         -11.354
REMARK INTER:                  -8.493
REMARK INTRA:                  -2.861
REMARK UNBOUND:                -3.068
REMARK SMILES CCCCCCCCCCCCCCCCCC(=O)[O-]
REMARK SMILES IDX 10 1 11 2 12 3 13 4 14 5 15 6 16 7 17 8 18 9 19 10 20 11
REMARK SMILES IDX 9 12 8 13 7 14 6 15 5 16 4 17 3 18 2 19 1 20
REMARK H PARENT
REMARK Flexibility Score: inf
ROOT
ATOM      1  C   UNL     1      -1.734 -45.378  16.342  1.00  0.00     0.000 C 
ENDROOT
BRANCH   1   2
ATOM      2  C   UNL     1      -2.021 -45.258  17.846  1.00  0.00     0.000 C 
BRANCH   2   3
ATOM      3  C   UNL     1      -1.702 -46.570  18.574  1.00  0.00     0.000 C 
BRANCH   3   4
ATOM      4  C   UNL     1      -1.649 -47.749  17.591  1.00  0.00     0.000 C 
BRANCH   4   5
ATOM      5  C   UNL     1      -2.620 -48.878  17.976  1.00  0.00     0.000 C 
BRANCH   5   6
ATOM      6  C   UNL     1      -3.806 -48.985  17.002  1.00  0.00     0.000 C 
BRANCH   6   7
ATOM      7  C   UNL     1      -3.404 -48.703  15.545  1.00  0.00     0.006 C 
BRANCH   7   8
ATOM      8  C   UNL     1      -3.123 -49.985  14.749  1.00  0.00     0.053 C 
BRANCH   8   9
ATOM      9  C   UNL     1      -1.714 -49.986  14.246  1.00  0.00     0.041 C 
ATOM     10  O   UNL     1      -1.480 -49.812  13.020  1.00  0.00    -0.550 OA
ATOM     11  O   UNL     1      -0.656 -50.125  15.137  1.00  0.00    -0.550 OA
ENDBRANCH   8   9
ENDBRANCH   7   8
ENDBRANCH   6   7
ENDBRANCH   5   6
ENDBRANCH   4   5
ENDBRANCH   3   4
ENDBRANCH   2   3
ENDBRANCH   1   2
BRANCH   1  12
ATOM     12  C   UNL     1      -2.639 -44.472  15.494  1.00  0.00     0.000 C 
BRANCH  12  13
ATOM     13  C   UNL     1      -3.984 -45.131  15.144  1.00  0.00    -0.000 C 
BRANCH  13  14
ATOM     14  C   UNL     1      -5.076 -44.805  16.184  1.00  0.00    -0.000 C 
BRANCH  14  15
ATOM     15  C   UNL     1      -6.044 -45.972  16.448  1.00  0.00    -0.000 C 
BRANCH  15  16
ATOM     16  C   UNL     1      -6.492 -46.056  17.917  1.00  0.00    -0.000 C 
BRANCH  16  17
ATOM     17  C   UNL     1      -5.334 -46.404  18.867  1.00  0.00    -0.000 C 
BRANCH  17  18
ATOM     18  C   UNL     1      -5.479 -45.733  20.245  1.00  0.00    -0.000 C 
BRANCH  18  19
ATOM     19  C   UNL     1      -5.898 -44.258  20.139  1.00  0.00    -0.003 C 
ATOM     20  C   UNL     1      -4.785 -43.367  19.591  1.00  0.00     0.004 C 
ENDBRANCH  18  19
ENDBRANCH  17  18
ENDBRANCH  16  17
ENDBRANCH  15  16
ENDBRANCH  14  15
ENDBRANCH  13  14
ENDBRANCH  12  13
ENDBRANCH   1  12
TORSDOF 16
ENDMDL
MODEL 7
REMARK VINA RESULT:    -4.274      1.571      4.327
REMARK INTER + INTRA:         -11.340
REMARK INTER:                  -8.298
REMARK INTRA:                  -3.042
REMARK UNBOUND:                -3.068
REMARK SMILES CCCCCCCCCCCCCCCCCC(=O)[O-]
REMARK SMILES IDX 10 1 11 2 12 3 13 4 14 5 15 6 16 7 17 8 18 9 19 10 20 11
REMARK SMILES IDX 9 12 8 13 7 14 6 15 5 16 4 17 3 18 2 19 1 20
REMARK H PARENT
REMARK Flexibility Score: inf
ROOT
ATOM      1  C   UNL     1      -3.943 -49.286  16.678  1.00  0.00     0.000 C 
ENDROOT
BRANCH   1   2
ATOM      2  C   UNL     1      -5.099 -49.073  17.667  1.00  0.00     0.000 C 
BRANCH   2   3
ATOM      3  C   UNL     1      -4.617 -48.361  18.936  1.00  0.00     0.000 C 
BRANCH   3   4
ATOM      4  C   UNL     1      -5.061 -46.890  18.947  1.00  0.00     0.000 C 
BRANCH   4   5
ATOM      5  C   UNL     1      -5.141 -46.313  20.370  1.00  0.00     0.000 C 
BRANCH   5   6
ATOM      6  C   UNL     1      -5.746 -44.899  20.392  1.00  0.00     0.000 C 
BRANCH   6   7
ATOM      7  C   UNL     1      -4.992 -43.917  19.481  1.00  0.00     0.006 C 
BRANCH   7   8
ATOM      8  C   UNL     1      -5.918 -42.880  18.830  1.00  0.00     0.053 C 
BRANCH   8   9
ATOM      9  C   UNL     1      -7.222 -43.511  18.454  1.00  0.00     0.041 C 
ATOM     10  O   UNL     1      -8.282 -43.171  19.043  1.00  0.00    -0.550 OA
ATOM     11  O   UNL     1      -7.275 -44.435  17.416  1.00  0.00    -0.550 OA
ENDBRANCH   8   9
ENDBRANCH   7   8
ENDBRANCH   6   7
ENDBRANCH   5   6
ENDBRANCH   4   5
ENDBRANCH   3   4
ENDBRANCH   2   3
ENDBRANCH   1   2
BRANCH   1  12
ATOM     12  C   UNL     1      -2.571 -49.300  17.369  1.00  0.00     0.000 C 
BRANCH  12  13
ATOM     13  C   UNL     1      -1.428 -48.871  16.433  1.00  0.00    -0.000 C 
BRANCH  13  14
ATOM     14  C   UNL     1      -1.226 -47.342  16.432  1.00  0.00    -0.000 C 
BRANCH  14  15
ATOM     15  C   UNL     1      -1.578 -46.672  17.772  1.00  0.00    -0.000 C 
BRANCH  15  16
ATOM     16  C   UNL     1      -2.072 -45.225  17.605  1.00  0.00    -0.000 C 
BRANCH  16  17
ATOM     17  C   UNL     1      -2.453 -44.896  16.152  1.00  0.00    -0.000 C 
BRANCH  17  18
ATOM     18  C   UNL     1      -3.962 -44.640  15.981  1.00  0.00    -0.000 C 
BRANCH  18  19
ATOM     19  C   UNL     1      -4.705 -45.865  15.426  1.00  0.00    -0.003 C 
ATOM     20  C   UNL     1      -4.000 -46.489  14.224  1.00  0.00     0.004 C 
ENDBRANCH  18  19
ENDBRANCH  17  18
ENDBRANCH  16  17
ENDBRANCH  15  16
ENDBRANCH  14  15
ENDBRANCH  13  14
ENDBRANCH  12  13
ENDBRANCH   1  12
TORSDOF 16
ENDMDL
MODEL 8
REMARK VINA RESULT:    -4.255      0.902      2.344
REMARK INTER + INTRA:         -11.302
REMARK INTER:                  -8.561
REMARK INTRA:                  -2.741
REMARK UNBOUND:                -3.068
REMARK SMILES CCCCCCCCCCCCCCCCCC(=O)[O-]
REMARK SMILES IDX 10 1 11 2 12 3 13 4 14 5 15 6 16 7 17 8 18 9 19 10 20 11
REMARK SMILES IDX 9 12 8 13 7 14 6 15 5 16 4 17 3 18 2 19 1 20
REMARK H PARENT
REMARK Flexibility Score: inf
ROOT
ATOM      1  C   UNL     1      -2.058 -45.410  17.750  1.00  0.00     0.000 C 
ENDROOT
BRANCH   1   2
ATOM      2  C   UNL     1      -1.721 -45.340  16.252  1.00  0.00     0.000 C 
BRANCH   2   3
ATOM      3  C   UNL     1      -2.774 -44.528  15.488  1.00  0.00     0.000 C 
BRANCH   3   4
ATOM      4  C   UNL     1      -3.830 -45.449  14.857  1.00  0.00     0.000 C 
BRANCH   4   5
ATOM      5  C   UNL     1      -5.147 -45.461  15.650  1.00  0.00     0.000 C 
BRANCH   5   6
ATOM      6  C   UNL     1      -5.451 -44.098  16.296  1.00  0.00     0.000 C 
BRANCH   6   7
ATOM      7  C   UNL     1      -6.338 -43.207  15.411  1.00  0.00     0.006 C 
BRANCH   7   8
ATOM      8  C   UNL     1      -7.819 -43.602  15.465  1.00  0.00     0.053 C 
BRANCH   8   9
ATOM      9  C   UNL     1      -8.201 -44.359  14.232  1.00  0.00     0.041 C 
ATOM     10  O   UNL     1      -7.979 -43.866  13.094  1.00  0.00    -0.550 OA
ATOM     11  O   UNL     1      -8.753 -45.630  14.337  1.00  0.00    -0.550 OA
ENDBRANCH   8   9
ENDBRANCH   7   8
ENDBRANCH   6   7
ENDBRANCH   5   6
ENDBRANCH   4   5
ENDBRANCH   3   4
ENDBRANCH   2   3
ENDBRANCH   1   2
BRANCH   1  12
ATOM     12  C   UNL     1      -1.640 -46.744  18.387  1.00  0.00     0.000 C 
BRANCH  12  13
ATOM     13  C   UNL     1      -1.421 -47.858  17.350  1.00  0.00    -0.000 C 
BRANCH  13  14
ATOM     14  C   UNL     1      -2.461 -48.989  17.488  1.00  0.00    -0.000 C 
BRANCH  14  15
ATOM     15  C   UNL     1      -3.803 -48.680  16.799  1.00  0.00    -0.000 C 
BRANCH  15  16
ATOM     16  C   UNL     1      -4.984 -48.634  17.783  1.00  0.00    -0.000 C 
BRANCH  16  17
ATOM     17  C   UNL     1      -4.536 -48.775  19.247  1.00  0.00    -0.000 C 
BRANCH  17  18
ATOM     18  C   UNL     1      -4.655 -47.454  20.030  1.00  0.00    -0.000 C 
BRANCH  18  19
ATOM     19  C   UNL     1      -5.381 -46.361  19.230  1.00  0.00    -0.003 C 
ATOM     20  C   UNL     1      -5.289 -44.987  19.891  1.00  0.00     0.004 C 
ENDBRANCH  18  19
ENDBRANCH  17  18
ENDBRANCH  16  17
ENDBRANCH  15  16
ENDBRANCH  14  15
ENDBRANCH  13  14
ENDBRANCH  12  13
ENDBRANCH   1  12
TORSDOF 16
ENDMDL
MODEL 9
REMARK VINA RESULT:    -4.220      2.232      4.282
REMARK INTER + INTRA:         -11.236
REMARK INTER:                  -8.032
REMARK INTRA:                  -3.204
REMARK UNBOUND:                -3.068
REMARK SMILES CCCCCCCCCCCCCCCCCC(=O)[O-]
REMARK SMILES IDX 10 1 11 2 12 3 13 4 14 5 15 6 16 7 17 8 18 9 19 10 20 11
REMARK SMILES IDX 9 12 8 13 7 14 6 15 5 16 4 17 3 18 2 19 1 20
REMARK H PARENT
REMARK Flexibility Score: inf
ROOT
ATOM      1  C   UNL     1      -1.998 -45.503  18.201  1.00  0.00     0.000 C 
ENDROOT
BRANCH   1   2
ATOM      2  C   UNL     1      -2.961 -44.873  17.182  1.00  0.00     0.000 C 
BRANCH   2   3
ATOM      3  C   UNL     1      -2.690 -45.400  15.768  1.00  0.00     0.000 C 
BRANCH   3   4
ATOM      4  C   UNL     1      -4.001 -45.608  14.995  1.00  0.00     0.000 C 
BRANCH   4   5
ATOM      5  C   UNL     1      -5.136 -44.707  15.512  1.00  0.00     0.000 C 
BRANCH   5   6
ATOM      6  C   UNL     1      -6.353 -45.518  15.987  1.00  0.00     0.000 C 
BRANCH   6   7
ATOM      7  C   UNL     1      -6.889 -45.044  17.348  1.00  0.00     0.006 C 
BRANCH   7   8
ATOM      8  C   UNL     1      -6.476 -43.603  17.678  1.00  0.00     0.053 C 
BRANCH   8   9
ATOM      9  C   UNL     1      -6.897 -43.248  19.070  1.00  0.00     0.041 C 
ATOM     10  O   UNL     1      -7.245 -44.152  19.875  1.00  0.00    -0.550 OA
ATOM     11  O   UNL     1      -6.853 -41.925  19.494  1.00  0.00    -0.550 OA
ENDBRANCH   8   9
ENDBRANCH   7   8
ENDBRANCH   6   7
ENDBRANCH   5   6
ENDBRANCH   4   5
ENDBRANCH   3   4
ENDBRANCH   2   3
ENDBRANCH   1   2
BRANCH   1  12
ATOM     12  C   UNL     1      -2.630 -45.660  19.592  1.00  0.00     0.000 C 
BRANCH  12  13
ATOM     13  C   UNL     1      -4.161 -45.792  19.540  1.00  0.00    -0.000 C 
BRANCH  13  14
ATOM     14  C   UNL     1      -4.659 -47.046  20.289  1.00  0.00    -0.000 C 
BRANCH  14  15
ATOM     15  C   UNL     1      -4.512 -48.346  19.478  1.00  0.00    -0.000 C 
BRANCH  15  16
ATOM     16  C   UNL     1      -4.794 -48.151  17.979  1.00  0.00    -0.000 C 
BRANCH  16  17
ATOM     17  C   UNL     1      -3.701 -48.765  17.089  1.00  0.00    -0.000 C 
BRANCH  17  18
ATOM     18  C   UNL     1      -2.373 -48.970  17.840  1.00  0.00    -0.000 C 
BRANCH  18  19
ATOM     19  C   UNL     1      -1.238 -49.431  16.912  1.00  0.00    -0.003 C 
ATOM     20  C   UNL     1      -1.260 -48.725  15.558  1.00  0.00     0.004 C 
ENDBRANCH  18  19
ENDBRANCH  17  18
ENDBRANCH  16  17
ENDBRANCH  15  16
ENDBRANCH  14  15
ENDBRANCH  13  14
ENDBRANCH  12  13
ENDBRANCH   1  12
TORSDOF 16
ENDMDL
