MODEL 1
REMARK VINA RESULT:    -0.900      0.000      0.000
REMARK INTER + INTRA:          -0.023
REMARK INTER:                  -1.741
REMARK INTRA:                   1.719
REMARK UNBOUND:                 1.719
REMARK SMILES CCCCCCCCCCCCCCCCCC(=O)[O-]
REMARK SMILES IDX 10 1 11 2 12 3 13 4 14 5 15 6 16 7 17 8 18 9 19 10 20 11
REMARK SMILES IDX 9 12 8 13 7 14 6 15 5 16 4 17 3 18 2 19 1 20
REMARK H PARENT
REMARK Flexibility Score: inf
ROOT
ATOM      1  C   UNL     1      -2.692  37.491  20.138  1.00  0.00     0.000 C 
ENDROOT
BRANCH   1   2
ATOM      2  C   UNL     1      -1.242  37.826  19.753  1.00  0.00     0.000 C 
BRANCH   2   3
ATOM      3  C   UNL     1      -0.982  37.724  18.238  1.00  0.00     0.000 C 
BRANCH   3   4
ATOM      4  C   UNL     1      -1.772  36.622  17.507  1.00  0.00     0.000 C 
BRANCH   4   5
ATOM      5  C   UNL     1      -1.708  36.749  15.979  1.00  0.00     0.000 C 
BRANCH   5   6
ATOM      6  C   UNL     1      -2.787  35.889  15.310  1.00  0.00     0.000 C 
BRANCH   6   7
ATOM      7  C   UNL     1      -3.137  36.432  13.916  1.00  0.00     0.006 C 
BRANCH   7   8
ATOM      8  C   UNL     1      -4.469  37.195  13.906  1.00  0.00     0.053 C 
BRANCH   8   9
ATOM      9  C   UNL     1      -4.319  38.584  14.447  1.00  0.00     0.041 C 
ATOM     10  O   UNL     1      -3.526  38.811  15.400  1.00  0.00    -0.550 OA
ATOM     11  O   UNL     1      -5.034  39.633  13.881  1.00  0.00    -0.550 OA
ENDBRANCH   8   9
ENDBRANCH   7   8
ENDBRANCH   6   7
ENDBRANCH   5   6
ENDBRANCH   4   5
ENDBRANCH   3   4
ENDBRANCH   2   3
ENDBRANCH   1   2
BRANCH   1  12
ATOM     12  C   UNL     1      -3.706  37.852  19.036  1.00  0.00     0.000 C 
BRANCH  12  13
ATOM     13  C   UNL     1      -4.902  36.891  18.896  1.00  0.00    -0.000 C 
BRANCH  13  14
ATOM     14  C   UNL     1      -5.121  36.019  20.142  1.00  0.00    -0.000 C 
BRANCH  14  15
ATOM     15  C   UNL     1      -3.864  35.229  20.551  1.00  0.00    -0.000 C 
BRANCH  15  16
ATOM     16  C   UNL     1      -3.714  34.960  22.063  1.00  0.00    -0.000 C 
BRANCH  16  17
ATOM     17  C   UNL     1      -5.007  35.106  22.886  1.00  0.00    -0.000 C 
BRANCH  17  18
ATOM     18  C   UNL     1      -5.123  36.421  23.681  1.00  0.00    -0.000 C 
BRANCH  18  19
ATOM     19  C   UNL     1      -4.789  36.272  25.180  1.00  0.00    -0.003 C 
ATOM     20  C   UNL     1      -4.672  37.617  25.895  1.00  0.00     0.004 C 
ENDBRANCH  18  19
ENDBRANCH  17  18
ENDBRANCH  16  17
ENDBRANCH  15  16
ENDBRANCH  14  15
ENDBRANCH  13  14
ENDBRANCH  12  13
ENDBRANCH   1  12
TORSDOF 16
ENDMDL
MODEL 2
REMARK VINA RESULT:    -0.865      3.183      7.723
REMARK INTER + INTRA:           0.044
REMARK INTER:                  -1.041
REMARK INTRA:                   1.086
REMARK UNBOUND:                 1.719
REMARK SMILES CCCCCCCCCCCCCCCCCC(=O)[O-]
REMARK SMILES IDX 10 1 11 2 12 3 13 4 14 5 15 6 16 7 17 8 18 9 19 10 20 11
REMARK SMILES IDX 9 12 8 13 7 14 6 15 5 16 4 17 3 18 2 19 1 20
REMARK H PARENT
REMARK Flexibility Score: inf
ROOT
ATOM      1  C   UNL     1      -1.894  37.160  20.094  1.00  0.00     0.000 C 
ENDROOT
BRANCH   1   2
ATOM      2  C   UNL     1      -3.199  37.922  19.811  1.00  0.00     0.000 C 
BRANCH   2   3
ATOM      3  C   UNL     1      -4.349  37.001  19.363  1.00  0.00     0.000 C 
BRANCH   3   4
ATOM      4  C   UNL     1      -5.107  36.293  20.502  1.00  0.00     0.000 C 
BRANCH   4   5
ATOM      5  C   UNL     1      -4.195  35.429  21.385  1.00  0.00     0.000 C 
BRANCH   5   6
ATOM      6  C   UNL     1      -4.982  34.806  22.545  1.00  0.00     0.000 C 
BRANCH   6   7
ATOM      7  C   UNL     1      -5.095  35.787  23.722  1.00  0.00     0.006 C 
BRANCH   7   8
ATOM      8  C   UNL     1      -5.124  37.250  23.260  1.00  0.00     0.053 C 
BRANCH   8   9
ATOM      9  C   UNL     1      -5.084  38.201  24.417  1.00  0.00     0.041 C 
ATOM     10  O   UNL     1      -4.989  37.762  25.594  1.00  0.00    -0.550 OA
ATOM     11  O   UNL     1      -5.124  39.572  24.194  1.00  0.00    -0.550 OA
ENDBRANCH   8   9
ENDBRANCH   7   8
ENDBRANCH   6   7
ENDBRANCH   5   6
ENDBRANCH   4   5
ENDBRANCH   3   4
ENDBRANCH   2   3
ENDBRANCH   1   2
BRANCH   1  12
ATOM     12  C   UNL     1      -0.667  37.793  19.413  1.00  0.00     0.000 C 
BRANCH  12  13
ATOM     13  C   UNL     1      -0.562  37.566  17.893  1.00  0.00    -0.000 C 
BRANCH  13  14
ATOM     14  C   UNL     1      -1.892  37.794  17.158  1.00  0.00    -0.000 C 
BRANCH  14  15
ATOM     15  C   UNL     1      -2.652  36.487  16.871  1.00  0.00    -0.000 C 
BRANCH  15  16
ATOM     16  C   UNL     1      -2.489  35.925  15.443  1.00  0.00    -0.000 C 
BRANCH  16  17
ATOM     17  C   UNL     1      -3.619  36.288  14.462  1.00  0.00    -0.000 C 
BRANCH  17  18
ATOM     18  C   UNL     1      -3.582  37.736  13.939  1.00  0.00    -0.000 C 
BRANCH  18  19
ATOM     19  C   UNL     1      -4.857  38.544  14.258  1.00  0.00    -0.003 C 
ATOM     20  C   UNL     1      -4.653  40.052  14.110  1.00  0.00     0.004 C 
ENDBRANCH  18  19
ENDBRANCH  17  18
ENDBRANCH  16  17
ENDBRANCH  15  16
ENDBRANCH  14  15
ENDBRANCH  13  14
ENDBRANCH  12  13
ENDBRANCH   1  12
TORSDOF 16
ENDMDL
MODEL 3
REMARK VINA RESULT:     1.029      5.119     10.060
REMARK INTER + INTRA:           3.710
REMARK INTER:                   4.528
REMARK INTRA:                  -0.817
REMARK UNBOUND:                 1.719
REMARK SMILES CCCCCCCCCCCCCCCCCC(=O)[O-]
REMARK SMILES IDX 10 1 11 2 12 3 13 4 14 5 15 6 16 7 17 8 18 9 19 10 20 11
REMARK SMILES IDX 9 12 8 13 7 14 6 15 5 16 4 17 3 18 2 19 1 20
REMARK H PARENT
REMARK Flexibility Score: inf
ROOT
ATOM      1  C   UNL     1      -4.324  34.979  22.361  1.00  0.00     0.000 C 
ENDROOT
BRANCH   1   2
ATOM      2  C   UNL     1      -5.125  35.100  23.669  1.00  0.00     0.000 C 
BRANCH   2   3
ATOM      3  C   UNL     1      -5.060  36.510  24.286  1.00  0.00     0.000 C 
BRANCH   3   4
ATOM      4  C   UNL     1      -4.809  36.552  25.806  1.00  0.00     0.000 C 
BRANCH   4   5
ATOM      5  C   UNL     1      -4.128  37.847  26.268  1.00  0.00     0.000 C 
BRANCH   5   6
ATOM      6  C   UNL     1      -2.747  37.558  26.869  1.00  0.00     0.000 C 
BRANCH   6   7
ATOM      7  C   UNL     1      -2.655  36.106  27.362  1.00  0.00     0.006 C 
BRANCH   7   8
ATOM      8  C   UNL     1      -1.306  35.801  28.027  1.00  0.00     0.053 C 
BRANCH   8   9
ATOM      9  C   UNL     1      -1.428  34.731  29.069  1.00  0.00     0.041 C 
ATOM     10  O   UNL     1      -2.407  33.939  29.053  1.00  0.00    -0.550 OA
ATOM     11  O   UNL     1      -0.445  34.591  30.042  1.00  0.00    -0.550 OA
ENDBRANCH   8   9
ENDBRANCH   7   8
ENDBRANCH   6   7
ENDBRANCH   5   6
ENDBRANCH   4   5
ENDBRANCH   3   4
ENDBRANCH   2   3
ENDBRANCH   1   2
BRANCH   1  12
ATOM     12  C   UNL     1      -5.119  35.437  21.125  1.00  0.00     0.000 C 
BRANCH  12  13
ATOM     13  C   UNL     1      -4.838  36.876  20.652  1.00  0.00    -0.000 C 
BRANCH  13  14
ATOM     14  C   UNL     1      -3.468  37.028  19.972  1.00  0.00    -0.000 C 
BRANCH  14  15
ATOM     15  C   UNL     1      -3.531  36.840  18.445  1.00  0.00    -0.000 C 
BRANCH  15  16
ATOM     16  C   UNL     1      -2.511  37.668  17.634  1.00  0.00    -0.000 C 
BRANCH  16  17
ATOM     17  C   UNL     1      -1.798  36.904  16.503  1.00  0.00    -0.000 C 
BRANCH  17  18
ATOM     18  C   UNL     1      -2.728  36.079  15.593  1.00  0.00    -0.000 C 
BRANCH  18  19
ATOM     19  C   UNL     1      -2.952  36.706  14.202  1.00  0.00    -0.003 C 
ATOM     20  C   UNL     1      -4.107  37.707  14.184  1.00  0.00     0.004 C 
ENDBRANCH  18  19
ENDBRANCH  17  18
ENDBRANCH  16  17
ENDBRANCH  15  16
ENDBRANCH  14  15
ENDBRANCH  13  14
ENDBRANCH  12  13
ENDBRANCH   1  12
TORSDOF 16
ENDMDL
MODEL 4
REMARK VINA RESULT:     1.382      3.110      7.445
REMARK INTER + INTRA:           4.394
REMARK INTER:                   3.824
REMARK INTRA:                   0.570
REMARK UNBOUND:                 1.719
REMARK SMILES CCCCCCCCCCCCCCCCCC(=O)[O-]
REMARK SMILES IDX 10 1 11 2 12 3 13 4 14 5 15 6 16 7 17 8 18 9 19 10 20 11
REMARK SMILES IDX 9 12 8 13 7 14 6 15 5 16 4 17 3 18 2 19 1 20
REMARK H PARENT
REMARK Flexibility Score: inf
ROOT
ATOM      1  C   UNL     1      -1.933  37.255  20.083  1.00  0.00     0.000 C 
ENDROOT
BRANCH   1   2
ATOM      2  C   UNL     1      -3.152  37.954  20.707  1.00  0.00     0.000 C 
BRANCH   2   3
ATOM      3  C   UNL     1      -4.375  37.981  19.770  1.00  0.00     0.000 C 
BRANCH   3   4
ATOM      4  C   UNL     1      -4.451  36.827  18.753  1.00  0.00     0.000 C 
BRANCH   4   5
ATOM      5  C   UNL     1      -4.669  35.457  19.413  1.00  0.00     0.000 C 
BRANCH   5   6
ATOM      6  C   UNL     1      -5.021  35.612  20.897  1.00  0.00     0.000 C 
BRANCH   6   7
ATOM      7  C   UNL     1      -4.174  34.668  21.764  1.00  0.00     0.006 C 
BRANCH   7   8
ATOM      8  C   UNL     1      -4.807  34.416  23.140  1.00  0.00     0.053 C 
BRANCH   8   9
ATOM      9  C   UNL     1      -5.017  35.691  23.898  1.00  0.00     0.041 C 
ATOM     10  O   UNL     1      -5.124  36.785  23.282  1.00  0.00    -0.550 OA
ATOM     11  O   UNL     1      -5.123  35.669  25.284  1.00  0.00    -0.550 OA
ENDBRANCH   8   9
ENDBRANCH   7   8
ENDBRANCH   6   7
ENDBRANCH   5   6
ENDBRANCH   4   5
ENDBRANCH   3   4
ENDBRANCH   2   3
ENDBRANCH   1   2
BRANCH   1  12
ATOM     12  C   UNL     1      -1.195  38.135  19.057  1.00  0.00     0.000 C 
BRANCH  12  13
ATOM     13  C   UNL     1      -0.009  37.463  18.339  1.00  0.00    -0.000 C 
BRANCH  13  14
ATOM     14  C   UNL     1      -0.414  36.771  17.028  1.00  0.00    -0.000 C 
BRANCH  14  15
ATOM     15  C   UNL     1      -1.929  36.831  16.760  1.00  0.00    -0.000 C 
BRANCH  15  16
ATOM     16  C   UNL     1      -2.503  35.659  15.935  1.00  0.00    -0.000 C 
BRANCH  16  17
ATOM     17  C   UNL     1      -2.645  35.928  14.426  1.00  0.00    -0.000 C 
BRANCH  17  18
ATOM     18  C   UNL     1      -2.578  37.413  14.024  1.00  0.00    -0.000 C 
BRANCH  18  19
ATOM     19  C   UNL     1      -3.637  38.293  14.720  1.00  0.00    -0.003 C 
ATOM     20  C   UNL     1      -5.067  37.900  14.352  1.00  0.00     0.004 C 
ENDBRANCH  18  19
ENDBRANCH  17  18
ENDBRANCH  16  17
ENDBRANCH  15  16
ENDBRANCH  14  15
ENDBRANCH  13  14
ENDBRANCH  12  13
ENDBRANCH   1  12
TORSDOF 16
ENDMDL
MODEL 5
REMARK VINA RESULT:     1.953      2.309      3.790
REMARK INTER + INTRA:           5.499
REMARK INTER:                   5.141
REMARK INTRA:                   0.358
REMARK UNBOUND:                 1.719
REMARK SMILES CCCCCCCCCCCCCCCCCC(=O)[O-]
REMARK SMILES IDX 10 1 11 2 12 3 13 4 14 5 15 6 16 7 17 8 18 9 19 10 20 11
REMARK SMILES IDX 9 12 8 13 7 14 6 15 5 16 4 17 3 18 2 19 1 20
REMARK H PARENT
REMARK Flexibility Score: inf
ROOT
ATOM      1  C   UNL     1      -4.251  35.728  18.448  1.00  0.00     0.000 C 
ENDROOT
BRANCH   1   2
ATOM      2  C   UNL     1      -4.293  34.958  17.117  1.00  0.00     0.000 C 
BRANCH   2   3
ATOM      3  C   UNL     1      -2.893  34.681  16.538  1.00  0.00     0.000 C 
BRANCH   3   4
ATOM      4  C   UNL     1      -2.290  35.823  15.700  1.00  0.00     0.000 C 
BRANCH   4   5
ATOM      5  C   UNL     1      -3.329  36.868  15.269  1.00  0.00     0.000 C 
BRANCH   5   6
ATOM      6  C   UNL     1      -3.224  38.134  16.127  1.00  0.00     0.000 C 
BRANCH   6   7
ATOM      7  C   UNL     1      -2.080  38.015  17.145  1.00  0.00     0.006 C 
BRANCH   7   8
ATOM      8  C   UNL     1      -2.592  37.748  18.567  1.00  0.00     0.053 C 
BRANCH   8   9
ATOM      9  C   UNL     1      -1.467  37.590  19.544  1.00  0.00     0.041 C 
ATOM     10  O   UNL     1      -1.676  37.071  20.673  1.00  0.00    -0.550 OA
ATOM     11  O   UNL     1      -0.182  37.990  19.197  1.00  0.00    -0.550 OA
ENDBRANCH   8   9
ENDBRANCH   7   8
ENDBRANCH   6   7
ENDBRANCH   5   6
ENDBRANCH   4   5
ENDBRANCH   3   4
ENDBRANCH   2   3
ENDBRANCH   1   2
BRANCH   1  12
ATOM     12  C   UNL     1      -5.079  35.057  19.559  1.00  0.00     0.000 C 
BRANCH  12  13
ATOM     13  C   UNL     1      -5.078  35.783  20.917  1.00  0.00    -0.000 C 
BRANCH  13  14
ATOM     14  C   UNL     1      -4.163  35.115  21.955  1.00  0.00    -0.000 C 
BRANCH  14  15
ATOM     15  C   UNL     1      -4.923  34.626  23.201  1.00  0.00    -0.000 C 
BRANCH  15  16
ATOM     16  C   UNL     1      -4.630  35.402  24.502  1.00  0.00    -0.000 C 
BRANCH  16  17
ATOM     17  C   UNL     1      -5.115  36.864  24.518  1.00  0.00    -0.000 C 
BRANCH  17  18
ATOM     18  C   UNL     1      -4.993  37.571  25.882  1.00  0.00    -0.000 C 
BRANCH  18  19
ATOM     19  C   UNL     1      -4.292  38.943  25.809  1.00  0.00    -0.003 C 
ATOM     20  C   UNL     1      -4.893  39.858  24.743  1.00  0.00     0.004 C 
ENDBRANCH  18  19
ENDBRANCH  17  18
ENDBRANCH  16  17
ENDBRANCH  15  16
ENDBRANCH  14  15
ENDBRANCH  13  14
ENDBRANCH  12  13
ENDBRANCH   1  12
TORSDOF 16
ENDMDL
