MODEL 1
REMARK VINA RESULT:    -2.623      0.000      0.000
REMARK INTER + INTRA:          -2.387
REMARK INTER:                  -2.853
REMARK INTRA:                   0.467
REMARK UNBOUND:                 0.467
REMARK SMILES C[C@@H]1[C@H](C)CC[C@@]2(C(=O)[O-])CC[C@@]3(C)C(=CC[C@H]4[C@@]5(C)CC[C@H](O)C(C)(C)[C@H]5CC[C@]43C)[C@H]12
REMARK SMILES IDX 7 1 6 2 11 3 33 4 5 5 12 6 15 7 2 8 3 9 13 10 16 11 1 12
REMARK SMILES IDX 4 13 14 14 31 15 17 16 18 17 30 18 32 19 19 20 29 21 28 22
REMARK SMILES IDX 21 23 20 24 25 25 22 26 23 27 26 28 27 29 8 30 9 31 10 32
REMARK SMILES IDX 24 33
REMARK H PARENT 24 34
REMARK Flexibility Score: inf
ROOT
ATOM      1  C   UNL     1      11.203 -21.913  -8.977  1.00  0.00     0.017 C 
ATOM      2  C   UNL     1      12.658 -21.559  -9.428  1.00  0.00     0.014 C 
ATOM      3  C   UNL     1      10.808 -20.964  -7.797  1.00  0.00     0.014 C 
ATOM      4  C   UNL     1      10.276 -21.691 -10.226  1.00  0.00     0.030 C 
ATOM      5  C   UNL     1      13.125 -22.318 -10.689  1.00  0.00     0.004 C 
ATOM      6  C   UNL     1       9.280 -20.808  -7.544  1.00  0.00     0.013 C 
ATOM      7  C   UNL     1       8.798 -21.551  -9.837  1.00  0.00    -0.063 C 
ATOM      8  C   UNL     1      10.679 -22.586 -11.450  1.00  0.00    -0.003 C 
ATOM      9  C   UNL     1      12.129 -22.188 -11.869  1.00  0.00    -0.011 C 
ATOM     10  C   UNL     1       8.442 -20.456  -8.819  1.00  0.00    -0.006 C 
ATOM     11  C   UNL     1       7.943 -22.557 -10.048  1.00  0.00    -0.027 C 
ATOM     12  C   UNL     1      10.556 -24.125 -11.263  1.00  0.00     0.008 C 
ATOM     13  C   UNL     1      12.629 -22.959 -13.100  1.00  0.00     0.008 C 
ATOM     14  C   UNL     1       8.960 -19.068  -9.341  1.00  0.00     0.017 C 
ATOM     15  C   UNL     1       6.824 -20.356  -8.559  1.00  0.00    -0.020 C 
ATOM     16  C   UNL     1       6.952 -22.925  -8.994  1.00  0.00     0.032 C 
ATOM     17  C   UNL     1       6.031 -21.741  -8.652  1.00  0.00     0.006 C 
ATOM     18  C   UNL     1       6.566 -19.707  -7.178  1.00  0.00     0.008 C 
ATOM     19  C   UNL     1       6.172 -19.418  -9.635  1.00  0.00     0.012 C 
ATOM     20  C   UNL     1       4.963 -22.054  -7.497  1.00  0.00    -0.025 C 
ATOM     21  C   UNL     1       5.094 -19.523  -6.823  1.00  0.00     0.005 C 
ATOM     22  C   UNL     1       4.151 -20.742  -7.120  1.00  0.00     0.003 C 
ATOM     23  C   UNL     1       5.621 -22.672  -6.214  1.00  0.00     0.010 C 
ATOM     24  C   UNL     1       3.980 -23.116  -8.089  1.00  0.00     0.012 C 
ATOM     25  C   UNL     1       3.032 -20.950  -5.984  1.00  0.00    -0.006 C 
ATOM     26  C   UNL     1       5.022 -22.191  -4.875  1.00  0.00     0.033 C 
ATOM     27  C   UNL     1       3.495 -22.004  -4.899  1.00  0.00     0.120 C 
ATOM     28  C   UNL     1       2.685 -19.619  -5.239  1.00  0.00     0.014 C 
ATOM     29  C   UNL     1       1.671 -21.353  -6.635  1.00  0.00     0.014 C 
ENDROOT
BRANCH   1  30
ATOM     30  C   UNL     1      11.140 -23.337  -8.430  1.00  0.00     0.048 C 
ATOM     31  O   UNL     1      12.169 -24.063  -8.392  1.00  0.00    -0.550 OA
ATOM     32  O   UNL     1       9.968 -23.826  -7.871  1.00  0.00    -0.550 OA
ENDBRANCH   1  30
BRANCH  27  33
ATOM     33  O   UNL     1       2.886 -23.261  -5.063  1.00  0.00    -0.393 OA
ATOM     34  H   UNL     1       2.933 -23.491  -6.029  1.00  0.00     0.210 HD
ENDBRANCH  27  33
TORSDOF 2
ENDMDL
MODEL 2
REMARK VINA RESULT:    -0.799      1.720      7.949
REMARK INTER + INTRA:          -0.403
REMARK INTER:                  -1.211
REMARK INTRA:                   0.808
REMARK UNBOUND:                 0.467
REMARK SMILES C[C@@H]1[C@H](C)CC[C@@]2(C(=O)[O-])CC[C@@]3(C)C(=CC[C@H]4[C@@]5(C)CC[C@H](O)C(C)(C)[C@H]5CC[C@]43C)[C@H]12
REMARK SMILES IDX 7 1 6 2 11 3 33 4 5 5 12 6 15 7 2 8 3 9 13 10 16 11 1 12
REMARK SMILES IDX 4 13 14 14 31 15 17 16 18 17 30 18 32 19 19 20 29 21 28 22
REMARK SMILES IDX 21 23 20 24 25 25 22 26 23 27 26 28 27 29 8 30 9 31 10 32
REMARK SMILES IDX 24 33
REMARK H PARENT 24 34
REMARK Flexibility Score: inf
ROOT
ATOM      1  C   UNL     1       4.435 -21.677  -6.161  1.00  0.00     0.017 C 
ATOM      2  C   UNL     1       3.071 -22.052  -5.493  1.00  0.00     0.014 C 
ATOM      3  C   UNL     1       5.451 -22.837  -5.893  1.00  0.00     0.014 C 
ATOM      4  C   UNL     1       4.153 -21.506  -7.698  1.00  0.00     0.030 C 
ATOM      5  C   UNL     1       1.927 -21.064  -5.806  1.00  0.00     0.004 C 
ATOM      6  C   UNL     1       6.667 -22.900  -6.862  1.00  0.00     0.013 C 
ATOM      7  C   UNL     1       5.434 -21.591  -8.538  1.00  0.00    -0.063 C 
ATOM      8  C   UNL     1       3.093 -20.389  -8.001  1.00  0.00    -0.003 C 
ATOM      9  C   UNL     1       1.752 -20.814  -7.325  1.00  0.00    -0.011 C 
ATOM     10  C   UNL     1       6.291 -22.857  -8.382  1.00  0.00    -0.006 C 
ATOM     11  C   UNL     1       5.979 -20.486  -9.058  1.00  0.00    -0.027 C 
ATOM     12  C   UNL     1       3.478 -18.934  -7.609  1.00  0.00     0.008 C 
ATOM     13  C   UNL     1       0.608 -19.824  -7.592  1.00  0.00     0.008 C 
ATOM     14  C   UNL     1       5.410 -24.125  -8.674  1.00  0.00     0.017 C 
ATOM     15  C   UNL     1       7.580 -22.860  -9.399  1.00  0.00    -0.020 C 
ATOM     16  C   UNL     1       7.457 -20.286  -8.995  1.00  0.00     0.032 C 
ATOM     17  C   UNL     1       8.208 -21.423  -9.708  1.00  0.00     0.006 C 
ATOM     18  C   UNL     1       8.679 -23.790  -8.831  1.00  0.00     0.008 C 
ATOM     19  C   UNL     1       7.156 -23.448 -10.791  1.00  0.00     0.012 C 
ATOM     20  C   UNL     1       9.806 -21.291  -9.647  1.00  0.00    -0.025 C 
ATOM     21  C   UNL     1       9.927 -23.911  -9.700  1.00  0.00     0.005 C 
ATOM     22  C   UNL     1      10.493 -22.571 -10.289  1.00  0.00     0.003 C 
ATOM     23  C   UNL     1      10.341 -21.062  -8.190  1.00  0.00     0.010 C 
ATOM     24  C   UNL     1      10.172 -20.030 -10.494  1.00  0.00     0.012 C 
ATOM     25  C   UNL     1      12.102 -22.532 -10.301  1.00  0.00    -0.006 C 
ATOM     26  C   UNL     1      11.662 -21.787  -7.856  1.00  0.00     0.033 C 
ATOM     27  C   UNL     1      12.675 -21.816  -9.013  1.00  0.00     0.120 C 
ATOM     28  C   UNL     1      12.731 -23.962 -10.373  1.00  0.00     0.014 C 
ATOM     29  C   UNL     1      12.614 -21.857 -11.613  1.00  0.00     0.014 C 
ENDROOT
BRANCH   1  30
ATOM     30  C   UNL     1       5.024 -20.425  -5.518  1.00  0.00     0.048 C 
ATOM     31  O   UNL     1       6.249 -20.150  -5.634  1.00  0.00    -0.550 OA
ATOM     32  O   UNL     1       4.203 -19.510  -4.875  1.00  0.00    -0.550 OA
ENDBRANCH   1  30
BRANCH  27  33
ATOM     33  O   UNL     1      13.112 -20.503  -9.266  1.00  0.00    -0.393 OA
ATOM     34  H   UNL     1      12.993 -20.332 -10.238  1.00  0.00     0.210 HD
ENDBRANCH  27  33
TORSDOF 2
ENDMDL
MODEL 3
REMARK VINA RESULT:    -0.095      2.915      7.731
REMARK INTER + INTRA:           0.363
REMARK INTER:                  -0.268
REMARK INTRA:                   0.631
REMARK UNBOUND:                 0.467
REMARK SMILES C[C@@H]1[C@H](C)CC[C@@]2(C(=O)[O-])CC[C@@]3(C)C(=CC[C@H]4[C@@]5(C)CC[C@H](O)C(C)(C)[C@H]5CC[C@]43C)[C@H]12
REMARK SMILES IDX 7 1 6 2 11 3 33 4 5 5 12 6 15 7 2 8 3 9 13 10 16 11 1 12
REMARK SMILES IDX 4 13 14 14 31 15 17 16 18 17 30 18 32 19 19 20 29 21 28 22
REMARK SMILES IDX 21 23 20 24 25 25 22 26 23 27 26 28 27 29 8 30 9 31 10 32
REMARK SMILES IDX 24 33
REMARK H PARENT 24 34
REMARK Flexibility Score: inf
ROOT
ATOM      1  C   UNL     1       4.467 -22.140  -5.699  1.00  0.00     0.017 C 
ATOM      2  C   UNL     1       3.755 -23.264  -4.875  1.00  0.00     0.014 C 
ATOM      3  C   UNL     1       5.958 -22.057  -5.231  1.00  0.00     0.014 C 
ATOM      4  C   UNL     1       4.363 -22.553  -7.211  1.00  0.00     0.030 C 
ATOM      5  C   UNL     1       2.312 -23.560  -5.338  1.00  0.00     0.004 C 
ATOM      6  C   UNL     1       6.939 -21.382  -6.233  1.00  0.00     0.013 C 
ATOM      7  C   UNL     1       5.384 -21.817  -8.087  1.00  0.00    -0.063 C 
ATOM      8  C   UNL     1       2.879 -22.703  -7.700  1.00  0.00    -0.003 C 
ATOM      9  C   UNL     1       2.218 -23.839  -6.859  1.00  0.00    -0.011 C 
ATOM     10  C   UNL     1       6.865 -21.943  -7.694  1.00  0.00    -0.006 C 
ATOM     11  C   UNL     1       4.998 -20.816  -8.885  1.00  0.00    -0.027 C 
ATOM     12  C   UNL     1       2.004 -21.417  -7.685  1.00  0.00     0.008 C 
ATOM     13  C   UNL     1       0.767 -24.125  -7.278  1.00  0.00     0.008 C 
ATOM     14  C   UNL     1       7.261 -23.461  -7.625  1.00  0.00     0.017 C 
ATOM     15  C   UNL     1       7.855 -21.184  -8.761  1.00  0.00    -0.020 C 
ATOM     16  C   UNL     1       5.816 -19.570  -8.965  1.00  0.00     0.032 C 
ATOM     17  C   UNL     1       7.249 -19.868  -9.438  1.00  0.00     0.006 C 
ATOM     18  C   UNL     1       9.191 -20.833  -8.062  1.00  0.00     0.008 C 
ATOM     19  C   UNL     1       8.199 -22.154  -9.947  1.00  0.00     0.012 C 
ATOM     20  C   UNL     1       8.197 -18.577  -9.511  1.00  0.00    -0.025 C 
ATOM     21  C   UNL     1      10.220 -20.150  -8.957  1.00  0.00     0.005 C 
ATOM     22  C   UNL     1       9.683 -18.999  -9.878  1.00  0.00     0.003 C 
ATOM     23  C   UNL     1       8.183 -17.737  -8.185  1.00  0.00     0.010 C 
ATOM     24  C   UNL     1       7.620 -17.677 -10.652  1.00  0.00     0.012 C 
ATOM     25  C   UNL     1      10.717 -17.772 -10.001  1.00  0.00    -0.006 C 
ATOM     26  C   UNL     1       9.545 -17.139  -7.775  1.00  0.00     0.033 C 
ATOM     27  C   UNL     1      10.391 -16.631  -8.956  1.00  0.00     0.120 C 
ATOM     28  C   UNL     1      12.199 -18.218  -9.775  1.00  0.00     0.014 C 
ATOM     29  C   UNL     1      10.734 -17.227 -11.464  1.00  0.00     0.014 C 
ENDROOT
BRANCH   1  30
ATOM     30  C   UNL     1       3.843 -20.779  -5.405  1.00  0.00     0.048 C 
ATOM     31  O   UNL     1       2.703 -20.688  -4.875  1.00  0.00    -0.550 OA
ATOM     32  O   UNL     1       4.560 -19.612  -5.625  1.00  0.00    -0.550 OA
ENDBRANCH   1  30
BRANCH  27  33
ATOM     33  O   UNL     1       9.743 -15.527  -9.537  1.00  0.00    -0.393 OA
ATOM     34  H   UNL     1       8.812 -15.512  -9.190  1.00  0.00     0.210 HD
ENDBRANCH  27  33
TORSDOF 2
ENDMDL
