MODEL 1
REMARK VINA RESULT:    -5.012      0.000      0.000
REMARK INTER + INTRA:          -6.562
REMARK INTER:                  -6.184
REMARK INTRA:                  -0.377
REMARK UNBOUND:                -0.377
REMARK SMILES Oc1cc(O)c2cc(O)c(-c3cc(O)c(O)c(O)c3)[o+]c2c1
REMARK SMILES IDX 10 1 20 2 21 3 22 4 2 5 3 6 4 7 6 8 7 9 8 10 11 11 12 12
REMARK SMILES IDX 13 13 19 14 15 15 17 16 14 17 16 19 18 21 9 23 1 25 5 27
REMARK H PARENT 14 18 16 20 18 22 9 24 1 26 5 28
REMARK Flexibility Score: inf
ROOT
ATOM      1  C   UNL     1      18.479  26.500  41.062  1.00  0.00     0.402 A 
ATOM      2  O   UNL     1      18.479  25.438  41.864  1.00  0.00    -0.202 OA
ATOM      3  C   UNL     1      19.493  25.130  42.665  1.00  0.00     0.368 A 
ATOM      4  C   UNL     1      19.401  23.991  43.469  1.00  0.00     0.162 A 
ATOM      5  C   UNL     1      20.454  23.641  44.321  1.00  0.00     0.128 A 
ATOM      6  C   UNL     1      21.603  24.434  44.366  1.00  0.00     0.093 A 
ATOM      7  C   UNL     1      21.720  25.581  43.570  1.00  0.00     0.136 A 
ATOM      8  C   UNL     1      20.653  25.941  42.707  1.00  0.00     0.125 A 
ATOM      9  C   UNL     1      20.677  27.079  41.884  1.00  0.00     0.078 A 
ATOM     10  C   UNL     1      19.583  27.372  41.062  1.00  0.00     0.223 A 
ENDROOT
BRANCH   1  11
ATOM     11  C   UNL     1      17.293  26.732  40.207  1.00  0.00     0.091 A 
ATOM     12  C   UNL     1      17.248  26.168  38.921  1.00  0.00     0.068 A 
ATOM     13  C   UNL     1      16.146  26.388  38.083  1.00  0.00     0.162 A 
ATOM     14  C   UNL     1      16.233  27.551  40.631  1.00  0.00     0.068 A 
ATOM     15  C   UNL     1      15.080  27.192  38.524  1.00  0.00     0.200 A 
ATOM     16  C   UNL     1      15.131  27.777  39.800  1.00  0.00     0.162 A 
BRANCH  13  17
ATOM     17  O   UNL     1      16.107  25.811  36.815  1.00  0.00    -0.504 OA
ATOM     18  H   UNL     1      16.552  26.250  36.017  1.00  0.00     0.293 HD
ENDBRANCH  13  17
BRANCH  15  19
ATOM     19  O   UNL     1      13.974  27.419  37.704  1.00  0.00    -0.502 OA
ATOM     20  H   UNL     1      13.719  26.787  36.953  1.00  0.00     0.293 HD
ENDBRANCH  15  19
BRANCH  16  21
ATOM     21  O   UNL     1      14.095  28.592  40.260  1.00  0.00    -0.504 OA
ATOM     22  H   UNL     1      13.191  28.623  39.804  1.00  0.00     0.293 HD
ENDBRANCH  16  21
ENDBRANCH   1  11
BRANCH  10  23
ATOM     23  O   UNL     1      19.585  28.528  40.282  1.00  0.00    -0.500 OA
ATOM     24  H   UNL     1      20.447  28.940  39.942  1.00  0.00     0.294 HD
ENDBRANCH  10  23
BRANCH   5  25
ATOM     25  O   UNL     1      20.370  22.507  45.125  1.00  0.00    -0.507 OA
ATOM     26  H   UNL     1      20.239  22.577  46.128  1.00  0.00     0.293 HD
ENDBRANCH   5  25
BRANCH   7  27
ATOM     27  O   UNL     1      22.903  26.317  43.672  1.00  0.00    -0.507 OA
ATOM     28  H   UNL     1      23.121  26.944  44.432  1.00  0.00     0.293 HD
ENDBRANCH   7  27
TORSDOF 7
ENDMDL
MODEL 2
REMARK VINA RESULT:    -4.918      1.800      3.192
REMARK INTER + INTRA:          -6.445
REMARK INTER:                  -6.417
REMARK INTRA:                  -0.028
REMARK UNBOUND:                -0.377
REMARK SMILES Oc1cc(O)c2cc(O)c(-c3cc(O)c(O)c(O)c3)[o+]c2c1
REMARK SMILES IDX 10 1 20 2 21 3 22 4 2 5 3 6 4 7 6 8 7 9 8 10 11 11 12 12
REMARK SMILES IDX 13 13 19 14 15 15 17 16 14 17 16 19 18 21 9 23 1 25 5 27
REMARK H PARENT 14 18 16 20 18 22 9 24 1 26 5 28
REMARK Flexibility Score: inf
ROOT
ATOM      1  C   UNL     1      19.559  25.667  42.369  1.00  0.00     0.402 A 
ATOM      2  O   UNL     1      18.937  24.604  42.872  1.00  0.00    -0.202 OA
ATOM      3  C   UNL     1      19.571  23.612  43.488  1.00  0.00     0.368 A 
ATOM      4  C   UNL     1      18.830  22.534  43.981  1.00  0.00     0.162 A 
ATOM      5  C   UNL     1      19.472  21.475  44.631  1.00  0.00     0.128 A 
ATOM      6  C   UNL     1      20.860  21.494  44.786  1.00  0.00     0.093 A 
ATOM      7  C   UNL     1      21.625  22.562  44.301  1.00  0.00     0.136 A 
ATOM      8  C   UNL     1      20.978  23.640  43.644  1.00  0.00     0.125 A 
ATOM      9  C   UNL     1      21.662  24.757  43.137  1.00  0.00     0.078 A 
ATOM     10  C   UNL     1      20.955  25.785  42.505  1.00  0.00     0.223 A 
ENDROOT
BRANCH   1  11
ATOM     11  C   UNL     1      18.743  26.703  41.696  1.00  0.00     0.091 A 
ATOM     12  C   UNL     1      18.878  28.046  42.080  1.00  0.00     0.068 A 
ATOM     13  C   UNL     1      18.103  29.044  41.474  1.00  0.00     0.162 A 
ATOM     14  C   UNL     1      17.793  26.365  40.717  1.00  0.00     0.068 A 
ATOM     15  C   UNL     1      17.171  28.700  40.481  1.00  0.00     0.200 A 
ATOM     16  C   UNL     1      17.015  27.354  40.108  1.00  0.00     0.162 A 
BRANCH  13  17
ATOM     17  O   UNL     1      18.258  30.376  41.855  1.00  0.00    -0.504 OA
ATOM     18  H   UNL     1      19.169  30.820  41.879  1.00  0.00     0.293 HD
ENDBRANCH  13  17
BRANCH  15  19
ATOM     19  O   UNL     1      16.392  29.681  39.864  1.00  0.00    -0.502 OA
ATOM     20  H   UNL     1      15.385  29.718  39.973  1.00  0.00     0.293 HD
ENDBRANCH  15  19
BRANCH  16  21
ATOM     21  O   UNL     1      16.086  26.979  39.137  1.00  0.00    -0.504 OA
ATOM     22  H   UNL     1      15.554  26.119  39.203  1.00  0.00     0.293 HD
ENDBRANCH  16  21
ENDBRANCH   1  11
BRANCH  10  23
ATOM     23  O   UNL     1      21.627  26.917  42.045  1.00  0.00    -0.500 OA
ATOM     24  H   UNL     1      22.536  27.181  42.410  1.00  0.00     0.294 HD
ENDBRANCH  10  23
BRANCH   5  25
ATOM     25  O   UNL     1      18.740  20.398  45.125  1.00  0.00    -0.507 OA
ATOM     26  H   UNL     1      18.278  19.742  44.505  1.00  0.00     0.293 HD
ENDBRANCH   5  25
BRANCH   7  27
ATOM     27  O   UNL     1      23.008  22.502  44.494  1.00  0.00    -0.507 OA
ATOM     28  H   UNL     1      23.454  22.106  45.308  1.00  0.00     0.293 HD
ENDBRANCH   7  27
TORSDOF 7
ENDMDL
MODEL 3
REMARK VINA RESULT:    -4.746      1.687      6.893
REMARK INTER + INTRA:          -6.233
REMARK INTER:                  -6.143
REMARK INTRA:                  -0.090
REMARK UNBOUND:                -0.377
REMARK SMILES Oc1cc(O)c2cc(O)c(-c3cc(O)c(O)c(O)c3)[o+]c2c1
REMARK SMILES IDX 10 1 20 2 21 3 22 4 2 5 3 6 4 7 6 8 7 9 8 10 11 11 12 12
REMARK SMILES IDX 13 13 19 14 15 15 17 16 14 17 16 19 18 21 9 23 1 25 5 27
REMARK H PARENT 14 18 16 20 18 22 9 24 1 26 5 28
REMARK Flexibility Score: inf
ROOT
ATOM      1  C   UNL     1      19.546  26.556  41.544  1.00  0.00     0.402 A 
ATOM      2  O   UNL     1      18.217  26.600  41.484  1.00  0.00    -0.202 OA
ATOM      3  C   UNL     1      17.551  27.440  40.699  1.00  0.00     0.368 A 
ATOM      4  C   UNL     1      16.154  27.415  40.708  1.00  0.00     0.162 A 
ATOM      5  C   UNL     1      15.427  28.289  39.893  1.00  0.00     0.128 A 
ATOM      6  C   UNL     1      16.101  29.193  39.069  1.00  0.00     0.093 A 
ATOM      7  C   UNL     1      17.500  29.238  39.042  1.00  0.00     0.136 A 
ATOM      8  C   UNL     1      18.242  28.351  39.864  1.00  0.00     0.125 A 
ATOM      9  C   UNL     1      19.646  28.317  39.893  1.00  0.00     0.078 A 
ATOM     10  C   UNL     1      20.308  27.411  40.727  1.00  0.00     0.223 A 
ENDROOT
BRANCH   1  11
ATOM     11  C   UNL     1      20.173  25.582  42.467  1.00  0.00     0.091 A 
ATOM     12  C   UNL     1      19.716  24.254  42.484  1.00  0.00     0.068 A 
ATOM     13  C   UNL     1      20.278  23.317  43.362  1.00  0.00     0.162 A 
ATOM     14  C   UNL     1      21.178  25.970  43.368  1.00  0.00     0.068 A 
ATOM     15  C   UNL     1      21.298  23.709  44.245  1.00  0.00     0.200 A 
ATOM     16  C   UNL     1      21.743  25.042  44.249  1.00  0.00     0.162 A 
BRANCH  13  17
ATOM     17  O   UNL     1      19.825  21.999  43.358  1.00  0.00    -0.504 OA
ATOM     18  H   UNL     1      19.829  21.433  44.200  1.00  0.00     0.293 HD
ENDBRANCH  13  17
BRANCH  15  19
ATOM     19  O   UNL     1      21.871  22.788  45.124  1.00  0.00    -0.502 OA
ATOM     20  H   UNL     1      22.780  22.374  44.955  1.00  0.00     0.293 HD
ENDBRANCH  15  19
BRANCH  16  21
ATOM     21  O   UNL     1      22.743  25.465  45.125  1.00  0.00    -0.504 OA
ATOM     22  H   UNL     1      23.169  24.839  45.799  1.00  0.00     0.293 HD
ENDBRANCH  16  21
ENDBRANCH   1  11
BRANCH  10  23
ATOM     23  O   UNL     1      21.701  27.342  40.720  1.00  0.00    -0.500 OA
ATOM     24  H   UNL     1      22.274  28.126  41.011  1.00  0.00     0.294 HD
ENDBRANCH  10  23
BRANCH   5  25
ATOM     25  O   UNL     1      14.034  28.269  39.896  1.00  0.00    -0.507 OA
ATOM     26  H   UNL     1      13.492  29.123  39.828  1.00  0.00     0.293 HD
ENDBRANCH   5  25
BRANCH   7  27
ATOM     27  O   UNL     1      18.098  30.174  38.193  1.00  0.00    -0.507 OA
ATOM     28  H   UNL     1      19.004  30.058  37.764  1.00  0.00     0.293 HD
ENDBRANCH   7  27
TORSDOF 7
ENDMDL
MODEL 4
REMARK VINA RESULT:    -4.702      1.770      3.687
REMARK INTER + INTRA:          -6.179
REMARK INTER:                  -6.479
REMARK INTRA:                   0.300
REMARK UNBOUND:                -0.377
REMARK SMILES Oc1cc(O)c2cc(O)c(-c3cc(O)c(O)c(O)c3)[o+]c2c1
REMARK SMILES IDX 10 1 20 2 21 3 22 4 2 5 3 6 4 7 6 8 7 9 8 10 11 11 12 12
REMARK SMILES IDX 13 13 19 14 15 15 17 16 14 17 16 19 18 21 9 23 1 25 5 27
REMARK H PARENT 14 18 16 20 18 22 9 24 1 26 5 28
REMARK Flexibility Score: inf
ROOT
ATOM      1  C   UNL     1      19.633  25.701  42.377  1.00  0.00     0.402 A 
ATOM      2  O   UNL     1      20.803  26.104  42.868  1.00  0.00    -0.202 OA
ATOM      3  C   UNL     1      21.650  25.293  43.492  1.00  0.00     0.368 A 
ATOM      4  C   UNL     1      22.854  25.810  43.976  1.00  0.00     0.162 A 
ATOM      5  C   UNL     1      23.763  24.980  44.640  1.00  0.00     0.128 A 
ATOM      6  C   UNL     1      23.464  23.627  44.821  1.00  0.00     0.093 A 
ATOM      7  C   UNL     1      22.264  23.085  44.345  1.00  0.00     0.136 A 
ATOM      8  C   UNL     1      21.340  23.922  43.669  1.00  0.00     0.125 A 
ATOM      9  C   UNL     1      20.120  23.463  43.148  1.00  0.00     0.078 A 
ATOM     10  C   UNL     1      19.261  24.349  42.488  1.00  0.00     0.223 A 
ENDROOT
BRANCH   1  11
ATOM     11  C   UNL     1      18.771  26.703  41.710  1.00  0.00     0.091 A 
ATOM     12  C   UNL     1      18.916  28.062  42.032  1.00  0.00     0.068 A 
ATOM     13  C   UNL     1      18.099  29.029  41.431  1.00  0.00     0.162 A 
ATOM     14  C   UNL     1      17.770  26.319  40.801  1.00  0.00     0.068 A 
ATOM     15  C   UNL     1      17.115  28.639  40.507  1.00  0.00     0.200 A 
ATOM     16  C   UNL     1      16.950  27.278  40.198  1.00  0.00     0.162 A 
BRANCH  13  17
ATOM     17  O   UNL     1      18.263  30.377  41.749  1.00  0.00    -0.504 OA
ATOM     18  H   UNL     1      18.639  30.670  42.643  1.00  0.00     0.293 HD
ENDBRANCH  13  17
BRANCH  15  19
ATOM     19  O   UNL     1      16.294  29.589  39.897  1.00  0.00    -0.502 OA
ATOM     20  H   UNL     1      16.461  29.920  38.954  1.00  0.00     0.293 HD
ENDBRANCH  15  19
BRANCH  16  21
ATOM     21  O   UNL     1      15.971  26.857  39.297  1.00  0.00    -0.504 OA
ATOM     22  H   UNL     1      15.878  27.265  38.374  1.00  0.00     0.293 HD
ENDBRANCH  16  21
ENDBRANCH   1  11
BRANCH  10  23
ATOM     23  O   UNL     1      18.072  23.883  41.927  1.00  0.00    -0.500 OA
ATOM     24  H   UNL     1      17.604  23.057  42.282  1.00  0.00     0.294 HD
ENDBRANCH  10  23
BRANCH   5  25
ATOM     25  O   UNL     1      24.966  25.489  45.125  1.00  0.00    -0.507 OA
ATOM     26  H   UNL     1      25.443  25.061  45.910  1.00  0.00     0.293 HD
ENDBRANCH   5  25
BRANCH   7  27
ATOM     27  O   UNL     1      22.040  21.724  44.571  1.00  0.00    -0.507 OA
ATOM     28  H   UNL     1      22.680  21.113  45.056  1.00  0.00     0.293 HD
ENDBRANCH   7  27
TORSDOF 7
ENDMDL
MODEL 5
REMARK VINA RESULT:    -4.630      3.116      4.903
REMARK INTER + INTRA:          -6.090
REMARK INTER:                  -5.728
REMARK INTRA:                  -0.362
REMARK UNBOUND:                -0.377
REMARK SMILES Oc1cc(O)c2cc(O)c(-c3cc(O)c(O)c(O)c3)[o+]c2c1
REMARK SMILES IDX 10 1 20 2 21 3 22 4 2 5 3 6 4 7 6 8 7 9 8 10 11 11 12 12
REMARK SMILES IDX 13 13 19 14 15 15 17 16 14 17 16 19 18 21 9 23 1 25 5 27
REMARK H PARENT 14 18 16 20 18 22 9 24 1 26 5 28
REMARK Flexibility Score: inf
ROOT
ATOM      1  C   UNL     1      19.152  25.497  42.064  1.00  0.00     0.402 A 
ATOM      2  O   UNL     1      18.232  24.795  41.407  1.00  0.00    -0.202 OA
ATOM      3  C   UNL     1      17.850  23.575  41.770  1.00  0.00     0.368 A 
ATOM      4  C   UNL     1      16.878  22.914  41.014  1.00  0.00     0.162 A 
ATOM      5  C   UNL     1      16.458  21.629  41.372  1.00  0.00     0.128 A 
ATOM      6  C   UNL     1      17.015  21.002  42.489  1.00  0.00     0.093 A 
ATOM      7  C   UNL     1      17.990  21.643  43.263  1.00  0.00     0.136 A 
ATOM      8  C   UNL     1      18.417  22.948  42.906  1.00  0.00     0.125 A 
ATOM      9  C   UNL     1      19.379  23.670  43.630  1.00  0.00     0.078 A 
ATOM     10  C   UNL     1      19.746  24.956  43.219  1.00  0.00     0.223 A 
ENDROOT
BRANCH   1  11
ATOM     11  C   UNL     1      19.501  26.842  41.555  1.00  0.00     0.091 A 
ATOM     12  C   UNL     1      20.662  27.009  40.783  1.00  0.00     0.068 A 
ATOM     13  C   UNL     1      21.027  28.275  40.306  1.00  0.00     0.162 A 
ATOM     14  C   UNL     1      18.726  27.970  41.874  1.00  0.00     0.068 A 
ATOM     15  C   UNL     1      20.234  29.394  40.612  1.00  0.00     0.200 A 
ATOM     16  C   UNL     1      19.084  29.237  41.403  1.00  0.00     0.162 A 
BRANCH  13  17
ATOM     17  O   UNL     1      22.175  28.424  39.529  1.00  0.00    -0.504 OA
ATOM     18  H   UNL     1      22.614  29.328  39.397  1.00  0.00     0.293 HD
ENDBRANCH  13  17
BRANCH  15  19
ATOM     19  O   UNL     1      20.581  30.662  40.143  1.00  0.00    -0.502 OA
ATOM     20  H   UNL     1      20.251  31.017  39.252  1.00  0.00     0.293 HD
ENDBRANCH  15  19
BRANCH  16  21
ATOM     21  O   UNL     1      18.285  30.331  41.737  1.00  0.00    -0.504 OA
ATOM     22  H   UNL     1      18.645  31.278  41.748  1.00  0.00     0.293 HD
ENDBRANCH  16  21
ENDBRANCH   1  11
BRANCH  10  23
ATOM     23  O   UNL     1      20.665  25.693  43.966  1.00  0.00    -0.500 OA
ATOM     24  H   UNL     1      20.920  26.641  43.711  1.00  0.00     0.294 HD
ENDBRANCH  10  23
BRANCH   5  25
ATOM     25  O   UNL     1      15.489  20.965  40.622  1.00  0.00    -0.507 OA
ATOM     26  H   UNL     1      15.069  20.102  40.946  1.00  0.00     0.293 HD
ENDBRANCH   5  25
BRANCH   7  27
ATOM     27  O   UNL     1      18.499  20.945  44.362  1.00  0.00    -0.507 OA
ATOM     28  H   UNL     1      18.204  20.019  44.636  1.00  0.00     0.293 HD
ENDBRANCH   7  27
TORSDOF 7
ENDMDL
MODEL 6
REMARK VINA RESULT:    -4.622      3.261      4.589
REMARK INTER + INTRA:          -6.080
REMARK INTER:                  -5.737
REMARK INTRA:                  -0.343
REMARK UNBOUND:                -0.377
REMARK SMILES Oc1cc(O)c2cc(O)c(-c3cc(O)c(O)c(O)c3)[o+]c2c1
REMARK SMILES IDX 10 1 20 2 21 3 22 4 2 5 3 6 4 7 6 8 7 9 8 10 11 11 12 12
REMARK SMILES IDX 13 13 19 14 15 15 17 16 14 17 16 19 18 21 9 23 1 25 5 27
REMARK H PARENT 14 18 16 20 18 22 9 24 1 26 5 28
REMARK Flexibility Score: inf
ROOT
ATOM      1  C   UNL     1      20.084  25.872  42.368  1.00  0.00     0.402 A 
ATOM      2  O   UNL     1      19.081  25.022  42.161  1.00  0.00    -0.202 OA
ATOM      3  C   UNL     1      19.004  23.830  42.743  1.00  0.00     0.368 A 
ATOM      4  C   UNL     1      17.912  23.005  42.460  1.00  0.00     0.162 A 
ATOM      5  C   UNL     1      17.807  21.744  43.056  1.00  0.00     0.128 A 
ATOM      6  C   UNL     1      18.800  21.306  43.935  1.00  0.00     0.093 A 
ATOM      7  C   UNL     1      19.905  22.113  44.234  1.00  0.00     0.136 A 
ATOM      8  C   UNL     1      20.014  23.395  43.635  1.00  0.00     0.125 A 
ATOM      9  C   UNL     1      21.079  24.276  43.886  1.00  0.00     0.078 A 
ATOM     10  C   UNL     1      21.116  25.526  43.261  1.00  0.00     0.223 A 
ENDROOT
BRANCH   1  11
ATOM     11  C   UNL     1      20.062  27.168  41.653  1.00  0.00     0.091 A 
ATOM     12  C   UNL     1      19.150  28.159  42.049  1.00  0.00     0.068 A 
ATOM     13  C   UNL     1      19.094  29.388  41.378  1.00  0.00     0.162 A 
ATOM     14  C   UNL     1      20.896  27.410  40.549  1.00  0.00     0.068 A 
ATOM     15  C   UNL     1      19.947  29.630  40.287  1.00  0.00     0.200 A 
ATOM     16  C   UNL     1      20.845  28.633  39.872  1.00  0.00     0.162 A 
BRANCH  13  17
ATOM     17  O   UNL     1      18.193  30.369  41.790  1.00  0.00    -0.504 OA
ATOM     18  H   UNL     1      17.967  31.163  41.203  1.00  0.00     0.293 HD
ENDBRANCH  13  17
BRANCH  15  19
ATOM     19  O   UNL     1      19.906  30.848  39.608  1.00  0.00    -0.502 OA
ATOM     20  H   UNL     1      19.997  30.908  38.600  1.00  0.00     0.293 HD
ENDBRANCH  15  19
BRANCH  16  21
ATOM     21  O   UNL     1      21.694  28.837  38.783  1.00  0.00    -0.504 OA
ATOM     22  H   UNL     1      21.749  29.727  38.302  1.00  0.00     0.293 HD
ENDBRANCH  16  21
ENDBRANCH   1  11
BRANCH  10  23
ATOM     23  O   UNL     1      22.146  26.422  43.547  1.00  0.00    -0.500 OA
ATOM     24  H   UNL     1      22.949  26.149  44.103  1.00  0.00     0.294 HD
ENDBRANCH  10  23
BRANCH   5  25
ATOM     25  O   UNL     1      16.721  20.917  42.779  1.00  0.00    -0.507 OA
ATOM     26  H   UNL     1      16.010  21.183  42.107  1.00  0.00     0.293 HD
ENDBRANCH   5  25
BRANCH   7  27
ATOM     27  O   UNL     1      20.856  21.600  45.120  1.00  0.00    -0.507 OA
ATOM     28  H   UNL     1      20.644  21.244  46.041  1.00  0.00     0.293 HD
ENDBRANCH   7  27
TORSDOF 7
ENDMDL
MODEL 7
REMARK VINA RESULT:    -4.597      2.857      4.040
REMARK INTER + INTRA:          -6.049
REMARK INTER:                  -5.752
REMARK INTRA:                  -0.297
REMARK UNBOUND:                -0.377
REMARK SMILES Oc1cc(O)c2cc(O)c(-c3cc(O)c(O)c(O)c3)[o+]c2c1
REMARK SMILES IDX 10 1 20 2 21 3 22 4 2 5 3 6 4 7 6 8 7 9 8 10 11 11 12 12
REMARK SMILES IDX 13 13 19 14 15 15 17 16 14 17 16 19 18 21 9 23 1 25 5 27
REMARK H PARENT 14 18 16 20 18 22 9 24 1 26 5 28
REMARK Flexibility Score: inf
ROOT
ATOM      1  C   UNL     1      19.978  26.586  41.795  1.00  0.00     0.402 A 
ATOM      2  O   UNL     1      21.182  26.539  42.361  1.00  0.00    -0.202 OA
ATOM      3  C   UNL     1      21.569  25.558  43.168  1.00  0.00     0.368 A 
ATOM      4  C   UNL     1      22.854  25.597  43.718  1.00  0.00     0.162 A 
ATOM      5  C   UNL     1      23.287  24.579  44.573  1.00  0.00     0.128 A 
ATOM      6  C   UNL     1      22.431  23.519  44.881  1.00  0.00     0.093 A 
ATOM      7  C   UNL     1      21.140  23.456  44.343  1.00  0.00     0.136 A 
ATOM      8  C   UNL     1      20.696  24.485  43.473  1.00  0.00     0.125 A 
ATOM      9  C   UNL     1      19.424  24.498  42.878  1.00  0.00     0.078 A 
ATOM     10  C   UNL     1      19.060  25.545  42.025  1.00  0.00     0.223 A 
ENDROOT
BRANCH   1  11
ATOM     11  C   UNL     1      19.660  27.738  40.921  1.00  0.00     0.091 A 
ATOM     12  C   UNL     1      18.733  28.699  41.355  1.00  0.00     0.068 A 
ATOM     13  C   UNL     1      18.398  29.788  40.539  1.00  0.00     0.162 A 
ATOM     14  C   UNL     1      20.225  27.864  39.640  1.00  0.00     0.068 A 
ATOM     15  C   UNL     1      18.984  29.917  39.268  1.00  0.00     0.200 A 
ATOM     16  C   UNL     1      19.895  28.947  38.819  1.00  0.00     0.162 A 
BRANCH  13  17
ATOM     17  O   UNL     1      17.487  30.743  40.988  1.00  0.00    -0.504 OA
ATOM     18  H   UNL     1      17.789  31.582  41.470  1.00  0.00     0.293 HD
ENDBRANCH  13  17
BRANCH  15  19
ATOM     19  O   UNL     1      18.665  30.997  38.443  1.00  0.00    -0.502 OA
ATOM     20  H   UNL     1      17.709  31.303  38.300  1.00  0.00     0.293 HD
ENDBRANCH  15  19
BRANCH  16  21
ATOM     21  O   UNL     1      20.481  29.039  37.556  1.00  0.00    -0.504 OA
ATOM     22  H   UNL     1      19.941  29.251  36.725  1.00  0.00     0.293 HD
ENDBRANCH  16  21
ENDBRANCH   1  11
BRANCH  10  23
ATOM     23  O   UNL     1      17.816  25.534  41.395  1.00  0.00    -0.500 OA
ATOM     24  H   UNL     1      17.070  26.159  41.679  1.00  0.00     0.294 HD
ENDBRANCH  10  23
BRANCH   5  25
ATOM     25  O   UNL     1      24.566  24.612  45.125  1.00  0.00    -0.507 OA
ATOM     26  H   UNL     1      24.902  25.422  45.634  1.00  0.00     0.293 HD
ENDBRANCH   5  25
BRANCH   7  27
ATOM     27  O   UNL     1      20.345  22.364  44.704  1.00  0.00    -0.507 OA
ATOM     28  H   UNL     1      20.372  21.912  45.606  1.00  0.00     0.293 HD
ENDBRANCH   7  27
TORSDOF 7
ENDMDL
MODEL 8
REMARK VINA RESULT:    -4.578      3.025      5.399
REMARK INTER + INTRA:          -6.026
REMARK INTER:                  -5.705
REMARK INTRA:                  -0.320
REMARK UNBOUND:                -0.377
REMARK SMILES Oc1cc(O)c2cc(O)c(-c3cc(O)c(O)c(O)c3)[o+]c2c1
REMARK SMILES IDX 10 1 20 2 21 3 22 4 2 5 3 6 4 7 6 8 7 9 8 10 11 11 12 12
REMARK SMILES IDX 13 13 19 14 15 15 17 16 14 17 16 19 18 21 9 23 1 25 5 27
REMARK H PARENT 14 18 16 20 18 22 9 24 1 26 5 28
REMARK Flexibility Score: inf
ROOT
ATOM      1  C   UNL     1      18.914  25.455  41.766  1.00  0.00     0.402 A 
ATOM      2  O   UNL     1      17.829  24.979  41.160  1.00  0.00    -0.202 OA
ATOM      3  C   UNL     1      17.317  23.780  41.418  1.00  0.00     0.368 A 
ATOM      4  C   UNL     1      16.175  23.366  40.726  1.00  0.00     0.162 A 
ATOM      5  C   UNL     1      15.616  22.108  40.976  1.00  0.00     0.128 A 
ATOM      6  C   UNL     1      16.204  21.262  41.919  1.00  0.00     0.093 A 
ATOM      7  C   UNL     1      17.348  21.653  42.625  1.00  0.00     0.136 A 
ATOM      8  C   UNL     1      17.917  22.929  42.378  1.00  0.00     0.125 A 
ATOM      9  C   UNL     1      19.055  23.410  43.046  1.00  0.00     0.078 A 
ATOM     10  C   UNL     1      19.555  24.683  42.752  1.00  0.00     0.223 A 
ENDROOT
BRANCH   1  11
ATOM     11  C   UNL     1      19.394  26.802  41.384  1.00  0.00     0.091 A 
ATOM     12  C   UNL     1      18.633  27.930  41.731  1.00  0.00     0.068 A 
ATOM     13  C   UNL     1      19.054  29.216  41.365  1.00  0.00     0.162 A 
ATOM     14  C   UNL     1      20.569  26.976  40.633  1.00  0.00     0.068 A 
ATOM     15  C   UNL     1      20.241  29.382  40.632  1.00  0.00     0.200 A 
ATOM     16  C   UNL     1      20.995  28.255  40.262  1.00  0.00     0.162 A 
BRANCH  13  17
ATOM     17  O   UNL     1      18.296  30.328  41.728  1.00  0.00    -0.504 OA
ATOM     18  H   UNL     1      17.320  30.245  41.989  1.00  0.00     0.293 HD
ENDBRANCH  13  17
BRANCH  15  19
ATOM     19  O   UNL     1      20.677  30.655  40.261  1.00  0.00    -0.502 OA
ATOM     20  H   UNL     1      20.652  31.441  40.900  1.00  0.00     0.293 HD
ENDBRANCH  15  19
BRANCH  16  21
ATOM     21  O   UNL     1      22.170  28.386  39.521  1.00  0.00    -0.504 OA
ATOM     22  H   UNL     1      22.358  27.817  38.704  1.00  0.00     0.293 HD
ENDBRANCH  16  21
ENDBRANCH   1  11
BRANCH  10  23
ATOM     23  O   UNL     1      20.655  25.181  43.450  1.00  0.00    -0.500 OA
ATOM     24  H   UNL     1      21.216  25.943  43.086  1.00  0.00     0.294 HD
ENDBRANCH  10  23
BRANCH   5  25
ATOM     25  O   UNL     1      14.478  21.689  40.291  1.00  0.00    -0.507 OA
ATOM     26  H   UNL     1      14.132  20.739  40.371  1.00  0.00     0.293 HD
ENDBRANCH   5  25
BRANCH   7  27
ATOM     27  O   UNL     1      17.877  20.746  43.548  1.00  0.00    -0.507 OA
ATOM     28  H   UNL     1      18.257  19.843  43.307  1.00  0.00     0.293 HD
ENDBRANCH   7  27
TORSDOF 7
ENDMDL
MODEL 9
REMARK VINA RESULT:    -4.533      1.977      6.672
REMARK INTER + INTRA:          -5.971
REMARK INTER:                  -5.594
REMARK INTRA:                  -0.376
REMARK UNBOUND:                -0.377
REMARK SMILES Oc1cc(O)c2cc(O)c(-c3cc(O)c(O)c(O)c3)[o+]c2c1
REMARK SMILES IDX 10 1 20 2 21 3 22 4 2 5 3 6 4 7 6 8 7 9 8 10 11 11 12 12
REMARK SMILES IDX 13 13 19 14 15 15 17 16 14 17 16 19 18 21 9 23 1 25 5 27
REMARK H PARENT 14 18 16 20 18 22 9 24 1 26 5 28
REMARK Flexibility Score: inf
ROOT
ATOM      1  C   UNL     1      19.353  25.966  41.660  1.00  0.00     0.402 A 
ATOM      2  O   UNL     1      18.157  26.273  41.164  1.00  0.00    -0.202 OA
ATOM      3  C   UNL     1      17.824  27.498  40.769  1.00  0.00     0.368 A 
ATOM      4  C   UNL     1      16.541  27.724  40.264  1.00  0.00     0.162 A 
ATOM      5  C   UNL     1      16.163  29.003  39.843  1.00  0.00     0.128 A 
ATOM      6  C   UNL     1      17.072  30.060  39.932  1.00  0.00     0.093 A 
ATOM      7  C   UNL     1      18.364  29.859  40.434  1.00  0.00     0.136 A 
ATOM      8  C   UNL     1      18.753  28.563  40.859  1.00  0.00     0.125 A 
ATOM      9  C   UNL     1      20.030  28.267  41.364  1.00  0.00     0.078 A 
ATOM     10  C   UNL     1      20.342  26.962  41.759  1.00  0.00     0.223 A 
ENDROOT
BRANCH   1  11
ATOM     11  C   UNL     1      19.600  24.567  42.075  1.00  0.00     0.091 A 
ATOM     12  C   UNL     1      19.313  24.176  43.393  1.00  0.00     0.068 A 
ATOM     13  C   UNL     1      19.557  22.863  43.818  1.00  0.00     0.162 A 
ATOM     14  C   UNL     1      20.169  23.631  41.195  1.00  0.00     0.068 A 
ATOM     15  C   UNL     1      20.106  21.928  42.924  1.00  0.00     0.200 A 
ATOM     16  C   UNL     1      20.417  22.319  41.611  1.00  0.00     0.162 A 
BRANCH  13  17
ATOM     17  O   UNL     1      19.253  22.484  45.125  1.00  0.00    -0.504 OA
ATOM     18  H   UNL     1      18.478  22.897  45.632  1.00  0.00     0.293 HD
ENDBRANCH  13  17
BRANCH  15  19
ATOM     19  O   UNL     1      20.353  20.615  43.329  1.00  0.00    -0.502 OA
ATOM     20  H   UNL     1      21.097  20.057  42.927  1.00  0.00     0.293 HD
ENDBRANCH  15  19
BRANCH  16  21
ATOM     21  O   UNL     1      20.978  21.418  40.705  1.00  0.00    -0.504 OA
ATOM     22  H   UNL     1      21.011  21.605  39.710  1.00  0.00     0.293 HD
ENDBRANCH  16  21
ENDBRANCH   1  11
BRANCH  10  23
ATOM     23  O   UNL     1      21.625  26.657  42.214  1.00  0.00    -0.500 OA
ATOM     24  H   UNL     1      22.094  27.229  42.906  1.00  0.00     0.294 HD
ENDBRANCH  10  23
BRANCH   5  25
ATOM     25  O   UNL     1      14.886  29.235  39.339  1.00  0.00    -0.507 OA
ATOM     26  H   UNL     1      14.743  29.568  38.392  1.00  0.00     0.293 HD
ENDBRANCH   5  25
BRANCH   7  27
ATOM     27  O   UNL     1      19.211  30.970  40.492  1.00  0.00    -0.507 OA
ATOM     28  H   UNL     1      20.105  31.030  40.027  1.00  0.00     0.293 HD
ENDBRANCH   7  27
TORSDOF 7
ENDMDL
