MODEL 1
REMARK VINA RESULT:    21.833      0.000      0.000
REMARK INTER + INTRA:          25.900
REMARK INTER:                  26.300
REMARK INTRA:                  -0.400
REMARK UNBOUND:                -0.400
REMARK SMILES O=c1c(O)c(-c2ccc(O)cc2O)oc2cc(O)cc(O)c12
REMARK SMILES IDX 5 1 3 2 2 3 1 4 22 5 20 6 19 7 17 8 16 9 15 10 14 11 6 12
REMARK SMILES IDX 8 13 7 14 9 15 11 16 12 17 10 18 13 20 4 22 21 24 18 26
REMARK H PARENT 10 19 13 21 4 23 21 25 18 27
REMARK Flexibility Score: inf
ROOT
ATOM      1  C   UNL     1      -6.308   5.079  15.269  1.00  0.00     0.184 A 
ATOM      2  C   UNL     1      -6.443   4.533  16.554  1.00  0.00     0.208 A 
ATOM      3  C   UNL     1      -5.715   3.379  16.883  1.00  0.00     0.238 A 
ATOM      4  O   UNL     1      -5.793   2.930  18.056  1.00  0.00    -0.285 OA
ATOM      5  C   UNL     1      -4.884   2.770  15.912  1.00  0.00     0.111 A 
ATOM      6  C   UNL     1      -4.131   1.575  16.122  1.00  0.00     0.134 A 
ATOM      7  C   UNL     1      -3.248   1.132  15.130  1.00  0.00     0.093 A 
ATOM      8  C   UNL     1      -3.138   1.800  13.911  1.00  0.00     0.123 A 
ATOM      9  C   UNL     1      -3.912   2.937  13.672  1.00  0.00     0.094 A 
ATOM     10  C   UNL     1      -4.775   3.426  14.656  1.00  0.00     0.146 A 
ATOM     11  O   UNL     1      -5.483   4.517  14.394  1.00  0.00    -0.451 OA
ENDROOT
BRANCH   1  12
ATOM     12  C   UNL     1      -7.068   6.279  14.858  1.00  0.00     0.063 A 
ATOM     13  C   UNL     1      -7.238   8.704  14.757  1.00  0.00     0.047 A 
ATOM     14  C   UNL     1      -6.518   7.553  15.086  1.00  0.00     0.020 A 
ATOM     15  C   UNL     1      -8.518   8.600  14.204  1.00  0.00     0.119 A 
ATOM     16  C   UNL     1      -9.074   7.338  13.975  1.00  0.00     0.093 A 
ATOM     17  C   UNL     1      -8.360   6.176  14.290  1.00  0.00     0.130 A 
BRANCH  15  18
ATOM     18  O   UNL     1      -9.247   9.742  13.879  1.00  0.00    -0.508 OA
ATOM     19  H   UNL     1      -9.382  10.027  12.915  1.00  0.00     0.293 HD
ENDBRANCH  15  18
BRANCH  17  20
ATOM     20  O   UNL     1      -8.950   4.942  14.006  1.00  0.00    -0.507 OA
ATOM     21  H   UNL     1      -9.943   4.829  13.847  1.00  0.00     0.293 HD
ENDBRANCH  17  20
ENDBRANCH   1  12
BRANCH   2  22
ATOM     22  O   UNL     1      -7.273   5.153  17.491  1.00  0.00    -0.502 OA
ATOM     23  H   UNL     1      -6.925   5.828  18.162  1.00  0.00     0.293 HD
ENDBRANCH   2  22
BRANCH   6  24
ATOM     24  O   UNL     1      -4.232   0.780  17.267  1.00  0.00    -0.507 OA
ATOM     25  H   UNL     1      -3.565   0.771  18.023  1.00  0.00     0.293 HD
ENDBRANCH   6  24
BRANCH   8  26
ATOM     26  O   UNL     1      -2.261   1.321  12.941  1.00  0.00    -0.508 OA
ATOM     27  H   UNL     1      -1.520   0.670  13.173  1.00  0.00     0.293 HD
ENDBRANCH   8  26
TORSDOF 6
ENDMDL
MODEL 2
REMARK VINA RESULT:    22.392      1.548      6.808
REMARK INTER + INTRA:          26.573
REMARK INTER:                  26.969
REMARK INTRA:                  -0.396
REMARK UNBOUND:                -0.400
REMARK SMILES O=c1c(O)c(-c2ccc(O)cc2O)oc2cc(O)cc(O)c12
REMARK SMILES IDX 5 1 3 2 2 3 1 4 22 5 20 6 19 7 17 8 16 9 15 10 14 11 6 12
REMARK SMILES IDX 8 13 7 14 9 15 11 16 12 17 10 18 13 20 4 22 21 24 18 26
REMARK H PARENT 10 19 13 21 4 23 21 25 18 27
REMARK Flexibility Score: inf
ROOT
ATOM      1  C   UNL     1      -5.659   3.965  15.085  1.00  0.00     0.184 A 
ATOM      2  C   UNL     1      -6.755   3.733  14.240  1.00  0.00     0.208 A 
ATOM      3  C   UNL     1      -7.649   4.783  13.982  1.00  0.00     0.238 A 
ATOM      4  O   UNL     1      -8.595   4.586  13.175  1.00  0.00    -0.285 OA
ATOM      5  C   UNL     1      -7.452   6.043  14.597  1.00  0.00     0.111 A 
ATOM      6  C   UNL     1      -8.318   7.168  14.438  1.00  0.00     0.134 A 
ATOM      7  C   UNL     1      -7.957   8.401  14.996  1.00  0.00     0.093 A 
ATOM      8  C   UNL     1      -6.799   8.535  15.759  1.00  0.00     0.123 A 
ATOM      9  C   UNL     1      -5.974   7.429  15.969  1.00  0.00     0.094 A 
ATOM     10  C   UNL     1      -6.287   6.194  15.395  1.00  0.00     0.146 A 
ATOM     11  O   UNL     1      -5.469   5.170  15.607  1.00  0.00    -0.451 OA
ENDROOT
BRANCH   1  12
ATOM     12  C   UNL     1      -4.697   2.891  15.412  1.00  0.00     0.063 A 
ATOM     13  C   UNL     1      -2.704   1.627  14.818  1.00  0.00     0.047 A 
ATOM     14  C   UNL     1      -3.598   2.670  14.563  1.00  0.00     0.020 A 
ATOM     15  C   UNL     1      -2.899   0.786  15.919  1.00  0.00     0.119 A 
ATOM     16  C   UNL     1      -3.990   0.997  16.768  1.00  0.00     0.093 A 
ATOM     17  C   UNL     1      -4.887   2.045  16.530  1.00  0.00     0.130 A 
BRANCH  15  18
ATOM     18  O   UNL     1      -2.017  -0.260  16.179  1.00  0.00    -0.508 OA
ATOM     19  H   UNL     1      -1.618  -0.814  15.430  1.00  0.00     0.293 HD
ENDBRANCH  15  18
BRANCH  17  20
ATOM     20  O   UNL     1      -5.938   2.231  17.431  1.00  0.00    -0.507 OA
ATOM     21  H   UNL     1      -5.931   1.856  18.371  1.00  0.00     0.293 HD
ENDBRANCH  17  20
ENDBRANCH   1  12
BRANCH   2  22
ATOM     22  O   UNL     1      -6.927   2.478  13.650  1.00  0.00    -0.502 OA
ATOM     23  H   UNL     1      -7.493   2.341  12.821  1.00  0.00     0.293 HD
ENDBRANCH   2  22
BRANCH   6  24
ATOM     24  O   UNL     1      -9.546   7.120  13.771  1.00  0.00    -0.507 OA
ATOM     25  H   UNL     1     -10.133   6.304  13.705  1.00  0.00     0.293 HD
ENDBRANCH   6  24
BRANCH   8  26
ATOM     26  O   UNL     1      -6.480   9.774  16.312  1.00  0.00    -0.508 OA
ATOM     27  H   UNL     1      -6.304   9.881  17.304  1.00  0.00     0.293 HD
ENDBRANCH   8  26
TORSDOF 6
ENDMDL
