MODEL 1
REMARK VINA RESULT:    -4.895      0.000      0.000
REMARK INTER + INTRA:         -10.802
REMARK INTER:                  -9.187
REMARK INTRA:                  -1.616
REMARK UNBOUND:                -1.616
REMARK SMILES CCCCCCCCC=CCCCCCCCC(=O)[O-]
REMARK SMILES IDX 10 1 9 2 11 3 12 4 13 5 14 6 15 7 16 8 17 9 18 10 19 11
REMARK SMILES IDX 20 12 8 13 7 14 6 15 5 16 4 17 3 18 2 19 1 20
REMARK H PARENT
REMARK Flexibility Score: inf
ROOT
ATOM      1  C   UNL     1      25.637 -31.129  23.229  1.00  0.00    -0.031 C 
ATOM      2  C   UNL     1      24.605 -30.578  23.894  1.00  0.00    -0.031 C 
ENDROOT
BRANCH   1   3
ATOM      3  C   UNL     1      25.836 -32.611  23.037  1.00  0.00     0.027 C 
BRANCH   3   4
ATOM      4  C   UNL     1      26.469 -32.899  21.668  1.00  0.00     0.004 C 
BRANCH   4   5
ATOM      5  C   UNL     1      25.425 -33.014  20.548  1.00  0.00     0.000 C 
BRANCH   5   6
ATOM      6  C   UNL     1      24.134 -33.708  21.010  1.00  0.00     0.000 C 
BRANCH   6   7
ATOM      7  C   UNL     1      23.803 -34.958  20.180  1.00  0.00     0.000 C 
BRANCH   7   8
ATOM      8  C   UNL     1      23.855 -36.250  21.010  1.00  0.00     0.006 C 
BRANCH   8   9
ATOM      9  C   UNL     1      24.239 -35.953  22.463  1.00  0.00     0.053 C 
BRANCH   9  10
ATOM     10  C   UNL     1      25.490 -36.683  22.837  1.00  0.00     0.041 C 
ATOM     11  O   UNL     1      25.643 -37.889  22.509  1.00  0.00    -0.550 OA
ATOM     12  O   UNL     1      26.509 -36.018  23.509  1.00  0.00    -0.550 OA
ENDBRANCH   9  10
ENDBRANCH   8   9
ENDBRANCH   7   8
ENDBRANCH   6   7
ENDBRANCH   5   6
ENDBRANCH   4   5
ENDBRANCH   3   4
ENDBRANCH   1   3
BRANCH   2  13
ATOM     13  C   UNL     1      23.541 -31.362  24.625  1.00  0.00     0.027 C 
BRANCH  13  14
ATOM     14  C   UNL     1      22.891 -30.537  25.746  1.00  0.00     0.004 C 
BRANCH  14  15
ATOM     15  C   UNL     1      23.501 -29.132  25.861  1.00  0.00     0.000 C 
BRANCH  15  16
ATOM     16  C   UNL     1      23.908 -28.827  27.309  1.00  0.00     0.000 C 
BRANCH  16  17
ATOM     17  C   UNL     1      23.322 -27.491  27.813  1.00  0.00    -0.000 C 
BRANCH  17  18
ATOM     18  C   UNL     1      22.061 -27.659  28.682  1.00  0.00    -0.000 C 
BRANCH  18  19
ATOM     19  C   UNL     1      20.736 -27.423  27.938  1.00  0.00    -0.003 C 
ATOM     20  C   UNL     1      20.110 -28.716  27.417  1.00  0.00     0.004 C 
ENDBRANCH  18  19
ENDBRANCH  17  18
ENDBRANCH  16  17
ENDBRANCH  15  16
ENDBRANCH  14  15
ENDBRANCH  13  14
ENDBRANCH   2  13
TORSDOF 15
ENDMDL
MODEL 2
REMARK VINA RESULT:    -4.893      3.685      8.443
REMARK INTER + INTRA:         -10.798
REMARK INTER:                  -9.185
REMARK INTRA:                  -1.613
REMARK UNBOUND:                -1.616
REMARK SMILES CCCCCCCCC=CCCCCCCCC(=O)[O-]
REMARK SMILES IDX 10 1 9 2 11 3 12 4 13 5 14 6 15 7 16 8 17 9 18 10 19 11
REMARK SMILES IDX 20 12 8 13 7 14 6 15 5 16 4 17 3 18 2 19 1 20
REMARK H PARENT
REMARK Flexibility Score: inf
ROOT
ATOM      1  C   UNL     1      25.559 -31.993  23.716  1.00  0.00    -0.031 C 
ATOM      2  C   UNL     1      25.942 -33.033  22.952  1.00  0.00    -0.031 C 
ENDROOT
BRANCH   1   3
ATOM      3  C   UNL     1      25.453 -30.570  23.230  1.00  0.00     0.027 C 
BRANCH   3   4
ATOM      4  C   UNL     1      24.609 -29.729  24.198  1.00  0.00     0.004 C 
BRANCH   4   5
ATOM      5  C   UNL     1      23.748 -30.591  25.132  1.00  0.00     0.000 C 
BRANCH   5   6
ATOM      6  C   UNL     1      22.975 -29.756  26.165  1.00  0.00     0.000 C 
BRANCH   6   7
ATOM      7  C   UNL     1      23.355 -28.268  26.128  1.00  0.00     0.000 C 
BRANCH   7   8
ATOM      8  C   UNL     1      23.543 -27.670  27.530  1.00  0.00     0.006 C 
BRANCH   8   9
ATOM      9  C   UNL     1      24.551 -28.487  28.345  1.00  0.00     0.053 C 
BRANCH   9  10
ATOM     10  C   UNL     1      23.969 -28.877  29.667  1.00  0.00     0.041 C 
ATOM     11  O   UNL     1      24.724 -29.198  30.622  1.00  0.00    -0.550 OA
ATOM     12  O   UNL     1      22.593 -28.842  29.859  1.00  0.00    -0.550 OA
ENDBRANCH   9  10
ENDBRANCH   8   9
ENDBRANCH   7   8
ENDBRANCH   6   7
ENDBRANCH   5   6
ENDBRANCH   4   5
ENDBRANCH   3   4
ENDBRANCH   1   3
BRANCH   2  13
ATOM     13  C   UNL     1      26.410 -32.918  21.521  1.00  0.00     0.027 C 
BRANCH  13  14
ATOM     14  C   UNL     1      25.269 -33.168  20.524  1.00  0.00     0.004 C 
BRANCH  14  15
ATOM     15  C   UNL     1      23.945 -33.502  21.228  1.00  0.00     0.000 C 
BRANCH  15  16
ATOM     16  C   UNL     1      23.309 -34.766  20.633  1.00  0.00     0.000 C 
BRANCH  16  17
ATOM     17  C   UNL     1      24.166 -36.025  20.885  1.00  0.00    -0.000 C 
BRANCH  17  18
ATOM     18  C   UNL     1      24.307 -36.387  22.376  1.00  0.00    -0.000 C 
BRANCH  18  19
ATOM     19  C   UNL     1      25.688 -36.935  22.772  1.00  0.00    -0.003 C 
ATOM     20  C   UNL     1      26.164 -36.416  24.129  1.00  0.00     0.004 C 
ENDBRANCH  18  19
ENDBRANCH  17  18
ENDBRANCH  16  17
ENDBRANCH  15  16
ENDBRANCH  14  15
ENDBRANCH  13  14
ENDBRANCH   2  13
TORSDOF 15
ENDMDL
MODEL 3
REMARK VINA RESULT:    -4.817      3.489      7.650
REMARK INTER + INTRA:         -10.656
REMARK INTER:                  -8.718
REMARK INTRA:                  -1.939
REMARK UNBOUND:                -1.616
REMARK SMILES CCCCCCCCC=CCCCCCCCC(=O)[O-]
REMARK SMILES IDX 10 1 9 2 11 3 12 4 13 5 14 6 15 7 16 8 17 9 18 10 19 11
REMARK SMILES IDX 20 12 8 13 7 14 6 15 5 16 4 17 3 18 2 19 1 20
REMARK H PARENT
REMARK Flexibility Score: inf
ROOT
ATOM      1  C   UNL     1      24.265 -33.332  20.638  1.00  0.00    -0.031 C 
ATOM      2  C   UNL     1      23.570 -34.435  20.974  1.00  0.00    -0.031 C 
ENDROOT
BRANCH   1   3
ATOM      3  C   UNL     1      25.767 -33.270  20.524  1.00  0.00     0.027 C 
BRANCH   3   4
ATOM      4  C   UNL     1      26.386 -32.721  21.817  1.00  0.00     0.004 C 
BRANCH   4   5
ATOM      5  C   UNL     1      25.591 -31.542  22.396  1.00  0.00     0.000 C 
BRANCH   5   6
ATOM      6  C   UNL     1      25.322 -31.691  23.903  1.00  0.00     0.000 C 
BRANCH   6   7
ATOM      7  C   UNL     1      23.849 -31.997  24.214  1.00  0.00     0.000 C 
BRANCH   7   8
ATOM      8  C   UNL     1      23.242 -31.014  25.227  1.00  0.00     0.006 C 
BRANCH   8   9
ATOM      9  C   UNL     1      23.991 -29.677  25.210  1.00  0.00     0.053 C 
BRANCH   9  10
ATOM     10  C   UNL     1      23.412 -28.735  26.218  1.00  0.00     0.041 C 
ATOM     11  O   UNL     1      24.167 -28.106  27.006  1.00  0.00    -0.550 OA
ATOM     12  O   UNL     1      22.040 -28.516  26.259  1.00  0.00    -0.550 OA
ENDBRANCH   9  10
ENDBRANCH   8   9
ENDBRANCH   7   8
ENDBRANCH   6   7
ENDBRANCH   5   6
ENDBRANCH   4   5
ENDBRANCH   3   4
ENDBRANCH   1   3
BRANCH   2  13
ATOM     13  C   UNL     1      24.194 -35.751  21.376  1.00  0.00     0.027 C 
BRANCH  13  14
ATOM     14  C   UNL     1      23.947 -36.073  22.856  1.00  0.00     0.004 C 
BRANCH  14  15
ATOM     15  C   UNL     1      25.056 -35.521  23.764  1.00  0.00     0.000 C 
BRANCH  15  16
ATOM     16  C   UNL     1      26.423 -36.102  23.378  1.00  0.00     0.000 C 
BRANCH  16  17
ATOM     17  C   UNL     1      27.104 -36.830  24.557  1.00  0.00    -0.000 C 
BRANCH  17  18
ATOM     18  C   UNL     1      26.110 -37.499  25.525  1.00  0.00    -0.000 C 
BRANCH  18  19
ATOM     19  C   UNL     1      26.766 -38.294  26.666  1.00  0.00    -0.003 C 
ATOM     20  C   UNL     1      26.061 -38.096  28.008  1.00  0.00     0.004 C 
ENDBRANCH  18  19
ENDBRANCH  17  18
ENDBRANCH  16  17
ENDBRANCH  15  16
ENDBRANCH  14  15
ENDBRANCH  13  14
ENDBRANCH   2  13
TORSDOF 15
ENDMDL
MODEL 4
REMARK VINA RESULT:    -4.782      3.407      7.768
REMARK INTER + INTRA:         -10.592
REMARK INTER:                  -8.739
REMARK INTRA:                  -1.853
REMARK UNBOUND:                -1.616
REMARK SMILES CCCCCCCCC=CCCCCCCCC(=O)[O-]
REMARK SMILES IDX 10 1 9 2 11 3 12 4 13 5 14 6 15 7 16 8 17 9 18 10 19 11
REMARK SMILES IDX 20 12 8 13 7 14 6 15 5 16 4 17 3 18 2 19 1 20
REMARK H PARENT
REMARK Flexibility Score: inf
ROOT
ATOM      1  C   UNL     1      25.999 -32.475  21.271  1.00  0.00    -0.031 C 
ATOM      2  C   UNL     1      25.159 -33.260  20.571  1.00  0.00    -0.031 C 
ENDROOT
BRANCH   1   3
ATOM      3  C   UNL     1      25.918 -32.252  22.760  1.00  0.00     0.027 C 
BRANCH   3   4
ATOM      4  C   UNL     1      25.494 -30.809  23.069  1.00  0.00     0.004 C 
BRANCH   4   5
ATOM      5  C   UNL     1      24.381 -30.735  24.124  1.00  0.00     0.000 C 
BRANCH   5   6
ATOM      6  C   UNL     1      24.095 -32.095  24.781  1.00  0.00     0.000 C 
BRANCH   6   7
ATOM      7  C   UNL     1      22.965 -32.026  25.819  1.00  0.00     0.000 C 
BRANCH   7   8
ATOM      8  C   UNL     1      22.424 -30.600  26.010  1.00  0.00     0.006 C 
BRANCH   8   9
ATOM      9  C   UNL     1      22.752 -30.073  27.411  1.00  0.00     0.053 C 
BRANCH   9  10
ATOM     10  C   UNL     1      23.647 -28.877  27.328  1.00  0.00     0.041 C 
ATOM     11  O   UNL     1      24.510 -28.668  28.222  1.00  0.00    -0.550 OA
ATOM     12  O   UNL     1      23.562 -28.018  26.239  1.00  0.00    -0.550 OA
ENDBRANCH   9  10
ENDBRANCH   8   9
ENDBRANCH   7   8
ENDBRANCH   6   7
ENDBRANCH   5   6
ENDBRANCH   4   5
ENDBRANCH   3   4
ENDBRANCH   1   3
BRANCH   2  13
ATOM     13  C   UNL     1      23.957 -33.963  21.155  1.00  0.00     0.027 C 
BRANCH  13  14
ATOM     14  C   UNL     1      24.128 -35.489  21.152  1.00  0.00     0.004 C 
BRANCH  14  15
ATOM     15  C   UNL     1      23.878 -36.103  22.538  1.00  0.00     0.000 C 
BRANCH  15  16
ATOM     16  C   UNL     1      24.876 -35.558  23.569  1.00  0.00     0.000 C 
BRANCH  16  17
ATOM     17  C   UNL     1      26.341 -35.846  23.174  1.00  0.00    -0.000 C 
BRANCH  17  18
ATOM     18  C   UNL     1      26.932 -37.089  23.866  1.00  0.00    -0.000 C 
BRANCH  18  19
ATOM     19  C   UNL     1      26.662 -37.167  25.379  1.00  0.00    -0.003 C 
ATOM     20  C   UNL     1      26.123 -38.530  25.814  1.00  0.00     0.004 C 
ENDBRANCH  18  19
ENDBRANCH  17  18
ENDBRANCH  16  17
ENDBRANCH  15  16
ENDBRANCH  14  15
ENDBRANCH  13  14
ENDBRANCH   2  13
TORSDOF 15
ENDMDL
MODEL 5
REMARK VINA RESULT:    -4.730      3.883      8.500
REMARK INTER + INTRA:         -10.493
REMARK INTER:                  -8.706
REMARK INTRA:                  -1.787
REMARK UNBOUND:                -1.616
REMARK SMILES CCCCCCCCC=CCCCCCCCC(=O)[O-]
REMARK SMILES IDX 10 1 9 2 11 3 12 4 13 5 14 6 15 7 16 8 17 9 18 10 19 11
REMARK SMILES IDX 20 12 8 13 7 14 6 15 5 16 4 17 3 18 2 19 1 20
REMARK H PARENT
REMARK Flexibility Score: inf
ROOT
ATOM      1  C   UNL     1      22.632 -31.211  26.653  1.00  0.00    -0.031 C 
ATOM      2  C   UNL     1      23.493 -31.906  25.887  1.00  0.00    -0.031 C 
ENDROOT
BRANCH   1   3
ATOM      3  C   UNL     1      21.590 -30.261  26.121  1.00  0.00     0.027 C 
BRANCH   3   4
ATOM      4  C   UNL     1      21.824 -28.843  26.660  1.00  0.00     0.004 C 
BRANCH   4   5
ATOM      5  C   UNL     1      23.290 -28.401  26.540  1.00  0.00     0.000 C 
BRANCH   5   6
ATOM      6  C   UNL     1      23.883 -27.945  27.883  1.00  0.00     0.000 C 
BRANCH   6   7
ATOM      7  C   UNL     1      23.028 -28.375  29.085  1.00  0.00     0.000 C 
BRANCH   7   8
ATOM      8  C   UNL     1      23.571 -29.634  29.777  1.00  0.00     0.006 C 
BRANCH   8   9
ATOM      9  C   UNL     1      25.100 -29.690  29.693  1.00  0.00     0.053 C 
BRANCH   9  10
ATOM     10  C   UNL     1      25.717 -29.206  30.967  1.00  0.00     0.041 C 
ATOM     11  O   UNL     1      25.351 -29.689  32.072  1.00  0.00    -0.550 OA
ATOM     12  O   UNL     1      26.729 -28.255  30.933  1.00  0.00    -0.550 OA
ENDBRANCH   9  10
ENDBRANCH   8   9
ENDBRANCH   7   8
ENDBRANCH   6   7
ENDBRANCH   5   6
ENDBRANCH   4   5
ENDBRANCH   3   4
ENDBRANCH   1   3
BRANCH   2  13
ATOM     13  C   UNL     1      23.605 -31.772  24.387  1.00  0.00     0.027 C 
BRANCH  13  14
ATOM     14  C   UNL     1      24.565 -30.644  23.984  1.00  0.00     0.004 C 
BRANCH  14  15
ATOM     15  C   UNL     1      25.715 -31.149  23.099  1.00  0.00     0.000 C 
BRANCH  15  16
ATOM     16  C   UNL     1      25.805 -32.681  23.137  1.00  0.00     0.000 C 
BRANCH  16  17
ATOM     17  C   UNL     1      26.399 -33.265  21.837  1.00  0.00    -0.000 C 
BRANCH  17  18
ATOM     18  C   UNL     1      25.573 -32.934  20.579  1.00  0.00    -0.000 C 
BRANCH  18  19
ATOM     19  C   UNL     1      24.180 -33.584  20.540  1.00  0.00    -0.003 C 
ATOM     20  C   UNL     1      24.205 -35.062  20.931  1.00  0.00     0.004 C 
ENDBRANCH  18  19
ENDBRANCH  17  18
ENDBRANCH  16  17
ENDBRANCH  15  16
ENDBRANCH  14  15
ENDBRANCH  13  14
ENDBRANCH   2  13
TORSDOF 15
ENDMDL
MODEL 6
REMARK VINA RESULT:    -4.687      3.400      8.656
REMARK INTER + INTRA:         -10.412
REMARK INTER:                  -8.015
REMARK INTRA:                  -2.397
REMARK UNBOUND:                -1.616
REMARK SMILES CCCCCCCCC=CCCCCCCCC(=O)[O-]
REMARK SMILES IDX 10 1 9 2 11 3 12 4 13 5 14 6 15 7 16 8 17 9 18 10 19 11
REMARK SMILES IDX 20 12 8 13 7 14 6 15 5 16 4 17 3 18 2 19 1 20
REMARK H PARENT
REMARK Flexibility Score: inf
ROOT
ATOM      1  C   UNL     1      24.094 -35.915  22.707  1.00  0.00    -0.031 C 
ATOM      2  C   UNL     1      25.072 -35.911  23.632  1.00  0.00    -0.031 C 
ENDROOT
BRANCH   1   3
ATOM      3  C   UNL     1      24.324 -36.011  21.221  1.00  0.00     0.027 C 
BRANCH   3   4
ATOM      4  C   UNL     1      23.672 -34.826  20.494  1.00  0.00     0.004 C 
BRANCH   4   5
ATOM      5  C   UNL     1      24.043 -33.474  21.120  1.00  0.00     0.000 C 
BRANCH   5   6
ATOM      6  C   UNL     1      25.380 -32.925  20.594  1.00  0.00     0.000 C 
BRANCH   6   7
ATOM      7  C   UNL     1      26.343 -32.529  21.723  1.00  0.00     0.000 C 
BRANCH   7   8
ATOM      8  C   UNL     1      25.628 -32.329  23.068  1.00  0.00     0.006 C 
BRANCH   8   9
ATOM      9  C   UNL     1      25.463 -30.839  23.385  1.00  0.00     0.053 C 
BRANCH   9  10
ATOM     10  C   UNL     1      24.245 -30.610  24.223  1.00  0.00     0.041 C 
ATOM     11  O   UNL     1      23.327 -31.472  24.258  1.00  0.00    -0.550 OA
ATOM     12  O   UNL     1      24.143 -29.465  25.004  1.00  0.00    -0.550 OA
ENDBRANCH   9  10
ENDBRANCH   8   9
ENDBRANCH   7   8
ENDBRANCH   6   7
ENDBRANCH   5   6
ENDBRANCH   4   5
ENDBRANCH   3   4
ENDBRANCH   1   3
BRANCH   2  13
ATOM     13  C   UNL     1      26.549 -35.912  23.316  1.00  0.00     0.027 C 
BRANCH  13  14
ATOM     14  C   UNL     1      27.087 -37.334  23.099  1.00  0.00     0.004 C 
BRANCH  14  15
ATOM     15  C   UNL     1      26.499 -38.336  24.104  1.00  0.00     0.000 C 
BRANCH  15  16
ATOM     16  C   UNL     1      26.192 -39.678  23.425  1.00  0.00     0.000 C 
BRANCH  16  17
ATOM     17  C   UNL     1      24.782 -39.706  22.796  1.00  0.00    -0.000 C 
BRANCH  17  18
ATOM     18  C   UNL     1      24.787 -39.533  21.266  1.00  0.00    -0.000 C 
BRANCH  18  19
ATOM     19  C   UNL     1      26.140 -39.822  20.594  1.00  0.00    -0.003 C 
ATOM     20  C   UNL     1      26.238 -41.247  20.049  1.00  0.00     0.004 C 
ENDBRANCH  18  19
ENDBRANCH  17  18
ENDBRANCH  16  17
ENDBRANCH  15  16
ENDBRANCH  14  15
ENDBRANCH  13  14
ENDBRANCH   2  13
TORSDOF 15
ENDMDL
MODEL 7
REMARK VINA RESULT:    -4.652      2.122      2.832
REMARK INTER + INTRA:         -10.347
REMARK INTER:                  -8.862
REMARK INTRA:                  -1.485
REMARK UNBOUND:                -1.616
REMARK SMILES CCCCCCCCC=CCCCCCCCC(=O)[O-]
REMARK SMILES IDX 10 1 9 2 11 3 12 4 13 5 14 6 15 7 16 8 17 9 18 10 19 11
REMARK SMILES IDX 20 12 8 13 7 14 6 15 5 16 4 17 3 18 2 19 1 20
REMARK H PARENT
REMARK Flexibility Score: inf
ROOT
ATOM      1  C   UNL     1      24.815 -30.417  23.939  1.00  0.00    -0.031 C 
ATOM      2  C   UNL     1      24.103 -30.293  25.075  1.00  0.00    -0.031 C 
ENDROOT
BRANCH   1   3
ATOM      3  C   UNL     1      25.624 -31.632  23.566  1.00  0.00     0.027 C 
BRANCH   3   4
ATOM      4  C   UNL     1      25.755 -31.749  22.041  1.00  0.00     0.004 C 
BRANCH   4   5
ATOM      5  C   UNL     1      25.991 -33.194  21.578  1.00  0.00     0.000 C 
BRANCH   5   6
ATOM      6  C   UNL     1      25.048 -33.612  20.438  1.00  0.00     0.000 C 
BRANCH   6   7
ATOM      7  C   UNL     1      23.760 -34.277  20.948  1.00  0.00     0.000 C 
BRANCH   7   8
ATOM      8  C   UNL     1      23.568 -35.697  20.395  1.00  0.00     0.006 C 
BRANCH   8   9
ATOM      9  C   UNL     1      22.704 -36.541  21.338  1.00  0.00     0.053 C 
BRANCH   9  10
ATOM     10  C   UNL     1      21.619 -37.238  20.578  1.00  0.00     0.041 C 
ATOM     11  O   UNL     1      21.705 -38.471  20.337  1.00  0.00    -0.550 OA
ATOM     12  O   UNL     1      20.490 -36.535  20.175  1.00  0.00    -0.550 OA
ENDBRANCH   9  10
ENDBRANCH   8   9
ENDBRANCH   7   8
ENDBRANCH   6   7
ENDBRANCH   5   6
ENDBRANCH   4   5
ENDBRANCH   3   4
ENDBRANCH   1   3
BRANCH   2  13
ATOM     13  C   UNL     1      24.082 -31.314  26.188  1.00  0.00     0.027 C 
BRANCH  13  14
ATOM     14  C   UNL     1      22.653 -31.761  26.528  1.00  0.00     0.004 C 
BRANCH  14  15
ATOM     15  C   UNL     1      21.593 -30.879  25.849  1.00  0.00     0.000 C 
BRANCH  15  16
ATOM     16  C   UNL     1      20.883 -29.986  26.876  1.00  0.00     0.000 C 
BRANCH  16  17
ATOM     17  C   UNL     1      21.225 -28.492  26.687  1.00  0.00    -0.000 C 
BRANCH  17  18
ATOM     18  C   UNL     1      21.983 -27.878  27.878  1.00  0.00    -0.000 C 
BRANCH  18  19
ATOM     19  C   UNL     1      23.475 -27.611  27.618  1.00  0.00    -0.003 C 
ATOM     20  C   UNL     1      24.391 -28.477  28.483  1.00  0.00     0.004 C 
ENDBRANCH  18  19
ENDBRANCH  17  18
ENDBRANCH  16  17
ENDBRANCH  15  16
ENDBRANCH  14  15
ENDBRANCH  13  14
ENDBRANCH   2  13
TORSDOF 15
ENDMDL
MODEL 8
REMARK VINA RESULT:    -4.640      1.586      3.545
REMARK INTER + INTRA:         -10.324
REMARK INTER:                  -8.277
REMARK INTRA:                  -2.048
REMARK UNBOUND:                -1.616
REMARK SMILES CCCCCCCCC=CCCCCCCCC(=O)[O-]
REMARK SMILES IDX 10 1 9 2 11 3 12 4 13 5 14 6 15 7 16 8 17 9 18 10 19 11
REMARK SMILES IDX 20 12 8 13 7 14 6 15 5 16 4 17 3 18 2 19 1 20
REMARK H PARENT
REMARK Flexibility Score: inf
ROOT
ATOM      1  C   UNL     1      24.991 -33.269  20.437  1.00  0.00    -0.031 C 
ATOM      2  C   UNL     1      26.014 -32.773  21.159  1.00  0.00    -0.031 C 
ENDROOT
BRANCH   1   3
ATOM      3  C   UNL     1      23.664 -33.692  21.015  1.00  0.00     0.027 C 
BRANCH   3   4
ATOM      4  C   UNL     1      23.498 -35.215  20.930  1.00  0.00     0.004 C 
BRANCH   4   5
ATOM      5  C   UNL     1      24.342 -35.960  21.975  1.00  0.00     0.000 C 
BRANCH   5   6
ATOM      6  C   UNL     1      24.002 -35.546  23.416  1.00  0.00     0.000 C 
BRANCH   6   7
ATOM      7  C   UNL     1      24.962 -36.155  24.450  1.00  0.00     0.000 C 
BRANCH   7   8
ATOM      8  C   UNL     1      26.423 -36.151  23.975  1.00  0.00     0.006 C 
BRANCH   8   9
ATOM      9  C   UNL     1      27.125 -37.461  24.350  1.00  0.00     0.053 C 
BRANCH   9  10
ATOM     10  C   UNL     1      26.506 -38.616  23.628  1.00  0.00     0.041 C 
ATOM     11  O   UNL     1      25.874 -39.499  24.268  1.00  0.00    -0.550 OA
ATOM     12  O   UNL     1      26.586 -38.696  22.243  1.00  0.00    -0.550 OA
ENDBRANCH   9  10
ENDBRANCH   8   9
ENDBRANCH   7   8
ENDBRANCH   6   7
ENDBRANCH   5   6
ENDBRANCH   4   5
ENDBRANCH   3   4
ENDBRANCH   1   3
BRANCH   2  13
ATOM     13  C   UNL     1      26.019 -32.649  22.664  1.00  0.00     0.027 C 
BRANCH  13  14
ATOM     14  C   UNL     1      25.458 -31.297  23.129  1.00  0.00     0.004 C 
BRANCH  14  15
ATOM     15  C   UNL     1      24.875 -31.368  24.548  1.00  0.00     0.000 C 
BRANCH  15  16
ATOM     16  C   UNL     1      23.376 -31.695  24.510  1.00  0.00     0.000 C 
BRANCH  16  17
ATOM     17  C   UNL     1      22.649 -31.259  25.801  1.00  0.00    -0.000 C 
BRANCH  17  18
ATOM     18  C   UNL     1      23.597 -30.733  26.894  1.00  0.00    -0.000 C 
BRANCH  18  19
ATOM     19  C   UNL     1      23.342 -29.276  27.315  1.00  0.00    -0.003 C 
ATOM     20  C   UNL     1      23.473 -28.293  26.152  1.00  0.00     0.004 C 
ENDBRANCH  18  19
ENDBRANCH  17  18
ENDBRANCH  16  17
ENDBRANCH  15  16
ENDBRANCH  14  15
ENDBRANCH  13  14
ENDBRANCH   2  13
TORSDOF 15
ENDMDL
MODEL 9
REMARK VINA RESULT:    -4.637      3.234      8.147
REMARK INTER + INTRA:         -10.319
REMARK INTER:                  -7.935
REMARK INTRA:                  -2.384
REMARK UNBOUND:                -1.616
REMARK SMILES CCCCCCCCC=CCCCCCCCC(=O)[O-]
REMARK SMILES IDX 10 1 9 2 11 3 12 4 13 5 14 6 15 7 16 8 17 9 18 10 19 11
REMARK SMILES IDX 20 12 8 13 7 14 6 15 5 16 4 17 3 18 2 19 1 20
REMARK H PARENT
REMARK Flexibility Score: inf
ROOT
ATOM      1  C   UNL     1      24.074 -35.225  21.016  1.00  0.00    -0.031 C 
ATOM      2  C   UNL     1      24.242 -36.119  22.008  1.00  0.00    -0.031 C 
ENDROOT
BRANCH   1   3
ATOM      3  C   UNL     1      24.097 -33.729  21.202  1.00  0.00     0.027 C 
BRANCH   3   4
ATOM      4  C   UNL     1      25.359 -33.125  20.571  1.00  0.00     0.004 C 
BRANCH   4   5
ATOM      5  C   UNL     1      26.389 -32.681  21.620  1.00  0.00     0.000 C 
BRANCH   5   6
ATOM      6  C   UNL     1      25.751 -32.387  22.988  1.00  0.00     0.000 C 
BRANCH   6   7
ATOM      7  C   UNL     1      25.503 -30.887  23.215  1.00  0.00     0.000 C 
BRANCH   7   8
ATOM      8  C   UNL     1      24.430 -30.621  24.283  1.00  0.00     0.006 C 
BRANCH   8   9
ATOM      9  C   UNL     1      23.802 -31.931  24.768  1.00  0.00     0.053 C 
BRANCH   9  10
ATOM     10  C   UNL     1      22.697 -31.658  25.739  1.00  0.00     0.041 C 
ATOM     11  O   UNL     1      22.198 -30.504  25.825  1.00  0.00    -0.550 OA
ATOM     12  O   UNL     1      22.184 -32.689  26.518  1.00  0.00    -0.550 OA
ENDBRANCH   9  10
ENDBRANCH   8   9
ENDBRANCH   7   8
ENDBRANCH   6   7
ENDBRANCH   5   6
ENDBRANCH   4   5
ENDBRANCH   3   4
ENDBRANCH   1   3
BRANCH   2  13
ATOM     13  C   UNL     1      24.388 -35.761  23.468  1.00  0.00     0.027 C 
BRANCH  13  14
ATOM     14  C   UNL     1      25.857 -35.770  23.915  1.00  0.00     0.004 C 
BRANCH  14  15
ATOM     15  C   UNL     1      26.691 -36.806  23.147  1.00  0.00     0.000 C 
BRANCH  15  16
ATOM     16  C   UNL     1      26.915 -38.067  23.992  1.00  0.00     0.000 C 
BRANCH  16  17
ATOM     17  C   UNL     1      26.754 -39.362  23.166  1.00  0.00    -0.000 C 
BRANCH  17  18
ATOM     18  C   UNL     1      26.403 -39.109  21.687  1.00  0.00    -0.000 C 
BRANCH  18  19
ATOM     19  C   UNL     1      25.112 -39.796  21.210  1.00  0.00    -0.003 C 
ATOM     20  C   UNL     1      24.009 -39.782  22.267  1.00  0.00     0.004 C 
ENDBRANCH  18  19
ENDBRANCH  17  18
ENDBRANCH  16  17
ENDBRANCH  15  16
ENDBRANCH  14  15
ENDBRANCH  13  14
ENDBRANCH   2  13
TORSDOF 15
ENDMDL
