MODEL 1
REMARK VINA RESULT:    -6.495      0.000      0.000
REMARK INTER + INTRA:         -13.480
REMARK INTER:                 -10.671
REMARK INTRA:                  -2.809
REMARK UNBOUND:                -2.809
REMARK SMILES C[C@H]1O[C@H](OC[C@H]2O[C@H](Oc3c(-c4ccc(O)c(O)c4)oc4cc(O)cc(O)c4c3=O)[C@@H](O)[C@H](O)[C@H]2O)[C@H](O)[C@H](O)[C@H]1O
REMARK SMILES IDX 7 1 36 2 34 3 32 4 9 5 8 6 6 7 5 8 4 9 1 10 2 11 42 12 3 13
REMARK SMILES IDX 40 14 38 15 43 16 41 18 39 20 37 22 35 24 10 26 11 27 12 28
REMARK SMILES IDX 30 29 21 30 29 31 31 32 22 33 27 34 23 35 26 36 24 37 13 38
REMARK SMILES IDX 20 39 14 40 18 41 15 42 16 43 19 44 17 46 28 48 25 50 33 52
REMARK H PARENT 43 17 41 19 39 21 37 23 35 25 19 45 17 47 28 49 25 51 33 53
REMARK Flexibility Score: inf
ROOT
ATOM      1  C   UNL     1     -39.138   4.757  80.759  1.00  0.00     0.180 C 
ATOM      2  C   UNL     1     -40.515   4.143  80.422  1.00  0.00     0.177 C 
ATOM      3  C   UNL     1     -40.706   4.105  78.896  1.00  0.00     0.180 C 
ATOM      4  C   UNL     1     -39.479   3.474  78.203  1.00  0.00     0.214 C 
ATOM      5  C   UNL     1     -38.160   4.070  78.739  1.00  0.00     0.339 C 
ATOM      6  O   UNL     1     -38.098   4.005  80.156  1.00  0.00    -0.332 OA
ENDROOT
BRANCH   1   7
ATOM      7  C   UNL     1     -38.892   4.793  82.272  1.00  0.00     0.198 C 
BRANCH   7   8
ATOM      8  O   UNL     1     -38.052   5.882  82.594  1.00  0.00    -0.347 OA
BRANCH   8   9
ATOM      9  C   UNL     1     -37.291   5.626  83.768  1.00  0.00     0.281 C 
ATOM     10  C   UNL     1     -34.372   4.059  82.149  1.00  0.00     0.041 C 
ATOM     11  C   UNL     1     -35.361   5.170  82.503  1.00  0.00     0.150 C 
ATOM     12  C   UNL     1     -34.619   6.441  82.990  1.00  0.00     0.174 C 
ATOM     13  O   UNL     1     -36.261   4.687  83.490  1.00  0.00    -0.344 OA
ATOM     14  C   UNL     1     -35.630   7.526  83.405  1.00  0.00     0.179 C 
ATOM     15  C   UNL     1     -36.699   6.937  84.345  1.00  0.00     0.202 C 
BRANCH  12  16
ATOM     16  O   UNL     1     -33.723   6.164  84.041  1.00  0.00    -0.388 OA
ATOM     17  H   UNL     1     -33.258   7.005  84.283  1.00  0.00     0.211 HD
ENDBRANCH  12  16
BRANCH  14  18
ATOM     18  O   UNL     1     -36.230   8.061  82.250  1.00  0.00    -0.387 OA
ATOM     19  H   UNL     1     -36.553   8.970  82.484  1.00  0.00     0.211 HD
ENDBRANCH  14  18
BRANCH  15  20
ATOM     20  O   UNL     1     -37.712   7.885  84.567  1.00  0.00    -0.385 OA
ATOM     21  H   UNL     1     -37.263   8.766  84.667  1.00  0.00     0.211 HD
ENDBRANCH  15  20
ENDBRANCH   8   9
ENDBRANCH   7   8
ENDBRANCH   1   7
BRANCH   2  22
ATOM     22  O   UNL     1     -40.600   2.843  80.950  1.00  0.00    -0.387 OA
ATOM     23  H   UNL     1     -40.510   2.215  80.186  1.00  0.00     0.211 HD
ENDBRANCH   2  22
BRANCH   3  24
ATOM     24  O   UNL     1     -40.913   5.410  78.422  1.00  0.00    -0.387 OA
ATOM     25  H   UNL     1     -41.253   5.944  79.187  1.00  0.00     0.211 HD
ENDBRANCH   3  24
BRANCH   5  26
ATOM     26  O   UNL     1     -37.979   5.410  78.266  1.00  0.00    -0.454 OA
BRANCH  26  27
ATOM     27  C   UNL     1     -36.972   6.319  78.657  1.00  0.00     0.214 A 
ATOM     28  C   UNL     1     -37.323   7.676  78.807  1.00  0.00     0.180 A 
ATOM     29  C   UNL     1     -35.622   5.954  78.876  1.00  0.00     0.239 A 
ATOM     30  O   UNL     1     -36.396   8.583  79.094  1.00  0.00    -0.452 OA
ATOM     31  C   UNL     1     -34.672   6.947  79.202  1.00  0.00     0.111 A 
ATOM     32  O   UNL     1     -35.260   4.751  78.780  1.00  0.00    -0.285 OA
ATOM     33  C   UNL     1     -35.119   8.284  79.291  1.00  0.00     0.146 A 
ATOM     34  C   UNL     1     -33.303   6.663  79.436  1.00  0.00     0.134 A 
ATOM     35  C   UNL     1     -34.221   9.311  79.598  1.00  0.00     0.094 A 
ATOM     36  C   UNL     1     -32.419   7.708  79.747  1.00  0.00     0.093 A 
ATOM     37  C   UNL     1     -32.872   9.025  79.827  1.00  0.00     0.123 A 
BRANCH  28  38
ATOM     38  C   UNL     1     -38.713   8.147  78.637  1.00  0.00     0.025 A 
ATOM     39  C   UNL     1     -39.226   8.453  77.367  1.00  0.00     0.062 A 
ATOM     40  C   UNL     1     -39.560   8.220  79.750  1.00  0.00     0.016 A 
ATOM     41  C   UNL     1     -40.556   8.861  77.205  1.00  0.00     0.158 A 
ATOM     42  C   UNL     1     -40.888   8.626  79.601  1.00  0.00     0.051 A 
ATOM     43  C   UNL     1     -41.399   8.948  78.338  1.00  0.00     0.157 A 
BRANCH  41  44
ATOM     44  O   UNL     1     -40.993   9.167  75.915  1.00  0.00    -0.504 OA
ATOM     45  H   UNL     1     -40.501   8.904  75.075  1.00  0.00     0.293 HD
ENDBRANCH  41  44
BRANCH  43  46
ATOM     46  O   UNL     1     -42.736   9.339  78.255  1.00  0.00    -0.504 OA
ATOM     47  H   UNL     1     -43.042  10.235  77.904  1.00  0.00     0.293 HD
ENDBRANCH  43  46
ENDBRANCH  28  38
BRANCH  34  48
ATOM     48  O   UNL     1     -32.815   5.358  79.363  1.00  0.00    -0.507 OA
ATOM     49  H   UNL     1     -33.411   4.555  79.524  1.00  0.00     0.293 HD
ENDBRANCH  34  48
BRANCH  37  50
ATOM     50  O   UNL     1     -31.974  10.042  80.139  1.00  0.00    -0.508 OA
ATOM     51  H   UNL     1     -31.232   9.906  80.815  1.00  0.00     0.293 HD
ENDBRANCH  37  50
ENDBRANCH  26  27
ENDBRANCH   5  26
BRANCH   4  52
ATOM     52  O   UNL     1     -39.470   2.085  78.418  1.00  0.00    -0.384 OA
ATOM     53  H   UNL     1     -39.813   1.663  77.588  1.00  0.00     0.211 HD
ENDBRANCH   4  52
TORSDOF 16
ENDMDL
MODEL 2
REMARK VINA RESULT:    -6.489      2.358      6.485
REMARK INTER + INTRA:         -13.472
REMARK INTER:                 -10.318
REMARK INTRA:                  -3.154
REMARK UNBOUND:                -2.809
REMARK SMILES C[C@H]1O[C@H](OC[C@H]2O[C@H](Oc3c(-c4ccc(O)c(O)c4)oc4cc(O)cc(O)c4c3=O)[C@@H](O)[C@H](O)[C@H]2O)[C@H](O)[C@H](O)[C@H]1O
REMARK SMILES IDX 7 1 36 2 34 3 32 4 9 5 8 6 6 7 5 8 4 9 1 10 2 11 42 12 3 13
REMARK SMILES IDX 40 14 38 15 43 16 41 18 39 20 37 22 35 24 10 26 11 27 12 28
REMARK SMILES IDX 30 29 21 30 29 31 31 32 22 33 27 34 23 35 26 36 24 37 13 38
REMARK SMILES IDX 20 39 14 40 18 41 15 42 16 43 19 44 17 46 28 48 25 50 33 52
REMARK H PARENT 43 17 41 19 39 21 37 23 35 25 19 45 17 47 28 49 25 51 33 53
REMARK Flexibility Score: inf
ROOT
ATOM      1  C   UNL     1     -36.253   7.140  83.541  1.00  0.00     0.180 C 
ATOM      2  C   UNL     1     -36.307   6.153  84.728  1.00  0.00     0.177 C 
ATOM      3  C   UNL     1     -37.081   4.888  84.316  1.00  0.00     0.180 C 
ATOM      4  C   UNL     1     -36.552   4.332  82.976  1.00  0.00     0.214 C 
ATOM      5  C   UNL     1     -36.403   5.449  81.921  1.00  0.00     0.339 C 
ATOM      6  O   UNL     1     -35.634   6.534  82.418  1.00  0.00    -0.332 OA
ENDROOT
BRANCH   1   7
ATOM      7  C   UNL     1     -35.469   8.408  83.898  1.00  0.00     0.198 C 
BRANCH   7   8
ATOM      8  O   UNL     1     -34.135   8.288  83.447  1.00  0.00    -0.347 OA
BRANCH   8   9
ATOM      9  C   UNL     1     -33.661   9.507  82.888  1.00  0.00     0.281 C 
ATOM     10  C   UNL     1     -30.062   8.972  83.483  1.00  0.00     0.041 C 
ATOM     11  C   UNL     1     -31.444   8.722  82.879  1.00  0.00     0.150 C 
ATOM     12  C   UNL     1     -31.370   8.648  81.332  1.00  0.00     0.174 C 
ATOM     13  O   UNL     1     -32.324   9.751  83.305  1.00  0.00    -0.344 OA
ATOM     14  C   UNL     1     -32.777   8.463  80.737  1.00  0.00     0.179 C 
ATOM     15  C   UNL     1     -33.759   9.484  81.342  1.00  0.00     0.202 C 
BRANCH  12  16
ATOM     16  O   UNL     1     -30.735   9.776  80.776  1.00  0.00    -0.388 OA
ATOM     17  H   UNL     1     -30.658  10.469  81.480  1.00  0.00     0.211 HD
ENDBRANCH  12  16
BRANCH  14  18
ATOM     18  O   UNL     1     -33.214   7.150  80.990  1.00  0.00    -0.387 OA
ATOM     19  H   UNL     1     -33.605   6.805  80.145  1.00  0.00     0.211 HD
ENDBRANCH  14  18
BRANCH  15  20
ATOM     20  O   UNL     1     -35.069   9.187  80.929  1.00  0.00    -0.385 OA
ATOM     21  H   UNL     1     -35.033   8.306  80.473  1.00  0.00     0.211 HD
ENDBRANCH  15  20
ENDBRANCH   8   9
ENDBRANCH   7   8
ENDBRANCH   1   7
BRANCH   2  22
ATOM     22  O   UNL     1     -35.002   5.810  85.124  1.00  0.00    -0.387 OA
ATOM     23  H   UNL     1     -34.662   6.563  85.675  1.00  0.00     0.211 HD
ENDBRANCH   2  22
BRANCH   3  24
ATOM     24  O   UNL     1     -38.447   5.196  84.208  1.00  0.00    -0.387 OA
ATOM     25  H   UNL     1     -38.683   5.129  83.245  1.00  0.00     0.211 HD
ENDBRANCH   3  24
BRANCH   5  26
ATOM     26  O   UNL     1     -37.686   5.882  81.455  1.00  0.00    -0.454 OA
BRANCH  26  27
ATOM     27  C   UNL     1     -38.535   5.204  80.553  1.00  0.00     0.214 A 
ATOM     28  C   UNL     1     -38.224   5.256  79.179  1.00  0.00     0.180 A 
ATOM     29  C   UNL     1     -39.700   4.501  80.943  1.00  0.00     0.239 A 
ATOM     30  O   UNL     1     -39.034   4.703  78.284  1.00  0.00    -0.452 OA
ATOM     31  C   UNL     1     -40.523   3.908  79.961  1.00  0.00     0.111 A 
ATOM     32  O   UNL     1     -40.011   4.402  82.160  1.00  0.00    -0.285 OA
ATOM     33  C   UNL     1     -40.142   4.050  78.608  1.00  0.00     0.146 A 
ATOM     34  C   UNL     1     -41.704   3.188  80.270  1.00  0.00     0.134 A 
ATOM     35  C   UNL     1     -40.925   3.495  77.590  1.00  0.00     0.094 A 
ATOM     36  C   UNL     1     -42.474   2.635  79.234  1.00  0.00     0.093 A 
ATOM     37  C   UNL     1     -42.089   2.788  77.902  1.00  0.00     0.123 A 
BRANCH  28  38
ATOM     38  C   UNL     1     -37.009   5.933  78.679  1.00  0.00     0.025 A 
ATOM     39  C   UNL     1     -36.978   7.323  78.489  1.00  0.00     0.062 A 
ATOM     40  C   UNL     1     -35.843   5.189  78.459  1.00  0.00     0.016 A 
ATOM     41  C   UNL     1     -35.813   7.966  78.052  1.00  0.00     0.158 A 
ATOM     42  C   UNL     1     -34.676   5.819  78.023  1.00  0.00     0.051 A 
ATOM     43  C   UNL     1     -34.645   7.203  77.816  1.00  0.00     0.157 A 
BRANCH  41  44
ATOM     44  O   UNL     1     -35.860   9.349  77.868  1.00  0.00    -0.504 OA
ATOM     45  H   UNL     1     -36.292   9.799  77.075  1.00  0.00     0.293 HD
ENDBRANCH  41  44
BRANCH  43  46
ATOM     46  O   UNL     1     -33.446   7.774  77.388  1.00  0.00    -0.504 OA
ATOM     47  H   UNL     1     -32.549   7.311  77.439  1.00  0.00     0.293 HD
ENDBRANCH  43  46
ENDBRANCH  28  38
BRANCH  34  48
ATOM     48  O   UNL     1     -42.119   3.018  81.591  1.00  0.00    -0.507 OA
ATOM     49  H   UNL     1     -42.881   3.556  81.985  1.00  0.00     0.293 HD
ENDBRANCH  34  48
BRANCH  37  50
ATOM     50  O   UNL     1     -42.870   2.228  76.894  1.00  0.00    -0.508 OA
ATOM     51  H   UNL     1     -43.400   2.805  76.250  1.00  0.00     0.293 HD
ENDBRANCH  37  50
ENDBRANCH  26  27
ENDBRANCH   5  26
BRANCH   4  52
ATOM     52  O   UNL     1     -35.302   3.722  83.172  1.00  0.00    -0.384 OA
ATOM     53  H   UNL     1     -34.636   4.265  82.676  1.00  0.00     0.211 HD
ENDBRANCH   4  52
TORSDOF 16
ENDMDL
MODEL 3
REMARK VINA RESULT:    -6.440      1.805      7.275
REMARK INTER + INTRA:         -13.391
REMARK INTER:                 -11.816
REMARK INTRA:                  -1.575
REMARK UNBOUND:                -2.809
REMARK SMILES C[C@H]1O[C@H](OC[C@H]2O[C@H](Oc3c(-c4ccc(O)c(O)c4)oc4cc(O)cc(O)c4c3=O)[C@@H](O)[C@H](O)[C@H]2O)[C@H](O)[C@H](O)[C@H]1O
REMARK SMILES IDX 7 1 36 2 34 3 32 4 9 5 8 6 6 7 5 8 4 9 1 10 2 11 42 12 3 13
REMARK SMILES IDX 40 14 38 15 43 16 41 18 39 20 37 22 35 24 10 26 11 27 12 28
REMARK SMILES IDX 30 29 21 30 29 31 31 32 22 33 27 34 23 35 26 36 24 37 13 38
REMARK SMILES IDX 20 39 14 40 18 41 15 42 16 43 19 44 17 46 28 48 25 50 33 52
REMARK H PARENT 43 17 41 19 39 21 37 23 35 25 19 45 17 47 28 49 25 51 33 53
REMARK Flexibility Score: inf
ROOT
ATOM      1  C   UNL     1     -38.670   7.936  82.251  1.00  0.00     0.180 C 
ATOM      2  C   UNL     1     -38.227   8.489  83.624  1.00  0.00     0.177 C 
ATOM      3  C   UNL     1     -37.380   7.435  84.359  1.00  0.00     0.180 C 
ATOM      4  C   UNL     1     -36.265   6.887  83.441  1.00  0.00     0.214 C 
ATOM      5  C   UNL     1     -36.816   6.511  82.049  1.00  0.00     0.339 C 
ATOM      6  O   UNL     1     -37.541   7.586  81.468  1.00  0.00    -0.332 OA
ENDROOT
BRANCH   1   7
ATOM      7  C   UNL     1     -39.498   8.963  81.470  1.00  0.00     0.198 C 
BRANCH   7   8
ATOM      8  O   UNL     1     -39.824   8.446  80.196  1.00  0.00    -0.347 OA
BRANCH   8   9
ATOM      9  C   UNL     1     -40.131   9.484  79.274  1.00  0.00     0.281 C 
ATOM     10  C   UNL     1     -36.750   9.939  77.876  1.00  0.00     0.041 C 
ATOM     11  C   UNL     1     -38.065   9.221  78.182  1.00  0.00     0.150 C 
ATOM     12  C   UNL     1     -38.707   8.661  76.886  1.00  0.00     0.174 C 
ATOM     13  O   UNL     1     -38.939  10.125  78.842  1.00  0.00    -0.344 OA
ATOM     14  C   UNL     1     -40.062   8.000  77.202  1.00  0.00     0.179 C 
ATOM     15  C   UNL     1     -40.930   8.935  78.065  1.00  0.00     0.202 C 
BRANCH  12  16
ATOM     16  O   UNL     1     -38.852   9.650  75.894  1.00  0.00    -0.388 OA
ATOM     17  H   UNL     1     -38.391  10.471  76.203  1.00  0.00     0.211 HD
ENDBRANCH  12  16
BRANCH  14  18
ATOM     18  O   UNL     1     -39.835   6.783  77.869  1.00  0.00    -0.387 OA
ATOM     19  H   UNL     1     -38.950   6.855  78.315  1.00  0.00     0.211 HD
ENDBRANCH  14  18
BRANCH  15  20
ATOM     20  O   UNL     1     -42.080   8.253  78.496  1.00  0.00    -0.385 OA
ATOM     21  H   UNL     1     -42.658   8.131  77.697  1.00  0.00     0.211 HD
ENDBRANCH  15  20
ENDBRANCH   8   9
ENDBRANCH   7   8
ENDBRANCH   1   7
BRANCH   2  22
ATOM     22  O   UNL     1     -37.480   9.667  83.446  1.00  0.00    -0.387 OA
ATOM     23  H   UNL     1     -37.989  10.238  82.812  1.00  0.00     0.211 HD
ENDBRANCH   2  22
BRANCH   3  24
ATOM     24  O   UNL     1     -38.213   6.390  84.788  1.00  0.00    -0.387 OA
ATOM     25  H   UNL     1     -37.854   6.075  85.660  1.00  0.00     0.211 HD
ENDBRANCH   3  24
BRANCH   5  26
ATOM     26  O   UNL     1     -37.608   5.320  82.120  1.00  0.00    -0.454 OA
BRANCH  26  27
ATOM     27  C   UNL     1     -38.382   4.753  81.084  1.00  0.00     0.214 A 
ATOM     28  C   UNL     1     -37.800   4.638  79.805  1.00  0.00     0.180 A 
ATOM     29  C   UNL     1     -39.721   4.322  81.245  1.00  0.00     0.239 A 
ATOM     30  O   UNL     1     -38.513   4.186  78.780  1.00  0.00    -0.452 OA
ATOM     31  C   UNL     1     -40.436   3.827  80.132  1.00  0.00     0.111 A 
ATOM     32  O   UNL     1     -40.281   4.379  82.372  1.00  0.00    -0.285 OA
ATOM     33  C   UNL     1     -39.773   3.788  78.885  1.00  0.00     0.146 A 
ATOM     34  C   UNL     1     -41.778   3.377  80.211  1.00  0.00     0.134 A 
ATOM     35  C   UNL     1     -40.435   3.320  77.746  1.00  0.00     0.094 A 
ATOM     36  C   UNL     1     -42.424   2.907  79.057  1.00  0.00     0.093 A 
ATOM     37  C   UNL     1     -41.759   2.879  77.831  1.00  0.00     0.123 A 
BRANCH  28  38
ATOM     38  C   UNL     1     -36.397   5.024  79.548  1.00  0.00     0.025 A 
ATOM     39  C   UNL     1     -36.079   6.018  78.610  1.00  0.00     0.062 A 
ATOM     40  C   UNL     1     -35.369   4.445  80.303  1.00  0.00     0.016 A 
ATOM     41  C   UNL     1     -34.750   6.410  78.396  1.00  0.00     0.158 A 
ATOM     42  C   UNL     1     -34.042   4.828  80.099  1.00  0.00     0.051 A 
ATOM     43  C   UNL     1     -33.718   5.806  79.152  1.00  0.00     0.157 A 
BRANCH  41  44
ATOM     44  O   UNL     1     -34.505   7.392  77.434  1.00  0.00    -0.504 OA
ATOM     45  H   UNL     1     -33.952   8.219  77.600  1.00  0.00     0.293 HD
ENDBRANCH  41  44
BRANCH  43  46
ATOM     46  O   UNL     1     -32.374   6.150  79.001  1.00  0.00    -0.504 OA
ATOM     47  H   UNL     1     -31.621   5.734  79.531  1.00  0.00     0.293 HD
ENDBRANCH  43  46
ENDBRANCH  28  38
BRANCH  34  48
ATOM     48  O   UNL     1     -42.473   3.392  81.421  1.00  0.00    -0.507 OA
ATOM     49  H   UNL     1     -43.310   2.839  81.563  1.00  0.00     0.293 HD
ENDBRANCH  34  48
BRANCH  37  50
ATOM     50  O   UNL     1     -42.422   2.406  76.701  1.00  0.00    -0.508 OA
ATOM     51  H   UNL     1     -41.958   2.340  75.802  1.00  0.00     0.293 HD
ENDBRANCH  37  50
ENDBRANCH  26  27
ENDBRANCH   5  26
BRANCH   4  52
ATOM     52  O   UNL     1     -35.257   7.852  83.285  1.00  0.00    -0.384 OA
ATOM     53  H   UNL     1     -34.553   7.644  83.954  1.00  0.00     0.211 HD
ENDBRANCH   4  52
TORSDOF 16
ENDMDL
MODEL 4
REMARK VINA RESULT:    -6.118     10.554     14.728
REMARK INTER + INTRA:         -12.862
REMARK INTER:                 -10.605
REMARK INTRA:                  -2.257
REMARK UNBOUND:                -2.809
REMARK SMILES C[C@H]1O[C@H](OC[C@H]2O[C@H](Oc3c(-c4ccc(O)c(O)c4)oc4cc(O)cc(O)c4c3=O)[C@@H](O)[C@H](O)[C@H]2O)[C@H](O)[C@H](O)[C@H]1O
REMARK SMILES IDX 7 1 36 2 34 3 32 4 9 5 8 6 6 7 5 8 4 9 1 10 2 11 42 12 3 13
REMARK SMILES IDX 40 14 38 15 43 16 41 18 39 20 37 22 35 24 10 26 11 27 12 28
REMARK SMILES IDX 30 29 21 30 29 31 31 32 22 33 27 34 23 35 26 36 24 37 13 38
REMARK SMILES IDX 20 39 14 40 18 41 15 42 16 43 19 44 17 46 28 48 25 50 33 52
REMARK H PARENT 43 17 41 19 39 21 37 23 35 25 19 45 17 47 28 49 25 51 33 53
REMARK Flexibility Score: inf
ROOT
ATOM      1  C   UNL     1     -42.133  -7.811  82.782  1.00  0.00     0.180 C 
ATOM      2  C   UNL     1     -41.969  -9.291  82.373  1.00  0.00     0.177 C 
ATOM      3  C   UNL     1     -40.474  -9.634  82.254  1.00  0.00     0.180 C 
ATOM      4  C   UNL     1     -39.702  -9.174  83.510  1.00  0.00     0.214 C 
ATOM      5  C   UNL     1     -40.070  -7.727  83.898  1.00  0.00     0.339 C 
ATOM      6  O   UNL     1     -41.476  -7.561  84.014  1.00  0.00    -0.332 OA
ENDROOT
BRANCH   1   7
ATOM      7  C   UNL     1     -43.610  -7.429  82.937  1.00  0.00     0.198 C 
BRANCH   7   8
ATOM      8  O   UNL     1     -43.975  -6.512  81.927  1.00  0.00    -0.347 OA
BRANCH   8   9
ATOM      9  C   UNL     1     -43.911  -7.105  80.635  1.00  0.00     0.281 C 
ATOM     10  C   UNL     1     -47.532  -7.226  79.952  1.00  0.00     0.041 C 
ATOM     11  C   UNL     1     -46.166  -6.590  80.210  1.00  0.00     0.150 C 
ATOM     12  C   UNL     1     -45.826  -5.543  79.118  1.00  0.00     0.174 C 
ATOM     13  O   UNL     1     -45.185  -7.615  80.266  1.00  0.00    -0.344 OA
ATOM     14  C   UNL     1     -44.420  -4.960  79.355  1.00  0.00     0.179 C 
ATOM     15  C   UNL     1     -43.398  -6.090  79.583  1.00  0.00     0.202 C 
BRANCH  12  16
ATOM     16  O   UNL     1     -45.935  -6.075  77.819  1.00  0.00    -0.388 OA
ATOM     17  H   UNL     1     -46.269  -5.361  77.218  1.00  0.00     0.211 HD
ENDBRANCH  12  16
BRANCH  14  18
ATOM     18  O   UNL     1     -44.460  -4.100  80.467  1.00  0.00    -0.387 OA
ATOM     19  H   UNL     1     -45.287  -4.316  80.973  1.00  0.00     0.211 HD
ENDBRANCH  14  18
BRANCH  15  20
ATOM     20  O   UNL     1     -42.165  -5.544  79.976  1.00  0.00    -0.385 OA
ATOM     21  H   UNL     1     -41.877  -4.933  79.248  1.00  0.00     0.211 HD
ENDBRANCH  15  20
ENDBRANCH   8   9
ENDBRANCH   7   8
ENDBRANCH   1   7
BRANCH   2  22
ATOM     22  O   UNL     1     -42.577 -10.122  83.330  1.00  0.00    -0.387 OA
ATOM     23  H   UNL     1     -43.326  -9.604  83.726  1.00  0.00     0.211 HD
ENDBRANCH   2  22
BRANCH   3  24
ATOM     24  O   UNL     1     -39.947  -9.017  81.108  1.00  0.00    -0.387 OA
ATOM     25  H   UNL     1     -40.560  -9.232  80.356  1.00  0.00     0.211 HD
ENDBRANCH   3  24
BRANCH   5  26
ATOM     26  O   UNL     1     -39.504  -6.791  82.973  1.00  0.00    -0.454 OA
BRANCH  26  27
ATOM     27  C   UNL     1     -39.237  -5.424  83.205  1.00  0.00     0.214 A 
ATOM     28  C   UNL     1     -37.939  -5.060  83.614  1.00  0.00     0.180 A 
ATOM     29  C   UNL     1     -40.207  -4.400  83.081  1.00  0.00     0.239 A 
ATOM     30  O   UNL     1     -37.660  -3.798  83.922  1.00  0.00    -0.452 OA
ATOM     31  C   UNL     1     -39.862  -3.067  83.398  1.00  0.00     0.111 A 
ATOM     32  O   UNL     1     -41.376  -4.668  82.695  1.00  0.00    -0.285 OA
ATOM     33  C   UNL     1     -38.543  -2.813  83.835  1.00  0.00     0.146 A 
ATOM     34  C   UNL     1     -40.774  -1.987  83.301  1.00  0.00     0.134 A 
ATOM     35  C   UNL     1     -38.148  -1.515  84.174  1.00  0.00     0.094 A 
ATOM     36  C   UNL     1     -40.357  -0.691  83.642  1.00  0.00     0.093 A 
ATOM     37  C   UNL     1     -39.053  -0.454  84.078  1.00  0.00     0.123 A 
BRANCH  28  38
ATOM     38  C   UNL     1     -36.850  -6.052  83.733  1.00  0.00     0.025 A 
ATOM     39  C   UNL     1     -36.085  -6.425  82.618  1.00  0.00     0.062 A 
ATOM     40  C   UNL     1     -36.524  -6.575  84.991  1.00  0.00     0.016 A 
ATOM     41  C   UNL     1     -35.028  -7.337  82.741  1.00  0.00     0.158 A 
ATOM     42  C   UNL     1     -35.473  -7.484  85.125  1.00  0.00     0.051 A 
ATOM     43  C   UNL     1     -34.717  -7.873  84.013  1.00  0.00     0.157 A 
BRANCH  41  44
ATOM     44  O   UNL     1     -34.320  -7.677  81.586  1.00  0.00    -0.504 OA
ATOM     45  H   UNL     1     -33.462  -8.208  81.586  1.00  0.00     0.293 HD
ENDBRANCH  41  44
BRANCH  43  46
ATOM     46  O   UNL     1     -33.675  -8.778  84.215  1.00  0.00    -0.504 OA
ATOM     47  H   UNL     1     -32.797  -8.541  84.654  1.00  0.00     0.293 HD
ENDBRANCH  43  46
ENDBRANCH  28  38
BRANCH  34  48
ATOM     48  O   UNL     1     -42.086  -2.187  82.870  1.00  0.00    -0.507 OA
ATOM     49  H   UNL     1     -42.860  -1.652  83.246  1.00  0.00     0.293 HD
ENDBRANCH  34  48
BRANCH  37  50
ATOM     50  O   UNL     1     -38.665   0.842  84.408  1.00  0.00    -0.508 OA
ATOM     51  H   UNL     1     -37.743   1.194  84.176  1.00  0.00     0.293 HD
ENDBRANCH  37  50
ENDBRANCH  26  27
ENDBRANCH   5  26
BRANCH   4  52
ATOM     52  O   UNL     1     -39.996 -10.023  84.589  1.00  0.00    -0.384 OA
ATOM     53  H   UNL     1     -40.833  -9.686  85.001  1.00  0.00     0.211 HD
ENDBRANCH   4  52
TORSDOF 16
ENDMDL
MODEL 5
REMARK VINA RESULT:    -6.022      0.990      2.071
REMARK INTER + INTRA:         -12.704
REMARK INTER:                 -11.024
REMARK INTRA:                  -1.680
REMARK UNBOUND:                -2.809
REMARK SMILES C[C@H]1O[C@H](OC[C@H]2O[C@H](Oc3c(-c4ccc(O)c(O)c4)oc4cc(O)cc(O)c4c3=O)[C@@H](O)[C@H](O)[C@H]2O)[C@H](O)[C@H](O)[C@H]1O
REMARK SMILES IDX 7 1 36 2 34 3 32 4 9 5 8 6 6 7 5 8 4 9 1 10 2 11 42 12 3 13
REMARK SMILES IDX 40 14 38 15 43 16 41 18 39 20 37 22 35 24 10 26 11 27 12 28
REMARK SMILES IDX 30 29 21 30 29 31 31 32 22 33 27 34 23 35 26 36 24 37 13 38
REMARK SMILES IDX 20 39 14 40 18 41 15 42 16 43 19 44 17 46 28 48 25 50 33 52
REMARK H PARENT 43 17 41 19 39 21 37 23 35 25 19 45 17 47 28 49 25 51 33 53
REMARK Flexibility Score: inf
ROOT
ATOM      1  C   UNL     1     -39.082   4.781  80.561  1.00  0.00     0.180 C 
ATOM      2  C   UNL     1     -40.535   4.305  80.338  1.00  0.00     0.177 C 
ATOM      3  C   UNL     1     -40.855   4.301  78.833  1.00  0.00     0.180 C 
ATOM      4  C   UNL     1     -39.756   3.564  78.038  1.00  0.00     0.214 C 
ATOM      5  C   UNL     1     -38.346   4.026  78.464  1.00  0.00     0.339 C 
ATOM      6  O   UNL     1     -38.173   3.940  79.871  1.00  0.00    -0.332 OA
ENDROOT
BRANCH   1   7
ATOM      7  C   UNL     1     -38.709   4.777  82.048  1.00  0.00     0.198 C 
BRANCH   7   8
ATOM      8  O   UNL     1     -37.380   4.326  82.206  1.00  0.00    -0.347 OA
BRANCH   8   9
ATOM      9  C   UNL     1     -36.456   5.407  82.183  1.00  0.00     0.281 C 
ATOM     10  C   UNL     1     -37.732   7.227  85.125  1.00  0.00     0.041 C 
ATOM     11  C   UNL     1     -37.084   6.081  84.347  1.00  0.00     0.150 C 
ATOM     12  C   UNL     1     -35.724   5.682  84.975  1.00  0.00     0.174 C 
ATOM     13  O   UNL     1     -36.930   6.475  82.992  1.00  0.00    -0.344 OA
ATOM     14  C   UNL     1     -35.054   4.573  84.143  1.00  0.00     0.179 C 
ATOM     15  C   UNL     1     -35.051   4.947  82.649  1.00  0.00     0.202 C 
BRANCH  12  16
ATOM     16  O   UNL     1     -34.862   6.786  85.125  1.00  0.00    -0.388 OA
ATOM     17  H   UNL     1     -34.124   6.524  85.732  1.00  0.00     0.211 HD
ENDBRANCH  12  16
BRANCH  14  18
ATOM     18  O   UNL     1     -35.745   3.365  84.347  1.00  0.00    -0.387 OA
ATOM     19  H   UNL     1     -36.202   3.143  83.494  1.00  0.00     0.211 HD
ENDBRANCH  14  18
BRANCH  15  20
ATOM     20  O   UNL     1     -34.606   3.855  81.886  1.00  0.00    -0.385 OA
ATOM     21  H   UNL     1     -35.335   3.633  81.249  1.00  0.00     0.211 HD
ENDBRANCH  15  20
ENDBRANCH   8   9
ENDBRANCH   7   8
ENDBRANCH   1   7
BRANCH   2  22
ATOM     22  O   UNL     1     -40.701   3.013  80.867  1.00  0.00    -0.387 OA
ATOM     23  H   UNL     1     -39.831   2.546  80.763  1.00  0.00     0.211 HD
ENDBRANCH   2  22
BRANCH   3  24
ATOM     24  O   UNL     1     -40.974   5.626  78.382  1.00  0.00    -0.387 OA
ATOM     25  H   UNL     1     -41.625   6.077  78.981  1.00  0.00     0.211 HD
ENDBRANCH   3  24
BRANCH   5  26
ATOM     26  O   UNL     1     -38.077   5.348  77.980  1.00  0.00    -0.454 OA
BRANCH  26  27
ATOM     27  C   UNL     1     -37.032   6.205  78.390  1.00  0.00     0.214 A 
ATOM     28  C   UNL     1     -37.246   7.596  78.316  1.00  0.00     0.180 A 
ATOM     29  C   UNL     1     -35.769   5.749  78.840  1.00  0.00     0.239 A 
ATOM     30  O   UNL     1     -36.267   8.443  78.613  1.00  0.00    -0.452 OA
ATOM     31  C   UNL     1     -34.764   6.685  79.167  1.00  0.00     0.111 A 
ATOM     32  O   UNL     1     -35.535   4.516  78.949  1.00  0.00    -0.285 OA
ATOM     33  C   UNL     1     -35.067   8.057  79.023  1.00  0.00     0.146 A 
ATOM     34  C   UNL     1     -33.475   6.310  79.624  1.00  0.00     0.134 A 
ATOM     35  C   UNL     1     -34.106   9.029  79.319  1.00  0.00     0.094 A 
ATOM     36  C   UNL     1     -32.526   7.301  79.920  1.00  0.00     0.093 A 
ATOM     37  C   UNL     1     -32.836   8.653  79.768  1.00  0.00     0.123 A 
BRANCH  28  38
ATOM     38  C   UNL     1     -38.543   8.166  77.896  1.00  0.00     0.025 A 
ATOM     39  C   UNL     1     -39.360   8.855  78.805  1.00  0.00     0.062 A 
ATOM     40  C   UNL     1     -38.934   8.084  76.554  1.00  0.00     0.016 A 
ATOM     41  C   UNL     1     -40.571   9.429  78.395  1.00  0.00     0.158 A 
ATOM     42  C   UNL     1     -40.138   8.652  76.134  1.00  0.00     0.051 A 
ATOM     43  C   UNL     1     -40.965   9.326  77.041  1.00  0.00     0.157 A 
BRANCH  41  44
ATOM     44  O   UNL     1     -41.343  10.084  79.357  1.00  0.00    -0.504 OA
ATOM     45  H   UNL     1     -41.435   9.776  80.313  1.00  0.00     0.293 HD
ENDBRANCH  41  44
BRANCH  43  46
ATOM     46  O   UNL     1     -42.152   9.878  76.556  1.00  0.00    -0.504 OA
ATOM     47  H   UNL     1     -42.213  10.776  76.099  1.00  0.00     0.293 HD
ENDBRANCH  43  46
ENDBRANCH  28  38
BRANCH  34  48
ATOM     48  O   UNL     1     -33.130   4.968  79.786  1.00  0.00    -0.507 OA
ATOM     49  H   UNL     1     -32.611   4.643  80.593  1.00  0.00     0.293 HD
ENDBRANCH  34  48
BRANCH  37  50
ATOM     50  O   UNL     1     -31.877   9.615  80.071  1.00  0.00    -0.508 OA
ATOM     51  H   UNL     1     -31.252   9.511  80.863  1.00  0.00     0.293 HD
ENDBRANCH  37  50
ENDBRANCH  26  27
ENDBRANCH   5  26
BRANCH   4  52
ATOM     52  O   UNL     1     -39.862   2.179  78.248  1.00  0.00    -0.384 OA
ATOM     53  H   UNL     1     -38.961   1.794  78.092  1.00  0.00     0.211 HD
ENDBRANCH   4  52
TORSDOF 16
ENDMDL
MODEL 6
REMARK VINA RESULT:    -5.945     11.188     15.210
REMARK INTER + INTRA:         -12.577
REMARK INTER:                 -10.180
REMARK INTRA:                  -2.397
REMARK UNBOUND:                -2.809
REMARK SMILES C[C@H]1O[C@H](OC[C@H]2O[C@H](Oc3c(-c4ccc(O)c(O)c4)oc4cc(O)cc(O)c4c3=O)[C@@H](O)[C@H](O)[C@H]2O)[C@H](O)[C@H](O)[C@H]1O
REMARK SMILES IDX 7 1 36 2 34 3 32 4 9 5 8 6 6 7 5 8 4 9 1 10 2 11 42 12 3 13
REMARK SMILES IDX 40 14 38 15 43 16 41 18 39 20 37 22 35 24 10 26 11 27 12 28
REMARK SMILES IDX 30 29 21 30 29 31 31 32 22 33 27 34 23 35 26 36 24 37 13 38
REMARK SMILES IDX 20 39 14 40 18 41 15 42 16 43 19 44 17 46 28 48 25 50 33 52
REMARK H PARENT 43 17 41 19 39 21 37 23 35 25 19 45 17 47 28 49 25 51 33 53
REMARK Flexibility Score: inf
ROOT
ATOM      1  C   UNL     1     -40.965  -8.040  82.552  1.00  0.00     0.180 C 
ATOM      2  C   UNL     1     -40.422  -8.364  83.961  1.00  0.00     0.177 C 
ATOM      3  C   UNL     1     -41.479  -8.006  85.020  1.00  0.00     0.180 C 
ATOM      4  C   UNL     1     -42.853  -8.609  84.653  1.00  0.00     0.214 C 
ATOM      5  C   UNL     1     -43.208  -8.341  83.175  1.00  0.00     0.339 C 
ATOM      6  O   UNL     1     -42.165  -8.756  82.306  1.00  0.00    -0.332 OA
ENDROOT
BRANCH   1   7
ATOM      7  C   UNL     1     -39.953  -8.405  81.460  1.00  0.00     0.198 C 
BRANCH   7   8
ATOM      8  O   UNL     1     -38.702  -8.698  82.046  1.00  0.00    -0.347 OA
BRANCH   8   9
ATOM      9  C   UNL     1     -37.671  -7.874  81.517  1.00  0.00     0.281 C 
ATOM     10  C   UNL     1     -36.952  -5.936  84.569  1.00  0.00     0.041 C 
ATOM     11  C   UNL     1     -37.034  -7.168  83.667  1.00  0.00     0.150 C 
ATOM     12  C   UNL     1     -35.676  -7.914  83.620  1.00  0.00     0.174 C 
ATOM     13  O   UNL     1     -37.445  -6.761  82.371  1.00  0.00    -0.344 OA
ATOM     14  C   UNL     1     -35.756  -9.112  82.657  1.00  0.00     0.179 C 
ATOM     15  C   UNL     1     -36.365  -8.682  81.309  1.00  0.00     0.202 C 
BRANCH  12  16
ATOM     16  O   UNL     1     -34.612  -7.060  83.269  1.00  0.00    -0.388 OA
ATOM     17  H   UNL     1     -34.792  -6.164  83.653  1.00  0.00     0.211 HD
ENDBRANCH  12  16
BRANCH  14  18
ATOM     18  O   UNL     1     -36.533 -10.125  83.248  1.00  0.00    -0.387 OA
ATOM     19  H   UNL     1     -35.903 -10.794  83.625  1.00  0.00     0.211 HD
ENDBRANCH  14  18
BRANCH  15  20
ATOM     20  O   UNL     1     -36.600  -9.814  80.510  1.00  0.00    -0.385 OA
ATOM     21  H   UNL     1     -35.773 -10.364  80.541  1.00  0.00     0.211 HD
ENDBRANCH  15  20
ENDBRANCH   8   9
ENDBRANCH   7   8
ENDBRANCH   1   7
BRANCH   2  22
ATOM     22  O   UNL     1     -40.100  -9.730  84.046  1.00  0.00    -0.387 OA
ATOM     23  H   UNL     1     -40.056 -10.074  83.116  1.00  0.00     0.211 HD
ENDBRANCH   2  22
BRANCH   3  24
ATOM     24  O   UNL     1     -41.575  -6.609  85.125  1.00  0.00    -0.387 OA
ATOM     25  H   UNL     1     -41.374  -6.376  86.070  1.00  0.00     0.211 HD
ENDBRANCH   3  24
BRANCH   5  26
ATOM     26  O   UNL     1     -43.544  -6.963  82.974  1.00  0.00    -0.454 OA
BRANCH  26  27
ATOM     27  C   UNL     1     -44.060  -6.379  81.797  1.00  0.00     0.214 A 
ATOM     28  C   UNL     1     -43.528  -5.141  81.381  1.00  0.00     0.180 A 
ATOM     29  C   UNL     1     -45.104  -6.946  81.026  1.00  0.00     0.239 A 
ATOM     30  O   UNL     1     -44.034  -4.512  80.326  1.00  0.00    -0.452 OA
ATOM     31  C   UNL     1     -45.597  -6.253  79.899  1.00  0.00     0.111 A 
ATOM     32  O   UNL     1     -45.598  -8.061  81.340  1.00  0.00    -0.285 OA
ATOM     33  C   UNL     1     -45.021  -5.001  79.588  1.00  0.00     0.146 A 
ATOM     34  C   UNL     1     -46.639  -6.753  79.077  1.00  0.00     0.134 A 
ATOM     35  C   UNL     1     -45.478  -4.265  78.491  1.00  0.00     0.094 A 
ATOM     36  C   UNL     1     -47.081  -5.999  77.978  1.00  0.00     0.093 A 
ATOM     37  C   UNL     1     -46.506  -4.762  77.686  1.00  0.00     0.123 A 
BRANCH  28  38
ATOM     38  C   UNL     1     -42.411  -4.491  82.097  1.00  0.00     0.025 A 
ATOM     39  C   UNL     1     -41.076  -4.770  81.765  1.00  0.00     0.062 A 
ATOM     40  C   UNL     1     -42.683  -3.525  83.073  1.00  0.00     0.016 A 
ATOM     41  C   UNL     1     -40.020  -4.122  82.419  1.00  0.00     0.158 A 
ATOM     42  C   UNL     1     -41.638  -2.873  83.732  1.00  0.00     0.051 A 
ATOM     43  C   UNL     1     -40.305  -3.160  83.416  1.00  0.00     0.157 A 
BRANCH  41  44
ATOM     44  O   UNL     1     -38.717  -4.462  82.050  1.00  0.00    -0.504 OA
ATOM     45  H   UNL     1     -38.317  -4.266  81.144  1.00  0.00     0.293 HD
ENDBRANCH  41  44
BRANCH  43  46
ATOM     46  O   UNL     1     -39.307  -2.469  84.105  1.00  0.00    -0.504 OA
ATOM     47  H   UNL     1     -39.486  -1.718  84.756  1.00  0.00     0.293 HD
ENDBRANCH  43  46
ENDBRANCH  28  38
BRANCH  34  48
ATOM     48  O   UNL     1     -47.237  -7.985  79.342  1.00  0.00    -0.507 OA
ATOM     49  H   UNL     1     -48.141  -8.054  79.794  1.00  0.00     0.293 HD
ENDBRANCH  34  48
BRANCH  37  50
ATOM     50  O   UNL     1     -46.962  -4.037  76.588  1.00  0.00    -0.508 OA
ATOM     51  H   UNL     1     -47.921  -4.107  76.267  1.00  0.00     0.293 HD
ENDBRANCH  37  50
ENDBRANCH  26  27
ENDBRANCH   5  26
BRANCH   4  52
ATOM     52  O   UNL     1     -42.840  -9.996  84.874  1.00  0.00    -0.384 OA
ATOM     53  H   UNL     1     -43.758 -10.325  84.689  1.00  0.00     0.211 HD
ENDBRANCH   4  52
TORSDOF 16
ENDMDL
MODEL 7
REMARK VINA RESULT:    -5.814      1.576      4.083
REMARK INTER + INTRA:         -12.362
REMARK INTER:                  -9.881
REMARK INTRA:                  -2.481
REMARK UNBOUND:                -2.809
REMARK SMILES C[C@H]1O[C@H](OC[C@H]2O[C@H](Oc3c(-c4ccc(O)c(O)c4)oc4cc(O)cc(O)c4c3=O)[C@@H](O)[C@H](O)[C@H]2O)[C@H](O)[C@H](O)[C@H]1O
REMARK SMILES IDX 7 1 36 2 34 3 32 4 9 5 8 6 6 7 5 8 4 9 1 10 2 11 42 12 3 13
REMARK SMILES IDX 40 14 38 15 43 16 41 18 39 20 37 22 35 24 10 26 11 27 12 28
REMARK SMILES IDX 30 29 21 30 29 31 31 32 22 33 27 34 23 35 26 36 24 37 13 38
REMARK SMILES IDX 20 39 14 40 18 41 15 42 16 43 19 44 17 46 28 48 25 50 33 52
REMARK H PARENT 43 17 41 19 39 21 37 23 35 25 19 45 17 47 28 49 25 51 33 53
REMARK Flexibility Score: inf
ROOT
ATOM      1  C   UNL     1     -38.083   4.160  79.276  1.00  0.00     0.180 C 
ATOM      2  C   UNL     1     -38.608   2.712  79.157  1.00  0.00     0.177 C 
ATOM      3  C   UNL     1     -40.139   2.702  79.303  1.00  0.00     0.180 C 
ATOM      4  C   UNL     1     -40.788   3.752  78.375  1.00  0.00     0.214 C 
ATOM      5  C   UNL     1     -40.074   5.116  78.481  1.00  0.00     0.339 C 
ATOM      6  O   UNL     1     -38.673   4.986  78.285  1.00  0.00    -0.332 OA
ENDROOT
BRANCH   1   7
ATOM      7  C   UNL     1     -36.560   4.224  79.111  1.00  0.00     0.198 C 
BRANCH   7   8
ATOM      8  O   UNL     1     -36.103   5.532  79.385  1.00  0.00    -0.347 OA
BRANCH   8   9
ATOM      9  C   UNL     1     -35.071   5.923  78.487  1.00  0.00     0.281 C 
ATOM     10  C   UNL     1     -35.885   9.515  78.311  1.00  0.00     0.041 C 
ATOM     11  C   UNL     1     -35.435   8.200  78.950  1.00  0.00     0.150 C 
ATOM     12  C   UNL     1     -34.079   8.372  79.681  1.00  0.00     0.174 C 
ATOM     13  O   UNL     1     -35.354   7.204  77.941  1.00  0.00    -0.344 OA
ATOM     14  C   UNL     1     -33.609   7.026  80.261  1.00  0.00     0.179 C 
ATOM     15  C   UNL     1     -33.691   5.920  79.193  1.00  0.00     0.202 C 
BRANCH  12  16
ATOM     16  O   UNL     1     -33.091   8.931  78.847  1.00  0.00    -0.388 OA
ATOM     17  H   UNL     1     -33.458   8.993  77.929  1.00  0.00     0.211 HD
ENDBRANCH  12  16
BRANCH  14  18
ATOM     18  O   UNL     1     -34.408   6.699  81.372  1.00  0.00    -0.387 OA
ATOM     19  H   UNL     1     -34.887   7.527  81.639  1.00  0.00     0.211 HD
ENDBRANCH  14  18
BRANCH  15  20
ATOM     20  O   UNL     1     -33.435   4.670  79.781  1.00  0.00    -0.385 OA
ATOM     21  H   UNL     1     -33.277   4.834  80.748  1.00  0.00     0.211 HD
ENDBRANCH  15  20
ENDBRANCH   8   9
ENDBRANCH   7   8
ENDBRANCH   1   7
BRANCH   2  22
ATOM     22  O   UNL     1     -38.240   2.173  77.911  1.00  0.00    -0.387 OA
ATOM     23  H   UNL     1     -37.996   1.223  78.070  1.00  0.00     0.211 HD
ENDBRANCH   2  22
BRANCH   3  24
ATOM     24  O   UNL     1     -40.478   2.961  80.641  1.00  0.00    -0.387 OA
ATOM     25  H   UNL     1     -39.889   3.699  80.950  1.00  0.00     0.211 HD
ENDBRANCH   3  24
BRANCH   5  26
ATOM     26  O   UNL     1     -40.374   5.752  79.729  1.00  0.00    -0.454 OA
BRANCH  26  27
ATOM     27  C   UNL     1     -39.522   6.590  80.481  1.00  0.00     0.214 A 
ATOM     28  C   UNL     1     -39.299   7.902  80.014  1.00  0.00     0.180 A 
ATOM     29  C   UNL     1     -38.852   6.181  81.659  1.00  0.00     0.239 A 
ATOM     30  O   UNL     1     -38.444   8.701  80.641  1.00  0.00    -0.452 OA
ATOM     31  C   UNL     1     -37.968   7.072  82.307  1.00  0.00     0.111 A 
ATOM     32  O   UNL     1     -39.036   5.028  82.133  1.00  0.00    -0.285 OA
ATOM     33  C   UNL     1     -37.785   8.351  81.737  1.00  0.00     0.146 A 
ATOM     34  C   UNL     1     -37.260   6.738  83.489  1.00  0.00     0.134 A 
ATOM     35  C   UNL     1     -36.913   9.270  82.328  1.00  0.00     0.094 A 
ATOM     36  C   UNL     1     -36.392   7.677  84.068  1.00  0.00     0.093 A 
ATOM     37  C   UNL     1     -36.217   8.935  83.492  1.00  0.00     0.123 A 
BRANCH  28  38
ATOM     38  C   UNL     1     -39.983   8.432  78.816  1.00  0.00     0.025 A 
ATOM     39  C   UNL     1     -41.341   8.781  78.852  1.00  0.00     0.062 A 
ATOM     40  C   UNL     1     -39.251   8.661  77.645  1.00  0.00     0.016 A 
ATOM     41  C   UNL     1     -41.978   9.320  77.726  1.00  0.00     0.158 A 
ATOM     42  C   UNL     1     -39.875   9.197  76.517  1.00  0.00     0.051 A 
ATOM     43  C   UNL     1     -41.233   9.532  76.542  1.00  0.00     0.157 A 
BRANCH  41  44
ATOM     44  O   UNL     1     -43.336   9.628  77.828  1.00  0.00    -0.504 OA
ATOM     45  H   UNL     1     -43.785  10.377  77.322  1.00  0.00     0.293 HD
ENDBRANCH  41  44
BRANCH  43  46
ATOM     46  O   UNL     1     -41.795  10.072  75.385  1.00  0.00    -0.504 OA
ATOM     47  H   UNL     1     -42.773  10.303  75.286  1.00  0.00     0.293 HD
ENDBRANCH  43  46
ENDBRANCH  28  38
BRANCH  34  48
ATOM     48  O   UNL     1     -37.411   5.489  84.091  1.00  0.00    -0.507 OA
ATOM     49  H   UNL     1     -37.898   4.729  83.630  1.00  0.00     0.293 HD
ENDBRANCH  34  48
BRANCH  37  50
ATOM     50  O   UNL     1     -35.350   9.848  84.089  1.00  0.00    -0.508 OA
ATOM     51  H   UNL     1     -35.639  10.798  84.292  1.00  0.00     0.293 HD
ENDBRANCH  37  50
ENDBRANCH  26  27
ENDBRANCH   5  26
BRANCH   4  52
ATOM     52  O   UNL     1     -40.732   3.311  77.042  1.00  0.00    -0.384 OA
ATOM     53  H   UNL     1     -41.505   3.718  76.572  1.00  0.00     0.211 HD
ENDBRANCH   4  52
TORSDOF 16
ENDMDL
MODEL 8
REMARK VINA RESULT:    -5.804     11.549     15.458
REMARK INTER + INTRA:         -12.345
REMARK INTER:                 -10.383
REMARK INTRA:                  -1.962
REMARK UNBOUND:                -2.809
REMARK SMILES C[C@H]1O[C@H](OC[C@H]2O[C@H](Oc3c(-c4ccc(O)c(O)c4)oc4cc(O)cc(O)c4c3=O)[C@@H](O)[C@H](O)[C@H]2O)[C@H](O)[C@H](O)[C@H]1O
REMARK SMILES IDX 7 1 36 2 34 3 32 4 9 5 8 6 6 7 5 8 4 9 1 10 2 11 42 12 3 13
REMARK SMILES IDX 40 14 38 15 43 16 41 18 39 20 37 22 35 24 10 26 11 27 12 28
REMARK SMILES IDX 30 29 21 30 29 31 31 32 22 33 27 34 23 35 26 36 24 37 13 38
REMARK SMILES IDX 20 39 14 40 18 41 15 42 16 43 19 44 17 46 28 48 25 50 33 52
REMARK H PARENT 43 17 41 19 39 21 37 23 35 25 19 45 17 47 28 49 25 51 33 53
REMARK Flexibility Score: inf
ROOT
ATOM      1  C   UNL     1     -41.951  -8.334  82.888  1.00  0.00     0.180 C 
ATOM      2  C   UNL     1     -41.998  -8.600  84.409  1.00  0.00     0.177 C 
ATOM      3  C   UNL     1     -43.302  -8.033  84.995  1.00  0.00     0.180 C 
ATOM      4  C   UNL     1     -44.524  -8.498  84.174  1.00  0.00     0.214 C 
ATOM      5  C   UNL     1     -44.287  -8.316  82.660  1.00  0.00     0.339 C 
ATOM      6  O   UNL     1     -43.071  -8.922  82.246  1.00  0.00    -0.332 OA
ENDROOT
BRANCH   1   7
ATOM      7  C   UNL     1     -40.678  -8.906  82.254  1.00  0.00     0.198 C 
BRANCH   7   8
ATOM      8  O   UNL     1     -39.546  -8.228  82.760  1.00  0.00    -0.347 OA
BRANCH   8   9
ATOM      9  C   UNL     1     -38.550  -9.139  83.210  1.00  0.00     0.281 C 
ATOM     10  C   UNL     1     -36.923  -9.758  79.960  1.00  0.00     0.041 C 
ATOM     11  C   UNL     1     -37.370  -8.958  81.184  1.00  0.00     0.150 C 
ATOM     12  C   UNL     1     -36.172  -8.218  81.832  1.00  0.00     0.174 C 
ATOM     13  O   UNL     1     -37.992  -9.839  82.107  1.00  0.00    -0.344 OA
ATOM     14  C   UNL     1     -36.625  -7.471  83.100  1.00  0.00     0.179 C 
ATOM     15  C   UNL     1     -37.446  -8.403  84.010  1.00  0.00     0.202 C 
BRANCH  12  16
ATOM     16  O   UNL     1     -35.101  -9.087  82.118  1.00  0.00    -0.388 OA
ATOM     17  H   UNL     1     -34.262  -8.659  81.812  1.00  0.00     0.211 HD
ENDBRANCH  12  16
BRANCH  14  18
ATOM     18  O   UNL     1     -37.388  -6.351  82.725  1.00  0.00    -0.387 OA
ATOM     19  H   UNL     1     -38.343  -6.615  82.785  1.00  0.00     0.211 HD
ENDBRANCH  14  18
BRANCH  15  20
ATOM     20  O   UNL     1     -38.004  -7.665  85.068  1.00  0.00    -0.385 OA
ATOM     21  H   UNL     1     -38.911  -8.036  85.230  1.00  0.00     0.211 HD
ENDBRANCH  15  20
ENDBRANCH   8   9
ENDBRANCH   7   8
ENDBRANCH   1   7
BRANCH   2  22
ATOM     22  O   UNL     1     -41.922  -9.983  84.654  1.00  0.00    -0.387 OA
ATOM     23  H   UNL     1     -42.856 -10.320  84.692  1.00  0.00     0.211 HD
ENDBRANCH   2  22
BRANCH   3  24
ATOM     24  O   UNL     1     -43.232  -6.630  85.008  1.00  0.00    -0.387 OA
ATOM     25  H   UNL     1     -44.043  -6.305  85.481  1.00  0.00     0.211 HD
ENDBRANCH   3  24
BRANCH   5  26
ATOM     26  O   UNL     1     -44.333  -6.930  82.301  1.00  0.00    -0.454 OA
BRANCH  26  27
ATOM     27  C   UNL     1     -44.705  -6.389  81.051  1.00  0.00     0.214 A 
ATOM     28  C   UNL     1     -43.924  -5.343  80.520  1.00  0.00     0.180 A 
ATOM     29  C   UNL     1     -45.837  -6.813  80.313  1.00  0.00     0.239 A 
ATOM     30  O   UNL     1     -44.279  -4.747  79.388  1.00  0.00    -0.452 OA
ATOM     31  C   UNL     1     -46.165  -6.166  79.102  1.00  0.00     0.111 A 
ATOM     32  O   UNL     1     -46.554  -7.761  80.730  1.00  0.00    -0.285 OA
ATOM     33  C   UNL     1     -45.338  -5.103  78.676  1.00  0.00     0.146 A 
ATOM     34  C   UNL     1     -47.280  -6.531  78.305  1.00  0.00     0.134 A 
ATOM     35  C   UNL     1     -45.623  -4.417  77.491  1.00  0.00     0.094 A 
ATOM     36  C   UNL     1     -47.546  -5.833  77.117  1.00  0.00     0.093 A 
ATOM     37  C   UNL     1     -46.724  -4.781  76.711  1.00  0.00     0.123 A 
BRANCH  28  38
ATOM     38  C   UNL     1     -42.703  -4.858  81.198  1.00  0.00     0.025 A 
ATOM     39  C   UNL     1     -42.763  -3.837  82.157  1.00  0.00     0.062 A 
ATOM     40  C   UNL     1     -41.474  -5.476  80.935  1.00  0.00     0.016 A 
ATOM     41  C   UNL     1     -41.610  -3.406  82.826  1.00  0.00     0.158 A 
ATOM     42  C   UNL     1     -40.318  -5.055  81.596  1.00  0.00     0.051 A 
ATOM     43  C   UNL     1     -40.370  -4.025  82.542  1.00  0.00     0.157 A 
BRANCH  41  44
ATOM     44  O   UNL     1     -41.741  -2.373  83.756  1.00  0.00    -0.504 OA
ATOM     45  H   UNL     1     -41.550  -2.473  84.742  1.00  0.00     0.293 HD
ENDBRANCH  41  44
BRANCH  43  46
ATOM     46  O   UNL     1     -39.181  -3.657  83.173  1.00  0.00    -0.504 OA
ATOM     47  H   UNL     1     -38.309  -4.155  83.071  1.00  0.00     0.293 HD
ENDBRANCH  43  46
ENDBRANCH  28  38
BRANCH  34  48
ATOM     48  O   UNL     1     -48.123  -7.577  78.683  1.00  0.00    -0.507 OA
ATOM     49  H   UNL     1     -49.089  -7.621  78.378  1.00  0.00     0.293 HD
ENDBRANCH  34  48
BRANCH  37  50
ATOM     50  O   UNL     1     -47.009  -4.106  75.527  1.00  0.00    -0.508 OA
ATOM     51  H   UNL     1     -46.272  -3.737  74.936  1.00  0.00     0.293 HD
ENDBRANCH  37  50
ENDBRANCH  26  27
ENDBRANCH   5  26
BRANCH   4  52
ATOM     52  O   UNL     1     -44.785  -9.854  84.433  1.00  0.00    -0.384 OA
ATOM     53  H   UNL     1     -44.043 -10.373  84.028  1.00  0.00     0.211 HD
ENDBRANCH   4  52
TORSDOF 16
ENDMDL
MODEL 9
REMARK VINA RESULT:    -5.728      1.666      7.620
REMARK INTER + INTRA:         -12.222
REMARK INTER:                  -9.948
REMARK INTRA:                  -2.274
REMARK UNBOUND:                -2.809
REMARK SMILES C[C@H]1O[C@H](OC[C@H]2O[C@H](Oc3c(-c4ccc(O)c(O)c4)oc4cc(O)cc(O)c4c3=O)[C@@H](O)[C@H](O)[C@H]2O)[C@H](O)[C@H](O)[C@H]1O
REMARK SMILES IDX 7 1 36 2 34 3 32 4 9 5 8 6 6 7 5 8 4 9 1 10 2 11 42 12 3 13
REMARK SMILES IDX 40 14 38 15 43 16 41 18 39 20 37 22 35 24 10 26 11 27 12 28
REMARK SMILES IDX 30 29 21 30 29 31 31 32 22 33 27 34 23 35 26 36 24 37 13 38
REMARK SMILES IDX 20 39 14 40 18 41 15 42 16 43 19 44 17 46 28 48 25 50 33 52
REMARK H PARENT 43 17 41 19 39 21 37 23 35 25 19 45 17 47 28 49 25 51 33 53
REMARK Flexibility Score: inf
ROOT
ATOM      1  C   UNL     1     -35.492   8.430  80.073  1.00  0.00     0.180 C 
ATOM      2  C   UNL     1     -34.050   8.956  79.905  1.00  0.00     0.177 C 
ATOM      3  C   UNL     1     -33.095   7.779  79.643  1.00  0.00     0.180 C 
ATOM      4  C   UNL     1     -33.636   6.872  78.516  1.00  0.00     0.214 C 
ATOM      5  C   UNL     1     -35.129   6.543  78.725  1.00  0.00     0.339 C 
ATOM      6  O   UNL     1     -35.900   7.721  78.915  1.00  0.00    -0.332 OA
ENDROOT
BRANCH   1   7
ATOM      7  C   UNL     1     -36.485   9.573  80.313  1.00  0.00     0.198 C 
BRANCH   7   8
ATOM      8  O   UNL     1     -37.798   9.134  80.030  1.00  0.00    -0.347 OA
BRANCH   8   9
ATOM      9  C   UNL     1     -38.534  10.116  79.311  1.00  0.00     0.281 C 
ATOM     10  C   UNL     1     -38.353   8.548  75.979  1.00  0.00     0.041 C 
ATOM     11  C   UNL     1     -38.747   8.695  77.449  1.00  0.00     0.150 C 
ATOM     12  C   UNL     1     -40.275   8.512  77.636  1.00  0.00     0.174 C 
ATOM     13  O   UNL     1     -38.318   9.966  77.915  1.00  0.00    -0.344 OA
ATOM     14  C   UNL     1     -40.664   8.728  79.110  1.00  0.00     0.179 C 
ATOM     15  C   UNL     1     -40.045  10.033  79.646  1.00  0.00     0.202 C 
BRANCH  12  16
ATOM     16  O   UNL     1     -41.020   9.359  76.793  1.00  0.00    -0.388 OA
ATOM     17  H   UNL     1     -41.185   8.882  75.940  1.00  0.00     0.211 HD
ENDBRANCH  12  16
BRANCH  14  18
ATOM     18  O   UNL     1     -40.224   7.627  79.868  1.00  0.00    -0.387 OA
ATOM     19  H   UNL     1     -40.076   7.951  80.795  1.00  0.00     0.211 HD
ENDBRANCH  14  18
BRANCH  15  20
ATOM     20  O   UNL     1     -40.254  10.125  81.032  1.00  0.00    -0.385 OA
ATOM     21  H   UNL     1     -40.481  11.072  81.226  1.00  0.00     0.211 HD
ENDBRANCH  15  20
ENDBRANCH   8   9
ENDBRANCH   7   8
ENDBRANCH   1   7
BRANCH   2  22
ATOM     22  O   UNL     1     -33.995   9.867  78.835  1.00  0.00    -0.387 OA
ATOM     23  H   UNL     1     -33.166  10.401  78.954  1.00  0.00     0.211 HD
ENDBRANCH   2  22
BRANCH   3  24
ATOM     24  O   UNL     1     -32.935   7.040  80.825  1.00  0.00    -0.387 OA
ATOM     25  H   UNL     1     -33.389   7.549  81.548  1.00  0.00     0.211 HD
ENDBRANCH   3  24
BRANCH   5  26
ATOM     26  O   UNL     1     -35.300   5.623  79.809  1.00  0.00    -0.454 OA
BRANCH  26  27
ATOM     27  C   UNL     1     -36.521   5.200  80.379  1.00  0.00     0.214 A 
ATOM     28  C   UNL     1     -36.584   5.051  81.780  1.00  0.00     0.180 A 
ATOM     29  C   UNL     1     -37.676   4.885  79.625  1.00  0.00     0.239 A 
ATOM     30  O   UNL     1     -37.683   4.579  82.356  1.00  0.00    -0.452 OA
ATOM     31  C   UNL     1     -38.832   4.407  80.281  1.00  0.00     0.111 A 
ATOM     32  O   UNL     1     -37.681   5.025  78.373  1.00  0.00    -0.285 OA
ATOM     33  C   UNL     1     -38.780   4.258  81.684  1.00  0.00     0.146 A 
ATOM     34  C   UNL     1     -40.028   4.071  79.597  1.00  0.00     0.134 A 
ATOM     35  C   UNL     1     -39.890   3.777  82.386  1.00  0.00     0.094 A 
ATOM     36  C   UNL     1     -41.132   3.593  80.321  1.00  0.00     0.093 A 
ATOM     37  C   UNL     1     -41.065   3.445  81.706  1.00  0.00     0.123 A 
BRANCH  28  38
ATOM     38  C   UNL     1     -35.442   5.391  82.654  1.00  0.00     0.025 A 
ATOM     39  C   UNL     1     -34.461   4.440  82.969  1.00  0.00     0.062 A 
ATOM     40  C   UNL     1     -35.294   6.704  83.119  1.00  0.00     0.016 A 
ATOM     41  C   UNL     1     -33.359   4.776  83.767  1.00  0.00     0.158 A 
ATOM     42  C   UNL     1     -34.200   7.051  83.915  1.00  0.00     0.051 A 
ATOM     43  C   UNL     1     -33.227   6.101  84.245  1.00  0.00     0.157 A 
BRANCH  41  44
ATOM     44  O   UNL     1     -32.430   3.774  84.054  1.00  0.00    -0.504 OA
ATOM     45  H   UNL     1     -31.612   3.911  84.629  1.00  0.00     0.293 HD
ENDBRANCH  41  44
BRANCH  43  46
ATOM     46  O   UNL     1     -32.154   6.513  85.037  1.00  0.00    -0.504 OA
ATOM     47  H   UNL     1     -32.078   6.328  86.027  1.00  0.00     0.293 HD
ENDBRANCH  43  46
ENDBRANCH  28  38
BRANCH  34  48
ATOM     48  O   UNL     1     -40.129   4.205  78.212  1.00  0.00    -0.507 OA
ATOM     49  H   UNL     1     -40.034   5.104  77.755  1.00  0.00     0.293 HD
ENDBRANCH  34  48
BRANCH  37  50
ATOM     50  O   UNL     1     -42.176   2.971  82.400  1.00  0.00    -0.508 OA
ATOM     51  H   UNL     1     -42.179   2.898  83.411  1.00  0.00     0.293 HD
ENDBRANCH  37  50
ENDBRANCH  26  27
ENDBRANCH   5  26
BRANCH   4  52
ATOM     52  O   UNL     1     -33.481   7.510  77.273  1.00  0.00    -0.384 OA
ATOM     53  H   UNL     1     -34.261   8.113  77.160  1.00  0.00     0.211 HD
ENDBRANCH   4  52
TORSDOF 16
ENDMDL
