MODEL 1
REMARK VINA RESULT:    -6.820      0.000      0.000
REMARK INTER + INTRA:          -8.298
REMARK INTER:                  -8.016
REMARK INTRA:                  -0.282
REMARK UNBOUND:                -0.282
REMARK SMILES O=c1cc(-c2ccc(O)c(O)c2)oc2cc(O)cc(O)c12
REMARK SMILES IDX 4 1 3 2 2 3 1 4 21 5 19 6 18 7 16 8 15 9 14 10 13 11 5 12
REMARK SMILES IDX 6 13 7 14 8 15 12 16 10 17 9 18 11 20 20 22 17 24
REMARK H PARENT 9 19 11 21 20 23 17 25
REMARK Flexibility Score: inf
ROOT
ATOM      1  C   UNL     1       6.132  27.375  59.344  1.00  0.00     0.138 A 
ATOM      2  C   UNL     1       5.646  26.639  60.433  1.00  0.00     0.100 A 
ATOM      3  C   UNL     1       6.529  25.872  61.196  1.00  0.00     0.197 A 
ATOM      4  O   UNL     1       6.055  25.174  62.129  1.00  0.00    -0.289 OA
ATOM      5  C   UNL     1       7.909  25.869  60.883  1.00  0.00     0.107 A 
ATOM      6  C   UNL     1       8.906  25.157  61.615  1.00  0.00     0.134 A 
ATOM      7  C   UNL     1      10.224  25.134  61.141  1.00  0.00     0.093 A 
ATOM      8  C   UNL     1      10.593  25.845  60.000  1.00  0.00     0.123 A 
ATOM      9  C   UNL     1       9.636  26.588  59.307  1.00  0.00     0.094 A 
ATOM     10  C   UNL     1       8.306  26.603  59.734  1.00  0.00     0.146 A 
ATOM     11  O   UNL     1       7.423  27.311  59.037  1.00  0.00    -0.456 OA
ENDROOT
BRANCH   1  12
ATOM     12  C   UNL     1       5.237  28.208  58.500  1.00  0.00     0.021 A 
ATOM     13  C   UNL     1       5.694  29.450  58.026  1.00  0.00     0.016 A 
ATOM     14  C   UNL     1       4.868  30.257  57.238  1.00  0.00     0.051 A 
ATOM     15  C   UNL     1       3.571  29.840  56.917  1.00  0.00     0.157 A 
ATOM     16  C   UNL     1       3.926  27.801  58.185  1.00  0.00     0.062 A 
ATOM     17  C   UNL     1       3.098  28.607  57.396  1.00  0.00     0.158 A 
BRANCH  15  18
ATOM     18  O   UNL     1       2.751  30.645  56.128  1.00  0.00    -0.504 OA
ATOM     19  H   UNL     1       2.495  30.379  55.184  1.00  0.00     0.293 HD
ENDBRANCH  15  18
BRANCH  17  20
ATOM     20  O   UNL     1       1.806  28.169  57.104  1.00  0.00    -0.504 OA
ATOM     21  H   UNL     1       1.517  27.936  56.162  1.00  0.00     0.293 HD
ENDBRANCH  17  20
ENDBRANCH   1  12
BRANCH   6  22
ATOM     22  O   UNL     1       8.663  24.484  62.815  1.00  0.00    -0.507 OA
ATOM     23  H   UNL     1       9.259  24.519  63.628  1.00  0.00     0.293 HD
ENDBRANCH   6  22
BRANCH   8  24
ATOM     24  O   UNL     1      11.917  25.812  59.567  1.00  0.00    -0.508 OA
ATOM     25  H   UNL     1      12.256  25.081  58.954  1.00  0.00     0.293 HD
ENDBRANCH   8  24
TORSDOF 5
ENDMDL
MODEL 2
REMARK VINA RESULT:    -6.358      1.405      3.054
REMARK INTER + INTRA:          -7.755
REMARK INTER:                  -7.459
REMARK INTRA:                  -0.296
REMARK UNBOUND:                -0.282
REMARK SMILES O=c1cc(-c2ccc(O)c(O)c2)oc2cc(O)cc(O)c12
REMARK SMILES IDX 4 1 3 2 2 3 1 4 21 5 19 6 18 7 16 8 15 9 14 10 13 11 5 12
REMARK SMILES IDX 6 13 7 14 8 15 12 16 10 17 9 18 11 20 20 22 17 24
REMARK H PARENT 9 19 11 21 20 23 17 25
REMARK Flexibility Score: inf
ROOT
ATOM      1  C   UNL     1       5.914  27.207  59.468  1.00  0.00     0.138 A 
ATOM      2  C   UNL     1       7.287  27.018  59.261  1.00  0.00     0.100 A 
ATOM      3  C   UNL     1       8.000  26.163  60.103  1.00  0.00     0.197 A 
ATOM      4  O   UNL     1       9.242  26.062  59.931  1.00  0.00    -0.289 OA
ATOM      5  C   UNL     1       7.326  25.471  61.137  1.00  0.00     0.107 A 
ATOM      6  C   UNL     1       7.943  24.544  62.030  1.00  0.00     0.134 A 
ATOM      7  C   UNL     1       7.200  24.009  63.090  1.00  0.00     0.093 A 
ATOM      8  C   UNL     1       5.850  24.318  63.252  1.00  0.00     0.123 A 
ATOM      9  C   UNL     1       5.223  25.182  62.353  1.00  0.00     0.094 A 
ATOM     10  C   UNL     1       5.946  25.759  61.306  1.00  0.00     0.146 A 
ATOM     11  O   UNL     1       5.316  26.588  60.480  1.00  0.00    -0.456 OA
ENDROOT
BRANCH   1  12
ATOM     12  C   UNL     1       5.107  28.104  58.602  1.00  0.00     0.021 A 
ATOM     13  C   UNL     1       5.639  29.343  58.204  1.00  0.00     0.016 A 
ATOM     14  C   UNL     1       4.897  30.209  57.396  1.00  0.00     0.051 A 
ATOM     15  C   UNL     1       3.607  29.855  56.979  1.00  0.00     0.157 A 
ATOM     16  C   UNL     1       3.804  27.761  58.190  1.00  0.00     0.062 A 
ATOM     17  C   UNL     1       3.059  28.626  57.382  1.00  0.00     0.158 A 
BRANCH  15  18
ATOM     18  O   UNL     1       2.870  30.719  56.171  1.00  0.00    -0.504 OA
ATOM     19  H   UNL     1       2.758  30.551  55.178  1.00  0.00     0.293 HD
ENDBRANCH  15  18
BRANCH  17  20
ATOM     20  O   UNL     1       1.773  28.251  56.994  1.00  0.00    -0.504 OA
ATOM     21  H   UNL     1       1.493  27.279  56.927  1.00  0.00     0.293 HD
ENDBRANCH  17  20
ENDBRANCH   1  12
BRANCH   6  22
ATOM     22  O   UNL     1       9.262  24.101  61.907  1.00  0.00    -0.507 OA
ATOM     23  H   UNL     1      10.079  24.683  62.015  1.00  0.00     0.293 HD
ENDBRANCH   6  22
BRANCH   8  24
ATOM     24  O   UNL     1       5.138  23.754  64.308  1.00  0.00    -0.508 OA
ATOM     25  H   UNL     1       5.364  22.835  64.670  1.00  0.00     0.293 HD
ENDBRANCH   8  24
TORSDOF 5
ENDMDL
MODEL 3
REMARK VINA RESULT:    -6.303      1.267      6.841
REMARK INTER + INTRA:          -7.690
REMARK INTER:                  -7.397
REMARK INTRA:                  -0.293
REMARK UNBOUND:                -0.282
REMARK SMILES O=c1cc(-c2ccc(O)c(O)c2)oc2cc(O)cc(O)c12
REMARK SMILES IDX 4 1 3 2 2 3 1 4 21 5 19 6 18 7 16 8 15 9 14 10 13 11 5 12
REMARK SMILES IDX 6 13 7 14 8 15 12 16 10 17 9 18 11 20 20 22 17 24
REMARK H PARENT 9 19 11 21 20 23 17 25
REMARK Flexibility Score: inf
ROOT
ATOM      1  C   UNL     1       7.176  26.604  59.999  1.00  0.00     0.138 A 
ATOM      2  C   UNL     1       6.142  26.011  60.735  1.00  0.00     0.100 A 
ATOM      3  C   UNL     1       4.824  26.420  60.525  1.00  0.00     0.197 A 
ATOM      4  O   UNL     1       3.924  25.913  61.245  1.00  0.00    -0.289 OA
ATOM      5  C   UNL     1       4.540  27.404  59.549  1.00  0.00     0.107 A 
ATOM      6  C   UNL     1       3.231  27.868  59.222  1.00  0.00     0.134 A 
ATOM      7  C   UNL     1       3.081  28.931  58.322  1.00  0.00     0.093 A 
ATOM      8  C   UNL     1       4.186  29.504  57.693  1.00  0.00     0.123 A 
ATOM      9  C   UNL     1       5.467  29.022  57.965  1.00  0.00     0.094 A 
ATOM     10  C   UNL     1       5.652  27.986  58.885  1.00  0.00     0.146 A 
ATOM     11  O   UNL     1       6.889  27.565  59.128  1.00  0.00    -0.456 OA
ENDROOT
BRANCH   1  12
ATOM     12  C   UNL     1       8.596  26.207  60.181  1.00  0.00     0.021 A 
ATOM     13  C   UNL     1       9.534  26.512  59.179  1.00  0.00     0.016 A 
ATOM     14  C   UNL     1      10.873  26.142  59.323  1.00  0.00     0.051 A 
ATOM     15  C   UNL     1      11.297  25.452  60.466  1.00  0.00     0.157 A 
ATOM     16  C   UNL     1       9.026  25.500  61.322  1.00  0.00     0.062 A 
ATOM     17  C   UNL     1      10.367  25.128  61.467  1.00  0.00     0.158 A 
BRANCH  15  18
ATOM     18  O   UNL     1      12.635  25.086  60.607  1.00  0.00    -0.504 OA
ATOM     19  H   UNL     1      13.372  25.779  60.666  1.00  0.00     0.293 HD
ENDBRANCH  15  18
BRANCH  17  20
ATOM     20  O   UNL     1      10.756  24.430  62.611  1.00  0.00    -0.504 OA
ATOM     21  H   UNL     1      10.507  23.460  62.760  1.00  0.00     0.293 HD
ENDBRANCH  17  20
ENDBRANCH   1  12
BRANCH   6  22
ATOM     22  O   UNL     1       2.054  27.310  59.728  1.00  0.00    -0.507 OA
ATOM     23  H   UNL     1       1.973  26.842  60.618  1.00  0.00     0.293 HD
ENDBRANCH   6  22
BRANCH   8  24
ATOM     24  O   UNL     1       3.998  30.549  56.791  1.00  0.00    -0.508 OA
ATOM     25  H   UNL     1       4.602  30.670  55.987  1.00  0.00     0.293 HD
ENDBRANCH   8  24
TORSDOF 5
ENDMDL
MODEL 4
REMARK VINA RESULT:    -5.938      0.847      1.538
REMARK INTER + INTRA:          -7.261
REMARK INTER:                  -6.948
REMARK INTRA:                  -0.313
REMARK UNBOUND:                -0.282
REMARK SMILES O=c1cc(-c2ccc(O)c(O)c2)oc2cc(O)cc(O)c12
REMARK SMILES IDX 4 1 3 2 2 3 1 4 21 5 19 6 18 7 16 8 15 9 14 10 13 11 5 12
REMARK SMILES IDX 6 13 7 14 8 15 12 16 10 17 9 18 11 20 20 22 17 24
REMARK H PARENT 9 19 11 21 20 23 17 25
REMARK Flexibility Score: inf
ROOT
ATOM      1  C   UNL     1       6.352  26.971  59.708  1.00  0.00     0.138 A 
ATOM      2  C   UNL     1       5.913  26.174  60.773  1.00  0.00     0.100 A 
ATOM      3  C   UNL     1       6.839  25.423  61.500  1.00  0.00     0.197 A 
ATOM      4  O   UNL     1       6.407  24.670  62.411  1.00  0.00    -0.289 OA
ATOM      5  C   UNL     1       8.214  25.499  61.177  1.00  0.00     0.107 A 
ATOM      6  C   UNL     1       9.251  24.811  61.875  1.00  0.00     0.134 A 
ATOM      7  C   UNL     1      10.564  24.868  61.390  1.00  0.00     0.093 A 
ATOM      8  C   UNL     1      10.888  25.637  60.273  1.00  0.00     0.123 A 
ATOM      9  C   UNL     1       9.890  26.358  59.615  1.00  0.00     0.094 A 
ATOM     10  C   UNL     1       8.565  26.292  60.052  1.00  0.00     0.146 A 
ATOM     11  O   UNL     1       7.642  26.981  59.389  1.00  0.00    -0.456 OA
ENDROOT
BRANCH   1  12
ATOM     12  C   UNL     1       5.411  27.790  58.902  1.00  0.00     0.021 A 
ATOM     13  C   UNL     1       4.038  27.488  58.925  1.00  0.00     0.016 A 
ATOM     14  C   UNL     1       3.133  28.238  58.169  1.00  0.00     0.051 A 
ATOM     15  C   UNL     1       3.584  29.296  57.370  1.00  0.00     0.157 A 
ATOM     16  C   UNL     1       5.860  28.847  58.086  1.00  0.00     0.062 A 
ATOM     17  C   UNL     1       4.955  29.598  57.327  1.00  0.00     0.158 A 
BRANCH  15  18
ATOM     18  O   UNL     1       2.679  30.043  56.619  1.00  0.00    -0.504 OA
ATOM     19  H   UNL     1       2.762  30.122  55.612  1.00  0.00     0.293 HD
ENDBRANCH  15  18
BRANCH  17  20
ATOM     20  O   UNL     1       5.438  30.638  56.532  1.00  0.00    -0.504 OA
ATOM     21  H   UNL     1       4.833  31.367  56.175  1.00  0.00     0.293 HD
ENDBRANCH  17  20
ENDBRANCH   1  12
BRANCH   6  22
ATOM     22  O   UNL     1       9.052  24.083  63.051  1.00  0.00    -0.507 OA
ATOM     23  H   UNL     1       9.070  23.076  63.117  1.00  0.00     0.293 HD
ENDBRANCH   6  22
BRANCH   8  24
ATOM     24  O   UNL     1      12.207  25.684  59.829  1.00  0.00    -0.508 OA
ATOM     25  H   UNL     1      12.673  24.862  59.463  1.00  0.00     0.293 HD
ENDBRANCH   8  24
TORSDOF 5
ENDMDL
MODEL 5
REMARK VINA RESULT:    -5.740      1.481      1.922
REMARK INTER + INTRA:          -7.029
REMARK INTER:                  -6.741
REMARK INTRA:                  -0.288
REMARK UNBOUND:                -0.282
REMARK SMILES O=c1cc(-c2ccc(O)c(O)c2)oc2cc(O)cc(O)c12
REMARK SMILES IDX 4 1 3 2 2 3 1 4 21 5 19 6 18 7 16 8 15 9 14 10 13 11 5 12
REMARK SMILES IDX 6 13 7 14 8 15 12 16 10 17 9 18 11 20 20 22 17 24
REMARK H PARENT 9 19 11 21 20 23 17 25
REMARK Flexibility Score: inf
ROOT
ATOM      1  C   UNL     1       6.984  27.004  60.259  1.00  0.00     0.138 A 
ATOM      2  C   UNL     1       7.029  26.986  61.659  1.00  0.00     0.100 A 
ATOM      3  C   UNL     1       8.214  26.632  62.307  1.00  0.00     0.197 A 
ATOM      4  O   UNL     1       8.206  26.565  63.563  1.00  0.00    -0.289 OA
ATOM      5  C   UNL     1       9.367  26.328  61.546  1.00  0.00     0.107 A 
ATOM      6  C   UNL     1      10.640  25.995  62.098  1.00  0.00     0.134 A 
ATOM      7  C   UNL     1      11.678  25.597  61.247  1.00  0.00     0.093 A 
ATOM      8  C   UNL     1      11.510  25.579  59.863  1.00  0.00     0.123 A 
ATOM      9  C   UNL     1      10.285  25.955  59.309  1.00  0.00     0.094 A 
ATOM     10  C   UNL     1       9.219  26.323  60.133  1.00  0.00     0.146 A 
ATOM     11  O   UNL     1       8.065  26.660  59.567  1.00  0.00    -0.456 OA
ENDROOT
BRANCH   1  12
ATOM     12  C   UNL     1       5.750  27.373  59.519  1.00  0.00     0.021 A 
ATOM     13  C   UNL     1       5.857  27.977  58.254  1.00  0.00     0.016 A 
ATOM     14  C   UNL     1       4.711  28.341  57.541  1.00  0.00     0.051 A 
ATOM     15  C   UNL     1       3.440  28.117  58.084  1.00  0.00     0.157 A 
ATOM     16  C   UNL     1       4.468  27.163  60.065  1.00  0.00     0.062 A 
ATOM     17  C   UNL     1       3.320  27.528  59.354  1.00  0.00     0.158 A 
BRANCH  15  18
ATOM     18  O   UNL     1       2.299  28.480  57.370  1.00  0.00    -0.504 OA
ATOM     19  H   UNL     1       1.812  27.818  56.776  1.00  0.00     0.293 HD
ENDBRANCH  15  18
BRANCH  17  20
ATOM     20  O   UNL     1       2.068  27.303  59.927  1.00  0.00    -0.504 OA
ATOM     21  H   UNL     1       1.207  27.519  59.440  1.00  0.00     0.293 HD
ENDBRANCH  17  20
ENDBRANCH   1  12
BRANCH   6  22
ATOM     22  O   UNL     1      10.942  26.061  63.461  1.00  0.00    -0.507 OA
ATOM     23  H   UNL     1      11.838  26.324  63.841  1.00  0.00     0.293 HD
ENDBRANCH   6  22
BRANCH   8  24
ATOM     24  O   UNL     1      12.570  25.193  59.046  1.00  0.00    -0.508 OA
ATOM     25  H   UNL     1      13.511  25.097  59.408  1.00  0.00     0.293 HD
ENDBRANCH   8  24
TORSDOF 5
ENDMDL
MODEL 6
REMARK VINA RESULT:    -5.642      1.959      2.914
REMARK INTER + INTRA:          -6.913
REMARK INTER:                  -6.595
REMARK INTRA:                  -0.318
REMARK UNBOUND:                -0.282
REMARK SMILES O=c1cc(-c2ccc(O)c(O)c2)oc2cc(O)cc(O)c12
REMARK SMILES IDX 4 1 3 2 2 3 1 4 21 5 19 6 18 7 16 8 15 9 14 10 13 11 5 12
REMARK SMILES IDX 6 13 7 14 8 15 12 16 10 17 9 18 11 20 20 22 17 24
REMARK H PARENT 9 19 11 21 20 23 17 25
REMARK Flexibility Score: inf
ROOT
ATOM      1  C   UNL     1       4.865  26.854  60.376  1.00  0.00     0.138 A 
ATOM      2  C   UNL     1       3.848  26.266  61.140  1.00  0.00     0.100 A 
ATOM      3  C   UNL     1       4.174  25.307  62.101  1.00  0.00     0.197 A 
ATOM      4  O   UNL     1       3.235  24.753  62.728  1.00  0.00    -0.289 OA
ATOM      5  C   UNL     1       5.529  24.961  62.317  1.00  0.00     0.107 A 
ATOM      6  C   UNL     1       5.981  24.027  63.297  1.00  0.00     0.134 A 
ATOM      7  C   UNL     1       7.337  23.676  63.340  1.00  0.00     0.093 A 
ATOM      8  C   UNL     1       8.263  24.268  62.483  1.00  0.00     0.123 A 
ATOM      9  C   UNL     1       7.839  25.223  61.557  1.00  0.00     0.094 A 
ATOM     10  C   UNL     1       6.489  25.569  61.465  1.00  0.00     0.146 A 
ATOM     11  O   UNL     1       6.123  26.471  60.560  1.00  0.00    -0.456 OA
ENDROOT
BRANCH   1  12
ATOM     12  C   UNL     1       4.574  27.879  59.341  1.00  0.00     0.021 A 
ATOM     13  C   UNL     1       3.239  28.223  59.064  1.00  0.00     0.016 A 
ATOM     14  C   UNL     1       2.939  29.179  58.090  1.00  0.00     0.051 A 
ATOM     15  C   UNL     1       3.967  29.800  57.369  1.00  0.00     0.157 A 
ATOM     16  C   UNL     1       5.602  28.499  58.603  1.00  0.00     0.062 A 
ATOM     17  C   UNL     1       5.303  29.455  57.626  1.00  0.00     0.158 A 
BRANCH  15  18
ATOM     18  O   UNL     1       3.664  30.755  56.400  1.00  0.00    -0.504 OA
ATOM     19  H   UNL     1       4.319  30.987  55.661  1.00  0.00     0.293 HD
ENDBRANCH  15  18
BRANCH  17  20
ATOM     20  O   UNL     1       6.349  30.047  56.917  1.00  0.00    -0.504 OA
ATOM     21  H   UNL     1       6.864  29.548  56.202  1.00  0.00     0.293 HD
ENDBRANCH  17  20
ENDBRANCH   1  12
BRANCH   6  22
ATOM     22  O   UNL     1       5.154  23.440  64.258  1.00  0.00    -0.507 OA
ATOM     23  H   UNL     1       4.201  23.151  64.100  1.00  0.00     0.293 HD
ENDBRANCH   6  22
BRANCH   8  24
ATOM     24  O   UNL     1       9.605  23.906  62.565  1.00  0.00    -0.508 OA
ATOM     25  H   UNL     1      10.326  24.427  62.079  1.00  0.00     0.293 HD
ENDBRANCH   8  24
TORSDOF 5
ENDMDL
MODEL 7
REMARK VINA RESULT:    -5.482      5.206      6.894
REMARK INTER + INTRA:          -6.726
REMARK INTER:                  -6.431
REMARK INTRA:                  -0.294
REMARK UNBOUND:                -0.282
REMARK SMILES O=c1cc(-c2ccc(O)c(O)c2)oc2cc(O)cc(O)c12
REMARK SMILES IDX 4 1 3 2 2 3 1 4 21 5 19 6 18 7 16 8 15 9 14 10 13 11 5 12
REMARK SMILES IDX 6 13 7 14 8 15 12 16 10 17 9 18 11 20 20 22 17 24
REMARK H PARENT 9 19 11 21 20 23 17 25
REMARK Flexibility Score: inf
ROOT
ATOM      1  C   UNL     1       4.972  31.175  62.155  1.00  0.00     0.138 A 
ATOM      2  C   UNL     1       5.341  30.059  62.916  1.00  0.00     0.100 A 
ATOM      3  C   UNL     1       5.114  28.775  62.415  1.00  0.00     0.197 A 
ATOM      4  O   UNL     1       5.400  27.793  63.147  1.00  0.00    -0.289 OA
ATOM      5  C   UNL     1       4.544  28.614  61.130  1.00  0.00     0.107 A 
ATOM      6  C   UNL     1       4.304  27.356  60.500  1.00  0.00     0.134 A 
ATOM      7  C   UNL     1       3.626  27.316  59.275  1.00  0.00     0.093 A 
ATOM      8  C   UNL     1       3.234  28.488  58.629  1.00  0.00     0.123 A 
ATOM      9  C   UNL     1       3.511  29.726  59.211  1.00  0.00     0.094 A 
ATOM     10  C   UNL     1       4.155  29.798  60.449  1.00  0.00     0.146 A 
ATOM     11  O   UNL     1       4.387  30.996  60.976  1.00  0.00    -0.456 OA
ENDROOT
BRANCH   1  12
ATOM     12  C   UNL     1       5.191  32.562  62.641  1.00  0.00     0.021 A 
ATOM     13  C   UNL     1       4.889  32.883  63.976  1.00  0.00     0.016 A 
ATOM     14  C   UNL     1       5.078  34.182  64.454  1.00  0.00     0.051 A 
ATOM     15  C   UNL     1       5.564  35.185  63.606  1.00  0.00     0.157 A 
ATOM     16  C   UNL     1       5.666  33.578  61.789  1.00  0.00     0.062 A 
ATOM     17  C   UNL     1       5.855  34.880  62.266  1.00  0.00     0.158 A 
BRANCH  15  18
ATOM     18  O   UNL     1       5.754  36.479  64.087  1.00  0.00    -0.504 OA
ATOM     19  H   UNL     1       5.173  36.861  64.824  1.00  0.00     0.293 HD
ENDBRANCH  15  18
BRANCH  17  20
ATOM     20  O   UNL     1       6.329  35.859  61.392  1.00  0.00    -0.504 OA
ATOM     21  H   UNL     1       6.658  35.635  60.460  1.00  0.00     0.293 HD
ENDBRANCH  17  20
ENDBRANCH   1  12
BRANCH   6  22
ATOM     22  O   UNL     1       4.730  26.130  61.018  1.00  0.00    -0.507 OA
ATOM     23  H   UNL     1       4.146  25.486  61.530  1.00  0.00     0.293 HD
ENDBRANCH   6  22
BRANCH   8  24
ATOM     24  O   UNL     1       2.575  28.411  57.405  1.00  0.00    -0.508 OA
ATOM     25  H   UNL     1       2.312  27.520  56.999  1.00  0.00     0.293 HD
ENDBRANCH   8  24
TORSDOF 5
ENDMDL
MODEL 8
REMARK VINA RESULT:    -5.437      2.135      7.208
REMARK INTER + INTRA:          -6.673
REMARK INTER:                  -6.378
REMARK INTRA:                  -0.295
REMARK UNBOUND:                -0.282
REMARK SMILES O=c1cc(-c2ccc(O)c(O)c2)oc2cc(O)cc(O)c12
REMARK SMILES IDX 4 1 3 2 2 3 1 4 21 5 19 6 18 7 16 8 15 9 14 10 13 11 5 12
REMARK SMILES IDX 6 13 7 14 8 15 12 16 10 17 9 18 11 20 20 22 17 24
REMARK H PARENT 9 19 11 21 20 23 17 25
REMARK Flexibility Score: inf
ROOT
ATOM      1  C   UNL     1       7.067  26.965  60.155  1.00  0.00     0.138 A 
ATOM      2  C   UNL     1       6.696  27.412  58.880  1.00  0.00     0.100 A 
ATOM      3  C   UNL     1       5.470  28.056  58.704  1.00  0.00     0.197 A 
ATOM      4  O   UNL     1       5.137  28.391  57.538  1.00  0.00    -0.289 OA
ATOM      5  C   UNL     1       4.628  28.280  59.819  1.00  0.00     0.107 A 
ATOM      6  C   UNL     1       3.375  28.962  59.766  1.00  0.00     0.134 A 
ATOM      7  C   UNL     1       2.573  29.021  60.913  1.00  0.00     0.093 A 
ATOM      8  C   UNL     1       3.004  28.479  62.123  1.00  0.00     0.123 A 
ATOM      9  C   UNL     1       4.251  27.857  62.199  1.00  0.00     0.094 A 
ATOM     10  C   UNL     1       5.059  27.751  61.065  1.00  0.00     0.146 A 
ATOM     11  O   UNL     1       6.233  27.139  61.175  1.00  0.00    -0.456 OA
ENDROOT
BRANCH   1  12
ATOM     12  C   UNL     1       8.360  26.275  60.399  1.00  0.00     0.021 A 
ATOM     13  C   UNL     1       8.551  25.568  61.599  1.00  0.00     0.016 A 
ATOM     14  C   UNL     1       9.761  24.917  61.855  1.00  0.00     0.051 A 
ATOM     15  C   UNL     1      10.803  24.970  60.921  1.00  0.00     0.157 A 
ATOM     16  C   UNL     1       9.417  26.335  59.470  1.00  0.00     0.062 A 
ATOM     17  C   UNL     1      10.630  25.685  59.725  1.00  0.00     0.158 A 
BRANCH  15  18
ATOM     18  O   UNL     1      12.008  24.318  61.179  1.00  0.00    -0.504 OA
ATOM     19  H   UNL     1      12.764  24.312  60.503  1.00  0.00     0.293 HD
ENDBRANCH  15  18
BRANCH  17  20
ATOM     20  O   UNL     1      11.653  25.767  58.781  1.00  0.00    -0.504 OA
ATOM     21  H   UNL     1      11.635  25.232  57.920  1.00  0.00     0.293 HD
ENDBRANCH  17  20
ENDBRANCH   1  12
BRANCH   6  22
ATOM     22  O   UNL     1       2.887  29.613  58.630  1.00  0.00    -0.507 OA
ATOM     23  H   UNL     1       1.926  29.598  58.324  1.00  0.00     0.293 HD
ENDBRANCH   6  22
BRANCH   8  24
ATOM     24  O   UNL     1       2.186  28.570  63.247  1.00  0.00    -0.508 OA
ATOM     25  H   UNL     1       1.474  29.286  63.328  1.00  0.00     0.293 HD
ENDBRANCH   8  24
TORSDOF 5
ENDMDL
MODEL 9
REMARK VINA RESULT:    -5.232      1.424      3.335
REMARK INTER + INTRA:          -6.432
REMARK INTER:                  -6.150
REMARK INTRA:                  -0.282
REMARK UNBOUND:                -0.282
REMARK SMILES O=c1cc(-c2ccc(O)c(O)c2)oc2cc(O)cc(O)c12
REMARK SMILES IDX 4 1 3 2 2 3 1 4 21 5 19 6 18 7 16 8 15 9 14 10 13 11 5 12
REMARK SMILES IDX 6 13 7 14 8 15 12 16 10 17 9 18 11 20 20 22 17 24
REMARK H PARENT 9 19 11 21 20 23 17 25
REMARK Flexibility Score: inf
ROOT
ATOM      1  C   UNL     1       7.394  26.623  59.904  1.00  0.00     0.138 A 
ATOM      2  C   UNL     1       8.645  26.719  59.279  1.00  0.00     0.100 A 
ATOM      3  C   UNL     1       9.775  26.198  59.912  1.00  0.00     0.197 A 
ATOM      4  O   UNL     1      10.892  26.354  59.355  1.00  0.00    -0.289 OA
ATOM      5  C   UNL     1       9.643  25.549  61.163  1.00  0.00     0.107 A 
ATOM      6  C   UNL     1      10.718  24.944  61.880  1.00  0.00     0.134 A 
ATOM      7  C   UNL     1      10.488  24.434  63.165  1.00  0.00     0.093 A 
ATOM      8  C   UNL     1       9.214  24.451  63.731  1.00  0.00     0.123 A 
ATOM      9  C   UNL     1       8.145  24.991  63.015  1.00  0.00     0.094 A 
ATOM     10  C   UNL     1       8.348  25.540  61.746  1.00  0.00     0.146 A 
ATOM     11  O   UNL     1       7.306  26.058  61.103  1.00  0.00    -0.456 OA
ENDROOT
BRANCH   1  12
ATOM     12  C   UNL     1       6.160  27.160  59.275  1.00  0.00     0.021 A 
ATOM     13  C   UNL     1       4.952  26.453  59.409  1.00  0.00     0.016 A 
ATOM     14  C   UNL     1       3.780  26.933  58.820  1.00  0.00     0.051 A 
ATOM     15  C   UNL     1       3.795  28.121  58.079  1.00  0.00     0.157 A 
ATOM     16  C   UNL     1       6.172  28.347  58.517  1.00  0.00     0.062 A 
ATOM     17  C   UNL     1       4.999  28.828  57.925  1.00  0.00     0.158 A 
BRANCH  15  18
ATOM     18  O   UNL     1       2.623  28.598  57.495  1.00  0.00    -0.504 OA
ATOM     19  H   UNL     1       2.022  29.259  57.973  1.00  0.00     0.293 HD
ENDBRANCH  15  18
BRANCH  17  20
ATOM     20  O   UNL     1       5.050  30.009  57.183  1.00  0.00    -0.504 OA
ATOM     21  H   UNL     1       5.158  30.007  56.176  1.00  0.00     0.293 HD
ENDBRANCH  17  20
ENDBRANCH   1  12
BRANCH   6  22
ATOM     22  O   UNL     1      12.012  24.798  61.373  1.00  0.00    -0.507 OA
ATOM     23  H   UNL     1      12.234  24.525  60.428  1.00  0.00     0.293 HD
ENDBRANCH   6  22
BRANCH   8  24
ATOM     24  O   UNL     1       9.020  23.920  65.004  1.00  0.00    -0.508 OA
ATOM     25  H   UNL     1       8.885  24.516  65.812  1.00  0.00     0.293 HD
ENDBRANCH   8  24
TORSDOF 5
ENDMDL
