MODEL 1
REMARK VINA RESULT:    30.494      0.000      0.000
REMARK INTER + INTRA:          33.306
REMARK INTER:                  33.168
REMARK INTRA:                   0.138
REMARK UNBOUND:                 0.138
REMARK SMILES CC1(C)CC[C@]2(C(=O)[O-])CC[C@@]3(C)C(=CC[C@H]4[C@@]5(C)CC[C@@H](O)C(C)(C)[C@@H]5CC[C@@]43C)[C@@H]2C1
REMARK SMILES IDX 6 1 5 2 10 3 32 4 4 5 11 6 14 7 33 8 2 9 12 10 15 11 1 12
REMARK SMILES IDX 3 13 13 14 30 15 16 16 17 17 29 18 31 19 18 20 28 21 27 22
REMARK SMILES IDX 20 23 19 24 24 25 21 26 22 27 25 28 26 29 7 30 8 31 9 32
REMARK SMILES IDX 23 33
REMARK H PARENT 23 34
REMARK Flexibility Score: inf
ROOT
ATOM      1  C   UNL     1      45.125  27.866   3.811  1.00  0.00     0.017 C 
ATOM      2  C   UNL     1      45.040  27.164   5.202  1.00  0.00     0.014 C 
ATOM      3  C   UNL     1      43.687  28.116   3.233  1.00  0.00     0.014 C 
ATOM      4  C   UNL     1      45.988  27.007   2.834  1.00  0.00     0.028 C 
ATOM      5  C   UNL     1      44.644  25.679   5.149  1.00  0.00     0.007 C 
ATOM      6  C   UNL     1      43.535  28.055   1.690  1.00  0.00     0.013 C 
ATOM      7  C   UNL     1      46.009  27.577   1.417  1.00  0.00    -0.064 C 
ATOM      8  C   UNL     1      45.539  25.524   2.794  1.00  0.00     0.015 C 
ATOM      9  C   UNL     1      45.519  24.846   4.184  1.00  0.00    -0.035 C 
ATOM     10  C   UNL     1      44.819  28.385   0.863  1.00  0.00    -0.006 C 
ATOM     11  C   UNL     1      47.078  27.278   0.631  1.00  0.00    -0.027 C 
ATOM     12  C   UNL     1      44.892  23.442   4.036  1.00  0.00     0.011 C 
ATOM     13  C   UNL     1      46.951  24.667   4.743  1.00  0.00     0.011 C 
ATOM     14  C   UNL     1      45.141  29.908   1.075  1.00  0.00     0.017 C 
ATOM     15  C   UNL     1      44.633  27.994  -0.690  1.00  0.00    -0.020 C 
ATOM     16  C   UNL     1      47.124  27.461  -0.874  1.00  0.00     0.032 C 
ATOM     17  C   UNL     1      45.980  28.349  -1.427  1.00  0.00     0.006 C 
ATOM     18  C   UNL     1      43.475  28.781  -1.378  1.00  0.00     0.008 C 
ATOM     19  C   UNL     1      44.309  26.453  -0.799  1.00  0.00     0.012 C 
ATOM     20  C   UNL     1      45.902  28.577  -3.024  1.00  0.00    -0.025 C 
ATOM     21  C   UNL     1      43.285  28.458  -2.874  1.00  0.00     0.005 C 
ATOM     22  C   UNL     1      44.567  27.987  -3.619  1.00  0.00     0.003 C 
ATOM     23  C   UNL     1      47.100  27.892  -3.756  1.00  0.00     0.010 C 
ATOM     24  C   UNL     1      45.993  30.115  -3.277  1.00  0.00     0.012 C 
ATOM     25  C   UNL     1      44.433  27.957  -5.202  1.00  0.00    -0.006 C 
ATOM     26  C   UNL     1      47.012  27.933  -5.289  1.00  0.00     0.033 C 
ATOM     27  C   UNL     1      45.711  27.295  -5.813  1.00  0.00     0.120 C 
ATOM     28  C   UNL     1      43.205  27.083  -5.586  1.00  0.00     0.014 C 
ATOM     29  C   UNL     1      44.202  29.348  -5.872  1.00  0.00     0.014 C 
ENDROOT
BRANCH   1  30
ATOM     30  C   UNL     1      45.804  29.207   4.085  1.00  0.00     0.048 C 
ATOM     31  O   UNL     1      45.219  30.120   4.730  1.00  0.00    -0.550 OA
ATOM     32  O   UNL     1      47.061  29.472   3.551  1.00  0.00    -0.550 OA
ENDBRANCH   1  30
BRANCH  27  33
ATOM     33  O   UNL     1      45.730  25.917  -5.528  1.00  0.00    -0.393 OA
ATOM     34  H   UNL     1      46.236  25.801  -4.681  1.00  0.00     0.210 HD
ENDBRANCH  27  33
TORSDOF 2
ENDMDL
MODEL 2
REMARK VINA RESULT:    32.078      1.870      3.438
REMARK INTER + INTRA:          35.029
REMARK INTER:                  34.690
REMARK INTRA:                   0.339
REMARK UNBOUND:                 0.138
REMARK SMILES CC1(C)CC[C@]2(C(=O)[O-])CC[C@@]3(C)C(=CC[C@H]4[C@@]5(C)CC[C@@H](O)C(C)(C)[C@@H]5CC[C@@]43C)[C@@H]2C1
REMARK SMILES IDX 6 1 5 2 10 3 32 4 4 5 11 6 14 7 33 8 2 9 12 10 15 11 1 12
REMARK SMILES IDX 3 13 13 14 30 15 16 16 17 17 29 18 31 19 18 20 28 21 27 22
REMARK SMILES IDX 20 23 19 24 24 25 21 26 22 27 25 28 26 29 7 30 8 31 9 32
REMARK SMILES IDX 23 33
REMARK H PARENT 23 34
REMARK Flexibility Score: inf
ROOT
ATOM      1  C   UNL     1      45.111  28.345   2.738  1.00  0.00     0.017 C 
ATOM      2  C   UNL     1      44.443  28.712   4.099  1.00  0.00     0.014 C 
ATOM      3  C   UNL     1      45.863  29.588   2.143  1.00  0.00     0.014 C 
ATOM      4  C   UNL     1      44.035  27.804   1.745  1.00  0.00     0.028 C 
ATOM      5  C   UNL     1      43.190  29.597   3.982  1.00  0.00     0.007 C 
ATOM      6  C   UNL     1      45.905  29.704   0.596  1.00  0.00     0.013 C 
ATOM      7  C   UNL     1      44.604  27.542   0.352  1.00  0.00    -0.064 C 
ATOM      8  C   UNL     1      42.803  28.738   1.641  1.00  0.00     0.015 C 
ATOM      9  C   UNL     1      42.133  29.035   3.002  1.00  0.00    -0.035 C 
ATOM     10  C   UNL     1      45.791  28.361  -0.193  1.00  0.00    -0.006 C 
ATOM     11  C   UNL     1      43.974  26.620  -0.425  1.00  0.00    -0.027 C 
ATOM     12  C   UNL     1      41.040  30.106   2.789  1.00  0.00     0.011 C 
ATOM     13  C   UNL     1      41.451  27.772   3.581  1.00  0.00     0.011 C 
ATOM     14  C   UNL     1      47.100  27.536   0.084  1.00  0.00     0.017 C 
ATOM     15  C   UNL     1      45.535  28.623  -1.763  1.00  0.00    -0.020 C 
ATOM     16  C   UNL     1      44.174  26.466  -1.920  1.00  0.00     0.032 C 
ATOM     17  C   UNL     1      45.421  27.214  -2.460  1.00  0.00     0.006 C 
ATOM     18  C   UNL     1      46.695  29.413  -2.442  1.00  0.00     0.008 C 
ATOM     19  C   UNL     1      44.207  29.457  -1.937  1.00  0.00     0.012 C 
ATOM     20  C   UNL     1      45.708  27.158  -4.049  1.00  0.00    -0.025 C 
ATOM     21  C   UNL     1      46.503  29.657  -3.953  1.00  0.00     0.005 C 
ATOM     22  C   UNL     1      45.638  28.595  -4.691  1.00  0.00     0.003 C 
ATOM     23  C   UNL     1      44.672  26.249  -4.783  1.00  0.00     0.010 C 
ATOM     24  C   UNL     1      47.125  26.531  -4.241  1.00  0.00     0.012 C 
ATOM     25  C   UNL     1      45.703  28.682  -6.276  1.00  0.00    -0.006 C 
ATOM     26  C   UNL     1      44.786  26.270  -6.315  1.00  0.00     0.033 C 
ATOM     27  C   UNL     1      44.656  27.695  -6.888  1.00  0.00     0.120 C 
ATOM     28  C   UNL     1      45.322  30.124  -6.717  1.00  0.00     0.014 C 
ATOM     29  C   UNL     1      47.106  28.395  -6.896  1.00  0.00     0.014 C 
ENDROOT
BRANCH   1  30
ATOM     30  C   UNL     1      46.124  27.252   3.077  1.00  0.00     0.048 C 
ATOM     31  O   UNL     1      46.065  26.112   2.542  1.00  0.00    -0.550 OA
ATOM     32  O   UNL     1      47.090  27.478   4.053  1.00  0.00    -0.550 OA
ENDBRANCH   1  30
BRANCH  27  33
ATOM     33  O   UNL     1      43.349  28.164  -6.656  1.00  0.00    -0.393 OA
ATOM     34  H   UNL     1      42.915  27.523  -6.034  1.00  0.00     0.210 HD
ENDBRANCH  27  33
TORSDOF 2
ENDMDL
