MODEL 1
REMARK VINA RESULT:    -7.343      0.000      0.000
REMARK INTER + INTRA:         -11.231
REMARK INTER:                  -9.704
REMARK INTRA:                  -1.527
REMARK UNBOUND:                -1.527
REMARK SMILES CC[C@H](C=C[C@H](C)[C@@H]1CC[C@@H]2C3=CC[C@@H]4C[C@@H](O)CC[C@@]4(C)[C@H]3CC[C@@]21C)C(C)C
REMARK SMILES IDX 6 1 7 2 5 3 4 4 3 5 2 6 1 7 28 8 29 9 30 10 8 11 9 12 26 13
REMARK SMILES IDX 10 14 11 15 25 16 27 17 12 18 24 19 23 20 13 21 21 22 14 23
REMARK SMILES IDX 15 24 20 25 22 26 16 27 19 28 17 29 18 30
REMARK H PARENT 18 31
REMARK Flexibility Score: inf
ROOT
ATOM      1  C   UNL     1     110.008 118.752 123.910  1.00  0.00     0.012 C 
ATOM      2  C   UNL     1     108.875 118.770 122.873  1.00  0.00     0.012 C 
ENDROOT
BRANCH   1   3
ATOM      3  C   UNL     1     110.670 120.114 123.945  1.00  0.00    -0.028 C 
ATOM      4  C   UNL     1     112.005 120.275 124.028  1.00  0.00    -0.027 C 
BRANCH   4   5
ATOM      5  C   UNL     1     112.655 121.644 124.096  1.00  0.00     0.014 C 
BRANCH   5   6
ATOM      6  C   UNL     1     112.080 122.445 125.301  1.00  0.00     0.004 C 
ATOM      7  C   UNL     1     112.377 121.782 126.648  1.00  0.00     0.004 C 
ENDBRANCH   5   6
BRANCH   5   8
ATOM      8  C   UNL     1     114.212 121.516 124.126  1.00  0.00    -0.011 C 
ATOM      9  C   UNL     1     114.870 122.123 122.876  1.00  0.00     0.008 C 
ATOM     10  C   UNL     1     114.650 120.044 124.254  1.00  0.00     0.008 C 
ENDBRANCH   5   8
ENDBRANCH   4   5
ENDBRANCH   1   3
BRANCH   1  11
ATOM     11  C   UNL     1     109.532 118.303 125.335  1.00  0.00     0.002 C 
ATOM     12  C   UNL     1     109.401 119.499 126.299  1.00  0.00     0.005 C 
ATOM     13  C   UNL     1     110.411 117.270 126.109  1.00  0.00    -0.023 C 
ATOM     14  C   UNL     1     109.639 118.978 127.714  1.00  0.00     0.009 C 
ATOM     15  C   UNL     1     109.944 117.486 127.571  1.00  0.00     0.021 C 
ATOM     16  C   UNL     1     111.937 117.573 125.944  1.00  0.00     0.008 C 
ATOM     17  C   UNL     1     110.104 115.810 125.690  1.00  0.00     0.012 C 
ATOM     18  C   UNL     1     110.945 116.965 128.591  1.00  0.00    -0.067 C 
ATOM     19  C   UNL     1     112.835 116.929 127.018  1.00  0.00     0.009 C 
ATOM     20  C   UNL     1     112.402 117.383 128.428  1.00  0.00     0.021 C 
ATOM     21  C   UNL     1     110.570 115.963 129.420  1.00  0.00    -0.027 C 
ATOM     22  C   UNL     1     113.311 116.920 129.632  1.00  0.00    -0.023 C 
ATOM     23  C   UNL     1     111.504 115.269 130.373  1.00  0.00     0.031 C 
ATOM     24  C   UNL     1     112.981 115.436 129.978  1.00  0.00     0.002 C 
ATOM     25  C   UNL     1     114.828 117.025 129.289  1.00  0.00     0.010 C 
ATOM     26  C   UNL     1     113.006 117.873 130.830  1.00  0.00     0.012 C 
ATOM     27  C   UNL     1     113.903 114.848 131.072  1.00  0.00     0.036 C 
ATOM     28  C   UNL     1     115.733 116.474 130.401  1.00  0.00     0.032 C 
ATOM     29  C   UNL     1     115.395 115.011 130.726  1.00  0.00     0.114 C 
BRANCH  29  30
ATOM     30  O   UNL     1     115.731 114.196 129.633  1.00  0.00    -0.393 OA
ATOM     31  H   UNL     1     116.506 113.641 129.914  1.00  0.00     0.210 HD
ENDBRANCH  29  30
ENDBRANCH   1  11
TORSDOF 6
ENDMDL
MODEL 2
REMARK VINA RESULT:    -7.304      2.290      4.837
REMARK INTER + INTRA:         -11.180
REMARK INTER:                  -9.608
REMARK INTRA:                  -1.573
REMARK UNBOUND:                -1.527
REMARK SMILES CC[C@H](C=C[C@H](C)[C@@H]1CC[C@@H]2C3=CC[C@@H]4C[C@@H](O)CC[C@@]4(C)[C@H]3CC[C@@]21C)C(C)C
REMARK SMILES IDX 6 1 7 2 5 3 4 4 3 5 2 6 1 7 28 8 29 9 30 10 8 11 9 12 26 13
REMARK SMILES IDX 10 14 11 15 25 16 27 17 12 18 24 19 23 20 13 21 21 22 14 23
REMARK SMILES IDX 15 24 20 25 22 26 16 27 19 28 17 29 18 30
REMARK H PARENT 18 31
REMARK Flexibility Score: inf
ROOT
ATOM      1  C   UNL     1     115.432 121.711 124.406  1.00  0.00     0.012 C 
ATOM      2  C   UNL     1     116.385 121.973 123.230  1.00  0.00     0.012 C 
ENDROOT
BRANCH   1   3
ATOM      3  C   UNL     1     115.106 123.027 125.082  1.00  0.00    -0.028 C 
ATOM      4  C   UNL     1     115.032 123.163 126.420  1.00  0.00    -0.027 C 
BRANCH   4   5
ATOM      5  C   UNL     1     114.671 124.479 127.084  1.00  0.00     0.014 C 
BRANCH   5   6
ATOM      6  C   UNL     1     115.028 125.664 126.140  1.00  0.00     0.004 C 
ATOM      7  C   UNL     1     116.410 126.256 126.429  1.00  0.00     0.004 C 
ENDBRANCH   5   6
BRANCH   5   8
ATOM      8  C   UNL     1     113.175 124.477 127.535  1.00  0.00    -0.011 C 
ATOM      9  C   UNL     1     112.980 125.149 128.904  1.00  0.00     0.008 C 
ATOM     10  C   UNL     1     112.611 123.044 127.599  1.00  0.00     0.008 C 
ENDBRANCH   5   8
ENDBRANCH   4   5
ENDBRANCH   1   3
BRANCH   1  11
ATOM     11  C   UNL     1     114.134 120.937 123.988  1.00  0.00     0.002 C 
ATOM     12  C   UNL     1     112.883 121.835 124.061  1.00  0.00     0.005 C 
ATOM     13  C   UNL     1     113.750 119.660 124.801  1.00  0.00    -0.023 C 
ATOM     14  C   UNL     1     111.685 120.931 124.342  1.00  0.00     0.009 C 
ATOM     15  C   UNL     1     112.243 119.513 124.468  1.00  0.00     0.021 C 
ATOM     16  C   UNL     1     113.980 119.862 126.335  1.00  0.00     0.008 C 
ATOM     17  C   UNL     1     114.504 118.401 124.304  1.00  0.00     0.012 C 
ATOM     18  C   UNL     1     111.500 118.650 125.476  1.00  0.00    -0.067 C 
ATOM     19  C   UNL     1     113.207 118.875 127.231  1.00  0.00     0.009 C 
ATOM     20  C   UNL     1     111.691 118.967 126.954  1.00  0.00     0.021 C 
ATOM     21  C   UNL     1     110.929 117.498 125.053  1.00  0.00    -0.027 C 
ATOM     22  C   UNL     1     110.748 118.118 127.891  1.00  0.00    -0.023 C 
ATOM     23  C   UNL     1     110.289 116.493 125.971  1.00  0.00     0.031 C 
ATOM     24  C   UNL     1     110.772 116.631 127.424  1.00  0.00     0.002 C 
ATOM     25  C   UNL     1     111.200 118.179 129.382  1.00  0.00     0.010 C 
ATOM     26  C   UNL     1     109.317 118.735 127.782  1.00  0.00     0.012 C 
ATOM     27  C   UNL     1     109.967 115.690 128.353  1.00  0.00     0.036 C 
ATOM     28  C   UNL     1     110.367 117.270 130.299  1.00  0.00     0.032 C 
ATOM     29  C   UNL     1     110.405 115.809 129.824  1.00  0.00     0.114 C 
BRANCH  29  30
ATOM     30  O   UNL     1     111.701 115.294 129.988  1.00  0.00    -0.393 OA
ATOM     31  H   UNL     1     111.602 114.335 130.229  1.00  0.00     0.210 HD
ENDBRANCH  29  30
ENDBRANCH   1  11
TORSDOF 6
ENDMDL
MODEL 3
REMARK VINA RESULT:    -7.058      2.541      6.369
REMARK INTER + INTRA:         -10.855
REMARK INTER:                  -9.926
REMARK INTRA:                  -0.929
REMARK UNBOUND:                -1.527
REMARK SMILES CC[C@H](C=C[C@H](C)[C@@H]1CC[C@@H]2C3=CC[C@@H]4C[C@@H](O)CC[C@@]4(C)[C@H]3CC[C@@]21C)C(C)C
REMARK SMILES IDX 6 1 7 2 5 3 4 4 3 5 2 6 1 7 28 8 29 9 30 10 8 11 9 12 26 13
REMARK SMILES IDX 10 14 11 15 25 16 27 17 12 18 24 19 23 20 13 21 21 22 14 23
REMARK SMILES IDX 15 24 20 25 22 26 16 27 19 28 17 29 18 30
REMARK H PARENT 18 31
REMARK Flexibility Score: inf
ROOT
ATOM      1  C   UNL     1     110.697 116.365 128.118  1.00  0.00     0.012 C 
ATOM      2  C   UNL     1     109.298 115.871 128.516  1.00  0.00     0.012 C 
ENDROOT
BRANCH   1   3
ATOM      3  C   UNL     1     110.950 116.020 126.665  1.00  0.00    -0.028 C 
ATOM      4  C   UNL     1     109.956 115.840 125.774  1.00  0.00    -0.027 C 
BRANCH   4   5
ATOM      5  C   UNL     1     110.222 115.461 124.328  1.00  0.00     0.014 C 
BRANCH   5   6
ATOM      6  C   UNL     1     109.797 116.626 123.388  1.00  0.00     0.004 C 
ATOM      7  C   UNL     1     109.363 117.877 124.155  1.00  0.00     0.004 C 
ENDBRANCH   5   6
BRANCH   5   8
ATOM      8  C   UNL     1     111.710 115.024 124.137  1.00  0.00    -0.011 C 
ATOM      9  C   UNL     1     112.473 115.958 123.184  1.00  0.00     0.008 C 
ATOM     10  C   UNL     1     111.805 113.582 123.602  1.00  0.00     0.008 C 
ENDBRANCH   5   8
ENDBRANCH   4   5
ENDBRANCH   1   3
BRANCH   1  11
ATOM     11  C   UNL     1     110.913 117.893 128.396  1.00  0.00     0.002 C 
ATOM     12  C   UNL     1     109.797 118.753 127.771  1.00  0.00     0.005 C 
ATOM     13  C   UNL     1     112.240 118.548 127.896  1.00  0.00    -0.023 C 
ATOM     14  C   UNL     1     110.393 120.124 127.460  1.00  0.00     0.009 C 
ATOM     15  C   UNL     1     111.864 120.051 127.871  1.00  0.00     0.021 C 
ATOM     16  C   UNL     1     112.637 118.032 126.473  1.00  0.00     0.008 C 
ATOM     17  C   UNL     1     113.409 118.334 128.891  1.00  0.00     0.012 C 
ATOM     18  C   UNL     1     112.789 120.873 126.987  1.00  0.00    -0.067 C 
ATOM     19  C   UNL     1     113.627 118.940 125.719  1.00  0.00     0.009 C 
ATOM     20  C   UNL     1     113.051 120.365 125.574  1.00  0.00     0.021 C 
ATOM     21  C   UNL     1     113.536 121.849 127.554  1.00  0.00    -0.027 C 
ATOM     22  C   UNL     1     113.886 121.380 124.702  1.00  0.00    -0.023 C 
ATOM     23  C   UNL     1     114.585 122.635 126.818  1.00  0.00     0.031 C 
ATOM     24  C   UNL     1     115.079 121.919 125.550  1.00  0.00     0.002 C 
ATOM     25  C   UNL     1     114.454 120.711 123.413  1.00  0.00     0.010 C 
ATOM     26  C   UNL     1     112.916 122.528 124.279  1.00  0.00     0.012 C 
ATOM     27  C   UNL     1     116.031 122.836 124.745  1.00  0.00     0.036 C 
ATOM     28  C   UNL     1     115.366 121.647 122.604  1.00  0.00     0.032 C 
ATOM     29  C   UNL     1     116.535 122.164 123.455  1.00  0.00     0.114 C 
BRANCH  29  30
ATOM     30  O   UNL     1     117.397 121.101 123.767  1.00  0.00    -0.393 OA
ATOM     31  H   UNL     1     118.174 121.491 124.250  1.00  0.00     0.210 HD
ENDBRANCH  29  30
ENDBRANCH   1  11
TORSDOF 6
ENDMDL
MODEL 4
REMARK VINA RESULT:    -6.962      3.098      4.751
REMARK INTER + INTRA:         -10.728
REMARK INTER:                  -9.449
REMARK INTRA:                  -1.279
REMARK UNBOUND:                -1.527
REMARK SMILES CC[C@H](C=C[C@H](C)[C@@H]1CC[C@@H]2C3=CC[C@@H]4C[C@@H](O)CC[C@@]4(C)[C@H]3CC[C@@]21C)C(C)C
REMARK SMILES IDX 6 1 7 2 5 3 4 4 3 5 2 6 1 7 28 8 29 9 30 10 8 11 9 12 26 13
REMARK SMILES IDX 10 14 11 15 25 16 27 17 12 18 24 19 23 20 13 21 21 22 14 23
REMARK SMILES IDX 15 24 20 25 22 26 16 27 19 28 17 29 18 30
REMARK H PARENT 18 31
REMARK Flexibility Score: inf
ROOT
ATOM      1  C   UNL     1     111.755 122.971 124.803  1.00  0.00     0.012 C 
ATOM      2  C   UNL     1     111.072 124.332 125.005  1.00  0.00     0.012 C 
ENDROOT
BRANCH   1   3
ATOM      3  C   UNL     1     113.250 123.135 124.981  1.00  0.00    -0.028 C 
ATOM      4  C   UNL     1     114.068 123.517 123.981  1.00  0.00    -0.027 C 
BRANCH   4   5
ATOM      5  C   UNL     1     115.569 123.646 124.164  1.00  0.00     0.014 C 
BRANCH   5   6
ATOM      6  C   UNL     1     115.905 123.836 125.672  1.00  0.00     0.004 C 
ATOM      7  C   UNL     1     115.986 125.309 126.078  1.00  0.00     0.004 C 
ENDBRANCH   5   6
BRANCH   5   8
ATOM      8  C   UNL     1     116.310 122.433 123.513  1.00  0.00    -0.011 C 
ATOM      9  C   UNL     1     115.365 121.552 122.681  1.00  0.00     0.008 C 
ATOM     10  C   UNL     1     116.995 121.558 124.581  1.00  0.00     0.008 C 
ENDBRANCH   5   8
ENDBRANCH   4   5
ENDBRANCH   1   3
BRANCH   1  11
ATOM     11  C   UNL     1     111.181 121.848 125.734  1.00  0.00     0.002 C 
ATOM     12  C   UNL     1     112.120 121.550 126.919  1.00  0.00     0.005 C 
ATOM     13  C   UNL     1     110.891 120.449 125.101  1.00  0.00    -0.023 C 
ATOM     14  C   UNL     1     111.902 120.094 127.324  1.00  0.00     0.009 C 
ATOM     15  C   UNL     1     110.864 119.534 126.351  1.00  0.00     0.021 C 
ATOM     16  C   UNL     1     112.019 120.023 124.104  1.00  0.00     0.008 C 
ATOM     17  C   UNL     1     109.508 120.398 124.404  1.00  0.00     0.012 C 
ATOM     18  C   UNL     1     111.071 118.067 126.010  1.00  0.00    -0.067 C 
ATOM     19  C   UNL     1     112.070 118.512 123.808  1.00  0.00     0.009 C 
ATOM     20  C   UNL     1     112.252 117.711 125.114  1.00  0.00     0.021 C 
ATOM     21  C   UNL     1     110.079 117.187 126.281  1.00  0.00    -0.027 C 
ATOM     22  C   UNL     1     112.463 116.154 124.967  1.00  0.00    -0.023 C 
ATOM     23  C   UNL     1     110.106 115.741 125.868  1.00  0.00     0.031 C 
ATOM     24  C   UNL     1     111.083 115.475 124.710  1.00  0.00     0.002 C 
ATOM     25  C   UNL     1     113.417 115.806 123.784  1.00  0.00     0.010 C 
ATOM     26  C   UNL     1     113.115 115.652 126.294  1.00  0.00     0.012 C 
ATOM     27  C   UNL     1     111.195 113.957 124.434  1.00  0.00     0.036 C 
ATOM     28  C   UNL     1     113.549 114.293 123.547  1.00  0.00     0.032 C 
ATOM     29  C   UNL     1     112.180 113.643 123.293  1.00  0.00     0.114 C 
BRANCH  29  30
ATOM     30  O   UNL     1     111.663 114.095 122.069  1.00  0.00    -0.393 OA
ATOM     31  H   UNL     1     110.852 114.630 122.277  1.00  0.00     0.210 HD
ENDBRANCH  29  30
ENDBRANCH   1  11
TORSDOF 6
ENDMDL
MODEL 5
REMARK VINA RESULT:    -6.789      2.622      7.060
REMARK INTER + INTRA:         -10.499
REMARK INTER:                  -8.942
REMARK INTRA:                  -1.557
REMARK UNBOUND:                -1.527
REMARK SMILES CC[C@H](C=C[C@H](C)[C@@H]1CC[C@@H]2C3=CC[C@@H]4C[C@@H](O)CC[C@@]4(C)[C@H]3CC[C@@]21C)C(C)C
REMARK SMILES IDX 6 1 7 2 5 3 4 4 3 5 2 6 1 7 28 8 29 9 30 10 8 11 9 12 26 13
REMARK SMILES IDX 10 14 11 15 25 16 27 17 12 18 24 19 23 20 13 21 21 22 14 23
REMARK SMILES IDX 15 24 20 25 22 26 16 27 19 28 17 29 18 30
REMARK H PARENT 18 31
REMARK Flexibility Score: inf
ROOT
ATOM      1  C   UNL     1     110.517 116.838 128.636  1.00  0.00     0.012 C 
ATOM      2  C   UNL     1     109.262 115.965 128.777  1.00  0.00     0.012 C 
ENDROOT
BRANCH   1   3
ATOM      3  C   UNL     1     111.668 116.172 129.361  1.00  0.00    -0.028 C 
ATOM      4  C   UNL     1     112.620 116.868 130.014  1.00  0.00    -0.027 C 
BRANCH   4   5
ATOM      5  C   UNL     1     113.787 116.190 130.708  1.00  0.00     0.014 C 
BRANCH   5   6
ATOM      6  C   UNL     1     113.690 114.647 130.526  1.00  0.00     0.004 C 
ATOM      7  C   UNL     1     115.021 114.015 130.111  1.00  0.00     0.004 C 
ENDBRANCH   5   6
BRANCH   5   8
ATOM      8  C   UNL     1     115.145 116.786 130.214  1.00  0.00    -0.011 C 
ATOM      9  C   UNL     1     115.647 117.920 131.122  1.00  0.00     0.008 C 
ATOM     10  C   UNL     1     115.031 117.316 128.772  1.00  0.00     0.008 C 
ENDBRANCH   5   8
ENDBRANCH   4   5
ENDBRANCH   1   3
BRANCH   1  11
ATOM     11  C   UNL     1     110.881 117.159 127.144  1.00  0.00     0.002 C 
ATOM     12  C   UNL     1     112.138 116.396 126.684  1.00  0.00     0.005 C 
ATOM     13  C   UNL     1     111.164 118.648 126.764  1.00  0.00    -0.023 C 
ATOM     14  C   UNL     1     112.808 117.229 125.593  1.00  0.00     0.009 C 
ATOM     15  C   UNL     1     111.961 118.493 125.445  1.00  0.00     0.021 C 
ATOM     16  C   UNL     1     112.009 119.373 127.863  1.00  0.00     0.008 C 
ATOM     17  C   UNL     1     109.860 119.437 126.480  1.00  0.00     0.012 C 
ATOM     18  C   UNL     1     112.768 119.734 125.096  1.00  0.00    -0.067 C 
ATOM     19  C   UNL     1     112.724 120.649 127.378  1.00  0.00     0.009 C 
ATOM     20  C   UNL     1     113.651 120.330 126.186  1.00  0.00     0.021 C 
ATOM     21  C   UNL     1     112.478 120.403 123.956  1.00  0.00    -0.027 C 
ATOM     22  C   UNL     1     114.561 121.508 125.663  1.00  0.00    -0.023 C 
ATOM     23  C   UNL     1     113.105 121.714 123.570  1.00  0.00     0.031 C 
ATOM     24  C   UNL     1     113.702 122.460 124.776  1.00  0.00     0.002 C 
ATOM     25  C   UNL     1     115.173 122.336 126.834  1.00  0.00     0.010 C 
ATOM     26  C   UNL     1     115.728 120.860 124.851  1.00  0.00     0.012 C 
ATOM     27  C   UNL     1     114.476 123.715 124.307  1.00  0.00     0.036 C 
ATOM     28  C   UNL     1     115.971 123.557 126.351  1.00  0.00     0.032 C 
ATOM     29  C   UNL     1     115.107 124.483 125.482  1.00  0.00     0.114 C 
BRANCH  29  30
ATOM     30  O   UNL     1     114.106 125.072 126.271  1.00  0.00    -0.393 OA
ATOM     31  H   UNL     1     114.425 125.043 127.211  1.00  0.00     0.210 HD
ENDBRANCH  29  30
ENDBRANCH   1  11
TORSDOF 6
ENDMDL
MODEL 6
REMARK VINA RESULT:    -6.788      2.167      6.624
REMARK INTER + INTRA:         -10.497
REMARK INTER:                  -9.854
REMARK INTRA:                  -0.643
REMARK UNBOUND:                -1.527
REMARK SMILES CC[C@H](C=C[C@H](C)[C@@H]1CC[C@@H]2C3=CC[C@@H]4C[C@@H](O)CC[C@@]4(C)[C@H]3CC[C@@]21C)C(C)C
REMARK SMILES IDX 6 1 7 2 5 3 4 4 3 5 2 6 1 7 28 8 29 9 30 10 8 11 9 12 26 13
REMARK SMILES IDX 10 14 11 15 25 16 27 17 12 18 24 19 23 20 13 21 21 22 14 23
REMARK SMILES IDX 15 24 20 25 22 26 16 27 19 28 17 29 18 30
REMARK H PARENT 18 31
REMARK Flexibility Score: inf
ROOT
ATOM      1  C   UNL     1     109.694 116.395 126.181  1.00  0.00     0.012 C 
ATOM      2  C   UNL     1     110.007 115.421 125.035  1.00  0.00     0.012 C 
ENDROOT
BRANCH   1   3
ATOM      3  C   UNL     1     110.761 116.262 127.248  1.00  0.00    -0.028 C 
ATOM      4  C   UNL     1     110.501 115.802 128.488  1.00  0.00    -0.027 C 
BRANCH   4   5
ATOM      5  C   UNL     1     111.572 115.706 129.559  1.00  0.00     0.014 C 
BRANCH   5   6
ATOM      6  C   UNL     1     112.977 115.928 128.926  1.00  0.00     0.004 C 
ATOM      7  C   UNL     1     114.076 115.132 129.632  1.00  0.00     0.004 C 
ENDBRANCH   5   6
BRANCH   5   8
ATOM      8  C   UNL     1     111.263 116.685 130.737  1.00  0.00    -0.011 C 
ATOM      9  C   UNL     1     109.788 117.116 130.764  1.00  0.00     0.008 C 
ATOM     10  C   UNL     1     112.149 117.944 130.665  1.00  0.00     0.008 C 
ENDBRANCH   5   8
ENDBRANCH   4   5
ENDBRANCH   1   3
BRANCH   1  11
ATOM     11  C   UNL     1     109.535 117.879 125.702  1.00  0.00     0.002 C 
ATOM     12  C   UNL     1     109.605 117.997 124.167  1.00  0.00     0.005 C 
ATOM     13  C   UNL     1     110.565 118.931 126.225  1.00  0.00    -0.023 C 
ATOM     14  C   UNL     1     110.142 119.388 123.837  1.00  0.00     0.009 C 
ATOM     15  C   UNL     1     110.418 120.066 125.179  1.00  0.00     0.021 C 
ATOM     16  C   UNL     1     112.019 118.354 126.245  1.00  0.00     0.008 C 
ATOM     17  C   UNL     1     110.183 119.478 127.624  1.00  0.00     0.012 C 
ATOM     18  C   UNL     1     111.616 121.003 125.158  1.00  0.00    -0.067 C 
ATOM     19  C   UNL     1     113.128 119.423 126.282  1.00  0.00     0.009 C 
ATOM     20  C   UNL     1     113.003 120.375 125.074  1.00  0.00     0.021 C 
ATOM     21  C   UNL     1     111.432 122.305 125.477  1.00  0.00    -0.027 C 
ATOM     22  C   UNL     1     114.149 121.443 124.891  1.00  0.00    -0.023 C 
ATOM     23  C   UNL     1     112.551 123.298 125.627  1.00  0.00     0.031 C 
ATOM     24  C   UNL     1     113.909 122.623 125.882  1.00  0.00     0.002 C 
ATOM     25  C   UNL     1     115.558 120.837 125.172  1.00  0.00     0.010 C 
ATOM     26  C   UNL     1     114.101 121.918 123.405  1.00  0.00     0.012 C 
ATOM     27  C   UNL     1     115.047 123.671 125.864  1.00  0.00     0.036 C 
ATOM     28  C   UNL     1     116.683 121.883 125.112  1.00  0.00     0.032 C 
ATOM     29  C   UNL     1     116.430 123.035 126.096  1.00  0.00     0.114 C 
BRANCH  29  30
ATOM     30  O   UNL     1     116.530 122.560 127.414  1.00  0.00    -0.393 OA
ATOM     31  H   UNL     1     116.088 123.232 127.998  1.00  0.00     0.210 HD
ENDBRANCH  29  30
ENDBRANCH   1  11
TORSDOF 6
ENDMDL
MODEL 7
REMARK VINA RESULT:    -6.590      3.142      6.569
REMARK INTER + INTRA:         -10.236
REMARK INTER:                  -9.473
REMARK INTRA:                  -0.763
REMARK UNBOUND:                -1.527
REMARK SMILES CC[C@H](C=C[C@H](C)[C@@H]1CC[C@@H]2C3=CC[C@@H]4C[C@@H](O)CC[C@@]4(C)[C@H]3CC[C@@]21C)C(C)C
REMARK SMILES IDX 6 1 7 2 5 3 4 4 3 5 2 6 1 7 28 8 29 9 30 10 8 11 9 12 26 13
REMARK SMILES IDX 10 14 11 15 25 16 27 17 12 18 24 19 23 20 13 21 21 22 14 23
REMARK SMILES IDX 15 24 20 25 22 26 16 27 19 28 17 29 18 30
REMARK H PARENT 18 31
REMARK Flexibility Score: inf
ROOT
ATOM      1  C   UNL     1     109.694 116.156 125.014  1.00  0.00     0.012 C 
ATOM      2  C   UNL     1     109.683 116.651 123.559  1.00  0.00     0.012 C 
ENDROOT
BRANCH   1   3
ATOM      3  C   UNL     1     110.723 115.053 125.154  1.00  0.00    -0.028 C 
ATOM      4  C   UNL     1     111.638 114.782 124.202  1.00  0.00    -0.027 C 
BRANCH   4   5
ATOM      5  C   UNL     1     112.642 113.653 124.339  1.00  0.00     0.014 C 
BRANCH   5   6
ATOM      6  C   UNL     1     112.319 112.528 123.312  1.00  0.00     0.004 C 
ATOM      7  C   UNL     1     112.562 112.963 121.864  1.00  0.00     0.004 C 
ENDBRANCH   5   6
BRANCH   5   8
ATOM      8  C   UNL     1     114.103 114.195 124.223  1.00  0.00    -0.011 C 
ATOM      9  C   UNL     1     114.855 114.133 125.562  1.00  0.00     0.008 C 
ATOM     10  C   UNL     1     114.121 115.648 123.709  1.00  0.00     0.008 C 
ENDBRANCH   5   8
ENDBRANCH   4   5
ENDBRANCH   1   3
BRANCH   1  11
ATOM     11  C   UNL     1     109.932 117.305 126.054  1.00  0.00     0.002 C 
ATOM     12  C   UNL     1     108.875 118.419 125.929  1.00  0.00     0.005 C 
ATOM     13  C   UNL     1     111.302 118.056 126.014  1.00  0.00    -0.023 C 
ATOM     14  C   UNL     1     109.521 119.721 126.398  1.00  0.00     0.009 C 
ATOM     15  C   UNL     1     110.964 119.371 126.762  1.00  0.00     0.021 C 
ATOM     16  C   UNL     1     111.765 118.333 124.546  1.00  0.00     0.008 C 
ATOM     17  C   UNL     1     112.407 117.298 126.794  1.00  0.00     0.012 C 
ATOM     18  C   UNL     1     111.958 120.484 126.468  1.00  0.00    -0.067 C 
ATOM     19  C   UNL     1     112.818 119.449 124.410  1.00  0.00     0.009 C 
ATOM     20  C   UNL     1     112.287 120.770 125.008  1.00  0.00     0.021 C 
ATOM     21  C   UNL     1     112.696 120.986 127.486  1.00  0.00    -0.027 C 
ATOM     22  C   UNL     1     113.195 122.047 124.822  1.00  0.00    -0.023 C 
ATOM     23  C   UNL     1     113.804 121.985 127.305  1.00  0.00     0.031 C 
ATOM     24  C   UNL     1     114.351 122.006 125.867  1.00  0.00     0.002 C 
ATOM     25  C   UNL     1     113.817 122.115 123.394  1.00  0.00     0.010 C 
ATOM     26  C   UNL     1     112.278 123.295 125.024  1.00  0.00     0.012 C 
ATOM     27  C   UNL     1     115.369 123.159 125.692  1.00  0.00     0.036 C 
ATOM     28  C   UNL     1     114.796 123.288 123.223  1.00  0.00     0.032 C 
ATOM     29  C   UNL     1     115.928 123.229 124.259  1.00  0.00     0.114 C 
BRANCH  29  30
ATOM     30  O   UNL     1     116.745 122.116 124.002  1.00  0.00    -0.393 OA
ATOM     31  H   UNL     1     116.456 121.741 123.129  1.00  0.00     0.210 HD
ENDBRANCH  29  30
ENDBRANCH   1  11
TORSDOF 6
ENDMDL
MODEL 8
REMARK VINA RESULT:    -6.523      3.332      6.794
REMARK INTER + INTRA:         -10.147
REMARK INTER:                  -8.480
REMARK INTRA:                  -1.667
REMARK UNBOUND:                -1.527
REMARK SMILES CC[C@H](C=C[C@H](C)[C@@H]1CC[C@@H]2C3=CC[C@@H]4C[C@@H](O)CC[C@@]4(C)[C@H]3CC[C@@]21C)C(C)C
REMARK SMILES IDX 6 1 7 2 5 3 4 4 3 5 2 6 1 7 28 8 29 9 30 10 8 11 9 12 26 13
REMARK SMILES IDX 10 14 11 15 25 16 27 17 12 18 24 19 23 20 13 21 21 22 14 23
REMARK SMILES IDX 15 24 20 25 22 26 16 27 19 28 17 29 18 30
REMARK H PARENT 18 31
REMARK Flexibility Score: inf
ROOT
ATOM      1  C   UNL     1     110.536 116.607 126.808  1.00  0.00     0.012 C 
ATOM      2  C   UNL     1     109.369 115.935 127.548  1.00  0.00     0.012 C 
ENDROOT
BRANCH   1   3
ATOM      3  C   UNL     1     111.162 115.606 125.858  1.00  0.00    -0.028 C 
ATOM      4  C   UNL     1     112.492 115.520 125.661  1.00  0.00    -0.027 C 
BRANCH   4   5
ATOM      5  C   UNL     1     113.104 114.536 124.682  1.00  0.00     0.014 C 
BRANCH   5   6
ATOM      6  C   UNL     1     111.995 113.621 124.085  1.00  0.00     0.004 C 
ATOM      7  C   UNL     1     111.932 113.688 122.557  1.00  0.00     0.004 C 
ENDBRANCH   5   6
BRANCH   5   8
ATOM      8  C   UNL     1     113.938 115.287 123.594  1.00  0.00    -0.011 C 
ATOM      9  C   UNL     1     115.356 114.711 123.447  1.00  0.00     0.008 C 
ATOM     10  C   UNL     1     114.041 116.792 123.908  1.00  0.00     0.008 C 
ENDBRANCH   5   8
ENDBRANCH   4   5
ENDBRANCH   1   3
BRANCH   1  11
ATOM     11  C   UNL     1     110.120 117.925 126.068  1.00  0.00     0.002 C 
ATOM     12  C   UNL     1     110.241 117.787 124.538  1.00  0.00     0.005 C 
ATOM     13  C   UNL     1     110.904 119.233 126.408  1.00  0.00    -0.023 C 
ATOM     14  C   UNL     1     110.519 119.177 123.971  1.00  0.00     0.009 C 
ATOM     15  C   UNL     1     110.595 120.118 125.174  1.00  0.00     0.021 C 
ATOM     16  C   UNL     1     112.438 118.965 126.552  1.00  0.00     0.008 C 
ATOM     17  C   UNL     1     110.357 119.929 127.681  1.00  0.00     0.012 C 
ATOM     18  C   UNL     1     111.592 121.254 125.002  1.00  0.00    -0.067 C 
ATOM     19  C   UNL     1     113.321 120.220 126.412  1.00  0.00     0.009 C 
ATOM     20  C   UNL     1     113.075 120.906 125.050  1.00  0.00     0.021 C 
ATOM     21  C   UNL     1     111.147 122.530 125.079  1.00  0.00    -0.027 C 
ATOM     22  C   UNL     1     114.005 122.129 124.696  1.00  0.00    -0.023 C 
ATOM     23  C   UNL     1     112.048 123.734 125.064  1.00  0.00     0.031 C 
ATOM     24  C   UNL     1     113.496 123.393 125.455  1.00  0.00     0.002 C 
ATOM     25  C   UNL     1     115.488 121.870 125.100  1.00  0.00     0.010 C 
ATOM     26  C   UNL     1     113.940 122.322 123.147  1.00  0.00     0.012 C 
ATOM     27  C   UNL     1     114.413 124.625 125.265  1.00  0.00     0.036 C 
ATOM     28  C   UNL     1     116.394 123.090 124.870  1.00  0.00     0.032 C 
ATOM     29  C   UNL     1     115.878 124.322 125.627  1.00  0.00     0.114 C 
BRANCH  29  30
ATOM     30  O   UNL     1     116.003 124.112 127.010  1.00  0.00    -0.393 OA
ATOM     31  H   UNL     1     115.096 123.890 127.351  1.00  0.00     0.210 HD
ENDBRANCH  29  30
ENDBRANCH   1  11
TORSDOF 6
ENDMDL
MODEL 9
REMARK VINA RESULT:    -6.257      3.775      6.543
REMARK INTER + INTRA:          -9.796
REMARK INTER:                  -8.943
REMARK INTRA:                  -0.853
REMARK UNBOUND:                -1.527
REMARK SMILES CC[C@H](C=C[C@H](C)[C@@H]1CC[C@@H]2C3=CC[C@@H]4C[C@@H](O)CC[C@@]4(C)[C@H]3CC[C@@]21C)C(C)C
REMARK SMILES IDX 6 1 7 2 5 3 4 4 3 5 2 6 1 7 28 8 29 9 30 10 8 11 9 12 26 13
REMARK SMILES IDX 10 14 11 15 25 16 27 17 12 18 24 19 23 20 13 21 21 22 14 23
REMARK SMILES IDX 15 24 20 25 22 26 16 27 19 28 17 29 18 30
REMARK H PARENT 18 31
REMARK Flexibility Score: inf
ROOT
ATOM      1  C   UNL     1     115.809 122.368 126.510  1.00  0.00     0.012 C 
ATOM      2  C   UNL     1     116.100 121.304 127.579  1.00  0.00     0.012 C 
ENDROOT
BRANCH   1   3
ATOM      3  C   UNL     1     116.544 122.006 125.236  1.00  0.00    -0.028 C 
ATOM      4  C   UNL     1     117.411 120.977 125.161  1.00  0.00    -0.027 C 
BRANCH   4   5
ATOM      5  C   UNL     1     118.167 120.645 123.888  1.00  0.00     0.014 C 
BRANCH   5   6
ATOM      6  C   UNL     1     119.688 120.510 124.194  1.00  0.00     0.004 C 
ATOM      7  C   UNL     1     120.555 121.374 123.275  1.00  0.00     0.004 C 
ENDBRANCH   5   6
BRANCH   5   8
ATOM      8  C   UNL     1     117.561 119.379 123.200  1.00  0.00    -0.011 C 
ATOM      9  C   UNL     1     116.365 119.725 122.298  1.00  0.00     0.008 C 
ATOM     10  C   UNL     1     117.114 118.336 124.243  1.00  0.00     0.008 C 
ENDBRANCH   5   8
ENDBRANCH   4   5
ENDBRANCH   1   3
BRANCH   1  11
ATOM     11  C   UNL     1     114.277 122.581 126.254  1.00  0.00     0.002 C 
ATOM     12  C   UNL     1     113.453 122.436 127.548  1.00  0.00     0.005 C 
ATOM     13  C   UNL     1     113.568 121.638 125.230  1.00  0.00    -0.023 C 
ATOM     14  C   UNL     1     112.058 121.957 127.155  1.00  0.00     0.009 C 
ATOM     15  C   UNL     1     112.080 121.789 125.635  1.00  0.00     0.021 C 
ATOM     16  C   UNL     1     114.054 120.158 125.376  1.00  0.00     0.008 C 
ATOM     17  C   UNL     1     113.747 122.122 123.768  1.00  0.00     0.012 C 
ATOM     18  C   UNL     1     111.215 120.644 125.132  1.00  0.00    -0.067 C 
ATOM     19  C   UNL     1     113.103 119.111 124.767  1.00  0.00     0.009 C 
ATOM     20  C   UNL     1     111.699 119.223 125.400  1.00  0.00     0.021 C 
ATOM     21  C   UNL     1     110.217 120.914 124.259  1.00  0.00    -0.027 C 
ATOM     22  C   UNL     1     110.644 118.127 124.982  1.00  0.00    -0.023 C 
ATOM     23  C   UNL     1     109.385 119.859 123.584  1.00  0.00     0.031 C 
ATOM     24  C   UNL     1     110.070 118.482 123.577  1.00  0.00     0.002 C 
ATOM     25  C   UNL     1     111.279 116.705 124.915  1.00  0.00     0.010 C 
ATOM     26  C   UNL     1     109.530 118.122 126.076  1.00  0.00     0.012 C 
ATOM     27  C   UNL     1     109.109 117.403 123.023  1.00  0.00     0.036 C 
ATOM     28  C   UNL     1     110.302 115.636 124.401  1.00  0.00     0.032 C 
ATOM     29  C   UNL     1     109.749 116.002 123.015  1.00  0.00     0.114 C 
BRANCH  29  30
ATOM     30  O   UNL     1     110.782 115.946 122.066  1.00  0.00    -0.393 OA
ATOM     31  H   UNL     1     110.776 115.028 121.685  1.00  0.00     0.210 HD
ENDBRANCH  29  30
ENDBRANCH   1  11
TORSDOF 6
ENDMDL
