MODEL 1
REMARK VINA RESULT:    -4.972      0.000      0.000
REMARK INTER + INTRA:          -9.261
REMARK INTER:                  -8.460
REMARK INTRA:                  -0.801
REMARK UNBOUND:                -0.801
REMARK SMILES CCCCCCCCCCCCCC(=O)[O-]
REMARK SMILES IDX 8 1 9 2 10 3 11 4 12 5 13 6 14 7 15 8 16 9 7 10 6 11 5 12
REMARK SMILES IDX 4 13 3 14 2 15 1 16
REMARK H PARENT
REMARK Flexibility Score: inf
ROOT
ATOM      1  C   UNL     1       1.971  25.544  48.441  1.00  0.00     0.000 C 
ENDROOT
BRANCH   1   2
ATOM      2  C   UNL     1       1.246  25.720  49.785  1.00  0.00     0.000 C 
BRANCH   2   3
ATOM      3  C   UNL     1       1.726  24.724  50.851  1.00  0.00     0.000 C 
BRANCH   3   4
ATOM      4  C   UNL     1       0.629  23.707  51.186  1.00  0.00     0.000 C 
BRANCH   4   5
ATOM      5  C   UNL     1       1.235  22.363  51.617  1.00  0.00     0.006 C 
BRANCH   5   6
ATOM      6  C   UNL     1       2.491  22.008  50.808  1.00  0.00     0.053 C 
BRANCH   6   7
ATOM      7  C   UNL     1       3.624  21.592  51.695  1.00  0.00     0.041 C 
ATOM      8  O   UNL     1       3.478  20.640  52.506  1.00  0.00    -0.550 OA
ATOM      9  O   UNL     1       4.853  22.233  51.601  1.00  0.00    -0.550 OA
ENDBRANCH   6   7
ENDBRANCH   5   6
ENDBRANCH   4   5
ENDBRANCH   3   4
ENDBRANCH   2   3
ENDBRANCH   1   2
BRANCH   1  10
ATOM     10  C   UNL     1       1.682  24.185  47.785  1.00  0.00     0.000 C 
BRANCH  10  11
ATOM     11  C   UNL     1       0.994  24.368  46.426  1.00  0.00    -0.000 C 
BRANCH  11  12
ATOM     12  C   UNL     1       2.024  24.376  45.287  1.00  0.00    -0.000 C 
BRANCH  12  13
ATOM     13  C   UNL     1       2.622  22.985  45.015  1.00  0.00    -0.000 C 
BRANCH  13  14
ATOM     14  C   UNL     1       3.356  22.847  43.667  1.00  0.00    -0.000 C 
BRANCH  14  15
ATOM     15  C   UNL     1       2.600  21.989  42.631  1.00  0.00    -0.003 C 
ATOM     16  C   UNL     1       1.377  21.293  43.230  1.00  0.00     0.004 C 
ENDBRANCH  14  15
ENDBRANCH  13  14
ENDBRANCH  12  13
ENDBRANCH  11  12
ENDBRANCH  10  11
ENDBRANCH   1  10
TORSDOF 12
ENDMDL
MODEL 2
REMARK VINA RESULT:    -4.747      1.595      2.484
REMARK INTER + INTRA:          -8.878
REMARK INTER:                  -7.973
REMARK INTRA:                  -0.905
REMARK UNBOUND:                -0.801
REMARK SMILES CCCCCCCCCCCCCC(=O)[O-]
REMARK SMILES IDX 8 1 9 2 10 3 11 4 12 5 13 6 14 7 15 8 16 9 7 10 6 11 5 12
REMARK SMILES IDX 4 13 3 14 2 15 1 16
REMARK H PARENT
REMARK Flexibility Score: inf
ROOT
ATOM      1  C   UNL     1       0.888  24.637  47.305  1.00  0.00     0.000 C 
ENDROOT
BRANCH   1   2
ATOM      2  C   UNL     1       2.098  24.569  48.252  1.00  0.00     0.000 C 
BRANCH   2   3
ATOM      3  C   UNL     1       1.749  23.954  49.615  1.00  0.00     0.000 C 
BRANCH   3   4
ATOM      4  C   UNL     1       2.877  23.041  50.110  1.00  0.00     0.000 C 
BRANCH   4   5
ATOM      5  C   UNL     1       2.315  21.854  50.907  1.00  0.00     0.006 C 
BRANCH   5   6
ATOM      6  C   UNL     1       3.313  21.331  51.949  1.00  0.00     0.053 C 
BRANCH   6   7
ATOM      7  C   UNL     1       3.186  22.055  53.255  1.00  0.00     0.041 C 
ATOM      8  O   UNL     1       4.159  22.096  54.054  1.00  0.00    -0.550 OA
ATOM      9  O   UNL     1       2.006  22.714  53.573  1.00  0.00    -0.550 OA
ENDBRANCH   6   7
ENDBRANCH   5   6
ENDBRANCH   4   5
ENDBRANCH   3   4
ENDBRANCH   2   3
ENDBRANCH   1   2
BRANCH   1  10
ATOM     10  C   UNL     1       1.229  24.186  45.876  1.00  0.00     0.000 C 
BRANCH  10  11
ATOM     11  C   UNL     1       2.303  23.092  45.887  1.00  0.00    -0.000 C 
BRANCH  11  12
ATOM     12  C   UNL     1       2.447  22.451  44.498  1.00  0.00    -0.000 C 
BRANCH  12  13
ATOM     13  C   UNL     1       3.705  22.924  43.751  1.00  0.00    -0.000 C 
BRANCH  13  14
ATOM     14  C   UNL     1       3.435  23.851  42.551  1.00  0.00    -0.000 C 
BRANCH  14  15
ATOM     15  C   UNL     1       3.124  25.310  42.947  1.00  0.00    -0.003 C 
ATOM     16  C   UNL     1       4.175  25.896  43.890  1.00  0.00     0.004 C 
ENDBRANCH  14  15
ENDBRANCH  13  14
ENDBRANCH  12  13
ENDBRANCH  11  12
ENDBRANCH  10  11
ENDBRANCH   1  10
TORSDOF 12
ENDMDL
MODEL 3
REMARK VINA RESULT:    -4.652      3.628      7.334
REMARK INTER + INTRA:          -8.717
REMARK INTER:                  -8.009
REMARK INTRA:                  -0.707
REMARK UNBOUND:                -0.801
REMARK SMILES CCCCCCCCCCCCCC(=O)[O-]
REMARK SMILES IDX 8 1 9 2 10 3 11 4 12 5 13 6 14 7 15 8 16 9 7 10 6 11 5 12
REMARK SMILES IDX 4 13 3 14 2 15 1 16
REMARK H PARENT
REMARK Flexibility Score: inf
ROOT
ATOM      1  C   UNL     1       1.710  24.269  48.307  1.00  0.00     0.000 C 
ENDROOT
BRANCH   1   2
ATOM      2  C   UNL     1       1.275  24.833  46.945  1.00  0.00     0.000 C 
BRANCH   2   3
ATOM      3  C   UNL     1       1.399  23.805  45.811  1.00  0.00     0.000 C 
BRANCH   3   4
ATOM      4  C   UNL     1       2.615  24.106  44.927  1.00  0.00     0.000 C 
BRANCH   4   5
ATOM      5  C   UNL     1       3.249  22.810  44.402  1.00  0.00     0.006 C 
BRANCH   5   6
ATOM      6  C   UNL     1       3.101  22.666  42.881  1.00  0.00     0.053 C 
BRANCH   6   7
ATOM      7  C   UNL     1       2.088  21.625  42.516  1.00  0.00     0.041 C 
ATOM      8  O   UNL     1       1.336  21.134  43.399  1.00  0.00    -0.550 OA
ATOM      9  O   UNL     1       1.950  21.222  41.194  1.00  0.00    -0.550 OA
ENDBRANCH   6   7
ENDBRANCH   5   6
ENDBRANCH   4   5
ENDBRANCH   3   4
ENDBRANCH   2   3
ENDBRANCH   1   2
BRANCH   1  10
ATOM     10  C   UNL     1       1.284  25.162  49.482  1.00  0.00     0.000 C 
BRANCH  10  11
ATOM     11  C   UNL     1       1.774  24.584  50.815  1.00  0.00    -0.000 C 
BRANCH  11  12
ATOM     12  C   UNL     1       1.145  23.209  51.082  1.00  0.00    -0.000 C 
BRANCH  12  13
ATOM     13  C   UNL     1       2.193  22.095  51.242  1.00  0.00    -0.000 C 
BRANCH  13  14
ATOM     14  C   UNL     1       2.781  21.956  52.659  1.00  0.00    -0.000 C 
BRANCH  14  15
ATOM     15  C   UNL     1       4.252  22.409  52.772  1.00  0.00    -0.003 C 
ATOM     16  C   UNL     1       4.880  22.697  51.408  1.00  0.00     0.004 C 
ENDBRANCH  14  15
ENDBRANCH  13  14
ENDBRANCH  12  13
ENDBRANCH  11  12
ENDBRANCH  10  11
ENDBRANCH   1  10
TORSDOF 12
ENDMDL
MODEL 4
REMARK VINA RESULT:    -4.592      1.496      2.790
REMARK INTER + INTRA:          -8.614
REMARK INTER:                  -7.633
REMARK INTRA:                  -0.981
REMARK UNBOUND:                -0.801
REMARK SMILES CCCCCCCCCCCCCC(=O)[O-]
REMARK SMILES IDX 8 1 9 2 10 3 11 4 12 5 13 6 14 7 15 8 16 9 7 10 6 11 5 12
REMARK SMILES IDX 4 13 3 14 2 15 1 16
REMARK H PARENT
REMARK Flexibility Score: inf
ROOT
ATOM      1  C   UNL     1       1.226  24.878  51.141  1.00  0.00     0.000 C 
ENDROOT
BRANCH   1   2
ATOM      2  C   UNL     1       1.676  23.932  52.265  1.00  0.00     0.000 C 
BRANCH   2   3
ATOM      3  C   UNL     1       1.284  22.471  52.001  1.00  0.00     0.000 C 
BRANCH   3   4
ATOM      4  C   UNL     1       2.459  21.686  51.406  1.00  0.00     0.000 C 
BRANCH   4   5
ATOM      5  C   UNL     1       3.748  21.936  52.202  1.00  0.00     0.006 C 
BRANCH   5   6
ATOM      6  C   UNL     1       4.840  22.594  51.348  1.00  0.00     0.053 C 
BRANCH   6   7
ATOM      7  C   UNL     1       5.661  23.563  52.143  1.00  0.00     0.041 C 
ATOM      8  O   UNL     1       6.853  23.803  51.815  1.00  0.00    -0.550 OA
ATOM      9  O   UNL     1       5.099  24.227  53.226  1.00  0.00    -0.550 OA
ENDBRANCH   6   7
ENDBRANCH   5   6
ENDBRANCH   4   5
ENDBRANCH   3   4
ENDBRANCH   2   3
ENDBRANCH   1   2
BRANCH   1  10
ATOM     10  C   UNL     1       2.300  25.066  50.059  1.00  0.00     0.000 C 
BRANCH  10  11
ATOM     11  C   UNL     1       1.978  24.229  48.815  1.00  0.00    -0.000 C 
BRANCH  11  12
ATOM     12  C   UNL     1       1.740  25.130  47.594  1.00  0.00    -0.000 C 
BRANCH  12  13
ATOM     13  C   UNL     1       0.882  24.453  46.512  1.00  0.00    -0.000 C 
BRANCH  13  14
ATOM     14  C   UNL     1       1.597  24.224  45.167  1.00  0.00    -0.000 C 
BRANCH  14  15
ATOM     15  C   UNL     1       2.534  22.998  45.161  1.00  0.00    -0.003 C 
ATOM     16  C   UNL     1       2.162  21.983  44.079  1.00  0.00     0.004 C 
ENDBRANCH  14  15
ENDBRANCH  13  14
ENDBRANCH  12  13
ENDBRANCH  11  12
ENDBRANCH  10  11
ENDBRANCH   1  10
TORSDOF 12
ENDMDL
MODEL 5
REMARK VINA RESULT:    -4.592      2.007      3.066
REMARK INTER + INTRA:          -8.614
REMARK INTER:                  -7.612
REMARK INTRA:                  -1.002
REMARK UNBOUND:                -0.801
REMARK SMILES CCCCCCCCCCCCCC(=O)[O-]
REMARK SMILES IDX 8 1 9 2 10 3 11 4 12 5 13 6 14 7 15 8 16 9 7 10 6 11 5 12
REMARK SMILES IDX 4 13 3 14 2 15 1 16
REMARK H PARENT
REMARK Flexibility Score: inf
ROOT
ATOM      1  C   UNL     1       1.656  24.055  49.670  1.00  0.00     0.000 C 
ENDROOT
BRANCH   1   2
ATOM      2  C   UNL     1       2.809  23.064  49.898  1.00  0.00     0.000 C 
BRANCH   2   3
ATOM      3  C   UNL     1       2.412  21.895  50.811  1.00  0.00     0.000 C 
BRANCH   3   4
ATOM      4  C   UNL     1       3.488  21.636  51.871  1.00  0.00     0.000 C 
BRANCH   4   5
ATOM      5  C   UNL     1       3.139  22.336  53.193  1.00  0.00     0.006 C 
BRANCH   5   6
ATOM      6  C   UNL     1       1.624  22.477  53.393  1.00  0.00     0.053 C 
BRANCH   6   7
ATOM      7  C   UNL     1       1.195  23.912  53.413  1.00  0.00     0.041 C 
ATOM      8  O   UNL     1       2.039  24.828  53.227  1.00  0.00    -0.550 OA
ATOM      9  O   UNL     1      -0.142  24.237  53.604  1.00  0.00    -0.550 OA
ENDBRANCH   6   7
ENDBRANCH   5   6
ENDBRANCH   4   5
ENDBRANCH   3   4
ENDBRANCH   2   3
ENDBRANCH   1   2
BRANCH   1  10
ATOM     10  C   UNL     1       2.146  25.442  49.225  1.00  0.00     0.000 C 
BRANCH  10  11
ATOM     11  C   UNL     1       1.952  25.634  47.716  1.00  0.00    -0.000 C 
BRANCH  11  12
ATOM     12  C   UNL     1       0.940  24.622  47.160  1.00  0.00    -0.000 C 
BRANCH  12  13
ATOM     13  C   UNL     1       1.329  24.091  45.770  1.00  0.00    -0.000 C 
BRANCH  13  14
ATOM     14  C   UNL     1       2.344  22.933  45.779  1.00  0.00    -0.000 C 
BRANCH  14  15
ATOM     15  C   UNL     1       2.736  22.437  44.371  1.00  0.00    -0.003 C 
ATOM     16  C   UNL     1       3.554  23.469  43.595  1.00  0.00     0.004 C 
ENDBRANCH  14  15
ENDBRANCH  13  14
ENDBRANCH  12  13
ENDBRANCH  11  12
ENDBRANCH  10  11
ENDBRANCH   1  10
TORSDOF 12
ENDMDL
MODEL 6
REMARK VINA RESULT:    -4.560      5.040      8.556
REMARK INTER + INTRA:          -8.560
REMARK INTER:                  -6.875
REMARK INTRA:                  -1.686
REMARK UNBOUND:                -0.801
REMARK SMILES CCCCCCCCCCCCCC(=O)[O-]
REMARK SMILES IDX 8 1 9 2 10 3 11 4 12 5 13 6 14 7 15 8 16 9 7 10 6 11 5 12
REMARK SMILES IDX 4 13 3 14 2 15 1 16
REMARK H PARENT
REMARK Flexibility Score: inf
ROOT
ATOM      1  C   UNL     1      -0.494  26.095  54.878  1.00  0.00     0.000 C 
ENDROOT
BRANCH   1   2
ATOM      2  C   UNL     1       0.326  25.627  53.664  1.00  0.00     0.000 C 
BRANCH   2   3
ATOM      3  C   UNL     1       0.054  24.161  53.296  1.00  0.00     0.000 C 
BRANCH   3   4
ATOM      4  C   UNL     1       0.535  23.855  51.873  1.00  0.00     0.000 C 
BRANCH   4   5
ATOM      5  C   UNL     1       0.966  22.387  51.741  1.00  0.00     0.006 C 
BRANCH   5   6
ATOM      6  C   UNL     1       1.969  21.977  52.828  1.00  0.00     0.053 C 
BRANCH   6   7
ATOM      7  C   UNL     1       3.215  21.386  52.243  1.00  0.00     0.041 C 
ATOM      8  O   UNL     1       3.486  20.170  52.425  1.00  0.00    -0.550 OA
ATOM      9  O   UNL     1       4.059  22.171  51.468  1.00  0.00    -0.550 OA
ENDBRANCH   6   7
ENDBRANCH   5   6
ENDBRANCH   4   5
ENDBRANCH   3   4
ENDBRANCH   2   3
ENDBRANCH   1   2
BRANCH   1  10
ATOM     10  C   UNL     1      -1.800  25.306  55.050  1.00  0.00     0.000 C 
BRANCH  10  11
ATOM     11  C   UNL     1      -2.121  25.094  56.535  1.00  0.00    -0.000 C 
BRANCH  11  12
ATOM     12  C   UNL     1      -1.947  23.619  56.928  1.00  0.00    -0.000 C 
BRANCH  12  13
ATOM     13  C   UNL     1      -0.618  23.348  57.653  1.00  0.00    -0.000 C 
BRANCH  13  14
ATOM     14  C   UNL     1       0.444  22.620  56.808  1.00  0.00    -0.000 C 
BRANCH  14  15
ATOM     15  C   UNL     1       1.709  23.462  56.536  1.00  0.00    -0.003 C 
ATOM     16  C   UNL     1       1.801  24.688  57.445  1.00  0.00     0.004 C 
ENDBRANCH  14  15
ENDBRANCH  13  14
ENDBRANCH  12  13
ENDBRANCH  11  12
ENDBRANCH  10  11
ENDBRANCH   1  10
TORSDOF 12
ENDMDL
MODEL 7
REMARK VINA RESULT:    -4.560      3.421      6.919
REMARK INTER + INTRA:          -8.560
REMARK INTER:                  -7.403
REMARK INTRA:                  -1.156
REMARK UNBOUND:                -0.801
REMARK SMILES CCCCCCCCCCCCCC(=O)[O-]
REMARK SMILES IDX 8 1 9 2 10 3 11 4 12 5 13 6 14 7 15 8 16 9 7 10 6 11 5 12
REMARK SMILES IDX 4 13 3 14 2 15 1 16
REMARK H PARENT
REMARK Flexibility Score: inf
ROOT
ATOM      1  C   UNL     1       1.902  24.712  50.006  1.00  0.00     0.000 C 
ENDROOT
BRANCH   1   2
ATOM      2  C   UNL     1       1.887  24.019  48.634  1.00  0.00     0.000 C 
BRANCH   2   3
ATOM      3  C   UNL     1       1.205  24.866  47.550  1.00  0.00     0.000 C 
BRANCH   3   4
ATOM      4  C   UNL     1       1.976  24.789  46.227  1.00  0.00     0.000 C 
BRANCH   4   5
ATOM      5  C   UNL     1       1.537  23.569  45.404  1.00  0.00     0.006 C 
BRANCH   5   6
ATOM      6  C   UNL     1       2.713  22.642  45.069  1.00  0.00     0.053 C 
BRANCH   6   7
ATOM      7  C   UNL     1       3.133  22.769  43.636  1.00  0.00     0.041 C 
ATOM      8  O   UNL     1       2.759  21.916  42.788  1.00  0.00    -0.550 OA
ATOM      9  O   UNL     1       3.907  23.848  43.232  1.00  0.00    -0.550 OA
ENDBRANCH   6   7
ENDBRANCH   5   6
ENDBRANCH   4   5
ENDBRANCH   3   4
ENDBRANCH   2   3
ENDBRANCH   1   2
BRANCH   1  10
ATOM     10  C   UNL     1       1.100  23.943  51.067  1.00  0.00     0.000 C 
BRANCH  10  11
ATOM     11  C   UNL     1       1.602  22.499  51.193  1.00  0.00    -0.000 C 
BRANCH  11  12
ATOM     12  C   UNL     1       2.077  22.207  52.624  1.00  0.00    -0.000 C 
BRANCH  12  13
ATOM     13  C   UNL     1       3.609  22.133  52.741  1.00  0.00    -0.000 C 
BRANCH  13  14
ATOM     14  C   UNL     1       4.365  22.198  51.400  1.00  0.00    -0.000 C 
BRANCH  14  15
ATOM     15  C   UNL     1       5.414  23.328  51.330  1.00  0.00    -0.003 C 
ATOM     16  C   UNL     1       5.056  24.514  52.226  1.00  0.00     0.004 C 
ENDBRANCH  14  15
ENDBRANCH  13  14
ENDBRANCH  12  13
ENDBRANCH  11  12
ENDBRANCH  10  11
ENDBRANCH   1  10
TORSDOF 12
ENDMDL
MODEL 8
REMARK VINA RESULT:    -4.522      1.701      2.395
REMARK INTER + INTRA:          -8.495
REMARK INTER:                  -7.738
REMARK INTRA:                  -0.758
REMARK UNBOUND:                -0.801
REMARK SMILES CCCCCCCCCCCCCC(=O)[O-]
REMARK SMILES IDX 8 1 9 2 10 3 11 4 12 5 13 6 14 7 15 8 16 9 7 10 6 11 5 12
REMARK SMILES IDX 4 13 3 14 2 15 1 16
REMARK H PARENT
REMARK Flexibility Score: inf
ROOT
ATOM      1  C   UNL     1       1.639  25.218  48.118  1.00  0.00     0.000 C 
ENDROOT
BRANCH   1   2
ATOM      2  C   UNL     1       1.606  24.430  49.438  1.00  0.00     0.000 C 
BRANCH   2   3
ATOM      3  C   UNL     1       2.693  23.348  49.509  1.00  0.00     0.000 C 
BRANCH   3   4
ATOM      4  C   UNL     1       2.379  22.327  50.609  1.00  0.00     0.000 C 
BRANCH   4   5
ATOM      5  C   UNL     1       3.556  22.191  51.586  1.00  0.00     0.006 C 
BRANCH   5   6
ATOM      6  C   UNL     1       4.851  22.790  51.022  1.00  0.00     0.053 C 
BRANCH   6   7
ATOM      7  C   UNL     1       5.468  23.774  51.968  1.00  0.00     0.041 C 
ATOM      8  O   UNL     1       6.713  23.773  52.161  1.00  0.00    -0.550 OA
ATOM      9  O   UNL     1       4.673  24.715  52.609  1.00  0.00    -0.550 OA
ENDBRANCH   6   7
ENDBRANCH   5   6
ENDBRANCH   4   5
ENDBRANCH   3   4
ENDBRANCH   2   3
ENDBRANCH   1   2
BRANCH   1  10
ATOM     10  C   UNL     1       0.926  24.485  46.972  1.00  0.00     0.000 C 
BRANCH  10  11
ATOM     11  C   UNL     1       1.864  24.300  45.773  1.00  0.00    -0.000 C 
BRANCH  11  12
ATOM     12  C   UNL     1       2.434  22.874  45.738  1.00  0.00    -0.000 C 
BRANCH  12  13
ATOM     13  C   UNL     1       3.403  22.648  44.565  1.00  0.00    -0.000 C 
BRANCH  13  14
ATOM     14  C   UNL     1       2.896  23.148  43.199  1.00  0.00    -0.000 C 
BRANCH  14  15
ATOM     15  C   UNL     1       3.771  24.256  42.576  1.00  0.00    -0.003 C 
ATOM     16  C   UNL     1       3.608  24.346  41.059  1.00  0.00     0.004 C 
ENDBRANCH  14  15
ENDBRANCH  13  14
ENDBRANCH  12  13
ENDBRANCH  11  12
ENDBRANCH  10  11
ENDBRANCH   1  10
TORSDOF 12
ENDMDL
MODEL 9
REMARK VINA RESULT:    -4.443      5.120      7.252
REMARK INTER + INTRA:          -8.360
REMARK INTER:                  -6.572
REMARK INTRA:                  -1.788
REMARK UNBOUND:                -0.801
REMARK SMILES CCCCCCCCCCCCCC(=O)[O-]
REMARK SMILES IDX 8 1 9 2 10 3 11 4 12 5 13 6 14 7 15 8 16 9 7 10 6 11 5 12
REMARK SMILES IDX 4 13 3 14 2 15 1 16
REMARK H PARENT
REMARK Flexibility Score: inf
ROOT
ATOM      1  C   UNL     1       1.406  24.926  53.702  1.00  0.00     0.000 C 
ENDROOT
BRANCH   1   2
ATOM      2  C   UNL     1       1.466  24.451  55.163  1.00  0.00     0.000 C 
BRANCH   2   3
ATOM      3  C   UNL     1       1.392  22.922  55.291  1.00  0.00     0.000 C 
BRANCH   3   4
ATOM      4  C   UNL     1       0.809  22.513  56.649  1.00  0.00     0.000 C 
BRANCH   4   5
ATOM      5  C   UNL     1      -0.036  23.647  57.249  1.00  0.00     0.006 C 
BRANCH   5   6
ATOM      6  C   UNL     1      -1.539  23.432  57.025  1.00  0.00     0.053 C 
BRANCH   6   7
ATOM      7  C   UNL     1      -2.127  24.489  56.141  1.00  0.00     0.041 C 
ATOM      8  O   UNL     1      -2.246  24.286  54.904  1.00  0.00    -0.550 OA
ATOM      9  O   UNL     1      -2.576  25.684  56.689  1.00  0.00    -0.550 OA
ENDBRANCH   6   7
ENDBRANCH   5   6
ENDBRANCH   4   5
ENDBRANCH   3   4
ENDBRANCH   2   3
ENDBRANCH   1   2
BRANCH   1  10
ATOM     10  C   UNL     1       0.722  23.909  52.776  1.00  0.00     0.000 C 
BRANCH  10  11
ATOM     11  C   UNL     1       1.168  24.105  51.322  1.00  0.00    -0.000 C 
BRANCH  11  12
ATOM     12  C   UNL     1       1.951  22.883  50.818  1.00  0.00    -0.000 C 
BRANCH  12  13
ATOM     13  C   UNL     1       2.129  21.803  51.898  1.00  0.00    -0.000 C 
BRANCH  13  14
ATOM     14  C   UNL     1       3.592  21.472  52.249  1.00  0.00    -0.000 C 
BRANCH  14  15
ATOM     15  C   UNL     1       4.516  22.707  52.297  1.00  0.00    -0.003 C 
ATOM     16  C   UNL     1       4.749  23.207  53.723  1.00  0.00     0.004 C 
ENDBRANCH  14  15
ENDBRANCH  13  14
ENDBRANCH  12  13
ENDBRANCH  11  12
ENDBRANCH  10  11
ENDBRANCH   1  10
TORSDOF 12
ENDMDL
