MODEL 1
REMARK VINA RESULT:    -4.043      0.000      0.000
REMARK INTER + INTRA:          -4.279
REMARK INTER:                  -4.279
REMARK INTRA:                   0.000
REMARK UNBOUND:                 0.000
REMARK SMILES O=c1ccc2cc(O)c(O)cc2o1
REMARK SMILES IDX 4 1 3 2 2 3 1 4 13 5 12 6 11 7 9 8 7 9 6 10 5 11 8 12 10 14
REMARK H PARENT 8 13 10 15
REMARK Flexibility Score: inf
ROOT
ATOM      1  C   UNL     1     -11.348  38.216  63.078  1.00  0.00     0.019 A 
ATOM      2  C   UNL     1      -9.954  38.154  63.051  1.00  0.00     0.094 A 
ATOM      3  C   UNL     1      -9.231  39.306  62.722  1.00  0.00     0.336 A 
ATOM      4  O   UNL     1      -7.973  39.270  62.692  1.00  0.00    -0.246 OA
ATOM      5  O   UNL     1      -9.865  40.441  62.438  1.00  0.00    -0.423 OA
ATOM      6  C   UNL     1     -11.192  40.543  62.452  1.00  0.00     0.142 A 
ATOM      7  C   UNL     1     -11.802  41.763  62.146  1.00  0.00     0.098 A 
ATOM      8  C   UNL     1     -13.200  41.875  62.160  1.00  0.00     0.161 A 
ATOM      9  C   UNL     1     -13.990  40.763  62.481  1.00  0.00     0.158 A 
ATOM     10  C   UNL     1     -13.384  39.536  62.789  1.00  0.00     0.062 A 
ATOM     11  C   UNL     1     -11.987  39.422  62.776  1.00  0.00     0.022 A 
ENDROOT
BRANCH   9  12
ATOM     12  O   UNL     1     -15.379  40.884  62.492  1.00  0.00    -0.504 OA
ATOM     13  H   UNL     1     -15.835  41.730  62.815  1.00  0.00     0.293 HD
ENDBRANCH   9  12
BRANCH   8  14
ATOM     14  O   UNL     1     -13.812  43.090  61.854  1.00  0.00    -0.504 OA
ATOM     15  H   UNL     1     -13.819  43.861  62.513  1.00  0.00     0.293 HD
ENDBRANCH   8  14
TORSDOF 2
ENDMDL
MODEL 2
REMARK VINA RESULT:    -4.014      0.982      2.277
REMARK INTER + INTRA:          -4.249
REMARK INTER:                  -4.249
REMARK INTRA:                   0.000
REMARK UNBOUND:                 0.000
REMARK SMILES O=c1ccc2cc(O)c(O)cc2o1
REMARK SMILES IDX 4 1 3 2 2 3 1 4 13 5 12 6 11 7 9 8 7 9 6 10 5 11 8 12 10 14
REMARK H PARENT 8 13 10 15
REMARK Flexibility Score: inf
ROOT
ATOM      1  C   UNL     1      -9.432  41.544  62.413  1.00  0.00     0.019 A 
ATOM      2  C   UNL     1      -8.569  40.472  62.643  1.00  0.00     0.094 A 
ATOM      3  C   UNL     1      -9.108  39.194  62.823  1.00  0.00     0.336 A 
ATOM      4  O   UNL     1      -8.346  38.214  63.032  1.00  0.00    -0.246 OA
ATOM      5  O   UNL     1     -10.424  39.006  62.776  1.00  0.00    -0.423 OA
ATOM      6  C   UNL     1     -11.283  40.000  62.558  1.00  0.00     0.142 A 
ATOM      7  C   UNL     1     -12.656  39.741  62.519  1.00  0.00     0.098 A 
ATOM      8  C   UNL     1     -13.564  40.785  62.290  1.00  0.00     0.161 A 
ATOM      9  C   UNL     1     -13.096  42.093  62.100  1.00  0.00     0.158 A 
ATOM     10  C   UNL     1     -11.719  42.359  62.140  1.00  0.00     0.062 A 
ATOM     11  C   UNL     1     -10.810  41.317  62.368  1.00  0.00     0.022 A 
ENDROOT
BRANCH   9  12
ATOM     12  O   UNL     1     -14.006  43.125  61.874  1.00  0.00    -0.504 OA
ATOM     13  H   UNL     1     -14.999  43.001  62.038  1.00  0.00     0.293 HD
ENDBRANCH   9  12
BRANCH   8  14
ATOM     14  O   UNL     1     -14.934  40.531  62.250  1.00  0.00    -0.504 OA
ATOM     15  H   UNL     1     -15.304  39.595  62.378  1.00  0.00     0.293 HD
ENDBRANCH   8  14
TORSDOF 2
ENDMDL
MODEL 3
REMARK VINA RESULT:    -3.906      0.958      1.123
REMARK INTER + INTRA:          -4.135
REMARK INTER:                  -4.135
REMARK INTRA:                   0.000
REMARK UNBOUND:                 0.000
REMARK SMILES O=c1ccc2cc(O)c(O)cc2o1
REMARK SMILES IDX 4 1 3 2 2 3 1 4 13 5 12 6 11 7 9 8 7 9 6 10 5 11 8 12 10 14
REMARK H PARENT 8 13 10 15
REMARK Flexibility Score: inf
ROOT
ATOM      1  C   UNL     1     -10.278  39.057  62.757  1.00  0.00     0.019 A 
ATOM      2  C   UNL     1      -8.926  39.398  62.810  1.00  0.00     0.094 A 
ATOM      3  C   UNL     1      -8.557  40.735  62.626  1.00  0.00     0.336 A 
ATOM      4  O   UNL     1      -7.342  41.063  62.669  1.00  0.00    -0.246 OA
ATOM      5  O   UNL     1      -9.482  41.665  62.402  1.00  0.00    -0.423 OA
ATOM      6  C   UNL     1     -10.782  41.383  62.344  1.00  0.00     0.142 A 
ATOM      7  C   UNL     1     -11.708  42.402  62.107  1.00  0.00     0.098 A 
ATOM      8  C   UNL     1     -13.079  42.109  62.045  1.00  0.00     0.161 A 
ATOM      9  C   UNL     1     -13.523  40.791  62.222  1.00  0.00     0.158 A 
ATOM     10  C   UNL     1     -12.598  39.764  62.459  1.00  0.00     0.062 A 
ATOM     11  C   UNL     1     -11.229  40.055  62.521  1.00  0.00     0.022 A 
ENDROOT
BRANCH   9  12
ATOM     12  O   UNL     1     -14.888  40.510  62.158  1.00  0.00    -0.504 OA
ATOM     13  H   UNL     1     -15.283  39.973  61.395  1.00  0.00     0.293 HD
ENDBRANCH   9  12
BRANCH   8  14
ATOM     14  O   UNL     1     -14.005  43.124  61.808  1.00  0.00    -0.504 OA
ATOM     15  H   UNL     1     -13.960  44.009  62.301  1.00  0.00     0.293 HD
ENDBRANCH   8  14
TORSDOF 2
ENDMDL
MODEL 4
REMARK VINA RESULT:    -3.780      9.514     11.201
REMARK INTER + INTRA:          -4.001
REMARK INTER:                  -4.001
REMARK INTRA:                   0.000
REMARK UNBOUND:                 0.000
REMARK SMILES O=c1ccc2cc(O)c(O)cc2o1
REMARK SMILES IDX 4 1 3 2 2 3 1 4 13 5 12 6 11 7 9 8 7 9 6 10 5 11 8 12 10 14
REMARK H PARENT 8 13 10 15
REMARK Flexibility Score: inf
ROOT
ATOM      1  C   UNL     1     -15.513  41.900  52.210  1.00  0.00     0.019 A 
ATOM      2  C   UNL     1     -16.224  41.707  51.025  1.00  0.00     0.094 A 
ATOM      3  C   UNL     1     -17.618  41.827  51.045  1.00  0.00     0.336 A 
ATOM      4  O   UNL     1     -18.278  41.656  49.986  1.00  0.00    -0.246 OA
ATOM      5  O   UNL     1     -18.253  42.120  52.177  1.00  0.00    -0.423 OA
ATOM      6  C   UNL     1     -17.613  42.311  53.328  1.00  0.00     0.142 A 
ATOM      7  C   UNL     1     -18.334  42.617  54.486  1.00  0.00     0.098 A 
ATOM      8  C   UNL     1     -17.664  42.820  55.701  1.00  0.00     0.161 A 
ATOM      9  C   UNL     1     -16.267  42.717  55.758  1.00  0.00     0.158 A 
ATOM     10  C   UNL     1     -15.538  42.410  54.600  1.00  0.00     0.062 A 
ATOM     11  C   UNL     1     -16.206  42.207  53.384  1.00  0.00     0.022 A 
ENDROOT
BRANCH   9  12
ATOM     12  O   UNL     1     -15.609  42.920  56.971  1.00  0.00    -0.504 OA
ATOM     13  H   UNL     1     -15.052  43.751  57.138  1.00  0.00     0.293 HD
ENDBRANCH   9  12
BRANCH   8  14
ATOM     14  O   UNL     1     -18.380  43.125  56.858  1.00  0.00    -0.504 OA
ATOM     15  H   UNL     1     -18.476  44.080  57.186  1.00  0.00     0.293 HD
ENDBRANCH   8  14
TORSDOF 2
ENDMDL
MODEL 5
REMARK VINA RESULT:    -3.697      1.236      5.049
REMARK INTER + INTRA:          -3.913
REMARK INTER:                  -3.913
REMARK INTRA:                   0.000
REMARK UNBOUND:                 0.000
REMARK SMILES O=c1ccc2cc(O)c(O)cc2o1
REMARK SMILES IDX 4 1 3 2 2 3 1 4 13 5 12 6 11 7 9 8 7 9 6 10 5 11 8 12 10 14
REMARK H PARENT 8 13 10 15
REMARK Flexibility Score: inf
ROOT
ATOM      1  C   UNL     1     -11.882  42.208  62.148  1.00  0.00     0.019 A 
ATOM      2  C   UNL     1     -13.267  42.043  62.205  1.00  0.00     0.094 A 
ATOM      3  C   UNL     1     -13.787  40.764  62.433  1.00  0.00     0.336 A 
ATOM      4  O   UNL     1     -15.034  40.595  62.487  1.00  0.00    -0.246 OA
ATOM      5  O   UNL     1     -12.974  39.724  62.591  1.00  0.00    -0.423 OA
ATOM      6  C   UNL     1     -11.648  39.837  62.544  1.00  0.00     0.142 A 
ATOM      7  C   UNL     1     -10.844  38.708  62.719  1.00  0.00     0.098 A 
ATOM      8  C   UNL     1      -9.446  38.823  62.670  1.00  0.00     0.161 A 
ATOM      9  C   UNL     1      -8.853  40.073  62.446  1.00  0.00     0.158 A 
ATOM     10  C   UNL     1      -9.655  41.210  62.270  1.00  0.00     0.062 A 
ATOM     11  C   UNL     1     -11.051  41.097  62.319  1.00  0.00     0.022 A 
ENDROOT
BRANCH   9  12
ATOM     12  O   UNL     1      -7.463  40.177  62.399  1.00  0.00    -0.504 OA
ATOM     13  H   UNL     1      -6.885  39.411  62.073  1.00  0.00     0.293 HD
ENDBRANCH   9  12
BRANCH   8  14
ATOM     14  O   UNL     1      -8.641  37.698  62.843  1.00  0.00    -0.504 OA
ATOM     15  H   UNL     1      -8.836  36.827  62.361  1.00  0.00     0.293 HD
ENDBRANCH   8  14
TORSDOF 2
ENDMDL
MODEL 6
REMARK VINA RESULT:    -3.656      9.479     10.959
REMARK INTER + INTRA:          -3.869
REMARK INTER:                  -3.869
REMARK INTRA:                   0.000
REMARK UNBOUND:                 0.000
REMARK SMILES O=c1ccc2cc(O)c(O)cc2o1
REMARK SMILES IDX 4 1 3 2 2 3 1 4 13 5 12 6 11 7 9 8 7 9 6 10 5 11 8 12 10 14
REMARK H PARENT 8 13 10 15
REMARK Flexibility Score: inf
ROOT
ATOM      1  C   UNL     1     -18.407  42.063  52.127  1.00  0.00     0.019 A 
ATOM      2  C   UNL     1     -17.614  41.805  51.009  1.00  0.00     0.094 A 
ATOM      3  C   UNL     1     -16.222  41.819  51.148  1.00  0.00     0.336 A 
ATOM      4  O   UNL     1     -15.489  41.589  50.151  1.00  0.00    -0.246 OA
ATOM      5  O   UNL     1     -15.666  42.077  52.329  1.00  0.00    -0.423 OA
ATOM      6  C   UNL     1     -16.386  42.329  53.420  1.00  0.00     0.142 A 
ATOM      7  C   UNL     1     -15.745  42.592  54.635  1.00  0.00     0.098 A 
ATOM      8  C   UNL     1     -16.500  42.858  55.787  1.00  0.00     0.161 A 
ATOM      9  C   UNL     1     -17.900  42.860  55.724  1.00  0.00     0.158 A 
ATOM     10  C   UNL     1     -18.549  42.597  54.508  1.00  0.00     0.062 A 
ATOM     11  C   UNL     1     -17.796  42.331  53.355  1.00  0.00     0.022 A 
ENDROOT
BRANCH   9  12
ATOM     12  O   UNL     1     -18.642  43.125  56.874  1.00  0.00    -0.504 OA
ATOM     13  H   UNL     1     -18.193  43.276  57.771  1.00  0.00     0.293 HD
ENDBRANCH   9  12
BRANCH   8  14
ATOM     14  O   UNL     1     -15.864  43.122  56.999  1.00  0.00    -0.504 OA
ATOM     15  H   UNL     1     -14.955  43.571  57.035  1.00  0.00     0.293 HD
ENDBRANCH   8  14
TORSDOF 2
ENDMDL
MODEL 7
REMARK VINA RESULT:    -3.616      2.487      3.516
REMARK INTER + INTRA:          -3.828
REMARK INTER:                  -3.828
REMARK INTRA:                   0.000
REMARK UNBOUND:                 0.000
REMARK SMILES O=c1ccc2cc(O)c(O)cc2o1
REMARK SMILES IDX 4 1 3 2 2 3 1 4 13 5 12 6 11 7 9 8 7 9 6 10 5 11 8 12 10 14
REMARK H PARENT 8 13 10 15
REMARK Flexibility Score: inf
ROOT
ATOM      1  C   UNL     1     -12.901  42.046  62.041  1.00  0.00     0.019 A 
ATOM      2  C   UNL     1     -11.647  42.468  62.484  1.00  0.00     0.094 A 
ATOM      3  C   UNL     1     -11.059  41.816  63.574  1.00  0.00     0.336 A 
ATOM      4  O   UNL     1      -9.928  42.182  63.989  1.00  0.00    -0.246 OA
ATOM      5  O   UNL     1     -11.689  40.811  64.178  1.00  0.00    -0.423 OA
ATOM      6  C   UNL     1     -12.885  40.379  63.788  1.00  0.00     0.142 A 
ATOM      7  C   UNL     1     -13.498  39.318  64.461  1.00  0.00     0.098 A 
ATOM      8  C   UNL     1     -14.759  38.858  64.053  1.00  0.00     0.161 A 
ATOM      9  C   UNL     1     -15.409  39.462  62.967  1.00  0.00     0.158 A 
ATOM     10  C   UNL     1     -14.799  40.528  62.288  1.00  0.00     0.062 A 
ATOM     11  C   UNL     1     -13.539  40.988  62.694  1.00  0.00     0.022 A 
ENDROOT
BRANCH   9  12
ATOM     12  O   UNL     1     -16.662  38.999  62.570  1.00  0.00    -0.504 OA
ATOM     13  H   UNL     1     -17.309  39.591  62.061  1.00  0.00     0.293 HD
ENDBRANCH   9  12
BRANCH   8  14
ATOM     14  O   UNL     1     -15.374  37.801  64.723  1.00  0.00    -0.504 OA
ATOM     15  H   UNL     1     -16.232  37.932  65.246  1.00  0.00     0.293 HD
ENDBRANCH   8  14
TORSDOF 2
ENDMDL
MODEL 8
REMARK VINA RESULT:    -3.607      2.245      4.383
REMARK INTER + INTRA:          -3.817
REMARK INTER:                  -3.817
REMARK INTRA:                   0.000
REMARK UNBOUND:                 0.000
REMARK SMILES O=c1ccc2cc(O)c(O)cc2o1
REMARK SMILES IDX 4 1 3 2 2 3 1 4 13 5 12 6 11 7 9 8 7 9 6 10 5 11 8 12 10 14
REMARK H PARENT 8 13 10 15
REMARK Flexibility Score: inf
ROOT
ATOM      1  C   UNL     1     -11.181  40.256  62.295  1.00  0.00     0.019 A 
ATOM      2  C   UNL     1     -11.575  41.561  61.996  1.00  0.00     0.094 A 
ATOM      3  C   UNL     1     -12.890  41.952  62.270  1.00  0.00     0.336 A 
ATOM      4  O   UNL     1     -13.264  43.125  62.007  1.00  0.00    -0.246 OA
ATOM      5  O   UNL     1     -13.751  41.090  62.805  1.00  0.00    -0.423 OA
ATOM      6  C   UNL     1     -13.417  39.837  63.105  1.00  0.00     0.142 A 
ATOM      7  C   UNL     1     -14.365  38.977  63.667  1.00  0.00     0.098 A 
ATOM      8  C   UNL     1     -14.018  37.655  63.984  1.00  0.00     0.161 A 
ATOM      9  C   UNL     1     -12.717  37.193  63.739  1.00  0.00     0.158 A 
ATOM     10  C   UNL     1     -11.761  38.052  63.175  1.00  0.00     0.062 A 
ATOM     11  C   UNL     1     -12.107  39.372  62.857  1.00  0.00     0.022 A 
ENDROOT
BRANCH   9  12
ATOM     12  O   UNL     1     -12.381  35.878  64.058  1.00  0.00    -0.504 OA
ATOM     13  H   UNL     1     -12.939  35.096  63.735  1.00  0.00     0.293 HD
ENDBRANCH   9  12
BRANCH   8  14
ATOM     14  O   UNL     1     -14.961  36.795  64.544  1.00  0.00    -0.504 OA
ATOM     15  H   UNL     1     -14.988  36.615  65.541  1.00  0.00     0.293 HD
ENDBRANCH   8  14
TORSDOF 2
ENDMDL
MODEL 9
REMARK VINA RESULT:    -2.896      1.293      4.493
REMARK INTER + INTRA:          -3.065
REMARK INTER:                  -3.065
REMARK INTRA:                   0.000
REMARK UNBOUND:                 0.000
REMARK SMILES O=c1ccc2cc(O)c(O)cc2o1
REMARK SMILES IDX 4 1 3 2 2 3 1 4 13 5 12 6 11 7 9 8 7 9 6 10 5 11 8 12 10 14
REMARK H PARENT 8 13 10 15
REMARK Flexibility Score: inf
ROOT
ATOM      1  C   UNL     1     -13.582  39.775  62.887  1.00  0.00     0.019 A 
ATOM      2  C   UNL     1     -13.924  41.072  62.501  1.00  0.00     0.094 A 
ATOM      3  C   UNL     1     -12.910  41.951  62.108  1.00  0.00     0.336 A 
ATOM      4  O   UNL     1     -13.198  43.125  61.756  1.00  0.00    -0.246 OA
ATOM      5  O   UNL     1     -11.639  41.556  62.105  1.00  0.00    -0.423 OA
ATOM      6  C   UNL     1     -11.270  40.329  62.466  1.00  0.00     0.142 A 
ATOM      7  C   UNL     1      -9.919  39.970  62.442  1.00  0.00     0.098 A 
ATOM      8  C   UNL     1      -9.526  38.678  62.822  1.00  0.00     0.161 A 
ATOM      9  C   UNL     1     -10.488  37.742  63.227  1.00  0.00     0.158 A 
ATOM     10  C   UNL     1     -11.845  38.096  63.253  1.00  0.00     0.062 A 
ATOM     11  C   UNL     1     -12.240  39.387  62.874  1.00  0.00     0.022 A 
ENDROOT
BRANCH   9  12
ATOM     12  O   UNL     1     -10.087  36.461  63.602  1.00  0.00    -0.504 OA
ATOM     13  H   UNL     1      -9.107  36.205  63.651  1.00  0.00     0.293 HD
ENDBRANCH   9  12
BRANCH   8  14
ATOM     14  O   UNL     1      -8.179  38.318  62.800  1.00  0.00    -0.504 OA
ATOM     15  H   UNL     1      -7.671  38.113  63.653  1.00  0.00     0.293 HD
ENDBRANCH   8  14
TORSDOF 2
ENDMDL
