MODEL 1
REMARK VINA RESULT:    15.363      0.000      0.000
REMARK INTER + INTRA:          29.170
REMARK INTER:                  25.242
REMARK INTRA:                   3.928
REMARK UNBOUND:                 3.928
REMARK SMILES C[C@@H]1O[C@H](OC[C@@H]2O[C@H](Oc3c(-c4ccc(O)c(O)c4)oc4cc(O)cc(O)c4c3=O)[C@H](O)[C@H](O)[C@@H]2O)[C@H](O)[C@H](O)[C@H]1O
REMARK SMILES IDX 7 1 36 2 34 3 32 4 9 5 8 6 6 7 5 8 4 9 1 10 2 11 42 12 3 13
REMARK SMILES IDX 40 14 38 15 43 16 41 18 39 20 37 22 35 24 10 26 11 27 12 28
REMARK SMILES IDX 30 29 21 30 29 31 31 32 22 33 27 34 23 35 26 36 24 37 13 38
REMARK SMILES IDX 20 39 14 40 18 41 15 42 16 43 19 44 17 46 28 48 25 50 33 52
REMARK H PARENT 43 17 41 19 39 21 37 23 35 25 19 45 17 47 28 49 25 51 33 53
REMARK Flexibility Score: inf
ROOT
ATOM      1  C   UNL     1      91.978 102.578  99.737  1.00  0.00     0.180 C 
ATOM      2  C   UNL     1      91.875 101.535 100.898  1.00  0.00     0.177 C 
ATOM      3  C   UNL     1      92.552 102.053 102.182  1.00  0.00     0.180 C 
ATOM      4  C   UNL     1      93.847 102.794 101.847  1.00  0.00     0.214 C 
ATOM      5  C   UNL     1      93.524 103.981 100.903  1.00  0.00     0.339 C 
ATOM      6  O   UNL     1      92.283 103.880 100.213  1.00  0.00    -0.332 OA
ENDROOT
BRANCH   1   7
ATOM      7  C   UNL     1      92.887 102.173  98.553  1.00  0.00     0.198 C 
BRANCH   7   8
ATOM      8  O   UNL     1      93.200 100.799  98.648  1.00  0.00    -0.347 OA
BRANCH   8   9
ATOM      9  C   UNL     1      94.554 100.556  98.317  1.00  0.00     0.281 C 
ATOM     10  C   UNL     1      97.507 102.531  99.246  1.00  0.00     0.041 C 
ATOM     11  C   UNL     1      96.705 101.271  98.929  1.00  0.00     0.150 C 
ATOM     12  C   UNL     1      96.954 100.176 100.004  1.00  0.00     0.174 C 
ATOM     13  O   UNL     1      95.333 101.604  98.889  1.00  0.00    -0.344 OA
ATOM     14  C   UNL     1      95.721  99.254 100.169  1.00  0.00     0.179 C 
ATOM     15  C   UNL     1      94.962  99.143  98.838  1.00  0.00     0.202 C 
BRANCH  12  16
ATOM     16  O   UNL     1      98.106  99.429  99.684  1.00  0.00    -0.388 OA
ATOM     17  H   UNL     1      98.716 100.018  99.172  1.00  0.00     0.211 HD
ENDBRANCH  12  16
BRANCH  14  18
ATOM     18  O   UNL     1      94.874  99.785 101.164  1.00  0.00    -0.387 OA
ATOM     19  H   UNL     1      94.146  99.124 101.307  1.00  0.00     0.211 HD
ENDBRANCH  14  18
BRANCH  15  20
ATOM     20  O   UNL     1      93.844  98.302  98.989  1.00  0.00    -0.385 OA
ATOM     21  H   UNL     1      93.676  98.225  99.965  1.00  0.00     0.211 HD
ENDBRANCH  15  20
ENDBRANCH   8   9
ENDBRANCH   7   8
ENDBRANCH   1   7
BRANCH   2  22
ATOM     22  O   UNL     1      92.426 100.292 100.533  1.00  0.00    -0.387 OA
ATOM     23  H   UNL     1      92.482  99.749 101.359  1.00  0.00     0.211 HD
ENDBRANCH   2  22
BRANCH   3  24
ATOM     24  O   UNL     1      92.819 100.995 103.066  1.00  0.00    -0.387 OA
ATOM     25  H   UNL     1      93.479 101.334 103.724  1.00  0.00     0.211 HD
ENDBRANCH   3  24
BRANCH   5  26
ATOM     26  O   UNL     1      94.586 104.214  99.973  1.00  0.00    -0.454 OA
BRANCH  26  27
ATOM     27  C   UNL     1      94.842 105.470  99.402  1.00  0.00     0.214 A 
ATOM     28  C   UNL     1      95.234 105.616  98.051  1.00  0.00     0.180 A 
ATOM     29  C   UNL     1      94.692 106.618 100.186  1.00  0.00     0.239 A 
ATOM     30  O   UNL     1      95.363 106.829  97.525  1.00  0.00    -0.452 OA
ATOM     31  C   UNL     1      94.861 107.891  99.599  1.00  0.00     0.111 A 
ATOM     32  O   UNL     1      94.387 106.496 101.404  1.00  0.00    -0.285 OA
ATOM     33  C   UNL     1      95.187 107.944  98.224  1.00  0.00     0.146 A 
ATOM     34  C   UNL     1      94.708 109.098 100.320  1.00  0.00     0.134 A 
ATOM     35  C   UNL     1      95.334 109.177  97.581  1.00  0.00     0.094 A 
ATOM     36  C   UNL     1      94.858 110.325  99.658  1.00  0.00     0.093 A 
ATOM     37  C   UNL     1      95.165 110.367  98.292  1.00  0.00     0.123 A 
BRANCH  28  38
ATOM     38  C   UNL     1      95.524 104.452  97.189  1.00  0.00     0.025 A 
ATOM     39  C   UNL     1      94.526 103.512  96.891  1.00  0.00     0.062 A 
ATOM     40  C   UNL     1      96.815 104.274  96.678  1.00  0.00     0.016 A 
ATOM     41  C   UNL     1      94.802 102.427  96.050  1.00  0.00     0.158 A 
ATOM     42  C   UNL     1      97.094 103.194  95.836  1.00  0.00     0.051 A 
ATOM     43  C   UNL     1      96.090 102.273  95.513  1.00  0.00     0.157 A 
BRANCH  41  44
ATOM     44  O   UNL     1      93.785 101.519  95.759  1.00  0.00    -0.504 OA
ATOM     45  H   UNL     1      92.819 101.688  96.015  1.00  0.00     0.293 HD
ENDBRANCH  41  44
BRANCH  43  46
ATOM     46  O   UNL     1      96.367 101.206  94.661  1.00  0.00    -0.504 OA
ATOM     47  H   UNL     1      95.783 101.004  93.858  1.00  0.00     0.293 HD
ENDBRANCH  43  46
ENDBRANCH  28  38
BRANCH  34  48
ATOM     48  O   UNL     1      94.410 109.089 101.685  1.00  0.00    -0.507 OA
ATOM     49  H   UNL     1      94.143 109.932 102.181  1.00  0.00     0.293 HD
ENDBRANCH  34  48
BRANCH  37  50
ATOM     50  O   UNL     1      95.300 111.584  97.631  1.00  0.00    -0.508 OA
ATOM     51  H   UNL     1      95.341 112.461  98.137  1.00  0.00     0.293 HD
ENDBRANCH  37  50
ENDBRANCH  26  27
ENDBRANCH   5  26
BRANCH   4  52
ATOM     52  O   UNL     1      94.776 101.925 101.248  1.00  0.00    -0.384 OA
ATOM     53  H   UNL     1      95.674 102.339 101.355  1.00  0.00     0.211 HD
ENDBRANCH   4  52
TORSDOF 16
ENDMDL
MODEL 2
REMARK VINA RESULT:    15.466      0.503      1.078
REMARK INTER + INTRA:          29.340
REMARK INTER:                  26.963
REMARK INTRA:                   2.376
REMARK UNBOUND:                 3.928
REMARK SMILES C[C@@H]1O[C@H](OC[C@@H]2O[C@H](Oc3c(-c4ccc(O)c(O)c4)oc4cc(O)cc(O)c4c3=O)[C@H](O)[C@H](O)[C@@H]2O)[C@H](O)[C@H](O)[C@H]1O
REMARK SMILES IDX 7 1 36 2 34 3 32 4 9 5 8 6 6 7 5 8 4 9 1 10 2 11 42 12 3 13
REMARK SMILES IDX 40 14 38 15 43 16 41 18 39 20 37 22 35 24 10 26 11 27 12 28
REMARK SMILES IDX 30 29 21 30 29 31 31 32 22 33 27 34 23 35 26 36 24 37 13 38
REMARK SMILES IDX 20 39 14 40 18 41 15 42 16 43 19 44 17 46 28 48 25 50 33 52
REMARK H PARENT 43 17 41 19 39 21 37 23 35 25 19 45 17 47 28 49 25 51 33 53
REMARK Flexibility Score: inf
ROOT
ATOM      1  C   UNL     1      92.003 102.650  99.654  1.00  0.00     0.180 C 
ATOM      2  C   UNL     1      91.875 101.583 100.790  1.00  0.00     0.177 C 
ATOM      3  C   UNL     1      92.495 102.087 102.109  1.00  0.00     0.180 C 
ATOM      4  C   UNL     1      93.788 102.856 101.836  1.00  0.00     0.214 C 
ATOM      5  C   UNL     1      93.480 104.056 100.904  1.00  0.00     0.339 C 
ATOM      6  O   UNL     1      92.267 103.948 100.165  1.00  0.00    -0.332 OA
ENDROOT
BRANCH   1   7
ATOM      7  C   UNL     1      92.963 102.283  98.498  1.00  0.00     0.198 C 
BRANCH   7   8
ATOM      8  O   UNL     1      93.252 100.902  98.546  1.00  0.00    -0.347 OA
BRANCH   8   9
ATOM      9  C   UNL     1      94.612 100.651  98.249  1.00  0.00     0.281 C 
ATOM     10  C   UNL     1      97.559 102.559  99.323  1.00  0.00     0.041 C 
ATOM     11  C   UNL     1      96.752 101.319  98.945  1.00  0.00     0.150 C 
ATOM     12  C   UNL     1      96.955 100.191  99.995  1.00  0.00     0.174 C 
ATOM     13  O   UNL     1      95.386 101.671  98.874  1.00  0.00    -0.344 OA
ATOM     14  C   UNL     1      95.706  99.281 100.096  1.00  0.00     0.179 C 
ATOM     15  C   UNL     1      94.987  99.218  98.740  1.00  0.00     0.202 C 
BRANCH  12  16
ATOM     16  O   UNL     1      98.107  99.439  99.688  1.00  0.00    -0.388 OA
ATOM     17  H   UNL     1      98.888  99.910 100.075  1.00  0.00     0.211 HD
ENDBRANCH  12  16
BRANCH  14  18
ATOM     18  O   UNL     1      94.836  99.794 101.080  1.00  0.00    -0.387 OA
ATOM     19  H   UNL     1      95.016  99.287 101.916  1.00  0.00     0.211 HD
ENDBRANCH  14  18
BRANCH  15  20
ATOM     20  O   UNL     1      93.855  98.388  98.833  1.00  0.00    -0.385 OA
ATOM     21  H   UNL     1      93.889  97.959  99.728  1.00  0.00     0.211 HD
ENDBRANCH  15  20
ENDBRANCH   8   9
ENDBRANCH   7   8
ENDBRANCH   1   7
BRANCH   2  22
ATOM     22  O   UNL     1      92.461 100.357 100.423  1.00  0.00    -0.387 OA
ATOM     23  H   UNL     1      92.190  99.693 101.106  1.00  0.00     0.211 HD
ENDBRANCH   2  22
BRANCH   3  24
ATOM     24  O   UNL     1      92.747 101.017 102.982  1.00  0.00    -0.387 OA
ATOM     25  H   UNL     1      93.726 100.859 102.964  1.00  0.00     0.211 HD
ENDBRANCH   3  24
BRANCH   5  26
ATOM     26  O   UNL     1      94.571 104.325 100.019  1.00  0.00    -0.454 OA
BRANCH  26  27
ATOM     27  C   UNL     1      94.827 105.595  99.481  1.00  0.00     0.214 A 
ATOM     28  C   UNL     1      95.262 105.774  98.148  1.00  0.00     0.180 A 
ATOM     29  C   UNL     1      94.631 106.726 100.281  1.00  0.00     0.239 A 
ATOM     30  O   UNL     1      95.389 106.999  97.650  1.00  0.00    -0.452 OA
ATOM     31  C   UNL     1      94.799 108.012  99.725  1.00  0.00     0.111 A 
ATOM     32  O   UNL     1      94.286 106.574 101.485  1.00  0.00    -0.285 OA
ATOM     33  C   UNL     1      95.171 108.097  98.363  1.00  0.00     0.146 A 
ATOM     34  C   UNL     1      94.601 109.202 100.464  1.00  0.00     0.134 A 
ATOM     35  C   UNL     1      95.320 109.345  97.750  1.00  0.00     0.094 A 
ATOM     36  C   UNL     1      94.754 110.444  99.831  1.00  0.00     0.093 A 
ATOM     37  C   UNL     1      95.106 110.517  98.477  1.00  0.00     0.123 A 
BRANCH  28  38
ATOM     38  C   UNL     1      95.600 104.633  97.275  1.00  0.00     0.025 A 
ATOM     39  C   UNL     1      96.930 104.385  96.899  1.00  0.00     0.062 A 
ATOM     40  C   UNL     1      94.582 103.798  96.799  1.00  0.00     0.016 A 
ATOM     41  C   UNL     1      97.246 103.283  96.094  1.00  0.00     0.158 A 
ATOM     42  C   UNL     1      94.894 102.696  95.997  1.00  0.00     0.051 A 
ATOM     43  C   UNL     1      96.224 102.430  95.649  1.00  0.00     0.157 A 
BRANCH  41  44
ATOM     44  O   UNL     1      98.578 103.054  95.752  1.00  0.00    -0.504 OA
ATOM     45  H   UNL     1      99.099 102.260  96.106  1.00  0.00     0.293 HD
ENDBRANCH  41  44
BRANCH  43  46
ATOM     46  O   UNL     1      96.534 101.323  94.862  1.00  0.00    -0.504 OA
ATOM     47  H   UNL     1      97.464 100.922  94.854  1.00  0.00     0.293 HD
ENDBRANCH  43  46
ENDBRANCH  28  38
BRANCH  34  48
ATOM     48  O   UNL     1      94.257 109.161 101.817  1.00  0.00    -0.507 OA
ATOM     49  H   UNL     1      93.456 108.638 102.150  1.00  0.00     0.293 HD
ENDBRANCH  34  48
BRANCH  37  50
ATOM     50  O   UNL     1      95.244 111.750  97.845  1.00  0.00    -0.508 OA
ATOM     51  H   UNL     1      95.666 111.832  96.928  1.00  0.00     0.293 HD
ENDBRANCH  37  50
ENDBRANCH  26  27
ENDBRANCH   5  26
BRANCH   4  52
ATOM     52  O   UNL     1      94.753 102.014 101.256  1.00  0.00    -0.384 OA
ATOM     53  H   UNL     1      94.265 101.357 100.690  1.00  0.00     0.211 HD
ENDBRANCH   4  52
TORSDOF 16
ENDMDL
