MODEL 1
REMARK VINA RESULT:    -2.610      0.000      0.000
REMARK INTER + INTRA:          -6.060
REMARK INTER:                  -4.440
REMARK INTRA:                  -1.620
REMARK UNBOUND:                -1.620
REMARK SMILES CCCCCCCCCCCCCC(=O)[O-]
REMARK SMILES IDX 8 1 9 2 10 3 11 4 12 5 13 6 14 7 15 8 16 9 7 10 6 11 5 12
REMARK SMILES IDX 4 13 3 14 2 15 1 16
REMARK H PARENT
REMARK Flexibility Score: inf
ROOT
ATOM      1  C   UNL     1       3.068  23.103   6.391  1.00  0.00     0.000 C 
ENDROOT
BRANCH   1   2
ATOM      2  C   UNL     1       1.596  23.136   6.833  1.00  0.00     0.000 C 
BRANCH   2   3
ATOM      3  C   UNL     1       0.732  22.110   6.079  1.00  0.00     0.000 C 
BRANCH   3   4
ATOM      4  C   UNL     1      -0.454  22.762   5.350  1.00  0.00     0.000 C 
BRANCH   4   5
ATOM      5  C   UNL     1      -0.579  22.298   3.887  1.00  0.00     0.006 C 
BRANCH   5   6
ATOM      6  C   UNL     1       0.439  22.991   2.972  1.00  0.00     0.053 C 
BRANCH   6   7
ATOM      7  C   UNL     1       0.011  24.382   2.619  1.00  0.00     0.041 C 
ATOM      8  O   UNL     1      -1.212  24.679   2.585  1.00  0.00    -0.550 OA
ATOM      9  O   UNL     1       0.962  25.340   2.293  1.00  0.00    -0.550 OA
ENDBRANCH   6   7
ENDBRANCH   5   6
ENDBRANCH   4   5
ENDBRANCH   3   4
ENDBRANCH   2   3
ENDBRANCH   1   2
BRANCH   1  10
ATOM     10  C   UNL     1       3.328  22.085   5.266  1.00  0.00     0.000 C 
BRANCH  10  11
ATOM     11  C   UNL     1       4.041  22.709   4.054  1.00  0.00    -0.000 C 
BRANCH  11  12
ATOM     12  C   UNL     1       4.099  24.244   4.131  1.00  0.00    -0.000 C 
BRANCH  12  13
ATOM     13  C   UNL     1       5.509  24.804   3.870  1.00  0.00    -0.000 C 
BRANCH  13  14
ATOM     14  C   UNL     1       6.589  24.347   4.868  1.00  0.00    -0.000 C 
BRANCH  14  15
ATOM     15  C   UNL     1       6.348  24.865   6.292  1.00  0.00    -0.003 C 
ATOM     16  C   UNL     1       6.512  23.748   7.319  1.00  0.00     0.004 C 
ENDBRANCH  14  15
ENDBRANCH  13  14
ENDBRANCH  12  13
ENDBRANCH  11  12
ENDBRANCH  10  11
ENDBRANCH   1  10
TORSDOF 12
ENDMDL
MODEL 2
REMARK VINA RESULT:    -2.590      2.023      3.763
REMARK INTER + INTRA:          -6.027
REMARK INTER:                  -4.150
REMARK INTRA:                  -1.877
REMARK UNBOUND:                -1.620
REMARK SMILES CCCCCCCCCCCCCC(=O)[O-]
REMARK SMILES IDX 8 1 9 2 10 3 11 4 12 5 13 6 14 7 15 8 16 9 7 10 6 11 5 12
REMARK SMILES IDX 4 13 3 14 2 15 1 16
REMARK H PARENT
REMARK Flexibility Score: inf
ROOT
ATOM      1  C   UNL     1       4.562  24.567   3.911  1.00  0.00     0.000 C 
ENDROOT
BRANCH   1   2
ATOM      2  C   UNL     1       3.385  23.622   3.622  1.00  0.00     0.000 C 
BRANCH   2   3
ATOM      3  C   UNL     1       3.652  22.184   4.099  1.00  0.00     0.000 C 
BRANCH   3   4
ATOM      4  C   UNL     1       2.555  21.663   5.043  1.00  0.00     0.000 C 
BRANCH   4   5
ATOM      5  C   UNL     1       1.925  22.781   5.894  1.00  0.00     0.006 C 
BRANCH   5   6
ATOM      6  C   UNL     1       0.899  22.235   6.896  1.00  0.00     0.053 C 
BRANCH   6   7
ATOM      7  C   UNL     1      -0.459  22.100   6.280  1.00  0.00     0.041 C 
ATOM      8  O   UNL     1      -0.807  22.862   5.340  1.00  0.00    -0.550 OA
ATOM      9  O   UNL     1      -1.354  21.157   6.769  1.00  0.00    -0.550 OA
ENDBRANCH   6   7
ENDBRANCH   5   6
ENDBRANCH   4   5
ENDBRANCH   3   4
ENDBRANCH   2   3
ENDBRANCH   1   2
BRANCH   1  10
ATOM     10  C   UNL     1       5.905  23.823   4.030  1.00  0.00     0.000 C 
BRANCH  10  11
ATOM     11  C   UNL     1       6.950  24.610   4.840  1.00  0.00    -0.000 C 
BRANCH  11  12
ATOM     12  C   UNL     1       6.445  24.988   6.242  1.00  0.00    -0.000 C 
BRANCH  12  13
ATOM     13  C   UNL     1       6.450  23.800   7.222  1.00  0.00    -0.000 C 
BRANCH  13  14
ATOM     14  C   UNL     1       5.061  23.247   7.588  1.00  0.00    -0.000 C 
BRANCH  14  15
ATOM     15  C   UNL     1       5.047  21.721   7.752  1.00  0.00    -0.003 C 
ATOM     16  C   UNL     1       5.995  21.052   6.761  1.00  0.00     0.004 C 
ENDBRANCH  14  15
ENDBRANCH  13  14
ENDBRANCH  12  13
ENDBRANCH  11  12
ENDBRANCH  10  11
ENDBRANCH   1  10
TORSDOF 12
ENDMDL
MODEL 3
REMARK VINA RESULT:    -2.544      1.374      2.850
REMARK INTER + INTRA:          -5.948
REMARK INTER:                  -4.096
REMARK INTRA:                  -1.851
REMARK UNBOUND:                -1.620
REMARK SMILES CCCCCCCCCCCCCC(=O)[O-]
REMARK SMILES IDX 8 1 9 2 10 3 11 4 12 5 13 6 14 7 15 8 16 9 7 10 6 11 5 12
REMARK SMILES IDX 4 13 3 14 2 15 1 16
REMARK H PARENT
REMARK Flexibility Score: inf
ROOT
ATOM      1  C   UNL     1       3.550  23.503   6.760  1.00  0.00     0.000 C 
ENDROOT
BRANCH   1   2
ATOM      2  C   UNL     1       2.699  22.337   6.233  1.00  0.00     0.000 C 
BRANCH   2   3
ATOM      3  C   UNL     1       3.445  21.488   5.188  1.00  0.00     0.000 C 
BRANCH   3   4
ATOM      4  C   UNL     1       2.766  21.522   3.809  1.00  0.00     0.000 C 
BRANCH   4   5
ATOM      5  C   UNL     1       1.230  21.548   3.904  1.00  0.00     0.006 C 
BRANCH   5   6
ATOM      6  C   UNL     1       0.624  22.738   3.149  1.00  0.00     0.053 C 
BRANCH   6   7
ATOM      7  C   UNL     1      -0.334  23.508   4.006  1.00  0.00     0.041 C 
ATOM      8  O   UNL     1      -0.610  23.105   5.167  1.00  0.00    -0.550 OA
ATOM      9  O   UNL     1      -0.948  24.650   3.508  1.00  0.00    -0.550 OA
ENDBRANCH   6   7
ENDBRANCH   5   6
ENDBRANCH   4   5
ENDBRANCH   3   4
ENDBRANCH   2   3
ENDBRANCH   1   2
BRANCH   1  10
ATOM     10  C   UNL     1       4.942  23.054   7.240  1.00  0.00     0.000 C 
BRANCH  10  11
ATOM     11  C   UNL     1       5.978  24.191   7.203  1.00  0.00    -0.000 C 
BRANCH  11  12
ATOM     12  C   UNL     1       6.135  24.798   5.799  1.00  0.00    -0.000 C 
BRANCH  12  13
ATOM     13  C   UNL     1       6.418  23.740   4.716  1.00  0.00    -0.000 C 
BRANCH  13  14
ATOM     14  C   UNL     1       5.675  23.951   3.385  1.00  0.00    -0.000 C 
BRANCH  14  15
ATOM     15  C   UNL     1       4.513  24.947   3.498  1.00  0.00    -0.003 C 
ATOM     16  C   UNL     1       3.558  24.815   2.314  1.00  0.00     0.004 C 
ENDBRANCH  14  15
ENDBRANCH  13  14
ENDBRANCH  12  13
ENDBRANCH  11  12
ENDBRANCH  10  11
ENDBRANCH   1  10
TORSDOF 12
ENDMDL
MODEL 4
REMARK VINA RESULT:    -2.534      2.493      4.200
REMARK INTER + INTRA:          -5.931
REMARK INTER:                  -4.474
REMARK INTRA:                  -1.458
REMARK UNBOUND:                -1.620
REMARK SMILES CCCCCCCCCCCCCC(=O)[O-]
REMARK SMILES IDX 8 1 9 2 10 3 11 4 12 5 13 6 14 7 15 8 16 9 7 10 6 11 5 12
REMARK SMILES IDX 4 13 3 14 2 15 1 16
REMARK H PARENT
REMARK Flexibility Score: inf
ROOT
ATOM      1  C   UNL     1       4.897  23.427   7.508  1.00  0.00     0.000 C 
ENDROOT
BRANCH   1   2
ATOM      2  C   UNL     1       5.305  21.962   7.729  1.00  0.00     0.000 C 
BRANCH   2   3
ATOM      3  C   UNL     1       4.526  20.990   6.824  1.00  0.00     0.000 C 
BRANCH   3   4
ATOM      4  C   UNL     1       3.023  20.965   7.144  1.00  0.00     0.000 C 
BRANCH   4   5
ATOM      5  C   UNL     1       2.164  21.557   6.012  1.00  0.00     0.006 C 
BRANCH   5   6
ATOM      6  C   UNL     1       1.237  22.673   6.512  1.00  0.00     0.053 C 
BRANCH   6   7
ATOM      7  C   UNL     1      -0.120  22.149   6.866  1.00  0.00     0.041 C 
ATOM      8  O   UNL     1      -0.356  21.735   8.032  1.00  0.00    -0.550 OA
ATOM      9  O   UNL     1      -1.115  22.085   5.899  1.00  0.00    -0.550 OA
ENDBRANCH   6   7
ENDBRANCH   5   6
ENDBRANCH   4   5
ENDBRANCH   3   4
ENDBRANCH   2   3
ENDBRANCH   1   2
BRANCH   1  10
ATOM     10  C   UNL     1       6.044  24.285   6.944  1.00  0.00     0.000 C 
BRANCH  10  11
ATOM     11  C   UNL     1       5.911  24.533   5.432  1.00  0.00    -0.000 C 
BRANCH  11  12
ATOM     12  C   UNL     1       4.480  24.298   4.920  1.00  0.00    -0.000 C 
BRANCH  12  13
ATOM     13  C   UNL     1       4.431  23.395   3.674  1.00  0.00    -0.000 C 
BRANCH  13  14
ATOM     14  C   UNL     1       3.670  23.980   2.470  1.00  0.00    -0.000 C 
BRANCH  14  15
ATOM     15  C   UNL     1       4.220  25.339   2.017  1.00  0.00    -0.003 C 
ATOM     16  C   UNL     1       3.146  26.421   2.093  1.00  0.00     0.004 C 
ENDBRANCH  14  15
ENDBRANCH  13  14
ENDBRANCH  12  13
ENDBRANCH  11  12
ENDBRANCH  10  11
ENDBRANCH   1  10
TORSDOF 12
ENDMDL
MODEL 5
REMARK VINA RESULT:    -2.531      1.523      3.683
REMARK INTER + INTRA:          -5.926
REMARK INTER:                  -4.047
REMARK INTRA:                  -1.879
REMARK UNBOUND:                -1.620
REMARK SMILES CCCCCCCCCCCCCC(=O)[O-]
REMARK SMILES IDX 8 1 9 2 10 3 11 4 12 5 13 6 14 7 15 8 16 9 7 10 6 11 5 12
REMARK SMILES IDX 4 13 3 14 2 15 1 16
REMARK H PARENT
REMARK Flexibility Score: inf
ROOT
ATOM      1  C   UNL     1       5.165  25.000   3.766  1.00  0.00     0.000 C 
ENDROOT
BRANCH   1   2
ATOM      2  C   UNL     1       3.907  24.211   3.370  1.00  0.00     0.000 C 
BRANCH   2   3
ATOM      3  C   UNL     1       4.165  22.696   3.284  1.00  0.00     0.000 C 
BRANCH   3   4
ATOM      4  C   UNL     1       2.870  21.888   3.099  1.00  0.00     0.000 C 
BRANCH   4   5
ATOM      5  C   UNL     1       1.607  22.767   3.167  1.00  0.00     0.006 C 
BRANCH   5   6
ATOM      6  C   UNL     1       0.415  22.020   3.780  1.00  0.00     0.053 C 
BRANCH   6   7
ATOM      7  C   UNL     1      -0.419  22.919   4.639  1.00  0.00     0.041 C 
ATOM      8  O   UNL     1      -0.730  24.071   4.237  1.00  0.00    -0.550 OA
ATOM      9  O   UNL     1      -0.823  22.497   5.899  1.00  0.00    -0.550 OA
ENDBRANCH   6   7
ENDBRANCH   5   6
ENDBRANCH   4   5
ENDBRANCH   3   4
ENDBRANCH   2   3
ENDBRANCH   1   2
BRANCH   1  10
ATOM     10  C   UNL     1       6.101  24.201   4.691  1.00  0.00     0.000 C 
BRANCH  10  11
ATOM     11  C   UNL     1       6.359  24.910   6.031  1.00  0.00    -0.000 C 
BRANCH  11  12
ATOM     12  C   UNL     1       6.289  23.948   7.229  1.00  0.00    -0.000 C 
BRANCH  12  13
ATOM     13  C   UNL     1       5.876  22.520   6.828  1.00  0.00    -0.000 C 
BRANCH  13  14
ATOM     14  C   UNL     1       4.711  21.924   7.638  1.00  0.00    -0.000 C 
BRANCH  14  15
ATOM     15  C   UNL     1       3.414  21.805   6.826  1.00  0.00    -0.003 C 
ATOM     16  C   UNL     1       2.719  23.158   6.698  1.00  0.00     0.004 C 
ENDBRANCH  14  15
ENDBRANCH  13  14
ENDBRANCH  12  13
ENDBRANCH  11  12
ENDBRANCH  10  11
ENDBRANCH   1  10
TORSDOF 12
ENDMDL
MODEL 6
REMARK VINA RESULT:    -2.499      1.809      3.949
REMARK INTER + INTRA:          -5.872
REMARK INTER:                  -3.838
REMARK INTRA:                  -2.034
REMARK UNBOUND:                -1.620
REMARK SMILES CCCCCCCCCCCCCC(=O)[O-]
REMARK SMILES IDX 8 1 9 2 10 3 11 4 12 5 13 6 14 7 15 8 16 9 7 10 6 11 5 12
REMARK SMILES IDX 4 13 3 14 2 15 1 16
REMARK H PARENT
REMARK Flexibility Score: inf
ROOT
ATOM      1  C   UNL     1       6.185  23.290   7.497  1.00  0.00     0.000 C 
ENDROOT
BRANCH   1   2
ATOM      2  C   UNL     1       6.444  22.071   6.597  1.00  0.00     0.000 C 
BRANCH   2   3
ATOM      3  C   UNL     1       5.177  21.229   6.366  1.00  0.00     0.000 C 
BRANCH   3   4
ATOM      4  C   UNL     1       3.973  21.743   7.173  1.00  0.00     0.000 C 
BRANCH   4   5
ATOM      5  C   UNL     1       2.641  21.587   6.418  1.00  0.00     0.006 C 
BRANCH   5   6
ATOM      6  C   UNL     1       1.746  22.825   6.562  1.00  0.00     0.053 C 
BRANCH   6   7
ATOM      7  C   UNL     1       0.534  22.737   5.687  1.00  0.00     0.041 C 
ATOM      8  O   UNL     1      -0.588  22.454   6.185  1.00  0.00    -0.550 OA
ATOM      9  O   UNL     1       0.650  22.932   4.317  1.00  0.00    -0.550 OA
ENDBRANCH   6   7
ENDBRANCH   5   6
ENDBRANCH   4   5
ENDBRANCH   3   4
ENDBRANCH   2   3
ENDBRANCH   1   2
BRANCH   1  10
ATOM     10  C   UNL     1       6.185  24.616   6.716  1.00  0.00     0.000 C 
BRANCH  10  11
ATOM     11  C   UNL     1       6.824  24.485   5.323  1.00  0.00    -0.000 C 
BRANCH  11  12
ATOM     12  C   UNL     1       5.876  24.930   4.196  1.00  0.00    -0.000 C 
BRANCH  12  13
ATOM     13  C   UNL     1       4.457  24.349   4.343  1.00  0.00    -0.000 C 
BRANCH  13  14
ATOM     14  C   UNL     1       3.868  23.730   3.062  1.00  0.00    -0.000 C 
BRANCH  14  15
ATOM     15  C   UNL     1       3.915  22.196   3.062  1.00  0.00    -0.003 C 
ATOM     16  C   UNL     1       5.286  21.686   2.627  1.00  0.00     0.004 C 
ENDBRANCH  14  15
ENDBRANCH  13  14
ENDBRANCH  12  13
ENDBRANCH  11  12
ENDBRANCH  10  11
ENDBRANCH   1  10
TORSDOF 12
ENDMDL
MODEL 7
REMARK VINA RESULT:    -2.498      1.453      4.556
REMARK INTER + INTRA:          -5.869
REMARK INTER:                  -3.921
REMARK INTRA:                  -1.948
REMARK UNBOUND:                -1.620
REMARK SMILES CCCCCCCCCCCCCC(=O)[O-]
REMARK SMILES IDX 8 1 9 2 10 3 11 4 12 5 13 6 14 7 15 8 16 9 7 10 6 11 5 12
REMARK SMILES IDX 4 13 3 14 2 15 1 16
REMARK H PARENT
REMARK Flexibility Score: inf
ROOT
ATOM      1  C   UNL     1       5.835  23.964   7.513  1.00  0.00     0.000 C 
ENDROOT
BRANCH   1   2
ATOM      2  C   UNL     1       6.445  24.617   6.263  1.00  0.00     0.000 C 
BRANCH   2   3
ATOM      3  C   UNL     1       5.472  24.631   5.071  1.00  0.00     0.000 C 
BRANCH   3   4
ATOM      4  C   UNL     1       5.848  23.602   3.992  1.00  0.00     0.000 C 
BRANCH   4   5
ATOM      5  C   UNL     1       4.694  23.318   3.014  1.00  0.00     0.006 C 
BRANCH   5   6
ATOM      6  C   UNL     1       3.612  24.404   3.066  1.00  0.00     0.053 C 
BRANCH   6   7
ATOM      7  C   UNL     1       2.290  23.893   2.581  1.00  0.00     0.041 C 
ATOM      8  O   UNL     1       2.089  22.654   2.478  1.00  0.00    -0.550 OA
ATOM      9  O   UNL     1       1.293  24.785   2.210  1.00  0.00    -0.550 OA
ENDBRANCH   6   7
ENDBRANCH   5   6
ENDBRANCH   4   5
ENDBRANCH   3   4
ENDBRANCH   2   3
ENDBRANCH   1   2
BRANCH   1  10
ATOM     10  C   UNL     1       6.087  22.446   7.573  1.00  0.00     0.000 C 
BRANCH  10  11
ATOM     11  C   UNL     1       4.784  21.629   7.611  1.00  0.00    -0.000 C 
BRANCH  11  12
ATOM     12  C   UNL     1       4.409  21.055   6.234  1.00  0.00    -0.000 C 
BRANCH  12  13
ATOM     13  C   UNL     1       3.003  21.479   5.771  1.00  0.00    -0.000 C 
BRANCH  13  14
ATOM     14  C   UNL     1       2.514  22.832   6.317  1.00  0.00    -0.000 C 
BRANCH  14  15
ATOM     15  C   UNL     1       1.029  22.821   6.705  1.00  0.00    -0.003 C 
ATOM     16  C   UNL     1       0.137  22.782   5.468  1.00  0.00     0.004 C 
ENDBRANCH  14  15
ENDBRANCH  13  14
ENDBRANCH  12  13
ENDBRANCH  11  12
ENDBRANCH  10  11
ENDBRANCH   1  10
TORSDOF 12
ENDMDL
MODEL 8
REMARK VINA RESULT:    -2.329      3.167      6.176
REMARK INTER + INTRA:          -5.583
REMARK INTER:                  -4.167
REMARK INTRA:                  -1.416
REMARK UNBOUND:                -1.620
REMARK SMILES CCCCCCCCCCCCCC(=O)[O-]
REMARK SMILES IDX 8 1 9 2 10 3 11 4 12 5 13 6 14 7 15 8 16 9 7 10 6 11 5 12
REMARK SMILES IDX 4 13 3 14 2 15 1 16
REMARK H PARENT
REMARK Flexibility Score: inf
ROOT
ATOM      1  C   UNL     1       4.055  24.968   3.225  1.00  0.00     0.000 C 
ENDROOT
BRANCH   1   2
ATOM      2  C   UNL     1       4.897  24.325   4.338  1.00  0.00     0.000 C 
BRANCH   2   3
ATOM      3  C   UNL     1       6.395  24.657   4.209  1.00  0.00     0.000 C 
BRANCH   3   4
ATOM      4  C   UNL     1       7.036  25.020   5.559  1.00  0.00     0.000 C 
BRANCH   4   5
ATOM      5  C   UNL     1       6.169  24.601   6.760  1.00  0.00     0.006 C 
BRANCH   5   6
ATOM      6  C   UNL     1       6.814  23.471   7.573  1.00  0.00     0.053 C 
BRANCH   6   7
ATOM      7  C   UNL     1       6.067  22.183   7.423  1.00  0.00     0.041 C 
ATOM      8  O   UNL     1       6.077  21.568   6.323  1.00  0.00    -0.550 OA
ATOM      9  O   UNL     1       5.329  21.678   8.486  1.00  0.00    -0.550 OA
ENDBRANCH   6   7
ENDBRANCH   5   6
ENDBRANCH   4   5
ENDBRANCH   3   4
ENDBRANCH   2   3
ENDBRANCH   1   2
BRANCH   1  10
ATOM     10  C   UNL     1       3.203  23.942   2.456  1.00  0.00     0.000 C 
BRANCH  10  11
ATOM     11  C   UNL     1       3.231  22.545   3.101  1.00  0.00    -0.000 C 
BRANCH  11  12
ATOM     12  C   UNL     1       1.886  21.812   2.975  1.00  0.00    -0.000 C 
BRANCH  12  13
ATOM     13  C   UNL     1       1.242  21.503   4.339  1.00  0.00    -0.000 C 
BRANCH  13  14
ATOM     14  C   UNL     1       0.679  22.724   5.089  1.00  0.00    -0.000 C 
BRANCH  14  15
ATOM     15  C   UNL     1       1.089  22.761   6.567  1.00  0.00    -0.003 C 
ATOM     16  C   UNL     1       2.557  23.149   6.722  1.00  0.00     0.004 C 
ENDBRANCH  14  15
ENDBRANCH  13  14
ENDBRANCH  12  13
ENDBRANCH  11  12
ENDBRANCH  10  11
ENDBRANCH   1  10
TORSDOF 12
ENDMDL
MODEL 9
REMARK VINA RESULT:    -2.309      2.649      5.801
REMARK INTER + INTRA:          -5.549
REMARK INTER:                  -3.663
REMARK INTRA:                  -1.886
REMARK UNBOUND:                -1.620
REMARK SMILES CCCCCCCCCCCCCC(=O)[O-]
REMARK SMILES IDX 8 1 9 2 10 3 11 4 12 5 13 6 14 7 15 8 16 9 7 10 6 11 5 12
REMARK SMILES IDX 4 13 3 14 2 15 1 16
REMARK H PARENT
REMARK Flexibility Score: inf
ROOT
ATOM      1  C   UNL     1       0.573  24.612   2.618  1.00  0.00     0.000 C 
ENDROOT
BRANCH   1   2
ATOM      2  C   UNL     1       1.456  23.382   2.348  1.00  0.00     0.000 C 
BRANCH   2   3
ATOM      3  C   UNL     1       2.893  23.563   2.868  1.00  0.00     0.000 C 
BRANCH   3   4
ATOM      4  C   UNL     1       3.474  22.266   3.454  1.00  0.00     0.000 C 
BRANCH   4   5
ATOM      5  C   UNL     1       4.417  22.522   4.644  1.00  0.00     0.006 C 
BRANCH   5   6
ATOM      6  C   UNL     1       4.312  23.961   5.165  1.00  0.00     0.053 C 
BRANCH   6   7
ATOM      7  C   UNL     1       5.648  24.637   5.199  1.00  0.00     0.041 C 
ATOM      8  O   UNL     1       6.218  24.860   6.299  1.00  0.00    -0.550 OA
ATOM      9  O   UNL     1       6.247  25.052   4.016  1.00  0.00    -0.550 OA
ENDBRANCH   6   7
ENDBRANCH   5   6
ENDBRANCH   4   5
ENDBRANCH   3   4
ENDBRANCH   2   3
ENDBRANCH   1   2
BRANCH   1  10
ATOM     10  C   UNL     1      -0.787  24.242   3.236  1.00  0.00     0.000 C 
BRANCH  10  11
ATOM     11  C   UNL     1      -1.469  23.068   2.513  1.00  0.00    -0.000 C 
BRANCH  11  12
ATOM     12  C   UNL     1      -1.789  21.899   3.459  1.00  0.00    -0.000 C 
BRANCH  12  13
ATOM     13  C   UNL     1      -1.026  21.983   4.794  1.00  0.00    -0.000 C 
BRANCH  13  14
ATOM     14  C   UNL     1       0.195  21.052   4.910  1.00  0.00    -0.000 C 
BRANCH  14  15
ATOM     15  C   UNL     1       1.053  21.339   6.150  1.00  0.00    -0.003 C 
ATOM     16  C   UNL     1       1.057  22.828   6.484  1.00  0.00     0.004 C 
ENDBRANCH  14  15
ENDBRANCH  13  14
ENDBRANCH  12  13
ENDBRANCH  11  12
ENDBRANCH  10  11
ENDBRANCH   1  10
TORSDOF 12
ENDMDL
