MODEL 1
REMARK VINA RESULT:    -5.615      0.000      0.000
REMARK INTER + INTRA:         -13.336
REMARK INTER:                 -10.866
REMARK INTRA:                  -2.470
REMARK UNBOUND:                -2.470
REMARK SMILES CCCCCCCCCCCCCCCCCC(=O)[O-]
REMARK SMILES IDX 10 1 11 2 12 3 13 4 14 5 15 6 16 7 17 8 18 9 19 10 20 11
REMARK SMILES IDX 9 12 8 13 7 14 6 15 5 16 4 17 3 18 2 19 1 20
REMARK H PARENT
REMARK Flexibility Score: inf
ROOT
ATOM      1  C   UNL     1     166.099 152.299 150.215  1.00  0.00     0.000 C 
ENDROOT
BRANCH   1   2
ATOM      2  C   UNL     1     166.326 153.641 149.502  1.00  0.00     0.000 C 
BRANCH   2   3
ATOM      3  C   UNL     1     167.731 154.213 149.752  1.00  0.00     0.000 C 
BRANCH   3   4
ATOM      4  C   UNL     1     168.572 153.333 150.688  1.00  0.00     0.000 C 
BRANCH   4   5
ATOM      5  C   UNL     1     169.916 152.974 150.043  1.00  0.00     0.000 C 
BRANCH   5   6
ATOM      6  C   UNL     1     169.791 152.899 148.515  1.00  0.00     0.000 C 
BRANCH   6   7
ATOM      7  C   UNL     1     169.416 151.495 148.008  1.00  0.00     0.006 C 
BRANCH   7   8
ATOM      8  C   UNL     1     170.429 150.898 147.015  1.00  0.00     0.053 C 
BRANCH   8   9
ATOM      9  C   UNL     1     171.249 149.799 147.621  1.00  0.00     0.041 C 
ATOM     10  O   UNL     1     171.815 148.951 146.883  1.00  0.00    -0.550 OA
ATOM     11  O   UNL     1     171.418 149.731 148.998  1.00  0.00    -0.550 OA
ENDBRANCH   8   9
ENDBRANCH   7   8
ENDBRANCH   6   7
ENDBRANCH   5   6
ENDBRANCH   4   5
ENDBRANCH   3   4
ENDBRANCH   2   3
ENDBRANCH   1   2
BRANCH   1  12
ATOM     12  C   UNL     1     164.680 151.776 149.961  1.00  0.00     0.000 C 
BRANCH  12  13
ATOM     13  C   UNL     1     164.113 151.092 151.214  1.00  0.00    -0.000 C 
BRANCH  13  14
ATOM     14  C   UNL     1     163.970 152.051 152.410  1.00  0.00    -0.000 C 
BRANCH  14  15
ATOM     15  C   UNL     1     164.778 151.658 153.660  1.00  0.00    -0.000 C 
BRANCH  15  16
ATOM     16  C   UNL     1     165.919 152.638 153.969  1.00  0.00    -0.000 C 
BRANCH  16  17
ATOM     17  C   UNL     1     165.425 154.092 153.912  1.00  0.00    -0.000 C 
BRANCH  17  18
ATOM     18  C   UNL     1     166.426 155.039 153.224  1.00  0.00    -0.000 C 
BRANCH  18  19
ATOM     19  C   UNL     1     165.787 156.097 152.308  1.00  0.00    -0.003 C 
ATOM     20  C   UNL     1     164.444 155.657 151.731  1.00  0.00     0.004 C 
ENDBRANCH  18  19
ENDBRANCH  17  18
ENDBRANCH  16  17
ENDBRANCH  15  16
ENDBRANCH  14  15
ENDBRANCH  13  14
ENDBRANCH  12  13
ENDBRANCH   1  12
TORSDOF 16
ENDMDL
MODEL 2
REMARK VINA RESULT:    -5.565      3.661      6.437
REMARK INTER + INTRA:         -13.241
REMARK INTER:                 -10.974
REMARK INTRA:                  -2.267
REMARK UNBOUND:                -2.470
REMARK SMILES CCCCCCCCCCCCCCCCCC(=O)[O-]
REMARK SMILES IDX 10 1 11 2 12 3 13 4 14 5 15 6 16 7 17 8 18 9 19 10 20 11
REMARK SMILES IDX 9 12 8 13 7 14 6 15 5 16 4 17 3 18 2 19 1 20
REMARK H PARENT
REMARK Flexibility Score: inf
ROOT
ATOM      1  C   UNL     1     163.672 151.125 150.936  1.00  0.00     0.000 C 
ENDROOT
BRANCH   1   2
ATOM      2  C   UNL     1     163.975 151.091 152.442  1.00  0.00     0.000 C 
BRANCH   2   3
ATOM      3  C   UNL     1     165.147 152.007 152.832  1.00  0.00     0.000 C 
BRANCH   3   4
ATOM      4  C   UNL     1     165.284 152.179 154.352  1.00  0.00     0.000 C 
BRANCH   4   5
ATOM      5  C   UNL     1     166.364 153.214 154.691  1.00  0.00     0.000 C 
BRANCH   5   6
ATOM      6  C   UNL     1     166.883 153.904 153.422  1.00  0.00     0.000 C 
BRANCH   6   7
ATOM      7  C   UNL     1     166.582 155.413 153.388  1.00  0.00     0.006 C 
BRANCH   7   8
ATOM      8  C   UNL     1     165.658 155.840 152.234  1.00  0.00     0.053 C 
BRANCH   8   9
ATOM      9  C   UNL     1     164.256 155.340 152.404  1.00  0.00     0.041 C 
ATOM     10  O   UNL     1     163.677 154.745 151.457  1.00  0.00    -0.550 OA
ATOM     11  O   UNL     1     163.599 155.497 153.618  1.00  0.00    -0.550 OA
ENDBRANCH   8   9
ENDBRANCH   7   8
ENDBRANCH   6   7
ENDBRANCH   5   6
ENDBRANCH   4   5
ENDBRANCH   3   4
ENDBRANCH   2   3
ENDBRANCH   1   2
BRANCH   1  12
ATOM     12  C   UNL     1     163.551 149.707 150.368  1.00  0.00     0.000 C 
BRANCH  12  13
ATOM     13  C   UNL     1     163.701 149.710 148.840  1.00  0.00    -0.000 C 
BRANCH  13  14
ATOM     14  C   UNL     1     163.645 151.125 148.234  1.00  0.00    -0.000 C 
BRANCH  14  15
ATOM     15  C   UNL     1     164.805 151.471 147.283  1.00  0.00    -0.000 C 
BRANCH  15  16
ATOM     16  C   UNL     1     166.117 150.764 147.655  1.00  0.00    -0.000 C 
BRANCH  16  17
ATOM     17  C   UNL     1     167.157 151.772 148.167  1.00  0.00    -0.000 C 
BRANCH  17  18
ATOM     18  C   UNL     1     166.773 152.395 149.522  1.00  0.00    -0.000 C 
BRANCH  18  19
ATOM     19  C   UNL     1     167.548 153.672 149.888  1.00  0.00    -0.003 C 
ATOM     20  C   UNL     1     168.956 153.389 150.408  1.00  0.00     0.004 C 
ENDBRANCH  18  19
ENDBRANCH  17  18
ENDBRANCH  16  17
ENDBRANCH  15  16
ENDBRANCH  14  15
ENDBRANCH  13  14
ENDBRANCH  12  13
ENDBRANCH   1  12
TORSDOF 16
ENDMDL
MODEL 3
REMARK VINA RESULT:    -5.521      3.232      6.516
REMARK INTER + INTRA:         -13.154
REMARK INTER:                 -10.932
REMARK INTRA:                  -2.223
REMARK UNBOUND:                -2.470
REMARK SMILES CCCCCCCCCCCCCCCCCC(=O)[O-]
REMARK SMILES IDX 10 1 11 2 12 3 13 4 14 5 15 6 16 7 17 8 18 9 19 10 20 11
REMARK SMILES IDX 9 12 8 13 7 14 6 15 5 16 4 17 3 18 2 19 1 20
REMARK H PARENT
REMARK Flexibility Score: inf
ROOT
ATOM      1  C   UNL     1     164.344 152.052 146.669  1.00  0.00     0.000 C 
ENDROOT
BRANCH   1   2
ATOM      2  C   UNL     1     164.144 150.821 147.566  1.00  0.00     0.000 C 
BRANCH   2   3
ATOM      3  C   UNL     1     163.874 151.194 149.033  1.00  0.00     0.000 C 
BRANCH   3   4
ATOM      4  C   UNL     1     163.596 149.968 149.915  1.00  0.00     0.000 C 
BRANCH   4   5
ATOM      5  C   UNL     1     163.593 150.351 151.400  1.00  0.00     0.000 C 
BRANCH   5   6
ATOM      6  C   UNL     1     164.522 151.544 151.663  1.00  0.00     0.000 C 
BRANCH   6   7
ATOM      7  C   UNL     1     164.566 151.960 153.145  1.00  0.00     0.006 C 
BRANCH   7   8
ATOM      8  C   UNL     1     165.899 152.597 153.576  1.00  0.00     0.053 C 
BRANCH   8   9
ATOM      9  C   UNL     1     165.891 154.090 153.450  1.00  0.00     0.041 C 
ATOM     10  O   UNL     1     166.976 154.727 153.405  1.00  0.00    -0.550 OA
ATOM     11  O   UNL     1     164.688 154.777 153.346  1.00  0.00    -0.550 OA
ENDBRANCH   8   9
ENDBRANCH   7   8
ENDBRANCH   6   7
ENDBRANCH   5   6
ENDBRANCH   4   5
ENDBRANCH   3   4
ENDBRANCH   2   3
ENDBRANCH   1   2
BRANCH   1  12
ATOM     12  C   UNL     1     165.754 152.069 146.066  1.00  0.00     0.000 C 
BRANCH  12  13
ATOM     13  C   UNL     1     166.802 152.437 147.127  1.00  0.00    -0.000 C 
BRANCH  13  14
ATOM     14  C   UNL     1     166.551 153.815 147.767  1.00  0.00    -0.000 C 
BRANCH  14  15
ATOM     15  C   UNL     1     166.412 153.804 149.300  1.00  0.00    -0.000 C 
BRANCH  15  16
ATOM     16  C   UNL     1     167.435 152.888 149.988  1.00  0.00    -0.000 C 
BRANCH  16  17
ATOM     17  C   UNL     1     168.736 153.648 150.290  1.00  0.00    -0.000 C 
BRANCH  17  18
ATOM     18  C   UNL     1     169.998 152.839 149.937  1.00  0.00    -0.000 C 
BRANCH  18  19
ATOM     19  C   UNL     1     169.948 152.126 148.574  1.00  0.00    -0.003 C 
ATOM     20  C   UNL     1     170.566 152.948 147.445  1.00  0.00     0.004 C 
ENDBRANCH  18  19
ENDBRANCH  17  18
ENDBRANCH  16  17
ENDBRANCH  15  16
ENDBRANCH  14  15
ENDBRANCH  13  14
ENDBRANCH  12  13
ENDBRANCH   1  12
TORSDOF 16
ENDMDL
MODEL 4
REMARK VINA RESULT:    -5.481      3.305      7.028
REMARK INTER + INTRA:         -13.078
REMARK INTER:                 -10.458
REMARK INTRA:                  -2.620
REMARK UNBOUND:                -2.470
REMARK SMILES CCCCCCCCCCCCCCCCCC(=O)[O-]
REMARK SMILES IDX 10 1 11 2 12 3 13 4 14 5 15 6 16 7 17 8 18 9 19 10 20 11
REMARK SMILES IDX 9 12 8 13 7 14 6 15 5 16 4 17 3 18 2 19 1 20
REMARK H PARENT
REMARK Flexibility Score: inf
ROOT
ATOM      1  C   UNL     1     168.128 153.496 150.966  1.00  0.00     0.000 C 
ENDROOT
BRANCH   1   2
ATOM      2  C   UNL     1     167.197 154.133 149.923  1.00  0.00     0.000 C 
BRANCH   2   3
ATOM      3  C   UNL     1     165.869 153.374 149.772  1.00  0.00     0.000 C 
BRANCH   3   4
ATOM      4  C   UNL     1     165.795 152.127 150.666  1.00  0.00     0.000 C 
BRANCH   4   5
ATOM      5  C   UNL     1     164.366 151.902 151.175  1.00  0.00     0.000 C 
BRANCH   5   6
ATOM      6  C   UNL     1     164.358 151.615 152.684  1.00  0.00     0.000 C 
BRANCH   6   7
ATOM      7  C   UNL     1     165.459 152.373 153.448  1.00  0.00     0.006 C 
BRANCH   7   8
ATOM      8  C   UNL     1     164.982 153.691 154.085  1.00  0.00     0.053 C 
BRANCH   8   9
ATOM      9  C   UNL     1     165.323 154.889 153.251  1.00  0.00     0.041 C 
ATOM     10  O   UNL     1     164.500 155.322 152.402  1.00  0.00    -0.550 OA
ATOM     11  O   UNL     1     166.532 155.547 153.434  1.00  0.00    -0.550 OA
ENDBRANCH   8   9
ENDBRANCH   7   8
ENDBRANCH   6   7
ENDBRANCH   5   6
ENDBRANCH   4   5
ENDBRANCH   3   4
ENDBRANCH   2   3
ENDBRANCH   1   2
BRANCH   1  12
ATOM     12  C   UNL     1     169.398 152.948 150.307  1.00  0.00     0.000 C 
BRANCH  12  13
ATOM     13  C   UNL     1     169.578 153.522 148.894  1.00  0.00    -0.000 C 
BRANCH  13  14
ATOM     14  C   UNL     1     170.307 152.556 147.941  1.00  0.00    -0.000 C 
BRANCH  14  15
ATOM     15  C   UNL     1     169.433 151.961 146.823  1.00  0.00    -0.000 C 
BRANCH  15  16
ATOM     16  C   UNL     1     168.652 150.717 147.271  1.00  0.00    -0.000 C 
BRANCH  16  17
ATOM     17  C   UNL     1     167.158 151.035 147.433  1.00  0.00    -0.000 C 
BRANCH  17  18
ATOM     18  C   UNL     1     166.480 151.422 146.105  1.00  0.00    -0.000 C 
BRANCH  18  19
ATOM     19  C   UNL     1     165.301 152.401 146.244  1.00  0.00    -0.003 C 
ATOM     20  C   UNL     1     164.071 151.768 146.892  1.00  0.00     0.004 C 
ENDBRANCH  18  19
ENDBRANCH  17  18
ENDBRANCH  16  17
ENDBRANCH  15  16
ENDBRANCH  14  15
ENDBRANCH  13  14
ENDBRANCH  12  13
ENDBRANCH   1  12
TORSDOF 16
ENDMDL
MODEL 5
REMARK VINA RESULT:    -5.477      3.801      6.073
REMARK INTER + INTRA:         -13.070
REMARK INTER:                 -10.575
REMARK INTRA:                  -2.495
REMARK UNBOUND:                -2.470
REMARK SMILES CCCCCCCCCCCCCCCCCC(=O)[O-]
REMARK SMILES IDX 10 1 11 2 12 3 13 4 14 5 15 6 16 7 17 8 18 9 19 10 20 11
REMARK SMILES IDX 9 12 8 13 7 14 6 15 5 16 4 17 3 18 2 19 1 20
REMARK H PARENT
REMARK Flexibility Score: inf
ROOT
ATOM      1  C   UNL     1     168.101 151.960 148.132  1.00  0.00     0.000 C 
ENDROOT
BRANCH   1   2
ATOM      2  C   UNL     1     169.189 152.998 148.449  1.00  0.00     0.000 C 
BRANCH   2   3
ATOM      3  C   UNL     1     168.790 153.944 149.593  1.00  0.00     0.000 C 
BRANCH   3   4
ATOM      4  C   UNL     1     168.119 153.209 150.763  1.00  0.00     0.000 C 
BRANCH   4   5
ATOM      5  C   UNL     1     167.165 154.140 151.521  1.00  0.00     0.000 C 
BRANCH   5   6
ATOM      6  C   UNL     1     166.279 154.931 150.548  1.00  0.00     0.000 C 
BRANCH   6   7
ATOM      7  C   UNL     1     165.107 155.647 151.245  1.00  0.00     0.006 C 
BRANCH   7   8
ATOM      8  C   UNL     1     165.543 156.754 152.221  1.00  0.00     0.053 C 
BRANCH   8   9
ATOM      9  C   UNL     1     165.411 158.125 151.632  1.00  0.00     0.041 C 
ATOM     10  O   UNL     1     164.424 158.848 151.929  1.00  0.00    -0.550 OA
ATOM     11  O   UNL     1     166.392 158.619 150.782  1.00  0.00    -0.550 OA
ENDBRANCH   8   9
ENDBRANCH   7   8
ENDBRANCH   6   7
ENDBRANCH   5   6
ENDBRANCH   4   5
ENDBRANCH   3   4
ENDBRANCH   2   3
ENDBRANCH   1   2
BRANCH   1  12
ATOM     12  C   UNL     1     167.106 152.504 147.101  1.00  0.00     0.000 C 
BRANCH  12  13
ATOM     13  C   UNL     1     165.681 152.536 147.674  1.00  0.00    -0.000 C 
BRANCH  13  14
ATOM     14  C   UNL     1     165.418 151.413 148.694  1.00  0.00    -0.000 C 
BRANCH  14  15
ATOM     15  C   UNL     1     164.575 151.826 149.913  1.00  0.00    -0.000 C 
BRANCH  15  16
ATOM     16  C   UNL     1     163.865 150.639 150.581  1.00  0.00    -0.000 C 
BRANCH  16  17
ATOM     17  C   UNL     1     163.654 150.898 152.080  1.00  0.00    -0.000 C 
BRANCH  17  18
ATOM     18  C   UNL     1     164.540 152.035 152.623  1.00  0.00    -0.000 C 
BRANCH  18  19
ATOM     19  C   UNL     1     165.047 151.829 154.061  1.00  0.00    -0.003 C 
ATOM     20  C   UNL     1     165.616 153.102 154.683  1.00  0.00     0.004 C 
ENDBRANCH  18  19
ENDBRANCH  17  18
ENDBRANCH  16  17
ENDBRANCH  15  16
ENDBRANCH  14  15
ENDBRANCH  13  14
ENDBRANCH  12  13
ENDBRANCH   1  12
TORSDOF 16
ENDMDL
MODEL 6
REMARK VINA RESULT:    -5.447      3.565      6.044
REMARK INTER + INTRA:         -13.012
REMARK INTER:                 -10.633
REMARK INTRA:                  -2.379
REMARK UNBOUND:                -2.470
REMARK SMILES CCCCCCCCCCCCCCCCCC(=O)[O-]
REMARK SMILES IDX 10 1 11 2 12 3 13 4 14 5 15 6 16 7 17 8 18 9 19 10 20 11
REMARK SMILES IDX 9 12 8 13 7 14 6 15 5 16 4 17 3 18 2 19 1 20
REMARK H PARENT
REMARK Flexibility Score: inf
ROOT
ATOM      1  C   UNL     1     168.467 150.984 147.519  1.00  0.00     0.000 C 
ENDROOT
BRANCH   1   2
ATOM      2  C   UNL     1     169.832 151.561 147.922  1.00  0.00     0.000 C 
BRANCH   2   3
ATOM      3  C   UNL     1     169.731 152.994 148.470  1.00  0.00     0.000 C 
BRANCH   3   4
ATOM      4  C   UNL     1     169.597 153.034 150.000  1.00  0.00     0.000 C 
BRANCH   4   5
ATOM      5  C   UNL     1     168.163 153.382 150.416  1.00  0.00     0.000 C 
BRANCH   5   6
ATOM      6  C   UNL     1     167.549 154.417 149.462  1.00  0.00     0.000 C 
BRANCH   6   7
ATOM      7  C   UNL     1     166.372 155.189 150.086  1.00  0.00     0.006 C 
BRANCH   7   8
ATOM      8  C   UNL     1     166.135 154.872 151.573  1.00  0.00     0.053 C 
BRANCH   8   9
ATOM      9  C   UNL     1     164.810 155.374 152.064  1.00  0.00     0.041 C 
ATOM     10  O   UNL     1     163.742 154.881 151.615  1.00  0.00    -0.550 OA
ATOM     11  O   UNL     1     164.754 156.359 153.041  1.00  0.00    -0.550 OA
ENDBRANCH   8   9
ENDBRANCH   7   8
ENDBRANCH   6   7
ENDBRANCH   5   6
ENDBRANCH   4   5
ENDBRANCH   3   4
ENDBRANCH   2   3
ENDBRANCH   1   2
BRANCH   1  12
ATOM     12  C   UNL     1     167.604 152.045 146.827  1.00  0.00     0.000 C 
BRANCH  12  13
ATOM     13  C   UNL     1     166.331 151.421 146.236  1.00  0.00    -0.000 C 
BRANCH  13  14
ATOM     14  C   UNL     1     165.170 152.425 146.113  1.00  0.00    -0.000 C 
BRANCH  14  15
ATOM     15  C   UNL     1     163.832 151.948 146.704  1.00  0.00    -0.000 C 
BRANCH  15  16
ATOM     16  C   UNL     1     163.997 151.201 148.035  1.00  0.00    -0.000 C 
BRANCH  16  17
ATOM     17  C   UNL     1     164.196 152.185 149.197  1.00  0.00    -0.000 C 
BRANCH  17  18
ATOM     18  C   UNL     1     164.930 151.557 150.396  1.00  0.00    -0.000 C 
BRANCH  18  19
ATOM     19  C   UNL     1     164.019 151.140 151.564  1.00  0.00    -0.003 C 
ATOM     20  C   UNL     1     164.461 151.720 152.905  1.00  0.00     0.004 C 
ENDBRANCH  18  19
ENDBRANCH  17  18
ENDBRANCH  16  17
ENDBRANCH  15  16
ENDBRANCH  14  15
ENDBRANCH  13  14
ENDBRANCH  12  13
ENDBRANCH   1  12
TORSDOF 16
ENDMDL
MODEL 7
REMARK VINA RESULT:    -5.433      1.920      3.605
REMARK INTER + INTRA:         -12.984
REMARK INTER:                 -10.447
REMARK INTRA:                  -2.537
REMARK UNBOUND:                -2.470
REMARK SMILES CCCCCCCCCCCCCCCCCC(=O)[O-]
REMARK SMILES IDX 10 1 11 2 12 3 13 4 14 5 15 6 16 7 17 8 18 9 19 10 20 11
REMARK SMILES IDX 9 12 8 13 7 14 6 15 5 16 4 17 3 18 2 19 1 20
REMARK H PARENT
REMARK Flexibility Score: inf
ROOT
ATOM      1  C   UNL     1     165.049 151.431 150.512  1.00  0.00     0.000 C 
ENDROOT
BRANCH   1   2
ATOM      2  C   UNL     1     164.589 150.903 149.145  1.00  0.00     0.000 C 
BRANCH   2   3
ATOM      3  C   UNL     1     163.814 151.955 148.335  1.00  0.00     0.000 C 
BRANCH   3   4
ATOM      4  C   UNL     1     163.904 151.719 146.819  1.00  0.00     0.000 C 
BRANCH   4   5
ATOM      5  C   UNL     1     165.101 152.465 146.218  1.00  0.00     0.000 C 
BRANCH   5   6
ATOM      6  C   UNL     1     166.279 151.510 145.975  1.00  0.00     0.000 C 
BRANCH   6   7
ATOM      7  C   UNL     1     167.591 151.995 146.617  1.00  0.00     0.006 C 
BRANCH   7   8
ATOM      8  C   UNL     1     168.396 150.882 147.311  1.00  0.00     0.053 C 
BRANCH   8   9
ATOM      9  C   UNL     1     169.765 151.332 147.721  1.00  0.00     0.041 C 
ATOM     10  O   UNL     1     170.480 150.598 148.452  1.00  0.00    -0.550 OA
ATOM     11  O   UNL     1     170.267 152.546 147.269  1.00  0.00    -0.550 OA
ENDBRANCH   8   9
ENDBRANCH   7   8
ENDBRANCH   6   7
ENDBRANCH   5   6
ENDBRANCH   4   5
ENDBRANCH   3   4
ENDBRANCH   2   3
ENDBRANCH   1   2
BRANCH   1  12
ATOM     12  C   UNL     1     163.930 151.308 151.553  1.00  0.00     0.000 C 
BRANCH  12  13
ATOM     13  C   UNL     1     164.404 151.792 152.932  1.00  0.00    -0.000 C 
BRANCH  13  14
ATOM     14  C   UNL     1     165.419 152.947 152.846  1.00  0.00    -0.000 C 
BRANCH  14  15
ATOM     15  C   UNL     1     164.802 154.357 152.852  1.00  0.00    -0.000 C 
BRANCH  15  16
ATOM     16  C   UNL     1     164.767 155.002 151.458  1.00  0.00    -0.000 C 
BRANCH  16  17
ATOM     17  C   UNL     1     166.186 155.328 150.969  1.00  0.00    -0.000 C 
BRANCH  17  18
ATOM     18  C   UNL     1     166.514 154.688 149.607  1.00  0.00    -0.000 C 
BRANCH  18  19
ATOM     19  C   UNL     1     167.937 154.115 149.488  1.00  0.00    -0.003 C 
ATOM     20  C   UNL     1     168.407 153.413 150.760  1.00  0.00     0.004 C 
ENDBRANCH  18  19
ENDBRANCH  17  18
ENDBRANCH  16  17
ENDBRANCH  15  16
ENDBRANCH  14  15
ENDBRANCH  13  14
ENDBRANCH  12  13
ENDBRANCH   1  12
TORSDOF 16
ENDMDL
MODEL 8
REMARK VINA RESULT:    -5.426      2.797      3.518
REMARK INTER + INTRA:         -12.970
REMARK INTER:                 -10.166
REMARK INTRA:                  -2.805
REMARK UNBOUND:                -2.470
REMARK SMILES CCCCCCCCCCCCCCCCCC(=O)[O-]
REMARK SMILES IDX 10 1 11 2 12 3 13 4 14 5 15 6 16 7 17 8 18 9 19 10 20 11
REMARK SMILES IDX 9 12 8 13 7 14 6 15 5 16 4 17 3 18 2 19 1 20
REMARK H PARENT
REMARK Flexibility Score: inf
ROOT
ATOM      1  C   UNL     1     167.203 154.123 149.947  1.00  0.00     0.000 C 
ENDROOT
BRANCH   1   2
ATOM      2  C   UNL     1     168.276 153.227 150.585  1.00  0.00     0.000 C 
BRANCH   2   3
ATOM      3  C   UNL     1     169.634 153.329 149.871  1.00  0.00     0.000 C 
BRANCH   3   4
ATOM      4  C   UNL     1     169.530 153.064 148.361  1.00  0.00     0.000 C 
BRANCH   4   5
ATOM      5  C   UNL     1     169.005 151.649 148.088  1.00  0.00     0.000 C 
BRANCH   5   6
ATOM      6  C   UNL     1     168.325 151.570 146.713  1.00  0.00     0.000 C 
BRANCH   6   7
ATOM      7  C   UNL     1     166.918 152.194 146.699  1.00  0.00     0.006 C 
BRANCH   7   8
ATOM      8  C   UNL     1     165.831 151.270 146.124  1.00  0.00     0.053 C 
BRANCH   8   9
ATOM      9  C   UNL     1     164.687 151.069 147.071  1.00  0.00     0.041 C 
ATOM     10  O   UNL     1     163.664 151.800 146.992  1.00  0.00    -0.550 OA
ATOM     11  O   UNL     1     164.733 150.055 148.019  1.00  0.00    -0.550 OA
ENDBRANCH   8   9
ENDBRANCH   7   8
ENDBRANCH   6   7
ENDBRANCH   5   6
ENDBRANCH   4   5
ENDBRANCH   3   4
ENDBRANCH   2   3
ENDBRANCH   1   2
BRANCH   1  12
ATOM     12  C   UNL     1     165.864 153.385 149.841  1.00  0.00     0.000 C 
BRANCH  12  13
ATOM     13  C   UNL     1     165.850 152.136 150.736  1.00  0.00    -0.000 C 
BRANCH  13  14
ATOM     14  C   UNL     1     164.432 151.725 151.172  1.00  0.00    -0.000 C 
BRANCH  14  15
ATOM     15  C   UNL     1     164.066 152.092 152.622  1.00  0.00    -0.000 C 
BRANCH  15  16
ATOM     16  C   UNL     1     165.258 151.993 153.585  1.00  0.00    -0.000 C 
BRANCH  16  17
ATOM     17  C   UNL     1     165.488 153.325 154.313  1.00  0.00    -0.000 C 
BRANCH  17  18
ATOM     18  C   UNL     1     166.681 154.119 153.748  1.00  0.00    -0.000 C 
BRANCH  18  19
ATOM     19  C   UNL     1     166.351 155.559 153.317  1.00  0.00    -0.003 C 
ATOM     20  C   UNL     1     164.999 155.679 152.618  1.00  0.00     0.004 C 
ENDBRANCH  18  19
ENDBRANCH  17  18
ENDBRANCH  16  17
ENDBRANCH  15  16
ENDBRANCH  14  15
ENDBRANCH  13  14
ENDBRANCH  12  13
ENDBRANCH   1  12
TORSDOF 16
ENDMDL
MODEL 9
REMARK VINA RESULT:    -5.406      3.358      6.933
REMARK INTER + INTRA:         -12.932
REMARK INTER:                 -10.425
REMARK INTRA:                  -2.507
REMARK UNBOUND:                -2.470
REMARK SMILES CCCCCCCCCCCCCCCCCC(=O)[O-]
REMARK SMILES IDX 10 1 11 2 12 3 13 4 14 5 15 6 16 7 17 8 18 9 19 10 20 11
REMARK SMILES IDX 9 12 8 13 7 14 6 15 5 16 4 17 3 18 2 19 1 20
REMARK H PARENT
REMARK Flexibility Score: inf
ROOT
ATOM      1  C   UNL     1     163.958 152.024 149.148  1.00  0.00     0.000 C 
ENDROOT
BRANCH   1   2
ATOM      2  C   UNL     1     164.012 150.596 149.711  1.00  0.00     0.000 C 
BRANCH   2   3
ATOM      3  C   UNL     1     163.625 150.529 151.196  1.00  0.00     0.000 C 
BRANCH   3   4
ATOM      4  C   UNL     1     163.626 151.909 151.871  1.00  0.00     0.000 C 
BRANCH   4   5
ATOM      5  C   UNL     1     164.779 152.027 152.876  1.00  0.00     0.000 C 
BRANCH   5   6
ATOM      6  C   UNL     1     165.423 153.419 152.814  1.00  0.00     0.000 C 
BRANCH   6   7
ATOM      7  C   UNL     1     164.675 154.389 151.881  1.00  0.00     0.006 C 
BRANCH   7   8
ATOM      8  C   UNL     1     164.506 155.806 152.459  1.00  0.00     0.053 C 
BRANCH   8   9
ATOM      9  C   UNL     1     165.150 156.856 151.605  1.00  0.00     0.041 C 
ATOM     10  O   UNL     1     165.898 156.522 150.649  1.00  0.00    -0.550 OA
ATOM     11  O   UNL     1     164.897 158.201 151.842  1.00  0.00    -0.550 OA
ENDBRANCH   8   9
ENDBRANCH   7   8
ENDBRANCH   6   7
ENDBRANCH   5   6
ENDBRANCH   4   5
ENDBRANCH   3   4
ENDBRANCH   2   3
ENDBRANCH   1   2
BRANCH   1  12
ATOM     12  C   UNL     1     165.287 152.405 148.486  1.00  0.00     0.000 C 
BRANCH  12  13
ATOM     13  C   UNL     1     166.461 152.218 149.458  1.00  0.00    -0.000 C 
BRANCH  13  14
ATOM     14  C   UNL     1     167.371 153.457 149.546  1.00  0.00    -0.000 C 
BRANCH  14  15
ATOM     15  C   UNL     1     168.668 153.255 150.350  1.00  0.00    -0.000 C 
BRANCH  15  16
ATOM     16  C   UNL     1     169.929 153.297 149.475  1.00  0.00    -0.000 C 
BRANCH  16  17
ATOM     17  C   UNL     1     170.208 151.924 148.847  1.00  0.00    -0.000 C 
BRANCH  17  18
ATOM     18  C   UNL     1     170.192 151.954 147.307  1.00  0.00    -0.000 C 
BRANCH  18  19
ATOM     19  C   UNL     1     168.824 151.654 146.669  1.00  0.00    -0.003 C 
ATOM     20  C   UNL     1     168.365 150.214 146.888  1.00  0.00     0.004 C 
ENDBRANCH  18  19
ENDBRANCH  17  18
ENDBRANCH  16  17
ENDBRANCH  15  16
ENDBRANCH  14  15
ENDBRANCH  13  14
ENDBRANCH  12  13
ENDBRANCH   1  12
TORSDOF 16
ENDMDL
