MODEL 1
REMARK VINA RESULT:    -3.024      0.000      0.000
REMARK INTER + INTRA:          -6.083
REMARK INTER:                  -4.792
REMARK INTRA:                  -1.291
REMARK UNBOUND:                -1.291
REMARK SMILES CCCCCCCCCCCC(=O)[O-]
REMARK SMILES IDX 7 1 8 2 9 3 10 4 11 5 12 6 13 7 14 8 6 9 5 10 4 11 3 12 2 13
REMARK SMILES IDX 1 14
REMARK H PARENT
REMARK Flexibility Score: inf
ROOT
ATOM      1  C   UNL     1       9.465   3.641  -3.651  1.00  0.00     0.000 C 
ENDROOT
BRANCH   1   2
ATOM      2  C   UNL     1      10.870   3.015  -3.682  1.00  0.00     0.000 C 
BRANCH   2   3
ATOM      3  C   UNL     1      11.044   1.907  -2.629  1.00  0.00     0.000 C 
BRANCH   3   4
ATOM      4  C   UNL     1      10.022   2.004  -1.481  1.00  0.00     0.006 C 
BRANCH   4   5
ATOM      5  C   UNL     1      10.627   2.456  -0.139  1.00  0.00     0.053 C 
BRANCH   5   6
ATOM      6  C   UNL     1       9.610   3.059   0.781  1.00  0.00     0.041 C 
ATOM      7  O   UNL     1       8.913   2.323   1.529  1.00  0.00    -0.550 OA
ATOM      8  O   UNL     1       9.407   4.433   0.788  1.00  0.00    -0.550 OA
ENDBRANCH   5   6
ENDBRANCH   4   5
ENDBRANCH   3   4
ENDBRANCH   2   3
ENDBRANCH   1   2
BRANCH   1   9
ATOM      9  C   UNL     1       8.554   3.095  -4.765  1.00  0.00     0.000 C 
BRANCH   9  10
ATOM     10  C   UNL     1       7.456   2.164  -4.224  1.00  0.00    -0.000 C 
BRANCH  10  11
ATOM     11  C   UNL     1       7.442   0.795  -4.925  1.00  0.00    -0.000 C 
BRANCH  11  12
ATOM     12  C   UNL     1       8.851   0.304  -5.293  1.00  0.00    -0.000 C 
BRANCH  12  13
ATOM     13  C   UNL     1       9.157  -1.090  -4.727  1.00  0.00    -0.003 C 
ATOM     14  C   UNL     1       8.954  -1.125  -3.215  1.00  0.00     0.004 C 
ENDBRANCH  12  13
ENDBRANCH  11  12
ENDBRANCH  10  11
ENDBRANCH   9  10
ENDBRANCH   1   9
TORSDOF 10
ENDMDL
MODEL 2
REMARK VINA RESULT:    -2.961     14.713     16.809
REMARK INTER + INTRA:          -5.984
REMARK INTER:                  -5.482
REMARK INTRA:                  -0.502
REMARK UNBOUND:                -1.291
REMARK SMILES CCCCCCCCCCCC(=O)[O-]
REMARK SMILES IDX 7 1 8 2 9 3 10 4 11 5 12 6 13 7 14 8 6 9 5 10 4 11 3 12 2 13
REMARK SMILES IDX 1 14
REMARK H PARENT
REMARK Flexibility Score: inf
ROOT
ATOM      1  C   UNL     1      -4.582  10.551  -4.664  1.00  0.00     0.000 C 
ENDROOT
BRANCH   1   2
ATOM      2  C   UNL     1      -4.867   9.071  -4.972  1.00  0.00     0.000 C 
BRANCH   2   3
ATOM      3  C   UNL     1      -3.625   8.329  -5.495  1.00  0.00     0.000 C 
BRANCH   3   4
ATOM      4  C   UNL     1      -3.461   8.436  -7.022  1.00  0.00     0.006 C 
BRANCH   4   5
ATOM      5  C   UNL     1      -3.502   7.081  -7.753  1.00  0.00     0.053 C 
BRANCH   5   6
ATOM      6  C   UNL     1      -2.140   6.596  -8.150  1.00  0.00     0.041 C 
ATOM      7  O   UNL     1      -1.946   5.375  -8.392  1.00  0.00    -0.550 OA
ATOM      8  O   UNL     1      -1.077   7.487  -8.217  1.00  0.00    -0.550 OA
ENDBRANCH   5   6
ENDBRANCH   4   5
ENDBRANCH   3   4
ENDBRANCH   2   3
ENDBRANCH   1   2
BRANCH   1   9
ATOM      9  C   UNL     1      -3.431  10.731  -3.659  1.00  0.00     0.000 C 
BRANCH   9  10
ATOM     10  C   UNL     1      -3.668  11.907  -2.697  1.00  0.00    -0.000 C 
BRANCH  10  11
ATOM     11  C   UNL     1      -4.938  12.706  -3.039  1.00  0.00    -0.000 C 
BRANCH  11  12
ATOM     12  C   UNL     1      -5.504  13.463  -1.826  1.00  0.00    -0.000 C 
BRANCH  12  13
ATOM     13  C   UNL     1      -4.796  13.089  -0.516  1.00  0.00    -0.003 C 
ATOM     14  C   UNL     1      -5.620  13.518   0.695  1.00  0.00     0.004 C 
ENDBRANCH  12  13
ENDBRANCH  11  12
ENDBRANCH  10  11
ENDBRANCH   9  10
ENDBRANCH   1   9
TORSDOF 10
ENDMDL
MODEL 3
REMARK VINA RESULT:    -2.870     14.216     16.191
REMARK INTER + INTRA:          -5.839
REMARK INTER:                  -5.094
REMARK INTRA:                  -0.745
REMARK UNBOUND:                -1.291
REMARK SMILES CCCCCCCCCCCC(=O)[O-]
REMARK SMILES IDX 7 1 8 2 9 3 10 4 11 5 12 6 13 7 14 8 6 9 5 10 4 11 3 12 2 13
REMARK SMILES IDX 1 14
REMARK H PARENT
REMARK Flexibility Score: inf
ROOT
ATOM      1  C   UNL     1      -4.737   9.979  -4.867  1.00  0.00     0.000 C 
ENDROOT
BRANCH   1   2
ATOM      2  C   UNL     1      -3.302   9.457  -4.685  1.00  0.00     0.000 C 
BRANCH   2   3
ATOM      3  C   UNL     1      -2.729   8.851  -5.977  1.00  0.00     0.000 C 
BRANCH   3   4
ATOM      4  C   UNL     1      -1.554   9.662  -6.552  1.00  0.00     0.006 C 
BRANCH   4   5
ATOM      5  C   UNL     1      -0.754  10.444  -5.493  1.00  0.00     0.053 C 
BRANCH   5   6
ATOM      6  C   UNL     1       0.728  10.337  -5.691  1.00  0.00     0.041 C 
ATOM      7  O   UNL     1       1.196   9.626  -6.619  1.00  0.00    -0.550 OA
ATOM      8  O   UNL     1       1.593  10.998  -4.829  1.00  0.00    -0.550 OA
ENDBRANCH   5   6
ENDBRANCH   4   5
ENDBRANCH   3   4
ENDBRANCH   2   3
ENDBRANCH   1   2
BRANCH   1   9
ATOM      9  C   UNL     1      -4.880  11.459  -4.468  1.00  0.00     0.000 C 
BRANCH   9  10
ATOM     10  C   UNL     1      -3.708  11.951  -3.604  1.00  0.00    -0.000 C 
BRANCH  10  11
ATOM     11  C   UNL     1      -4.158  12.439  -2.216  1.00  0.00    -0.000 C 
BRANCH  11  12
ATOM     12  C   UNL     1      -5.406  13.335  -2.281  1.00  0.00    -0.000 C 
BRANCH  12  13
ATOM     13  C   UNL     1      -5.840  13.842  -0.898  1.00  0.00    -0.003 C 
ATOM     14  C   UNL     1      -5.053  13.150   0.212  1.00  0.00     0.004 C 
ENDBRANCH  12  13
ENDBRANCH  11  12
ENDBRANCH  10  11
ENDBRANCH   9  10
ENDBRANCH   1   9
TORSDOF 10
ENDMDL
MODEL 4
REMARK VINA RESULT:    -2.860      4.867      7.360
REMARK INTER + INTRA:          -5.823
REMARK INTER:                  -4.769
REMARK INTRA:                  -1.054
REMARK UNBOUND:                -1.291
REMARK SMILES CCCCCCCCCCCC(=O)[O-]
REMARK SMILES IDX 7 1 8 2 9 3 10 4 11 5 12 6 13 7 14 8 6 9 5 10 4 11 3 12 2 13
REMARK SMILES IDX 1 14
REMARK H PARENT
REMARK Flexibility Score: inf
ROOT
ATOM      1  C   UNL     1       9.239   8.614  -1.054  1.00  0.00     0.000 C 
ENDROOT
BRANCH   1   2
ATOM      2  C   UNL     1      10.153   7.544  -0.434  1.00  0.00     0.000 C 
BRANCH   2   3
ATOM      3  C   UNL     1       9.361   6.388   0.200  1.00  0.00     0.000 C 
BRANCH   3   4
ATOM      4  C   UNL     1      10.065   5.027   0.057  1.00  0.00     0.006 C 
BRANCH   4   5
ATOM      5  C   UNL     1      10.122   4.211   1.362  1.00  0.00     0.053 C 
BRANCH   5   6
ATOM      6  C   UNL     1       9.563   2.829   1.206  1.00  0.00     0.041 C 
ATOM      7  O   UNL     1       9.322   2.122   2.221  1.00  0.00    -0.550 OA
ATOM      8  O   UNL     1       9.339   2.309  -0.062  1.00  0.00    -0.550 OA
ENDBRANCH   5   6
ENDBRANCH   4   5
ENDBRANCH   3   4
ENDBRANCH   2   3
ENDBRANCH   1   2
BRANCH   1   9
ATOM      9  C   UNL     1       7.746   8.311  -0.834  1.00  0.00     0.000 C 
BRANCH   9  10
ATOM     10  C   UNL     1       6.929   9.574  -0.517  1.00  0.00    -0.000 C 
BRANCH  10  11
ATOM     11  C   UNL     1       6.144   9.457   0.801  1.00  0.00    -0.000 C 
BRANCH  11  12
ATOM     12  C   UNL     1       6.761   8.432   1.767  1.00  0.00    -0.000 C 
BRANCH  12  13
ATOM     13  C   UNL     1       7.477   9.095   2.952  1.00  0.00    -0.003 C 
ATOM     14  C   UNL     1       8.888   8.538   3.122  1.00  0.00     0.004 C 
ENDBRANCH  12  13
ENDBRANCH  11  12
ENDBRANCH  10  11
ENDBRANCH   9  10
ENDBRANCH   1   9
TORSDOF 10
ENDMDL
MODEL 5
REMARK VINA RESULT:    -2.836      5.064      7.625
REMARK INTER + INTRA:          -5.785
REMARK INTER:                  -4.719
REMARK INTRA:                  -1.066
REMARK UNBOUND:                -1.291
REMARK SMILES CCCCCCCCCCCC(=O)[O-]
REMARK SMILES IDX 7 1 8 2 9 3 10 4 11 5 12 6 13 7 14 8 6 9 5 10 4 11 3 12 2 13
REMARK SMILES IDX 1 14
REMARK H PARENT
REMARK Flexibility Score: inf
ROOT
ATOM      1  C   UNL     1       8.625   8.620   2.154  1.00  0.00     0.000 C 
ENDROOT
BRANCH   1   2
ATOM      2  C   UNL     1       9.228   7.205   2.163  1.00  0.00     0.000 C 
BRANCH   2   3
ATOM      3  C   UNL     1       8.829   6.387   0.923  1.00  0.00     0.000 C 
BRANCH   3   4
ATOM      4  C   UNL     1      10.011   5.620   0.302  1.00  0.00     0.006 C 
BRANCH   4   5
ATOM      5  C   UNL     1      10.400   4.342   1.069  1.00  0.00     0.053 C 
BRANCH   5   6
ATOM      6  C   UNL     1       9.635   3.137   0.613  1.00  0.00     0.041 C 
ATOM      7  O   UNL     1       9.647   2.797  -0.600  1.00  0.00    -0.550 OA
ATOM      8  O   UNL     1       8.879   2.409   1.522  1.00  0.00    -0.550 OA
ENDBRANCH   5   6
ENDBRANCH   4   5
ENDBRANCH   3   4
ENDBRANCH   2   3
ENDBRANCH   1   2
BRANCH   1   9
ATOM      9  C   UNL     1       7.128   8.623   2.513  1.00  0.00     0.000 C 
BRANCH   9  10
ATOM     10  C   UNL     1       6.237   8.996   1.317  1.00  0.00    -0.000 C 
BRANCH  10  11
ATOM     11  C   UNL     1       6.625  10.344   0.685  1.00  0.00    -0.000 C 
BRANCH  11  12
ATOM     12  C   UNL     1       6.628  10.296  -0.852  1.00  0.00    -0.000 C 
BRANCH  12  13
ATOM     13  C   UNL     1       7.059   8.928  -1.399  1.00  0.00    -0.003 C 
ATOM     14  C   UNL     1       8.551   8.912  -1.721  1.00  0.00     0.004 C 
ENDBRANCH  12  13
ENDBRANCH  11  12
ENDBRANCH  10  11
ENDBRANCH   9  10
ENDBRANCH   1   9
TORSDOF 10
ENDMDL
MODEL 6
REMARK VINA RESULT:    -2.818      5.088      8.208
REMARK INTER + INTRA:          -5.756
REMARK INTER:                  -4.772
REMARK INTRA:                  -0.984
REMARK UNBOUND:                -1.291
REMARK SMILES CCCCCCCCCCCC(=O)[O-]
REMARK SMILES IDX 7 1 8 2 9 3 10 4 11 5 12 6 13 7 14 8 6 9 5 10 4 11 3 12 2 13
REMARK SMILES IDX 1 14
REMARK H PARENT
REMARK Flexibility Score: inf
ROOT
ATOM      1  C   UNL     1       8.993   7.912   0.371  1.00  0.00     0.000 C 
ENDROOT
BRANCH   1   2
ATOM      2  C   UNL     1       8.782   6.595   1.138  1.00  0.00     0.000 C 
BRANCH   2   3
ATOM      3  C   UNL     1       9.816   6.396   2.259  1.00  0.00     0.000 C 
BRANCH   3   4
ATOM      4  C   UNL     1      10.368   4.960   2.318  1.00  0.00     0.006 C 
BRANCH   4   5
ATOM      5  C   UNL     1      10.377   4.235   0.960  1.00  0.00     0.053 C 
BRANCH   5   6
ATOM      6  C   UNL     1       9.627   2.938   0.991  1.00  0.00     0.041 C 
ATOM      7  O   UNL     1       9.292   2.371  -0.083  1.00  0.00    -0.550 OA
ATOM      8  O   UNL     1       9.267   2.372   2.208  1.00  0.00    -0.550 OA
ENDBRANCH   5   6
ENDBRANCH   4   5
ENDBRANCH   3   4
ENDBRANCH   2   3
ENDBRANCH   1   2
BRANCH   1   9
ATOM      9  C   UNL     1       7.665   8.600   0.007  1.00  0.00     0.000 C 
BRANCH   9  10
ATOM     10  C   UNL     1       6.774   8.846   1.235  1.00  0.00    -0.000 C 
BRANCH  10  11
ATOM     11  C   UNL     1       7.003  10.230   1.867  1.00  0.00    -0.000 C 
BRANCH  11  12
ATOM     12  C   UNL     1       8.056  10.201   2.987  1.00  0.00    -0.000 C 
BRANCH  12  13
ATOM     13  C   UNL     1       7.758   9.132   4.048  1.00  0.00    -0.003 C 
ATOM     14  C   UNL     1       8.906   9.016   5.048  1.00  0.00     0.004 C 
ENDBRANCH  12  13
ENDBRANCH  11  12
ENDBRANCH  10  11
ENDBRANCH   9  10
ENDBRANCH   1   9
TORSDOF 10
ENDMDL
MODEL 7
REMARK VINA RESULT:    -2.768     16.376     18.249
REMARK INTER + INTRA:          -5.677
REMARK INTER:                  -4.713
REMARK INTRA:                  -0.964
REMARK UNBOUND:                -1.291
REMARK SMILES CCCCCCCCCCCC(=O)[O-]
REMARK SMILES IDX 7 1 8 2 9 3 10 4 11 5 12 6 13 7 14 8 6 9 5 10 4 11 3 12 2 13
REMARK SMILES IDX 1 14
REMARK H PARENT
REMARK Flexibility Score: inf
ROOT
ATOM      1  C   UNL     1      -2.899  12.910  -2.705  1.00  0.00     0.000 C 
ENDROOT
BRANCH   1   2
ATOM      2  C   UNL     1      -3.795  11.723  -3.095  1.00  0.00     0.000 C 
BRANCH   2   3
ATOM      3  C   UNL     1      -4.825  12.094  -4.175  1.00  0.00     0.000 C 
BRANCH   3   4
ATOM      4  C   UNL     1      -5.146  10.927  -5.127  1.00  0.00     0.006 C 
BRANCH   4   5
ATOM      5  C   UNL     1      -4.636   9.559  -4.635  1.00  0.00     0.053 C 
BRANCH   5   6
ATOM      6  C   UNL     1      -5.387   8.410  -5.238  1.00  0.00     0.041 C 
ATOM      7  O   UNL     1      -5.147   8.044  -6.419  1.00  0.00    -0.550 OA
ATOM      8  O   UNL     1      -6.375   7.765  -4.506  1.00  0.00    -0.550 OA
ENDBRANCH   5   6
ENDBRANCH   4   5
ENDBRANCH   3   4
ENDBRANCH   2   3
ENDBRANCH   1   2
BRANCH   1   9
ATOM      9  C   UNL     1      -3.010  13.264  -1.211  1.00  0.00     0.000 C 
BRANCH   9  10
ATOM     10  C   UNL     1      -4.030  12.383  -0.471  1.00  0.00    -0.000 C 
BRANCH  10  11
ATOM     11  C   UNL     1      -5.078  13.206   0.297  1.00  0.00    -0.000 C 
BRANCH  11  12
ATOM     12  C   UNL     1      -5.511  14.469  -0.464  1.00  0.00    -0.000 C 
BRANCH  12  13
ATOM     13  C   UNL     1      -6.941  14.365  -1.015  1.00  0.00    -0.003 C 
ATOM     14  C   UNL     1      -6.946  14.422  -2.541  1.00  0.00     0.004 C 
ENDBRANCH  12  13
ENDBRANCH  11  12
ENDBRANCH  10  11
ENDBRANCH   9  10
ENDBRANCH   1   9
TORSDOF 10
ENDMDL
MODEL 8
REMARK VINA RESULT:    -2.768     16.124     16.941
REMARK INTER + INTRA:          -5.676
REMARK INTER:                  -4.912
REMARK INTRA:                  -0.764
REMARK UNBOUND:                -1.291
REMARK SMILES CCCCCCCCCCCC(=O)[O-]
REMARK SMILES IDX 7 1 8 2 9 3 10 4 11 5 12 6 13 7 14 8 6 9 5 10 4 11 3 12 2 13
REMARK SMILES IDX 1 14
REMARK H PARENT
REMARK Flexibility Score: inf
ROOT
ATOM      1  C   UNL     1      -3.848  10.557  -4.062  1.00  0.00     0.000 C 
ENDROOT
BRANCH   1   2
ATOM      2  C   UNL     1      -3.475  11.720  -3.127  1.00  0.00     0.000 C 
BRANCH   2   3
ATOM      3  C   UNL     1      -4.672  12.637  -2.823  1.00  0.00     0.000 C 
BRANCH   3   4
ATOM      4  C   UNL     1      -4.821  12.954  -1.324  1.00  0.00     0.006 C 
BRANCH   4   5
ATOM      5  C   UNL     1      -3.585  12.590  -0.480  1.00  0.00     0.053 C 
BRANCH   5   6
ATOM      6  C   UNL     1      -2.791  13.792  -0.068  1.00  0.00     0.041 C 
ATOM      7  O   UNL     1      -2.790  14.173   1.133  1.00  0.00    -0.550 OA
ATOM      8  O   UNL     1      -2.078  14.513  -1.017  1.00  0.00    -0.550 OA
ENDBRANCH   5   6
ENDBRANCH   4   5
ENDBRANCH   3   4
ENDBRANCH   2   3
ENDBRANCH   1   2
BRANCH   1   9
ATOM      9  C   UNL     1      -3.795  10.956  -5.547  1.00  0.00     0.000 C 
BRANCH   9  10
ATOM     10  C   UNL     1      -4.983  10.401  -6.349  1.00  0.00    -0.000 C 
BRANCH  10  11
ATOM     11  C   UNL     1      -6.318  10.525  -5.594  1.00  0.00    -0.000 C 
BRANCH  11  12
ATOM     12  C   UNL     1      -7.118   9.212  -5.591  1.00  0.00    -0.000 C 
BRANCH  12  13
ATOM     13  C   UNL     1      -6.363   8.062  -4.909  1.00  0.00    -0.003 C 
ATOM     14  C   UNL     1      -7.325   7.134  -4.173  1.00  0.00     0.004 C 
ENDBRANCH  12  13
ENDBRANCH  11  12
ENDBRANCH  10  11
ENDBRANCH   9  10
ENDBRANCH   1   9
TORSDOF 10
ENDMDL
MODEL 9
REMARK VINA RESULT:    -2.752     15.475     16.932
REMARK INTER + INTRA:          -5.652
REMARK INTER:                  -4.933
REMARK INTRA:                  -0.719
REMARK UNBOUND:                -1.291
REMARK SMILES CCCCCCCCCCCC(=O)[O-]
REMARK SMILES IDX 7 1 8 2 9 3 10 4 11 5 12 6 13 7 14 8 6 9 5 10 4 11 3 12 2 13
REMARK SMILES IDX 1 14
REMARK H PARENT
REMARK Flexibility Score: inf
ROOT
ATOM      1  C   UNL     1      -5.263  12.907  -4.162  1.00  0.00     0.000 C 
ENDROOT
BRANCH   1   2
ATOM      2  C   UNL     1      -6.141  13.638  -3.132  1.00  0.00     0.000 C 
BRANCH   2   3
ATOM      3  C   UNL     1      -5.587  13.526  -1.702  1.00  0.00     0.000 C 
BRANCH   3   4
ATOM      4  C   UNL     1      -4.283  12.712  -1.625  1.00  0.00     0.006 C 
BRANCH   4   5
ATOM      5  C   UNL     1      -3.660  12.657  -0.217  1.00  0.00     0.053 C 
BRANCH   5   6
ATOM      6  C   UNL     1      -2.804  13.850   0.085  1.00  0.00     0.041 C 
ATOM      7  O   UNL     1      -2.780  14.338   1.245  1.00  0.00    -0.550 OA
ATOM      8  O   UNL     1      -2.059  14.443  -0.926  1.00  0.00    -0.550 OA
ENDBRANCH   5   6
ENDBRANCH   4   5
ENDBRANCH   3   4
ENDBRANCH   2   3
ENDBRANCH   1   2
BRANCH   1   9
ATOM      9  C   UNL     1      -6.083  11.999  -5.095  1.00  0.00     0.000 C 
BRANCH   9  10
ATOM     10  C   UNL     1      -5.390  10.653  -5.365  1.00  0.00    -0.000 C 
BRANCH  10  11
ATOM     11  C   UNL     1      -4.307  10.324  -4.323  1.00  0.00    -0.000 C 
BRANCH  11  12
ATOM     12  C   UNL     1      -3.189   9.436  -4.894  1.00  0.00    -0.000 C 
BRANCH  12  13
ATOM     13  C   UNL     1      -3.725   8.130  -5.499  1.00  0.00    -0.003 C 
ATOM     14  C   UNL     1      -3.120   7.875  -6.877  1.00  0.00     0.004 C 
ENDBRANCH  12  13
ENDBRANCH  11  12
ENDBRANCH  10  11
ENDBRANCH   9  10
ENDBRANCH   1   9
TORSDOF 10
ENDMDL
