MODEL 1
REMARK VINA RESULT:    -5.825      0.000      0.000
REMARK INTER + INTRA:          -6.982
REMARK INTER:                  -6.847
REMARK INTRA:                  -0.136
REMARK UNBOUND:                -0.136
REMARK SMILES O=C([O-])C=Cc1ccc(O)c(O)c1
REMARK SMILES IDX 6 1 13 2 7 3 11 4 8 5 9 6 5 7 4 8 2 9 1 10 3 11 12 12 10 14
REMARK H PARENT 12 13 10 15
REMARK Flexibility Score: inf
ROOT
ATOM      1  C   UNL     1     -33.523  11.670 -35.594  1.00  0.00    -0.022 A 
ATOM      2  C   UNL     1     -33.300  12.031 -36.938  1.00  0.00     0.058 A 
ATOM      3  C   UNL     1     -34.024  10.389 -35.310  1.00  0.00     0.012 A 
ATOM      4  C   UNL     1     -33.599  11.134 -37.976  1.00  0.00     0.157 A 
ATOM      5  C   UNL     1     -34.323   9.497 -36.343  1.00  0.00     0.051 A 
ATOM      6  C   UNL     1     -34.115   9.868 -37.678  1.00  0.00     0.157 A 
ENDROOT
BRANCH   1   7
ATOM      7  C   UNL     1     -33.211  12.577 -34.462  1.00  0.00     0.010 C 
ATOM      8  C   UNL     1     -32.349  12.277 -33.481  1.00  0.00     0.025 C 
BRANCH   8   9
ATOM      9  C   UNL     1     -32.056  13.209 -32.379  1.00  0.00     0.064 C 
ATOM     10  O   UNL     1     -31.438  14.287 -32.584  1.00  0.00    -0.545 OA
ATOM     11  O   UNL     1     -32.468  12.894 -31.091  1.00  0.00    -0.545 OA
ENDBRANCH   8   9
ENDBRANCH   1   7
BRANCH   4  12
ATOM     12  O   UNL     1     -33.381  11.494 -39.305  1.00  0.00    -0.504 OA
ATOM     13  H   UNL     1     -34.087  11.350 -40.016  1.00  0.00     0.293 HD
ENDBRANCH   4  12
BRANCH   6  14
ATOM     14  O   UNL     1     -34.413   8.981 -38.710  1.00  0.00    -0.504 OA
ATOM     15  H   UNL     1     -34.305   7.979 -38.598  1.00  0.00     0.293 HD
ENDBRANCH   6  14
TORSDOF 4
ENDMDL
MODEL 2
REMARK VINA RESULT:    -5.597      1.659      2.191
REMARK INTER + INTRA:          -6.715
REMARK INTER:                  -6.592
REMARK INTRA:                  -0.123
REMARK UNBOUND:                -0.136
REMARK SMILES O=C([O-])C=Cc1ccc(O)c(O)c1
REMARK SMILES IDX 6 1 13 2 7 3 11 4 8 5 9 6 5 7 4 8 2 9 1 10 3 11 12 12 10 14
REMARK H PARENT 12 13 10 15
REMARK Flexibility Score: inf
ROOT
ATOM      1  C   UNL     1     -33.426  11.213 -37.260  1.00  0.00    -0.022 A 
ATOM      2  C   UNL     1     -33.830  12.302 -38.059  1.00  0.00     0.058 A 
ATOM      3  C   UNL     1     -33.499   9.916 -37.795  1.00  0.00     0.012 A 
ATOM      4  C   UNL     1     -34.322  12.090 -39.356  1.00  0.00     0.157 A 
ATOM      5  C   UNL     1     -33.990   9.706 -39.086  1.00  0.00     0.051 A 
ATOM      6  C   UNL     1     -34.405  10.791 -39.869  1.00  0.00     0.157 A 
ENDROOT
BRANCH   1   7
ATOM      7  C   UNL     1     -32.888  11.386 -35.888  1.00  0.00     0.010 C 
ATOM      8  C   UNL     1     -33.311  12.330 -35.036  1.00  0.00     0.025 C 
BRANCH   8   9
ATOM      9  C   UNL     1     -32.762  12.464 -33.676  1.00  0.00     0.064 C 
ATOM     10  O   UNL     1     -33.138  13.389 -32.908  1.00  0.00    -0.545 OA
ATOM     11  O   UNL     1     -31.813  11.553 -33.231  1.00  0.00    -0.545 OA
ENDBRANCH   8   9
ENDBRANCH   1   7
BRANCH   4  12
ATOM     12  O   UNL     1     -34.724  13.169 -40.143  1.00  0.00    -0.504 OA
ATOM     13  H   UNL     1     -34.991  14.055 -39.732  1.00  0.00     0.293 HD
ENDBRANCH   4  12
BRANCH   6  14
ATOM     14  O   UNL     1     -34.896  10.584 -41.156  1.00  0.00    -0.504 OA
ATOM     15  H   UNL     1     -34.535   9.847 -41.751  1.00  0.00     0.293 HD
ENDBRANCH   6  14
TORSDOF 4
ENDMDL
MODEL 3
REMARK VINA RESULT:    -5.349      2.238      6.134
REMARK INTER + INTRA:          -6.422
REMARK INTER:                  -6.299
REMARK INTRA:                  -0.123
REMARK UNBOUND:                -0.136
REMARK SMILES O=C([O-])C=Cc1ccc(O)c(O)c1
REMARK SMILES IDX 6 1 13 2 7 3 11 4 8 5 9 6 5 7 4 8 2 9 1 10 3 11 12 12 10 14
REMARK H PARENT 12 13 10 15
REMARK Flexibility Score: inf
ROOT
ATOM      1  C   UNL     1     -32.930  10.864 -37.380  1.00  0.00    -0.022 A 
ATOM      2  C   UNL     1     -33.603  11.836 -36.611  1.00  0.00     0.058 A 
ATOM      3  C   UNL     1     -32.051   9.978 -36.734  1.00  0.00     0.012 A 
ATOM      4  C   UNL     1     -33.378  11.932 -35.229  1.00  0.00     0.157 A 
ATOM      5  C   UNL     1     -31.827  10.075 -35.359  1.00  0.00     0.051 A 
ATOM      6  C   UNL     1     -32.487  11.052 -34.603  1.00  0.00     0.157 A 
ENDROOT
BRANCH   1   7
ATOM      7  C   UNL     1     -33.142  10.716 -38.841  1.00  0.00     0.010 C 
ATOM      8  C   UNL     1     -34.196  10.087 -39.381  1.00  0.00     0.025 C 
BRANCH   8   9
ATOM      9  C   UNL     1     -34.380   9.969 -40.837  1.00  0.00     0.064 C 
ATOM     10  O   UNL     1     -35.196  10.704 -41.453  1.00  0.00    -0.545 OA
ATOM     11  O   UNL     1     -33.638   9.032 -41.545  1.00  0.00    -0.545 OA
ENDBRANCH   8   9
ENDBRANCH   1   7
BRANCH   4  12
ATOM     12  O   UNL     1     -34.042  12.895 -34.471  1.00  0.00    -0.504 OA
ATOM     13  H   UNL     1     -33.543  13.652 -34.021  1.00  0.00     0.293 HD
ENDBRANCH   4  12
BRANCH   6  14
ATOM     14  O   UNL     1     -32.264  11.152 -33.232  1.00  0.00    -0.504 OA
ATOM     15  H   UNL     1     -32.989  10.932 -32.558  1.00  0.00     0.293 HD
ENDBRANCH   6  14
TORSDOF 4
ENDMDL
MODEL 4
REMARK VINA RESULT:    -5.289      1.960      3.029
REMARK INTER + INTRA:          -6.352
REMARK INTER:                  -6.220
REMARK INTRA:                  -0.131
REMARK UNBOUND:                -0.136
REMARK SMILES O=C([O-])C=Cc1ccc(O)c(O)c1
REMARK SMILES IDX 6 1 13 2 7 3 11 4 8 5 9 6 5 7 4 8 2 9 1 10 3 11 12 12 10 14
REMARK H PARENT 12 13 10 15
REMARK Flexibility Score: inf
ROOT
ATOM      1  C   UNL     1     -33.507  11.464 -37.886  1.00  0.00    -0.022 A 
ATOM      2  C   UNL     1     -33.732  10.217 -38.503  1.00  0.00     0.058 A 
ATOM      3  C   UNL     1     -33.976  12.628 -38.518  1.00  0.00     0.012 A 
ATOM      4  C   UNL     1     -34.389  10.143 -39.741  1.00  0.00     0.157 A 
ATOM      5  C   UNL     1     -34.629  12.553 -39.751  1.00  0.00     0.051 A 
ATOM      6  C   UNL     1     -34.835  11.312 -40.367  1.00  0.00     0.157 A 
ENDROOT
BRANCH   1   7
ATOM      7  C   UNL     1     -32.828  11.594 -36.573  1.00  0.00     0.010 C 
ATOM      8  C   UNL     1     -33.464  11.893 -35.431  1.00  0.00     0.025 C 
BRANCH   8   9
ATOM      9  C   UNL     1     -32.758  12.001 -34.144  1.00  0.00     0.064 C 
ATOM     10  O   UNL     1     -32.015  11.073 -33.726  1.00  0.00    -0.545 OA
ATOM     11  O   UNL     1     -32.912  13.148 -33.375  1.00  0.00    -0.545 OA
ENDBRANCH   8   9
ENDBRANCH   1   7
BRANCH   4  12
ATOM     12  O   UNL     1     -34.607   8.908 -40.351  1.00  0.00    -0.504 OA
ATOM     13  H   UNL     1     -35.496   8.676 -40.775  1.00  0.00     0.293 HD
ENDBRANCH   4  12
BRANCH   6  14
ATOM     14  O   UNL     1     -35.485  11.235 -41.597  1.00  0.00    -0.504 OA
ATOM     15  H   UNL     1     -36.451  11.520 -41.706  1.00  0.00     0.293 HD
ENDBRANCH   6  14
TORSDOF 4
ENDMDL
MODEL 5
REMARK VINA RESULT:    -5.194      2.295      6.318
REMARK INTER + INTRA:          -6.240
REMARK INTER:                  -6.099
REMARK INTRA:                  -0.141
REMARK UNBOUND:                -0.136
REMARK SMILES O=C([O-])C=Cc1ccc(O)c(O)c1
REMARK SMILES IDX 6 1 13 2 7 3 11 4 8 5 9 6 5 7 4 8 2 9 1 10 3 11 12 12 10 14
REMARK H PARENT 12 13 10 15
REMARK Flexibility Score: inf
ROOT
ATOM      1  C   UNL     1     -32.835  10.611 -37.277  1.00  0.00    -0.022 A 
ATOM      2  C   UNL     1     -32.559   9.970 -36.052  1.00  0.00     0.058 A 
ATOM      3  C   UNL     1     -33.297  11.937 -37.260  1.00  0.00     0.012 A 
ATOM      4  C   UNL     1     -32.769  10.639 -34.836  1.00  0.00     0.157 A 
ATOM      5  C   UNL     1     -33.507  12.602 -36.049  1.00  0.00     0.051 A 
ATOM      6  C   UNL     1     -33.246  11.955 -34.835  1.00  0.00     0.157 A 
ENDROOT
BRANCH   1   7
ATOM      7  C   UNL     1     -32.619   9.951 -38.588  1.00  0.00     0.010 C 
ATOM      8  C   UNL     1     -33.535   9.919 -39.567  1.00  0.00     0.025 C 
BRANCH   8   9
ATOM      9  C   UNL     1     -33.280   9.264 -40.861  1.00  0.00     0.064 C 
ATOM     10  O   UNL     1     -32.125   8.875 -41.179  1.00  0.00    -0.545 OA
ATOM     11  O   UNL     1     -34.332   9.071 -41.746  1.00  0.00    -0.545 OA
ENDBRANCH   8   9
ENDBRANCH   1   7
BRANCH   4  12
ATOM     12  O   UNL     1     -32.499  10.003 -33.625  1.00  0.00    -0.504 OA
ATOM     13  H   UNL     1     -33.242   9.667 -33.025  1.00  0.00     0.293 HD
ENDBRANCH   4  12
BRANCH   6  14
ATOM     14  O   UNL     1     -33.456  12.615 -33.625  1.00  0.00    -0.504 OA
ATOM     15  H   UNL     1     -33.091  12.251 -32.752  1.00  0.00     0.293 HD
ENDBRANCH   6  14
TORSDOF 4
ENDMDL
MODEL 6
REMARK VINA RESULT:    -5.117      1.321      2.106
REMARK INTER + INTRA:          -6.150
REMARK INTER:                  -6.028
REMARK INTRA:                  -0.121
REMARK UNBOUND:                -0.136
REMARK SMILES O=C([O-])C=Cc1ccc(O)c(O)c1
REMARK SMILES IDX 6 1 13 2 7 3 11 4 8 5 9 6 5 7 4 8 2 9 1 10 3 11 12 12 10 14
REMARK H PARENT 12 13 10 15
REMARK Flexibility Score: inf
ROOT
ATOM      1  C   UNL     1     -33.074  11.898 -36.010  1.00  0.00    -0.022 A 
ATOM      2  C   UNL     1     -32.457  10.653 -36.249  1.00  0.00     0.058 A 
ATOM      3  C   UNL     1     -33.617  12.605 -37.096  1.00  0.00     0.012 A 
ATOM      4  C   UNL     1     -32.365  10.142 -37.553  1.00  0.00     0.157 A 
ATOM      5  C   UNL     1     -33.524  12.096 -38.394  1.00  0.00     0.051 A 
ATOM      6  C   UNL     1     -32.896  10.866 -38.626  1.00  0.00     0.157 A 
ENDROOT
BRANCH   1   7
ATOM      7  C   UNL     1     -33.206  12.475 -34.650  1.00  0.00     0.010 C 
ATOM      8  C   UNL     1     -32.185  12.601 -33.791  1.00  0.00     0.025 C 
BRANCH   8   9
ATOM      9  C   UNL     1     -32.352  13.190 -32.452  1.00  0.00     0.064 C 
ATOM     10  O   UNL     1     -32.619  12.473 -31.451  1.00  0.00    -0.545 OA
ATOM     11  O   UNL     1     -32.211  14.562 -32.287  1.00  0.00    -0.545 OA
ENDBRANCH   8   9
ENDBRANCH   1   7
BRANCH   4  12
ATOM     12  O   UNL     1     -31.752   8.912 -37.787  1.00  0.00    -0.504 OA
ATOM     13  H   UNL     1     -31.368   8.675 -38.693  1.00  0.00     0.293 HD
ENDBRANCH   4  12
BRANCH   6  14
ATOM     14  O   UNL     1     -32.801  10.357 -39.920  1.00  0.00    -0.504 OA
ATOM     15  H   UNL     1     -33.356   9.564 -40.221  1.00  0.00     0.293 HD
ENDBRANCH   6  14
TORSDOF 4
ENDMDL
MODEL 7
REMARK VINA RESULT:    -4.806      2.778      6.804
REMARK INTER + INTRA:          -5.785
REMARK INTER:                  -5.647
REMARK INTRA:                  -0.137
REMARK UNBOUND:                -0.136
REMARK SMILES O=C([O-])C=Cc1ccc(O)c(O)c1
REMARK SMILES IDX 6 1 13 2 7 3 11 4 8 5 9 6 5 7 4 8 2 9 1 10 3 11 12 12 10 14
REMARK H PARENT 12 13 10 15
REMARK Flexibility Score: inf
ROOT
ATOM      1  C   UNL     1     -33.926  10.747 -38.605  1.00  0.00    -0.022 A 
ATOM      2  C   UNL     1     -33.915   9.852 -37.516  1.00  0.00     0.058 A 
ATOM      3  C   UNL     1     -33.586  12.091 -38.381  1.00  0.00     0.012 A 
ATOM      4  C   UNL     1     -33.595  10.304 -36.226  1.00  0.00     0.157 A 
ATOM      5  C   UNL     1     -33.269  12.541 -37.097  1.00  0.00     0.051 A 
ATOM      6  C   UNL     1     -33.275  11.650 -36.016  1.00  0.00     0.157 A 
ENDROOT
BRANCH   1   7
ATOM      7  C   UNL     1     -34.246  10.316 -39.988  1.00  0.00     0.010 C 
ATOM      8  C   UNL     1     -35.204  10.876 -40.741  1.00  0.00     0.025 C 
BRANCH   8   9
ATOM      9  C   UNL     1     -35.485  10.429 -42.115  1.00  0.00     0.064 C 
ATOM     10  O   UNL     1     -35.983  11.212 -42.967  1.00  0.00    -0.545 OA
ATOM     11  O   UNL     1     -35.196   9.121 -42.480  1.00  0.00    -0.545 OA
ENDBRANCH   8   9
ENDBRANCH   1   7
BRANCH   4  12
ATOM     12  O   UNL     1     -33.588   9.418 -35.150  1.00  0.00    -0.504 OA
ATOM     13  H   UNL     1     -34.233   9.518 -34.376  1.00  0.00     0.293 HD
ENDBRANCH   4  12
BRANCH   6  14
ATOM     14  O   UNL     1     -32.960  12.095 -34.734  1.00  0.00    -0.504 OA
ATOM     15  H   UNL     1     -33.680  12.282 -34.045  1.00  0.00     0.293 HD
ENDBRANCH   6  14
TORSDOF 4
ENDMDL
MODEL 8
REMARK VINA RESULT:    -4.647      3.412      6.871
REMARK INTER + INTRA:          -5.597
REMARK INTER:                  -5.475
REMARK INTRA:                  -0.123
REMARK UNBOUND:                -0.136
REMARK SMILES O=C([O-])C=Cc1ccc(O)c(O)c1
REMARK SMILES IDX 6 1 13 2 7 3 11 4 8 5 9 6 5 7 4 8 2 9 1 10 3 11 12 12 10 14
REMARK H PARENT 12 13 10 15
REMARK Flexibility Score: inf
ROOT
ATOM      1  C   UNL     1     -33.461  10.022 -39.420  1.00  0.00    -0.022 A 
ATOM      2  C   UNL     1     -33.602  10.980 -38.395  1.00  0.00     0.058 A 
ATOM      3  C   UNL     1     -32.476   9.029 -39.289  1.00  0.00     0.012 A 
ATOM      4  C   UNL     1     -32.754  10.956 -37.277  1.00  0.00     0.157 A 
ATOM      5  C   UNL     1     -31.632   9.006 -38.176  1.00  0.00     0.051 A 
ATOM      6  C   UNL     1     -31.766   9.970 -37.169  1.00  0.00     0.157 A 
ENDROOT
BRANCH   1   7
ATOM      7  C   UNL     1     -34.339   9.999 -40.615  1.00  0.00     0.010 C 
ATOM      8  C   UNL     1     -35.396  10.807 -40.780  1.00  0.00     0.025 C 
BRANCH   8   9
ATOM      9  C   UNL     1     -36.238  10.763 -41.987  1.00  0.00     0.064 C 
ATOM     10  O   UNL     1     -37.307  10.097 -42.013  1.00  0.00    -0.545 OA
ATOM     11  O   UNL     1     -35.849  11.471 -43.117  1.00  0.00    -0.545 OA
ENDBRANCH   8   9
ENDBRANCH   1   7
BRANCH   4  12
ATOM     12  O   UNL     1     -32.892  11.907 -36.266  1.00  0.00    -0.504 OA
ATOM     13  H   UNL     1     -32.676  11.690 -35.301  1.00  0.00     0.293 HD
ENDBRANCH   4  12
BRANCH   6  14
ATOM     14  O   UNL     1     -30.925   9.951 -36.058  1.00  0.00    -0.504 OA
ATOM     15  H   UNL     1     -31.195   9.491 -35.196  1.00  0.00     0.293 HD
ENDBRANCH   6  14
TORSDOF 4
ENDMDL
MODEL 9
REMARK VINA RESULT:    -3.936      3.053      6.753
REMARK INTER + INTRA:          -4.762
REMARK INTER:                  -4.622
REMARK INTRA:                  -0.141
REMARK UNBOUND:                -0.136
REMARK SMILES O=C([O-])C=Cc1ccc(O)c(O)c1
REMARK SMILES IDX 6 1 13 2 7 3 11 4 8 5 9 6 5 7 4 8 2 9 1 10 3 11 12 12 10 14
REMARK H PARENT 12 13 10 15
REMARK Flexibility Score: inf
ROOT
ATOM      1  C   UNL     1     -33.458   9.233 -37.949  1.00  0.00    -0.022 A 
ATOM      2  C   UNL     1     -34.260   9.148 -36.793  1.00  0.00     0.058 A 
ATOM      3  C   UNL     1     -32.119   9.636 -37.817  1.00  0.00     0.012 A 
ATOM      4  C   UNL     1     -33.735   9.487 -35.535  1.00  0.00     0.157 A 
ATOM      5  C   UNL     1     -31.598   9.974 -36.566  1.00  0.00     0.051 A 
ATOM      6  C   UNL     1     -32.404   9.903 -35.423  1.00  0.00     0.157 A 
ENDROOT
BRANCH   1   7
ATOM      7  C   UNL     1     -33.963   8.875 -39.297  1.00  0.00     0.010 C 
ATOM      8  C   UNL     1     -33.710   9.590 -40.403  1.00  0.00     0.025 C 
BRANCH   8   9
ATOM      9  C   UNL     1     -34.218   9.197 -41.727  1.00  0.00     0.064 C 
ATOM     10  O   UNL     1     -33.433   8.935 -42.677  1.00  0.00    -0.545 OA
ATOM     11  O   UNL     1     -35.589   9.112 -41.934  1.00  0.00    -0.545 OA
ENDBRANCH   8   9
ENDBRANCH   1   7
BRANCH   4  12
ATOM     12  O   UNL     1     -34.531   9.405 -34.394  1.00  0.00    -0.504 OA
ATOM     13  H   UNL     1     -35.381   8.855 -34.377  1.00  0.00     0.293 HD
ENDBRANCH   4  12
BRANCH   6  14
ATOM     14  O   UNL     1     -31.887  10.241 -34.174  1.00  0.00    -0.504 OA
ATOM     15  H   UNL     1     -31.061  10.821 -34.080  1.00  0.00     0.293 HD
ENDBRANCH   6  14
TORSDOF 4
ENDMDL
