MODEL 1
REMARK VINA RESULT:    -3.938      0.000      0.000
REMARK INTER + INTRA:         -12.225
REMARK INTER:                  -8.542
REMARK INTRA:                  -3.683
REMARK UNBOUND:                -3.683
REMARK SMILES CCCCCCCCCCCCCCCCCCCCCC(=O)[O-]
REMARK SMILES IDX 12 1 11 2 10 3 9 4 8 5 7 6 6 7 5 8 4 9 3 10 2 11 1 12 13 13
REMARK SMILES IDX 14 14 15 15 16 16 17 17 18 18 19 19 20 20 21 21 22 22 23 23
REMARK SMILES IDX 24 24
REMARK H PARENT
REMARK Flexibility Score: inf
ROOT
ATOM      1  C   UNL     1     174.660 172.335 150.083  1.00  0.00     0.000 C 
ENDROOT
BRANCH   1   2
ATOM      2  C   UNL     1     173.249 171.724 150.064  1.00  0.00     0.000 C 
BRANCH   2   3
ATOM      3  C   UNL     1     173.158 170.418 150.870  1.00  0.00     0.000 C 
BRANCH   3   4
ATOM      4  C   UNL     1     174.510 170.074 151.510  1.00  0.00    -0.000 C 
BRANCH   4   5
ATOM      5  C   UNL     1     174.366 169.391 152.884  1.00  0.00    -0.000 C 
BRANCH   5   6
ATOM      6  C   UNL     1     175.297 168.182 153.114  1.00  0.00    -0.000 C 
BRANCH   6   7
ATOM      7  C   UNL     1     174.654 166.806 152.860  1.00  0.00    -0.000 C 
BRANCH   7   8
ATOM      8  C   UNL     1     173.241 166.852 152.250  1.00  0.00    -0.000 C 
BRANCH   8   9
ATOM      9  C   UNL     1     173.164 166.291 150.812  1.00  0.00    -0.000 C 
BRANCH   9  10
ATOM     10  C   UNL     1     174.475 166.487 150.033  1.00  0.00    -0.000 C 
BRANCH  10  11
ATOM     11  C   UNL     1     174.313 167.439 148.837  1.00  0.00    -0.003 C 
ATOM     12  C   UNL     1     172.853 167.623 148.423  1.00  0.00     0.004 C 
ENDBRANCH  10  11
ENDBRANCH   9  10
ENDBRANCH   8   9
ENDBRANCH   7   8
ENDBRANCH   6   7
ENDBRANCH   5   6
ENDBRANCH   4   5
ENDBRANCH   3   4
ENDBRANCH   2   3
ENDBRANCH   1   2
BRANCH   1  13
ATOM     13  C   UNL     1     174.641 173.849 150.355  1.00  0.00     0.000 C 
BRANCH  13  14
ATOM     14  C   UNL     1     174.323 174.190 151.822  1.00  0.00     0.000 C 
BRANCH  14  15
ATOM     15  C   UNL     1     175.049 173.321 152.865  1.00  0.00     0.000 C 
BRANCH  15  16
ATOM     16  C   UNL     1     174.683 173.694 154.312  1.00  0.00     0.000 C 
BRANCH  16  17
ATOM     17  C   UNL     1     173.172 173.613 154.579  1.00  0.00     0.000 C 
BRANCH  17  18
ATOM     18  C   UNL     1     172.597 172.213 154.303  1.00  0.00     0.000 C 
BRANCH  18  19
ATOM     19  C   UNL     1     171.340 172.256 153.419  1.00  0.00     0.000 C 
BRANCH  19  20
ATOM     20  C   UNL     1     170.947 173.689 153.019  1.00  0.00     0.006 C 
BRANCH  20  21
ATOM     21  C   UNL     1     170.506 173.781 151.552  1.00  0.00     0.053 C 
BRANCH  21  22
ATOM     22  C   UNL     1     169.022 173.937 151.424  1.00  0.00     0.041 C 
ATOM     23  O   UNL     1     168.384 173.263 150.572  1.00  0.00    -0.550 OA
ATOM     24  O   UNL     1     168.337 174.800 152.270  1.00  0.00    -0.550 OA
ENDBRANCH  21  22
ENDBRANCH  20  21
ENDBRANCH  19  20
ENDBRANCH  18  19
ENDBRANCH  17  18
ENDBRANCH  16  17
ENDBRANCH  15  16
ENDBRANCH  14  15
ENDBRANCH  13  14
ENDBRANCH   1  13
TORSDOF 20
ENDMDL
MODEL 2
REMARK VINA RESULT:    -3.935      1.983      3.835
REMARK INTER + INTRA:         -12.219
REMARK INTER:                  -8.965
REMARK INTRA:                  -3.255
REMARK UNBOUND:                -3.683
REMARK SMILES CCCCCCCCCCCCCCCCCCCCCC(=O)[O-]
REMARK SMILES IDX 12 1 11 2 10 3 9 4 8 5 7 6 6 7 5 8 4 9 3 10 2 11 1 12 13 13
REMARK SMILES IDX 14 14 15 15 16 16 17 17 18 18 19 19 20 20 21 21 22 22 23 23
REMARK SMILES IDX 24 24
REMARK H PARENT
REMARK Flexibility Score: inf
ROOT
ATOM      1  C   UNL     1     173.907 173.943 156.109  1.00  0.00     0.000 C 
ENDROOT
BRANCH   1   2
ATOM      2  C   UNL     1     174.378 173.012 157.239  1.00  0.00     0.000 C 
BRANCH   2   3
ATOM      3  C   UNL     1     173.560 171.714 157.316  1.00  0.00     0.000 C 
BRANCH   3   4
ATOM      4  C   UNL     1     174.481 170.491 157.440  1.00  0.00    -0.000 C 
BRANCH   4   5
ATOM      5  C   UNL     1     175.757 170.614 156.584  1.00  0.00    -0.000 C 
BRANCH   5   6
ATOM      6  C   UNL     1     175.789 169.720 155.327  1.00  0.00    -0.000 C 
BRANCH   6   7
ATOM      7  C   UNL     1     174.435 169.106 154.928  1.00  0.00    -0.000 C 
BRANCH   7   8
ATOM      8  C   UNL     1     173.872 169.598 153.581  1.00  0.00    -0.000 C 
BRANCH   8   9
ATOM      9  C   UNL     1     174.797 169.311 152.377  1.00  0.00    -0.000 C 
BRANCH   9  10
ATOM     10  C   UNL     1     174.010 168.994 151.093  1.00  0.00    -0.000 C 
BRANCH  10  11
ATOM     11  C   UNL     1     174.920 168.871 149.860  1.00  0.00    -0.003 C 
ATOM     12  C   UNL     1     174.615 167.627 149.025  1.00  0.00     0.004 C 
ENDBRANCH  10  11
ENDBRANCH   9  10
ENDBRANCH   8   9
ENDBRANCH   7   8
ENDBRANCH   6   7
ENDBRANCH   5   6
ENDBRANCH   4   5
ENDBRANCH   3   4
ENDBRANCH   2   3
ENDBRANCH   1   2
BRANCH   1  13
ATOM     13  C   UNL     1     173.740 173.203 154.771  1.00  0.00     0.000 C 
BRANCH  13  14
ATOM     14  C   UNL     1     175.063 173.061 153.996  1.00  0.00     0.000 C 
BRANCH  14  15
ATOM     15  C   UNL     1     175.481 174.302 153.188  1.00  0.00     0.000 C 
BRANCH  15  16
ATOM     16  C   UNL     1     175.039 174.233 151.715  1.00  0.00     0.000 C 
BRANCH  16  17
ATOM     17  C   UNL     1     174.676 172.806 151.275  1.00  0.00     0.000 C 
BRANCH  17  18
ATOM     18  C   UNL     1     173.960 172.771 149.913  1.00  0.00     0.000 C 
BRANCH  18  19
ATOM     19  C   UNL     1     172.568 172.125 149.996  1.00  0.00     0.000 C 
BRANCH  19  20
ATOM     20  C   UNL     1     171.854 172.428 151.326  1.00  0.00     0.006 C 
BRANCH  20  21
ATOM     21  C   UNL     1     170.412 172.911 151.113  1.00  0.00     0.053 C 
BRANCH  21  22
ATOM     22  C   UNL     1     170.252 174.358 151.463  1.00  0.00     0.041 C 
ATOM     23  O   UNL     1     169.272 174.739 152.156  1.00  0.00    -0.550 OA
ATOM     24  O   UNL     1     171.204 175.283 151.052  1.00  0.00    -0.550 OA
ENDBRANCH  21  22
ENDBRANCH  20  21
ENDBRANCH  19  20
ENDBRANCH  18  19
ENDBRANCH  17  18
ENDBRANCH  16  17
ENDBRANCH  15  16
ENDBRANCH  14  15
ENDBRANCH  13  14
ENDBRANCH   1  13
TORSDOF 20
ENDMDL
MODEL 3
REMARK VINA RESULT:    -3.933      1.211      2.078
REMARK INTER + INTRA:         -12.215
REMARK INTER:                  -8.508
REMARK INTRA:                  -3.707
REMARK UNBOUND:                -3.683
REMARK SMILES CCCCCCCCCCCCCCCCCCCCCC(=O)[O-]
REMARK SMILES IDX 12 1 11 2 10 3 9 4 8 5 7 6 6 7 5 8 4 9 3 10 2 11 1 12 13 13
REMARK SMILES IDX 14 14 15 15 16 16 17 17 18 18 19 19 20 20 21 21 22 22 23 23
REMARK SMILES IDX 24 24
REMARK H PARENT
REMARK Flexibility Score: inf
ROOT
ATOM      1  C   UNL     1     173.703 174.263 151.181  1.00  0.00     0.000 C 
ENDROOT
BRANCH   1   2
ATOM      2  C   UNL     1     173.693 173.365 149.932  1.00  0.00     0.000 C 
BRANCH   2   3
ATOM      3  C   UNL     1     172.615 172.272 149.997  1.00  0.00     0.000 C 
BRANCH   3   4
ATOM      4  C   UNL     1     173.252 170.878 150.092  1.00  0.00    -0.000 C 
BRANCH   4   5
ATOM      5  C   UNL     1     174.790 170.925 150.152  1.00  0.00    -0.000 C 
BRANCH   5   6
ATOM      6  C   UNL     1     175.462 169.656 150.716  1.00  0.00    -0.000 C 
BRANCH   6   7
ATOM      7  C   UNL     1     174.501 168.644 151.368  1.00  0.00    -0.000 C 
BRANCH   7   8
ATOM      8  C   UNL     1     174.489 167.249 150.715  1.00  0.00    -0.000 C 
BRANCH   8   9
ATOM      9  C   UNL     1     174.491 167.284 149.170  1.00  0.00    -0.000 C 
BRANCH   9  10
ATOM     10  C   UNL     1     173.100 167.588 148.587  1.00  0.00    -0.000 C 
BRANCH  10  11
ATOM     11  C   UNL     1     171.967 166.928 149.389  1.00  0.00    -0.003 C 
ATOM     12  C   UNL     1     170.933 167.938 149.889  1.00  0.00     0.004 C 
ENDBRANCH  10  11
ENDBRANCH   9  10
ENDBRANCH   8   9
ENDBRANCH   7   8
ENDBRANCH   6   7
ENDBRANCH   5   6
ENDBRANCH   4   5
ENDBRANCH   3   4
ENDBRANCH   2   3
ENDBRANCH   1   2
BRANCH   1  13
ATOM     13  C   UNL     1     175.031 174.182 151.952  1.00  0.00     0.000 C 
BRANCH  13  14
ATOM     14  C   UNL     1     174.856 173.672 153.394  1.00  0.00     0.000 C 
BRANCH  14  15
ATOM     15  C   UNL     1     174.977 172.147 153.566  1.00  0.00     0.000 C 
BRANCH  15  16
ATOM     16  C   UNL     1     173.742 171.522 154.239  1.00  0.00     0.000 C 
BRANCH  16  17
ATOM     17  C   UNL     1     172.487 172.400 154.101  1.00  0.00     0.000 C 
BRANCH  17  18
ATOM     18  C   UNL     1     171.372 171.714 153.293  1.00  0.00     0.000 C 
BRANCH  18  19
ATOM     19  C   UNL     1     170.098 172.570 153.203  1.00  0.00     0.000 C 
BRANCH  19  20
ATOM     20  C   UNL     1     170.302 173.847 152.367  1.00  0.00     0.006 C 
BRANCH  20  21
ATOM     21  C   UNL     1     169.396 173.879 151.128  1.00  0.00     0.053 C 
BRANCH  21  22
ATOM     22  C   UNL     1     167.985 174.240 151.479  1.00  0.00     0.041 C 
ATOM     23  O   UNL     1     167.749 175.017 152.440  1.00  0.00    -0.550 OA
ATOM     24  O   UNL     1     166.931 173.745 150.721  1.00  0.00    -0.550 OA
ENDBRANCH  21  22
ENDBRANCH  20  21
ENDBRANCH  19  20
ENDBRANCH  18  19
ENDBRANCH  17  18
ENDBRANCH  16  17
ENDBRANCH  15  16
ENDBRANCH  14  15
ENDBRANCH  13  14
ENDBRANCH   1  13
TORSDOF 20
ENDMDL
MODEL 4
REMARK VINA RESULT:    -3.835      1.147      2.607
REMARK INTER + INTRA:         -12.002
REMARK INTER:                  -8.158
REMARK INTRA:                  -3.844
REMARK UNBOUND:                -3.683
REMARK SMILES CCCCCCCCCCCCCCCCCCCCCC(=O)[O-]
REMARK SMILES IDX 12 1 11 2 10 3 9 4 8 5 7 6 6 7 5 8 4 9 3 10 2 11 1 12 13 13
REMARK SMILES IDX 14 14 15 15 16 16 17 17 18 18 19 19 20 20 21 21 22 22 23 23
REMARK SMILES IDX 24 24
REMARK H PARENT
REMARK Flexibility Score: inf
ROOT
ATOM      1  C   UNL     1     173.334 173.089 150.248  1.00  0.00     0.000 C 
ENDROOT
BRANCH   1   2
ATOM      2  C   UNL     1     174.539 172.143 150.105  1.00  0.00     0.000 C 
BRANCH   2   3
ATOM      3  C   UNL     1     174.145 170.662 150.215  1.00  0.00     0.000 C 
BRANCH   3   4
ATOM      4  C   UNL     1     172.754 170.509 150.847  1.00  0.00    -0.000 C 
BRANCH   4   5
ATOM      5  C   UNL     1     171.864 169.499 150.099  1.00  0.00    -0.000 C 
BRANCH   5   6
ATOM      6  C   UNL     1     172.435 168.991 148.759  1.00  0.00    -0.000 C 
BRANCH   6   7
ATOM      7  C   UNL     1     172.768 167.487 148.720  1.00  0.00    -0.000 C 
BRANCH   7   8
ATOM      8  C   UNL     1     174.175 167.121 149.230  1.00  0.00    -0.000 C 
BRANCH   8   9
ATOM      9  C   UNL     1     174.184 166.508 150.648  1.00  0.00    -0.000 C 
BRANCH   9  10
ATOM     10  C   UNL     1     174.682 167.499 151.714  1.00  0.00    -0.000 C 
BRANCH  10  11
ATOM     11  C   UNL     1     174.414 167.009 153.146  1.00  0.00    -0.003 C 
ATOM     12  C   UNL     1     173.479 167.937 153.921  1.00  0.00     0.004 C 
ENDBRANCH  10  11
ENDBRANCH   9  10
ENDBRANCH   8   9
ENDBRANCH   7   8
ENDBRANCH   6   7
ENDBRANCH   5   6
ENDBRANCH   4   5
ENDBRANCH   3   4
ENDBRANCH   2   3
ENDBRANCH   1   2
BRANCH   1  13
ATOM     13  C   UNL     1     173.600 174.232 151.242  1.00  0.00     0.000 C 
BRANCH  13  14
ATOM     14  C   UNL     1     174.983 174.134 151.911  1.00  0.00     0.000 C 
BRANCH  14  15
ATOM     15  C   UNL     1     174.962 174.103 153.450  1.00  0.00     0.000 C 
BRANCH  15  16
ATOM     16  C   UNL     1     175.387 172.740 154.026  1.00  0.00     0.000 C 
BRANCH  16  17
ATOM     17  C   UNL     1     174.289 171.674 153.889  1.00  0.00     0.000 C 
BRANCH  17  18
ATOM     18  C   UNL     1     173.089 171.938 154.814  1.00  0.00     0.000 C 
BRANCH  18  19
ATOM     19  C   UNL     1     171.741 171.730 154.105  1.00  0.00     0.000 C 
BRANCH  19  20
ATOM     20  C   UNL     1     171.121 173.050 153.614  1.00  0.00     0.006 C 
BRANCH  20  21
ATOM     21  C   UNL     1     170.277 172.857 152.346  1.00  0.00     0.053 C 
BRANCH  21  22
ATOM     22  C   UNL     1     169.568 174.116 151.951  1.00  0.00     0.041 C 
ATOM     23  O   UNL     1     168.741 174.650 152.735  1.00  0.00    -0.550 OA
ATOM     24  O   UNL     1     169.847 174.719 150.731  1.00  0.00    -0.550 OA
ENDBRANCH  21  22
ENDBRANCH  20  21
ENDBRANCH  19  20
ENDBRANCH  18  19
ENDBRANCH  17  18
ENDBRANCH  16  17
ENDBRANCH  15  16
ENDBRANCH  14  15
ENDBRANCH  13  14
ENDBRANCH   1  13
TORSDOF 20
ENDMDL
MODEL 5
REMARK VINA RESULT:    -3.830      5.400      9.403
REMARK INTER + INTRA:         -11.991
REMARK INTER:                  -9.701
REMARK INTRA:                  -2.290
REMARK UNBOUND:                -3.683
REMARK SMILES CCCCCCCCCCCCCCCCCCCCCC(=O)[O-]
REMARK SMILES IDX 12 1 11 2 10 3 9 4 8 5 7 6 6 7 5 8 4 9 3 10 2 11 1 12 13 13
REMARK SMILES IDX 14 14 15 15 16 16 17 17 18 18 19 19 20 20 21 21 22 22 23 23
REMARK SMILES IDX 24 24
REMARK H PARENT
REMARK Flexibility Score: inf
ROOT
ATOM      1  C   UNL     1     173.635 168.953 149.802  1.00  0.00     0.000 C 
ENDROOT
BRANCH   1   2
ATOM      2  C   UNL     1     174.963 169.583 150.257  1.00  0.00     0.000 C 
BRANCH   2   3
ATOM      3  C   UNL     1     174.967 171.114 150.123  1.00  0.00     0.000 C 
BRANCH   3   4
ATOM      4  C   UNL     1     173.535 171.667 150.098  1.00  0.00    -0.000 C 
BRANCH   4   5
ATOM      5  C   UNL     1     173.456 173.144 150.531  1.00  0.00    -0.000 C 
BRANCH   5   6
ATOM      6  C   UNL     1     174.811 173.878 150.602  1.00  0.00    -0.000 C 
BRANCH   6   7
ATOM      7  C   UNL     1     175.277 174.251 152.021  1.00  0.00    -0.000 C 
BRANCH   7   8
ATOM      8  C   UNL     1     174.372 173.738 153.157  1.00  0.00    -0.000 C 
BRANCH   8   9
ATOM      9  C   UNL     1     174.952 172.524 153.916  1.00  0.00    -0.000 C 
BRANCH   9  10
ATOM     10  C   UNL     1     174.098 171.257 153.738  1.00  0.00    -0.000 C 
BRANCH  10  11
ATOM     11  C   UNL     1     174.919 169.966 153.890  1.00  0.00    -0.003 C 
ATOM     12  C   UNL     1     174.084 168.706 153.663  1.00  0.00     0.004 C 
ENDBRANCH  10  11
ENDBRANCH   9  10
ENDBRANCH   8   9
ENDBRANCH   7   8
ENDBRANCH   6   7
ENDBRANCH   5   6
ENDBRANCH   4   5
ENDBRANCH   3   4
ENDBRANCH   2   3
ENDBRANCH   1   2
BRANCH   1  13
ATOM     13  C   UNL     1     173.843 167.626 149.051  1.00  0.00     0.000 C 
BRANCH  13  14
ATOM     14  C   UNL     1     174.635 166.592 149.871  1.00  0.00     0.000 C 
BRANCH  14  15
ATOM     15  C   UNL     1     173.788 165.733 150.828  1.00  0.00     0.000 C 
BRANCH  15  16
ATOM     16  C   UNL     1     174.644 164.900 151.799  1.00  0.00     0.000 C 
BRANCH  16  17
ATOM     17  C   UNL     1     175.650 163.994 151.069  1.00  0.00     0.000 C 
BRANCH  17  18
ATOM     18  C   UNL     1     175.620 162.544 151.582  1.00  0.00     0.000 C 
BRANCH  18  19
ATOM     19  C   UNL     1     175.859 161.519 150.462  1.00  0.00     0.000 C 
BRANCH  19  20
ATOM     20  C   UNL     1     174.573 160.779 150.052  1.00  0.00     0.006 C 
BRANCH  20  21
ATOM     21  C   UNL     1     173.646 160.521 151.248  1.00  0.00     0.053 C 
BRANCH  21  22
ATOM     22  C   UNL     1     173.910 159.190 151.881  1.00  0.00     0.041 C 
ATOM     23  O   UNL     1     173.107 158.235 151.709  1.00  0.00    -0.550 OA
ATOM     24  O   UNL     1     175.062 158.992 152.632  1.00  0.00    -0.550 OA
ENDBRANCH  21  22
ENDBRANCH  20  21
ENDBRANCH  19  20
ENDBRANCH  18  19
ENDBRANCH  17  18
ENDBRANCH  16  17
ENDBRANCH  15  16
ENDBRANCH  14  15
ENDBRANCH  13  14
ENDBRANCH   1  13
TORSDOF 20
ENDMDL
MODEL 6
REMARK VINA RESULT:    -3.811      5.413      9.585
REMARK INTER + INTRA:         -11.950
REMARK INTER:                  -9.521
REMARK INTRA:                  -2.429
REMARK UNBOUND:                -3.683
REMARK SMILES CCCCCCCCCCCCCCCCCCCCCC(=O)[O-]
REMARK SMILES IDX 12 1 11 2 10 3 9 4 8 5 7 6 6 7 5 8 4 9 3 10 2 11 1 12 13 13
REMARK SMILES IDX 14 14 15 15 16 16 17 17 18 18 19 19 20 20 21 21 22 22 23 23
REMARK SMILES IDX 24 24
REMARK H PARENT
REMARK Flexibility Score: inf
ROOT
ATOM      1  C   UNL     1     172.552 168.226 149.621  1.00  0.00     0.000 C 
ENDROOT
BRANCH   1   2
ATOM      2  C   UNL     1     172.657 169.698 150.056  1.00  0.00     0.000 C 
BRANCH   2   3
ATOM      3  C   UNL     1     173.262 169.858 151.460  1.00  0.00     0.000 C 
BRANCH   3   4
ATOM      4  C   UNL     1     174.633 170.547 151.391  1.00  0.00    -0.000 C 
BRANCH   4   5
ATOM      5  C   UNL     1     174.891 171.232 150.036  1.00  0.00    -0.000 C 
BRANCH   5   6
ATOM      6  C   UNL     1     174.690 172.761 150.027  1.00  0.00    -0.000 C 
BRANCH   6   7
ATOM      7  C   UNL     1     173.257 173.229 149.712  1.00  0.00    -0.000 C 
BRANCH   7   8
ATOM      8  C   UNL     1     172.628 174.153 150.772  1.00  0.00    -0.000 C 
BRANCH   8   9
ATOM      9  C   UNL     1     172.186 173.416 152.056  1.00  0.00    -0.000 C 
BRANCH   9  10
ATOM     10  C   UNL     1     172.859 173.980 153.319  1.00  0.00    -0.000 C 
BRANCH  10  11
ATOM     11  C   UNL     1     174.018 173.099 153.813  1.00  0.00    -0.003 C 
ATOM     12  C   UNL     1     175.389 173.690 153.485  1.00  0.00     0.004 C 
ENDBRANCH  10  11
ENDBRANCH   9  10
ENDBRANCH   8   9
ENDBRANCH   7   8
ENDBRANCH   6   7
ENDBRANCH   5   6
ENDBRANCH   4   5
ENDBRANCH   3   4
ENDBRANCH   2   3
ENDBRANCH   1   2
BRANCH   1  13
ATOM     13  C   UNL     1     173.828 167.728 148.923  1.00  0.00     0.000 C 
BRANCH  13  14
ATOM     14  C   UNL     1     174.639 166.745 149.788  1.00  0.00     0.000 C 
BRANCH  14  15
ATOM     15  C   UNL     1     173.911 166.230 151.044  1.00  0.00     0.000 C 
BRANCH  15  16
ATOM     16  C   UNL     1     174.673 165.095 151.752  1.00  0.00     0.000 C 
BRANCH  16  17
ATOM     17  C   UNL     1     174.563 163.756 151.005  1.00  0.00     0.000 C 
BRANCH  17  18
ATOM     18  C   UNL     1     175.885 162.968 151.007  1.00  0.00     0.000 C 
BRANCH  18  19
ATOM     19  C   UNL     1     176.042 162.084 152.255  1.00  0.00     0.000 C 
BRANCH  19  20
ATOM     20  C   UNL     1     176.089 160.584 151.915  1.00  0.00     0.006 C 
BRANCH  20  21
ATOM     21  C   UNL     1     174.832 160.120 151.166  1.00  0.00     0.053 C 
BRANCH  21  22
ATOM     22  C   UNL     1     174.085 159.069 151.928  1.00  0.00     0.041 C 
ATOM     23  O   UNL     1     174.193 158.997 153.181  1.00  0.00    -0.550 OA
ATOM     24  O   UNL     1     173.242 158.190 151.259  1.00  0.00    -0.550 OA
ENDBRANCH  21  22
ENDBRANCH  20  21
ENDBRANCH  19  20
ENDBRANCH  18  19
ENDBRANCH  17  18
ENDBRANCH  16  17
ENDBRANCH  15  16
ENDBRANCH  14  15
ENDBRANCH  13  14
ENDBRANCH   1  13
TORSDOF 20
ENDMDL
MODEL 7
REMARK VINA RESULT:    -3.807      1.292      2.854
REMARK INTER + INTRA:         -11.941
REMARK INTER:                  -8.111
REMARK INTRA:                  -3.829
REMARK UNBOUND:                -3.683
REMARK SMILES CCCCCCCCCCCCCCCCCCCCCC(=O)[O-]
REMARK SMILES IDX 12 1 11 2 10 3 9 4 8 5 7 6 6 7 5 8 4 9 3 10 2 11 1 12 13 13
REMARK SMILES IDX 14 14 15 15 16 16 17 17 18 18 19 19 20 20 21 21 22 22 23 23
REMARK SMILES IDX 24 24
REMARK H PARENT
REMARK Flexibility Score: inf
ROOT
ATOM      1  C   UNL     1     174.047 174.175 153.312  1.00  0.00     0.000 C 
ENDROOT
BRANCH   1   2
ATOM      2  C   UNL     1     174.208 173.209 154.498  1.00  0.00     0.000 C 
BRANCH   2   3
ATOM      3  C   UNL     1     172.965 172.333 154.721  1.00  0.00     0.000 C 
BRANCH   3   4
ATOM      4  C   UNL     1     173.362 170.866 154.948  1.00  0.00    -0.000 C 
BRANCH   4   5
ATOM      5  C   UNL     1     174.853 170.600 154.671  1.00  0.00    -0.000 C 
BRANCH   5   6
ATOM      6  C   UNL     1     175.151 169.309 153.881  1.00  0.00    -0.000 C 
BRANCH   6   7
ATOM      7  C   UNL     1     173.913 168.476 153.501  1.00  0.00    -0.000 C 
BRANCH   7   8
ATOM      8  C   UNL     1     174.150 167.428 152.398  1.00  0.00    -0.000 C 
BRANCH   8   9
ATOM      9  C   UNL     1     172.849 166.850 151.797  1.00  0.00    -0.000 C 
BRANCH   9  10
ATOM     10  C   UNL     1     173.080 166.172 150.436  1.00  0.00    -0.000 C 
BRANCH  10  11
ATOM     11  C   UNL     1     173.083 167.175 149.271  1.00  0.00    -0.003 C 
ATOM     12  C   UNL     1     174.472 167.364 148.660  1.00  0.00     0.004 C 
ENDBRANCH  10  11
ENDBRANCH   9  10
ENDBRANCH   8   9
ENDBRANCH   7   8
ENDBRANCH   6   7
ENDBRANCH   5   6
ENDBRANCH   4   5
ENDBRANCH   3   4
ENDBRANCH   2   3
ENDBRANCH   1   2
BRANCH   1  13
ATOM     13  C   UNL     1     175.224 174.094 152.325  1.00  0.00     0.000 C 
BRANCH  13  14
ATOM     14  C   UNL     1     174.784 174.232 150.856  1.00  0.00     0.000 C 
BRANCH  14  15
ATOM     15  C   UNL     1     174.735 172.912 150.065  1.00  0.00     0.000 C 
BRANCH  15  16
ATOM     16  C   UNL     1     174.706 171.671 150.975  1.00  0.00     0.000 C 
BRANCH  16  17
ATOM     17  C   UNL     1     173.916 170.506 150.358  1.00  0.00     0.000 C 
BRANCH  17  18
ATOM     18  C   UNL     1     172.446 170.868 150.083  1.00  0.00     0.000 C 
BRANCH  18  19
ATOM     19  C   UNL     1     171.560 170.716 151.330  1.00  0.00     0.000 C 
BRANCH  19  20
ATOM     20  C   UNL     1     171.081 172.069 151.884  1.00  0.00     0.006 C 
BRANCH  20  21
ATOM     21  C   UNL     1     171.207 173.197 150.849  1.00  0.00     0.053 C 
BRANCH  21  22
ATOM     22  C   UNL     1     170.602 174.475 151.342  1.00  0.00     0.041 C 
ATOM     23  O   UNL     1     169.480 174.468 151.913  1.00  0.00    -0.550 OA
ATOM     24  O   UNL     1     171.294 175.672 151.201  1.00  0.00    -0.550 OA
ENDBRANCH  21  22
ENDBRANCH  20  21
ENDBRANCH  19  20
ENDBRANCH  18  19
ENDBRANCH  17  18
ENDBRANCH  16  17
ENDBRANCH  15  16
ENDBRANCH  14  15
ENDBRANCH  13  14
ENDBRANCH   1  13
TORSDOF 20
ENDMDL
MODEL 8
REMARK VINA RESULT:    -3.802      3.727      7.233
REMARK INTER + INTRA:         -11.930
REMARK INTER:                  -8.249
REMARK INTRA:                  -3.681
REMARK UNBOUND:                -3.683
REMARK SMILES CCCCCCCCCCCCCCCCCCCCCC(=O)[O-]
REMARK SMILES IDX 12 1 11 2 10 3 9 4 8 5 7 6 6 7 5 8 4 9 3 10 2 11 1 12 13 13
REMARK SMILES IDX 14 14 15 15 16 16 17 17 18 18 19 19 20 20 21 21 22 22 23 23
REMARK SMILES IDX 24 24
REMARK H PARENT
REMARK Flexibility Score: inf
ROOT
ATOM      1  C   UNL     1     173.416 170.473 156.042  1.00  0.00     0.000 C 
ENDROOT
BRANCH   1   2
ATOM      2  C   UNL     1     174.764 171.151 155.745  1.00  0.00     0.000 C 
BRANCH   2   3
ATOM      3  C   UNL     1     174.604 172.598 155.253  1.00  0.00     0.000 C 
BRANCH   3   4
ATOM      4  C   UNL     1     175.239 172.780 153.867  1.00  0.00    -0.000 C 
BRANCH   4   5
ATOM      5  C   UNL     1     175.111 174.220 153.334  1.00  0.00    -0.000 C 
BRANCH   5   6
ATOM      6  C   UNL     1     175.221 174.363 151.802  1.00  0.00    -0.000 C 
BRANCH   6   7
ATOM      7  C   UNL     1     174.902 173.085 151.003  1.00  0.00    -0.000 C 
BRANCH   7   8
ATOM      8  C   UNL     1     173.983 173.294 149.785  1.00  0.00    -0.000 C 
BRANCH   8   9
ATOM      9  C   UNL     1     172.601 172.616 149.924  1.00  0.00    -0.000 C 
BRANCH   9  10
ATOM     10  C   UNL     1     171.704 173.316 150.960  1.00  0.00    -0.000 C 
BRANCH  10  11
ATOM     11  C   UNL     1     171.419 172.432 152.185  1.00  0.00    -0.003 C 
ATOM     12  C   UNL     1     171.451 173.216 153.497  1.00  0.00     0.004 C 
ENDBRANCH  10  11
ENDBRANCH   9  10
ENDBRANCH   8   9
ENDBRANCH   7   8
ENDBRANCH   6   7
ENDBRANCH   5   6
ENDBRANCH   4   5
ENDBRANCH   3   4
ENDBRANCH   2   3
ENDBRANCH   1   2
BRANCH   1  13
ATOM     13  C   UNL     1     172.741 169.927 154.772  1.00  0.00     0.000 C 
BRANCH  13  14
ATOM     14  C   UNL     1     173.727 169.214 153.829  1.00  0.00     0.000 C 
BRANCH  14  15
ATOM     15  C   UNL     1     173.716 169.716 152.374  1.00  0.00     0.000 C 
BRANCH  15  16
ATOM     16  C   UNL     1     175.089 169.592 151.689  1.00  0.00     0.000 C 
BRANCH  16  17
ATOM     17  C   UNL     1     174.975 169.453 150.162  1.00  0.00     0.000 C 
BRANCH  17  18
ATOM     18  C   UNL     1     173.566 169.032 149.710  1.00  0.00     0.000 C 
BRANCH  18  19
ATOM     19  C   UNL     1     173.539 167.619 149.105  1.00  0.00     0.000 C 
BRANCH  19  20
ATOM     20  C   UNL     1     174.599 166.691 149.724  1.00  0.00     0.006 C 
BRANCH  20  21
ATOM     21  C   UNL     1     174.079 165.974 150.979  1.00  0.00     0.053 C 
BRANCH  21  22
ATOM     22  C   UNL     1     174.712 164.628 151.154  1.00  0.00     0.041 C 
ATOM     23  O   UNL     1     175.884 164.531 151.603  1.00  0.00    -0.550 OA
ATOM     24  O   UNL     1     173.994 163.477 150.854  1.00  0.00    -0.550 OA
ENDBRANCH  21  22
ENDBRANCH  20  21
ENDBRANCH  19  20
ENDBRANCH  18  19
ENDBRANCH  17  18
ENDBRANCH  16  17
ENDBRANCH  15  16
ENDBRANCH  14  15
ENDBRANCH  13  14
ENDBRANCH   1  13
TORSDOF 20
ENDMDL
MODEL 9
REMARK VINA RESULT:    -3.784      3.113      6.015
REMARK INTER + INTRA:         -11.891
REMARK INTER:                  -7.984
REMARK INTRA:                  -3.907
REMARK UNBOUND:                -3.683
REMARK SMILES CCCCCCCCCCCCCCCCCCCCCC(=O)[O-]
REMARK SMILES IDX 12 1 11 2 10 3 9 4 8 5 7 6 6 7 5 8 4 9 3 10 2 11 1 12 13 13
REMARK SMILES IDX 14 14 15 15 16 16 17 17 18 18 19 19 20 20 21 21 22 22 23 23
REMARK SMILES IDX 24 24
REMARK H PARENT
REMARK Flexibility Score: inf
ROOT
ATOM      1  C   UNL     1     173.061 168.354 151.363  1.00  0.00     0.000 C 
ENDROOT
BRANCH   1   2
ATOM      2  C   UNL     1     173.420 169.220 150.144  1.00  0.00     0.000 C 
BRANCH   2   3
ATOM      3  C   UNL     1     174.937 169.386 149.962  1.00  0.00     0.000 C 
BRANCH   3   4
ATOM      4  C   UNL     1     175.384 170.806 150.342  1.00  0.00    -0.000 C 
BRANCH   4   5
ATOM      5  C   UNL     1     174.254 171.844 150.208  1.00  0.00    -0.000 C 
BRANCH   5   6
ATOM      6  C   UNL     1     174.723 173.306 150.054  1.00  0.00    -0.000 C 
BRANCH   6   7
ATOM      7  C   UNL     1     174.500 174.196 151.291  1.00  0.00    -0.000 C 
BRANCH   7   8
ATOM      8  C   UNL     1     173.187 173.931 152.052  1.00  0.00    -0.000 C 
BRANCH   8   9
ATOM      9  C   UNL     1     171.976 174.714 151.497  1.00  0.00    -0.000 C 
BRANCH   9  10
ATOM     10  C   UNL     1     170.796 173.794 151.138  1.00  0.00    -0.000 C 
BRANCH  10  11
ATOM     11  C   UNL     1     170.860 172.442 151.866  1.00  0.00    -0.003 C 
ATOM     12  C   UNL     1     170.474 171.268 150.965  1.00  0.00     0.004 C 
ENDBRANCH  10  11
ENDBRANCH   9  10
ENDBRANCH   8   9
ENDBRANCH   7   8
ENDBRANCH   6   7
ENDBRANCH   5   6
ENDBRANCH   4   5
ENDBRANCH   3   4
ENDBRANCH   2   3
ENDBRANCH   1   2
BRANCH   1  13
ATOM     13  C   UNL     1     174.180 167.365 151.731  1.00  0.00     0.000 C 
BRANCH  13  14
ATOM     14  C   UNL     1     174.615 167.473 153.203  1.00  0.00     0.000 C 
BRANCH  14  15
ATOM     15  C   UNL     1     175.688 168.540 153.489  1.00  0.00     0.000 C 
BRANCH  15  16
ATOM     16  C   UNL     1     175.244 169.565 154.547  1.00  0.00     0.000 C 
BRANCH  16  17
ATOM     17  C   UNL     1     174.579 170.804 153.926  1.00  0.00     0.000 C 
BRANCH  17  18
ATOM     18  C   UNL     1     173.072 170.880 154.228  1.00  0.00     0.000 C 
BRANCH  18  19
ATOM     19  C   UNL     1     172.721 172.031 155.185  1.00  0.00     0.000 C 
BRANCH  19  20
ATOM     20  C   UNL     1     173.947 172.882 155.562  1.00  0.00     0.006 C 
BRANCH  20  21
ATOM     21  C   UNL     1     174.092 173.048 157.081  1.00  0.00     0.053 C 
BRANCH  21  22
ATOM     22  C   UNL     1     174.341 171.738 157.764  1.00  0.00     0.041 C 
ATOM     23  O   UNL     1     175.451 171.158 157.638  1.00  0.00    -0.550 OA
ATOM     24  O   UNL     1     173.358 171.174 158.567  1.00  0.00    -0.550 OA
ENDBRANCH  21  22
ENDBRANCH  20  21
ENDBRANCH  19  20
ENDBRANCH  18  19
ENDBRANCH  17  18
ENDBRANCH  16  17
ENDBRANCH  15  16
ENDBRANCH  14  15
ENDBRANCH  13  14
ENDBRANCH   1  13
TORSDOF 20
ENDMDL
