MODEL 1
REMARK VINA RESULT:    11.849      0.000      0.000
REMARK INTER + INTRA:          25.298
REMARK INTER:                  25.702
REMARK INTRA:                  -0.404
REMARK UNBOUND:                -0.404
REMARK SMILES CCCCCCCCCCCCCCCCCCCCCC(=O)[O-]
REMARK SMILES IDX 12 1 11 2 10 3 9 4 8 5 7 6 6 7 5 8 4 9 3 10 2 11 1 12 13 13
REMARK SMILES IDX 14 14 15 15 16 16 17 17 18 18 19 19 20 20 21 21 22 22 23 23
REMARK SMILES IDX 24 24
REMARK H PARENT
REMARK Flexibility Score: inf
ROOT
ATOM      1  C   UNL     1      69.013  75.255  95.789  1.00  0.00     0.000 C 
ENDROOT
BRANCH   1   2
ATOM      2  C   UNL     1      68.352  75.920  97.010  1.00  0.00     0.000 C 
BRANCH   2   3
ATOM      3  C   UNL     1      67.878  77.353  96.726  1.00  0.00     0.000 C 
BRANCH   3   4
ATOM      4  C   UNL     1      68.047  78.241  97.968  1.00  0.00    -0.000 C 
BRANCH   4   5
ATOM      5  C   UNL     1      69.357  77.963  98.724  1.00  0.00    -0.000 C 
BRANCH   5   6
ATOM      6  C   UNL     1      69.754  79.117  99.661  1.00  0.00    -0.000 C 
BRANCH   6   7
ATOM      7  C   UNL     1      68.614  80.125  99.891  1.00  0.00    -0.000 C 
BRANCH   7   8
ATOM      8  C   UNL     1      67.875  79.993 101.236  1.00  0.00    -0.000 C 
BRANCH   8   9
ATOM      9  C   UNL     1      68.216  78.692 101.982  1.00  0.00    -0.000 C 
BRANCH   9  10
ATOM     10  C   UNL     1      69.308  78.884 103.052  1.00  0.00    -0.000 C 
BRANCH  10  11
ATOM     11  C   UNL     1      69.231  77.913 104.243  1.00  0.00    -0.003 C 
ATOM     12  C   UNL     1      68.592  76.571 103.885  1.00  0.00     0.004 C 
ENDBRANCH  10  11
ENDBRANCH   9  10
ENDBRANCH   8   9
ENDBRANCH   7   8
ENDBRANCH   6   7
ENDBRANCH   5   6
ENDBRANCH   4   5
ENDBRANCH   3   4
ENDBRANCH   2   3
ENDBRANCH   1   2
BRANCH   1  13
ATOM     13  C   UNL     1      68.281  75.479  94.451  1.00  0.00     0.000 C 
BRANCH  13  14
ATOM     14  C   UNL     1      68.989  76.437  93.473  1.00  0.00     0.000 C 
BRANCH  14  15
ATOM     15  C   UNL     1      68.348  76.533  92.074  1.00  0.00     0.000 C 
BRANCH  15  16
ATOM     16  C   UNL     1      68.617  75.334  91.148  1.00  0.00     0.000 C 
BRANCH  16  17
ATOM     17  C   UNL     1      69.309  74.167  91.871  1.00  0.00     0.000 C 
BRANCH  17  18
ATOM     18  C   UNL     1      70.845  74.260  91.821  1.00  0.00     0.000 C 
BRANCH  18  19
ATOM     19  C   UNL     1      71.523  74.575  93.168  1.00  0.00     0.000 C 
BRANCH  19  20
ATOM     20  C   UNL     1      73.043  74.306  93.179  1.00  0.00     0.006 C 
BRANCH  20  21
ATOM     21  C   UNL     1      73.858  75.587  93.402  1.00  0.00     0.053 C 
BRANCH  21  22
ATOM     22  C   UNL     1      75.249  75.420  92.878  1.00  0.00     0.041 C 
ATOM     23  O   UNL     1      76.238  75.588  93.638  1.00  0.00    -0.550 OA
ATOM     24  O   UNL     1      75.453  75.028  91.560  1.00  0.00    -0.550 OA
ENDBRANCH  21  22
ENDBRANCH  20  21
ENDBRANCH  19  20
ENDBRANCH  18  19
ENDBRANCH  17  18
ENDBRANCH  16  17
ENDBRANCH  15  16
ENDBRANCH  14  15
ENDBRANCH  13  14
ENDBRANCH   1  13
TORSDOF 20
ENDMDL
MODEL 2
REMARK VINA RESULT:    11.937     17.008     20.189
REMARK INTER + INTRA:          25.489
REMARK INTER:                  26.312
REMARK INTRA:                  -0.823
REMARK UNBOUND:                -0.404
REMARK SMILES CCCCCCCCCCCCCCCCCCCCCC(=O)[O-]
REMARK SMILES IDX 12 1 11 2 10 3 9 4 8 5 7 6 6 7 5 8 4 9 3 10 2 11 1 12 13 13
REMARK SMILES IDX 14 14 15 15 16 16 17 17 18 18 19 19 20 20 21 21 22 22 23 23
REMARK SMILES IDX 24 24
REMARK H PARENT
REMARK Flexibility Score: inf
ROOT
ATOM      1  C   UNL     1      80.780  64.733 102.598  1.00  0.00     0.000 C 
ENDROOT
BRANCH   1   2
ATOM      2  C   UNL     1      79.508  64.795 101.731  1.00  0.00     0.000 C 
BRANCH   2   3
ATOM      3  C   UNL     1      78.223  64.574 102.541  1.00  0.00     0.000 C 
BRANCH   3   4
ATOM      4  C   UNL     1      77.288  63.589 101.823  1.00  0.00    -0.000 C 
BRANCH   4   5
ATOM      5  C   UNL     1      76.871  64.075 100.425  1.00  0.00    -0.000 C 
BRANCH   5   6
ATOM      6  C   UNL     1      75.344  64.140 100.253  1.00  0.00    -0.000 C 
BRANCH   6   7
ATOM      7  C   UNL     1      74.822  63.199  99.152  1.00  0.00    -0.000 C 
BRANCH   7   8
ATOM      8  C   UNL     1      75.156  63.620  97.709  1.00  0.00    -0.000 C 
BRANCH   8   9
ATOM      9  C   UNL     1      75.392  62.422  96.774  1.00  0.00    -0.000 C 
BRANCH   9  10
ATOM     10  C   UNL     1      75.336  61.069  97.508  1.00  0.00    -0.000 C 
BRANCH  10  11
ATOM     11  C   UNL     1      75.932  59.881  96.732  1.00  0.00    -0.003 C 
ATOM     12  C   UNL     1      77.141  60.265  95.879  1.00  0.00     0.004 C 
ENDBRANCH  10  11
ENDBRANCH   9  10
ENDBRANCH   8   9
ENDBRANCH   7   8
ENDBRANCH   6   7
ENDBRANCH   5   6
ENDBRANCH   4   5
ENDBRANCH   3   4
ENDBRANCH   2   3
ENDBRANCH   1   2
BRANCH   1  13
ATOM     13  C   UNL     1      80.989  65.940 103.534  1.00  0.00     0.000 C 
BRANCH  13  14
ATOM     14  C   UNL     1      82.339  65.963 104.276  1.00  0.00     0.000 C 
BRANCH  14  15
ATOM     15  C   UNL     1      82.815  67.360 104.723  1.00  0.00     0.000 C 
BRANCH  15  16
ATOM     16  C   UNL     1      84.184  67.390 105.426  1.00  0.00     0.000 C 
BRANCH  16  17
ATOM     17  C   UNL     1      84.301  66.343 106.548  1.00  0.00     0.000 C 
BRANCH  17  18
ATOM     18  C   UNL     1      85.723  66.247 107.128  1.00  0.00     0.000 C 
BRANCH  18  19
ATOM     19  C   UNL     1      85.880  65.271 108.309  1.00  0.00     0.000 C 
BRANCH  19  20
ATOM     20  C   UNL     1      87.180  65.473 109.117  1.00  0.00     0.006 C 
BRANCH  20  21
ATOM     21  C   UNL     1      86.911  65.632 110.620  1.00  0.00     0.053 C 
BRANCH  21  22
ATOM     22  C   UNL     1      86.208  66.924 110.892  1.00  0.00     0.041 C 
ATOM     23  O   UNL     1      84.961  66.944 111.066  1.00  0.00    -0.550 OA
ATOM     24  O   UNL     1      86.937  68.101 111.004  1.00  0.00    -0.550 OA
ENDBRANCH  21  22
ENDBRANCH  20  21
ENDBRANCH  19  20
ENDBRANCH  18  19
ENDBRANCH  17  18
ENDBRANCH  16  17
ENDBRANCH  15  16
ENDBRANCH  14  15
ENDBRANCH  13  14
ENDBRANCH   1  13
TORSDOF 20
ENDMDL
MODEL 3
REMARK VINA RESULT:    12.057     16.843     18.609
REMARK INTER + INTRA:          25.749
REMARK INTER:                  26.064
REMARK INTRA:                  -0.315
REMARK UNBOUND:                -0.404
REMARK SMILES CCCCCCCCCCCCCCCCCCCCCC(=O)[O-]
REMARK SMILES IDX 12 1 11 2 10 3 9 4 8 5 7 6 6 7 5 8 4 9 3 10 2 11 1 12 13 13
REMARK SMILES IDX 14 14 15 15 16 16 17 17 18 18 19 19 20 20 21 21 22 22 23 23
REMARK SMILES IDX 24 24
REMARK H PARENT
REMARK Flexibility Score: inf
ROOT
ATOM      1  C   UNL     1      80.306  66.013 102.822  1.00  0.00     0.000 C 
ENDROOT
BRANCH   1   2
ATOM      2  C   UNL     1      81.785  65.901 103.235  1.00  0.00     0.000 C 
BRANCH   2   3
ATOM      3  C   UNL     1      82.002  66.109 104.740  1.00  0.00     0.000 C 
BRANCH   3   4
ATOM      4  C   UNL     1      82.902  67.327 104.999  1.00  0.00    -0.000 C 
BRANCH   4   5
ATOM      5  C   UNL     1      84.313  66.935 105.470  1.00  0.00    -0.000 C 
BRANCH   5   6
ATOM      6  C   UNL     1      84.324  66.379 106.904  1.00  0.00    -0.000 C 
BRANCH   6   7
ATOM      7  C   UNL     1      85.488  65.405 107.163  1.00  0.00    -0.000 C 
BRANCH   7   8
ATOM      8  C   UNL     1      86.473  65.831 108.268  1.00  0.00    -0.000 C 
BRANCH   8   9
ATOM      9  C   UNL     1      85.814  65.924 109.655  1.00  0.00    -0.000 C 
BRANCH   9  10
ATOM     10  C   UNL     1      86.841  66.007 110.801  1.00  0.00    -0.000 C 
BRANCH  10  11
ATOM     11  C   UNL     1      88.096  65.137 110.615  1.00  0.00    -0.003 C 
ATOM     12  C   UNL     1      87.789  63.640 110.566  1.00  0.00     0.004 C 
ENDBRANCH  10  11
ENDBRANCH   9  10
ENDBRANCH   8   9
ENDBRANCH   7   8
ENDBRANCH   6   7
ENDBRANCH   5   6
ENDBRANCH   4   5
ENDBRANCH   3   4
ENDBRANCH   2   3
ENDBRANCH   1   2
BRANCH   1  13
ATOM     13  C   UNL     1      79.720  64.753 102.155  1.00  0.00     0.000 C 
BRANCH  13  14
ATOM     14  C   UNL     1      78.283  64.396 102.585  1.00  0.00     0.000 C 
BRANCH  14  15
ATOM     15  C   UNL     1      77.492  63.540 101.576  1.00  0.00     0.000 C 
BRANCH  15  16
ATOM     16  C   UNL     1      76.402  64.293 100.794  1.00  0.00     0.000 C 
BRANCH  16  17
ATOM     17  C   UNL     1      75.770  63.440  99.681  1.00  0.00     0.000 C 
BRANCH  17  18
ATOM     18  C   UNL     1      74.483  64.062  99.111  1.00  0.00     0.000 C 
BRANCH  18  19
ATOM     19  C   UNL     1      74.574  64.517  97.641  1.00  0.00     0.000 C 
BRANCH  19  20
ATOM     20  C   UNL     1      74.584  63.354  96.627  1.00  0.00     0.006 C 
BRANCH  20  21
ATOM     21  C   UNL     1      75.908  62.578  96.648  1.00  0.00     0.053 C 
BRANCH  21  22
ATOM     22  C   UNL     1      75.661  61.131  96.933  1.00  0.00     0.041 C 
ATOM     23  O   UNL     1      74.963  60.789  97.925  1.00  0.00    -0.550 OA
ATOM     24  O   UNL     1      76.159  60.157  96.076  1.00  0.00    -0.550 OA
ENDBRANCH  21  22
ENDBRANCH  20  21
ENDBRANCH  19  20
ENDBRANCH  18  19
ENDBRANCH  17  18
ENDBRANCH  16  17
ENDBRANCH  15  16
ENDBRANCH  14  15
ENDBRANCH  13  14
ENDBRANCH   1  13
TORSDOF 20
ENDMDL
MODEL 4
REMARK VINA RESULT:    12.345     16.529     19.627
REMARK INTER + INTRA:          26.375
REMARK INTER:                  27.105
REMARK INTRA:                  -0.731
REMARK UNBOUND:                -0.404
REMARK SMILES CCCCCCCCCCCCCCCCCCCCCC(=O)[O-]
REMARK SMILES IDX 12 1 11 2 10 3 9 4 8 5 7 6 6 7 5 8 4 9 3 10 2 11 1 12 13 13
REMARK SMILES IDX 14 14 15 15 16 16 17 17 18 18 19 19 20 20 21 21 22 22 23 23
REMARK SMILES IDX 24 24
REMARK H PARENT
REMARK Flexibility Score: inf
ROOT
ATOM      1  C   UNL     1      79.459  64.857 101.780  1.00  0.00     0.000 C 
ENDROOT
BRANCH   1   2
ATOM      2  C   UNL     1      78.376  63.984 102.441  1.00  0.00     0.000 C 
BRANCH   2   3
ATOM      3  C   UNL     1      76.971  64.251 101.883  1.00  0.00     0.000 C 
BRANCH   3   4
ATOM      4  C   UNL     1      76.922  63.975 100.372  1.00  0.00    -0.000 C 
BRANCH   4   5
ATOM      5  C   UNL     1      75.535  63.512  99.897  1.00  0.00    -0.000 C 
BRANCH   5   6
ATOM      6  C   UNL     1      74.817  64.575  99.047  1.00  0.00    -0.000 C 
BRANCH   6   7
ATOM      7  C   UNL     1      74.111  63.983  97.814  1.00  0.00    -0.000 C 
BRANCH   7   8
ATOM      8  C   UNL     1      74.965  63.908  96.534  1.00  0.00    -0.000 C 
BRANCH   8   9
ATOM      9  C   UNL     1      75.403  62.475  96.189  1.00  0.00    -0.000 C 
BRANCH   9  10
ATOM     10  C   UNL     1      75.348  61.523  97.399  1.00  0.00    -0.000 C 
BRANCH  10  11
ATOM     11  C   UNL     1      75.682  60.054  97.089  1.00  0.00    -0.003 C 
ATOM     12  C   UNL     1      77.048  59.875  96.426  1.00  0.00     0.004 C 
ENDBRANCH  10  11
ENDBRANCH   9  10
ENDBRANCH   8   9
ENDBRANCH   7   8
ENDBRANCH   6   7
ENDBRANCH   5   6
ENDBRANCH   4   5
ENDBRANCH   3   4
ENDBRANCH   2   3
ENDBRANCH   1   2
BRANCH   1  13
ATOM     13  C   UNL     1      80.828  64.843 102.489  1.00  0.00     0.000 C 
BRANCH  13  14
ATOM     14  C   UNL     1      81.074  66.022 103.451  1.00  0.00     0.000 C 
BRANCH  14  15
ATOM     15  C   UNL     1      82.337  65.897 104.327  1.00  0.00     0.000 C 
BRANCH  15  16
ATOM     16  C   UNL     1      82.998  67.232 104.714  1.00  0.00     0.000 C 
BRANCH  16  17
ATOM     17  C   UNL     1      84.314  67.042 105.487  1.00  0.00     0.000 C 
BRANCH  17  18
ATOM     18  C   UNL     1      84.119  66.312 106.828  1.00  0.00     0.000 C 
BRANCH  18  19
ATOM     19  C   UNL     1      84.868  64.972 106.956  1.00  0.00     0.000 C 
BRANCH  19  20
ATOM     20  C   UNL     1      86.250  65.092 107.632  1.00  0.00     0.006 C 
BRANCH  20  21
ATOM     21  C   UNL     1      86.335  66.302 108.572  1.00  0.00     0.053 C 
BRANCH  21  22
ATOM     22  C   UNL     1      86.330  65.857 110.000  1.00  0.00     0.041 C 
ATOM     23  O   UNL     1      85.419  66.240 110.781  1.00  0.00    -0.550 OA
ATOM     24  O   UNL     1      87.304  64.978 110.457  1.00  0.00    -0.550 OA
ENDBRANCH  21  22
ENDBRANCH  20  21
ENDBRANCH  19  20
ENDBRANCH  18  19
ENDBRANCH  17  18
ENDBRANCH  16  17
ENDBRANCH  15  16
ENDBRANCH  14  15
ENDBRANCH  13  14
ENDBRANCH   1  13
TORSDOF 20
ENDMDL
MODEL 5
REMARK VINA RESULT:    12.385     17.166     19.108
REMARK INTER + INTRA:          26.462
REMARK INTER:                  26.480
REMARK INTRA:                  -0.018
REMARK UNBOUND:                -0.404
REMARK SMILES CCCCCCCCCCCCCCCCCCCCCC(=O)[O-]
REMARK SMILES IDX 12 1 11 2 10 3 9 4 8 5 7 6 6 7 5 8 4 9 3 10 2 11 1 12 13 13
REMARK SMILES IDX 14 14 15 15 16 16 17 17 18 18 19 19 20 20 21 21 22 22 23 23
REMARK SMILES IDX 24 24
REMARK H PARENT
REMARK Flexibility Score: inf
ROOT
ATOM      1  C   UNL     1      82.219  66.569 103.725  1.00  0.00     0.000 C 
ENDROOT
BRANCH   1   2
ATOM      2  C   UNL     1      82.503  66.940 105.193  1.00  0.00     0.000 C 
BRANCH   2   3
ATOM      3  C   UNL     1      84.002  67.083 105.493  1.00  0.00     0.000 C 
BRANCH   3   4
ATOM      4  C   UNL     1      84.316  66.644 106.931  1.00  0.00    -0.000 C 
BRANCH   4   5
ATOM      5  C   UNL     1      85.321  65.481 106.992  1.00  0.00    -0.000 C 
BRANCH   5   6
ATOM      6  C   UNL     1      86.504  65.772 107.930  1.00  0.00    -0.000 C 
BRANCH   6   7
ATOM      7  C   UNL     1      86.750  64.650 108.955  1.00  0.00    -0.000 C 
BRANCH   7   8
ATOM      8  C   UNL     1      86.727  65.086 110.432  1.00  0.00    -0.000 C 
BRANCH   8   9
ATOM      9  C   UNL     1      85.651  66.145 110.728  1.00  0.00    -0.000 C 
BRANCH   9  10
ATOM     10  C   UNL     1      86.246  67.509 111.125  1.00  0.00    -0.000 C 
BRANCH  10  11
ATOM     11  C   UNL     1      87.742  67.683 110.813  1.00  0.00    -0.003 C 
ATOM     12  C   UNL     1      88.125  69.128 110.490  1.00  0.00     0.004 C 
ENDBRANCH  10  11
ENDBRANCH   9  10
ENDBRANCH   8   9
ENDBRANCH   7   8
ENDBRANCH   6   7
ENDBRANCH   5   6
ENDBRANCH   4   5
ENDBRANCH   3   4
ENDBRANCH   2   3
ENDBRANCH   1   2
BRANCH   1  13
ATOM     13  C   UNL     1      80.881  65.841 103.486  1.00  0.00     0.000 C 
BRANCH  13  14
ATOM     14  C   UNL     1      80.963  64.620 102.548  1.00  0.00     0.000 C 
BRANCH  14  15
ATOM     15  C   UNL     1      79.714  64.382 101.676  1.00  0.00     0.000 C 
BRANCH  15  16
ATOM     16  C   UNL     1      78.368  64.588 102.393  1.00  0.00     0.000 C 
BRANCH  16  17
ATOM     17  C   UNL     1      77.231  63.757 101.775  1.00  0.00     0.000 C 
BRANCH  17  18
ATOM     18  C   UNL     1      77.000  64.076 100.287  1.00  0.00     0.000 C 
BRANCH  18  19
ATOM     19  C   UNL     1      75.780  63.380  99.653  1.00  0.00     0.000 C 
BRANCH  19  20
ATOM     20  C   UNL     1      74.543  64.292  99.516  1.00  0.00     0.006 C 
BRANCH  20  21
ATOM     21  C   UNL     1      73.994  64.316  98.083  1.00  0.00     0.053 C 
BRANCH  21  22
ATOM     22  C   UNL     1      74.830  63.457  97.188  1.00  0.00     0.041 C 
ATOM     23  O   UNL     1      75.276  63.915  96.103  1.00  0.00    -0.550 OA
ATOM     24  O   UNL     1      75.160  62.164  97.575  1.00  0.00    -0.550 OA
ENDBRANCH  21  22
ENDBRANCH  20  21
ENDBRANCH  19  20
ENDBRANCH  18  19
ENDBRANCH  17  18
ENDBRANCH  16  17
ENDBRANCH  15  16
ENDBRANCH  14  15
ENDBRANCH  13  14
ENDBRANCH   1  13
TORSDOF 20
ENDMDL
MODEL 6
REMARK VINA RESULT:    12.573     17.707     20.789
REMARK INTER + INTRA:          26.869
REMARK INTER:                  27.543
REMARK INTRA:                  -0.673
REMARK UNBOUND:                -0.404
REMARK SMILES CCCCCCCCCCCCCCCCCCCCCC(=O)[O-]
REMARK SMILES IDX 12 1 11 2 10 3 9 4 8 5 7 6 6 7 5 8 4 9 3 10 2 11 1 12 13 13
REMARK SMILES IDX 14 14 15 15 16 16 17 17 18 18 19 19 20 20 21 21 22 22 23 23
REMARK SMILES IDX 24 24
REMARK H PARENT
REMARK Flexibility Score: inf
ROOT
ATOM      1  C   UNL     1      80.872  66.004 103.107  1.00  0.00     0.000 C 
ENDROOT
BRANCH   1   2
ATOM      2  C   UNL     1      80.597  64.699 102.337  1.00  0.00     0.000 C 
BRANCH   2   3
ATOM      3  C   UNL     1      79.318  64.764 101.490  1.00  0.00     0.000 C 
BRANCH   3   4
ATOM      4  C   UNL     1      78.218  63.877 102.094  1.00  0.00    -0.000 C 
BRANCH   4   5
ATOM      5  C   UNL     1      76.803  64.338 101.706  1.00  0.00    -0.000 C 
BRANCH   5   6
ATOM      6  C   UNL     1      76.138  63.404 100.680  1.00  0.00    -0.000 C 
BRANCH   6   7
ATOM      7  C   UNL     1      75.651  64.144  99.421  1.00  0.00    -0.000 C 
BRANCH   7   8
ATOM      8  C   UNL     1      76.027  63.486  98.081  1.00  0.00    -0.000 C 
BRANCH   8   9
ATOM      9  C   UNL     1      75.031  62.398  97.645  1.00  0.00    -0.000 C 
BRANCH   9  10
ATOM     10  C   UNL     1      75.517  60.974  97.977  1.00  0.00    -0.000 C 
BRANCH  10  11
ATOM     11  C   UNL     1      75.621  60.024  96.771  1.00  0.00    -0.003 C 
ATOM     12  C   UNL     1      76.972  60.100  96.059  1.00  0.00     0.004 C 
ENDBRANCH  10  11
ENDBRANCH   9  10
ENDBRANCH   8   9
ENDBRANCH   7   8
ENDBRANCH   6   7
ENDBRANCH   5   6
ENDBRANCH   4   5
ENDBRANCH   3   4
ENDBRANCH   2   3
ENDBRANCH   1   2
BRANCH   1  13
ATOM     13  C   UNL     1      82.319  66.168 103.613  1.00  0.00     0.000 C 
BRANCH  13  14
ATOM     14  C   UNL     1      82.473  67.049 104.869  1.00  0.00     0.000 C 
BRANCH  14  15
ATOM     15  C   UNL     1      83.903  67.126 105.441  1.00  0.00     0.000 C 
BRANCH  15  16
ATOM     16  C   UNL     1      84.132  66.328 106.737  1.00  0.00     0.000 C 
BRANCH  16  17
ATOM     17  C   UNL     1      85.397  65.455 106.683  1.00  0.00     0.000 C 
BRANCH  17  18
ATOM     18  C   UNL     1      86.376  65.753 107.832  1.00  0.00     0.000 C 
BRANCH  18  19
ATOM     19  C   UNL     1      85.739  65.811 109.234  1.00  0.00     0.000 C 
BRANCH  19  20
ATOM     20  C   UNL     1      86.765  65.936 110.381  1.00  0.00     0.006 C 
BRANCH  20  21
ATOM     21  C   UNL     1      88.030  65.106 110.122  1.00  0.00     0.053 C 
BRANCH  21  22
ATOM     22  C   UNL     1      87.702  63.647 110.094  1.00  0.00     0.041 C 
ATOM     23  O   UNL     1      87.257  63.077 111.125  1.00  0.00    -0.550 OA
ATOM     24  O   UNL     1      87.841  62.925 108.915  1.00  0.00    -0.550 OA
ENDBRANCH  21  22
ENDBRANCH  20  21
ENDBRANCH  19  20
ENDBRANCH  18  19
ENDBRANCH  17  18
ENDBRANCH  16  17
ENDBRANCH  15  16
ENDBRANCH  14  15
ENDBRANCH  13  14
ENDBRANCH   1  13
TORSDOF 20
ENDMDL
MODEL 7
REMARK VINA RESULT:    13.292     16.878     18.709
REMARK INTER + INTRA:          28.428
REMARK INTER:                  28.028
REMARK INTRA:                   0.400
REMARK UNBOUND:                -0.404
REMARK SMILES CCCCCCCCCCCCCCCCCCCCCC(=O)[O-]
REMARK SMILES IDX 12 1 11 2 10 3 9 4 8 5 7 6 6 7 5 8 4 9 3 10 2 11 1 12 13 13
REMARK SMILES IDX 14 14 15 15 16 16 17 17 18 18 19 19 20 20 21 21 22 22 23 23
REMARK SMILES IDX 24 24
REMARK H PARENT
REMARK Flexibility Score: inf
ROOT
ATOM      1  C   UNL     1      80.960  65.972 102.930  1.00  0.00     0.000 C 
ENDROOT
BRANCH   1   2
ATOM      2  C   UNL     1      81.845  66.010 104.190  1.00  0.00     0.000 C 
BRANCH   2   3
ATOM      3  C   UNL     1      82.475  67.389 104.435  1.00  0.00     0.000 C 
BRANCH   3   4
ATOM      4  C   UNL     1      83.797  67.257 105.206  1.00  0.00    -0.000 C 
BRANCH   4   5
ATOM      5  C   UNL     1      83.941  65.898 105.911  1.00  0.00    -0.000 C 
BRANCH   5   6
ATOM      6  C   UNL     1      84.451  66.034 107.356  1.00  0.00    -0.000 C 
BRANCH   6   7
ATOM      7  C   UNL     1      85.783  65.300 107.596  1.00  0.00    -0.000 C 
BRANCH   7   8
ATOM      8  C   UNL     1      86.794  66.039 108.491  1.00  0.00    -0.000 C 
BRANCH   8   9
ATOM      9  C   UNL     1      86.261  66.299 109.910  1.00  0.00    -0.000 C 
BRANCH   9  10
ATOM     10  C   UNL     1      86.693  65.218 110.920  1.00  0.00    -0.000 C 
BRANCH  10  11
ATOM     11  C   UNL     1      88.106  64.650 110.702  1.00  0.00    -0.003 C 
ATOM     12  C   UNL     1      88.118  63.138 110.474  1.00  0.00     0.004 C 
ENDBRANCH  10  11
ENDBRANCH   9  10
ENDBRANCH   8   9
ENDBRANCH   7   8
ENDBRANCH   6   7
ENDBRANCH   5   6
ENDBRANCH   4   5
ENDBRANCH   3   4
ENDBRANCH   2   3
ENDBRANCH   1   2
BRANCH   1  13
ATOM     13  C   UNL     1      80.529  64.562 102.481  1.00  0.00     0.000 C 
BRANCH  13  14
ATOM     14  C   UNL     1      79.247  64.514 101.627  1.00  0.00     0.000 C 
BRANCH  14  15
ATOM     15  C   UNL     1      78.029  63.865 102.314  1.00  0.00     0.000 C 
BRANCH  15  16
ATOM     16  C   UNL     1      76.706  63.972 101.534  1.00  0.00     0.000 C 
BRANCH  16  17
ATOM     17  C   UNL     1      76.819  63.446 100.094  1.00  0.00     0.000 C 
BRANCH  17  18
ATOM     18  C   UNL     1      75.470  63.440  99.353  1.00  0.00     0.000 C 
BRANCH  18  19
ATOM     19  C   UNL     1      75.106  62.108  98.670  1.00  0.00     0.000 C 
BRANCH  19  20
ATOM     20  C   UNL     1      75.424  62.074  97.160  1.00  0.00     0.006 C 
BRANCH  20  21
ATOM     21  C   UNL     1      75.568  63.481  96.565  1.00  0.00     0.053 C 
BRANCH  21  22
ATOM     22  C   UNL     1      74.424  64.347  96.987  1.00  0.00     0.041 C 
ATOM     23  O   UNL     1      74.635  65.506  97.432  1.00  0.00    -0.550 OA
ATOM     24  O   UNL     1      73.118  63.894  96.844  1.00  0.00    -0.550 OA
ENDBRANCH  21  22
ENDBRANCH  20  21
ENDBRANCH  19  20
ENDBRANCH  18  19
ENDBRANCH  17  18
ENDBRANCH  16  17
ENDBRANCH  15  16
ENDBRANCH  14  15
ENDBRANCH  13  14
ENDBRANCH   1  13
TORSDOF 20
ENDMDL
MODEL 8
REMARK VINA RESULT:    13.488     16.732     18.446
REMARK INTER + INTRA:          28.853
REMARK INTER:                  28.523
REMARK INTRA:                   0.330
REMARK UNBOUND:                -0.404
REMARK SMILES CCCCCCCCCCCCCCCCCCCCCC(=O)[O-]
REMARK SMILES IDX 12 1 11 2 10 3 9 4 8 5 7 6 6 7 5 8 4 9 3 10 2 11 1 12 13 13
REMARK SMILES IDX 14 14 15 15 16 16 17 17 18 18 19 19 20 20 21 21 22 22 23 23
REMARK SMILES IDX 24 24
REMARK H PARENT
REMARK Flexibility Score: inf
ROOT
ATOM      1  C   UNL     1      79.781  64.861 102.286  1.00  0.00     0.000 C 
ENDROOT
BRANCH   1   2
ATOM      2  C   UNL     1      80.311  65.930 103.261  1.00  0.00     0.000 C 
BRANCH   2   3
ATOM      3  C   UNL     1      81.842  65.917 103.385  1.00  0.00     0.000 C 
BRANCH   3   4
ATOM      4  C   UNL     1      82.280  66.375 104.784  1.00  0.00    -0.000 C 
BRANCH   4   5
ATOM      5  C   UNL     1      83.698  66.972 104.798  1.00  0.00    -0.000 C 
BRANCH   5   6
ATOM      6  C   UNL     1      84.297  67.037 106.213  1.00  0.00    -0.000 C 
BRANCH   6   7
ATOM      7  C   UNL     1      84.484  65.649 106.852  1.00  0.00    -0.000 C 
BRANCH   7   8
ATOM      8  C   UNL     1      85.858  65.399 107.502  1.00  0.00    -0.000 C 
BRANCH   8   9
ATOM      9  C   UNL     1      86.055  66.187 108.808  1.00  0.00    -0.000 C 
BRANCH   9  10
ATOM     10  C   UNL     1      86.217  65.276 110.039  1.00  0.00    -0.000 C 
BRANCH  10  11
ATOM     11  C   UNL     1      87.656  64.811 110.323  1.00  0.00    -0.003 C 
ATOM     12  C   UNL     1      87.797  63.290 110.378  1.00  0.00     0.004 C 
ENDBRANCH  10  11
ENDBRANCH   9  10
ENDBRANCH   8   9
ENDBRANCH   7   8
ENDBRANCH   6   7
ENDBRANCH   5   6
ENDBRANCH   4   5
ENDBRANCH   3   4
ENDBRANCH   2   3
ENDBRANCH   1   2
BRANCH   1  13
ATOM     13  C   UNL     1      78.314  64.445 102.513  1.00  0.00     0.000 C 
BRANCH  13  14
ATOM     14  C   UNL     1      77.709  63.561 101.405  1.00  0.00     0.000 C 
BRANCH  14  15
ATOM     15  C   UNL     1      76.344  64.033 100.867  1.00  0.00     0.000 C 
BRANCH  15  16
ATOM     16  C   UNL     1      75.913  63.397  99.533  1.00  0.00     0.000 C 
BRANCH  16  17
ATOM     17  C   UNL     1      74.811  64.199  98.819  1.00  0.00     0.000 C 
BRANCH  17  18
ATOM     18  C   UNL     1      74.768  63.936  97.304  1.00  0.00     0.000 C 
BRANCH  18  19
ATOM     19  C   UNL     1      75.234  62.532  96.872  1.00  0.00     0.000 C 
BRANCH  19  20
ATOM     20  C   UNL     1      74.621  61.387  97.707  1.00  0.00     0.006 C 
BRANCH  20  21
ATOM     21  C   UNL     1      75.434  60.089  97.597  1.00  0.00     0.053 C 
BRANCH  21  22
ATOM     22  C   UNL     1      76.530  60.242  96.592  1.00  0.00     0.041 C 
ATOM     23  O   UNL     1      77.728  60.040  96.924  1.00  0.00    -0.550 OA
ATOM     24  O   UNL     1      76.227  60.559  95.274  1.00  0.00    -0.550 OA
ENDBRANCH  21  22
ENDBRANCH  20  21
ENDBRANCH  19  20
ENDBRANCH  18  19
ENDBRANCH  17  18
ENDBRANCH  16  17
ENDBRANCH  15  16
ENDBRANCH  14  15
ENDBRANCH  13  14
ENDBRANCH   1  13
TORSDOF 20
ENDMDL
