MODEL 1
REMARK VINA RESULT:    65.497      0.000      0.000
REMARK INTER + INTRA:          71.879
REMARK INTER:                  71.240
REMARK INTRA:                   0.639
REMARK UNBOUND:                 0.639
REMARK SMILES CC1(C)CC[C@]2(C(=O)[O-])CC[C@]3(C)C(=CC[C@H]4[C@@]5(C)CC[C@H](O)C(C)(C)[C@H]5CC[C@@]43C)[C@@H]2C1
REMARK SMILES IDX 6 1 5 2 10 3 32 4 4 5 11 6 14 7 33 8 2 9 12 10 15 11 1 12
REMARK SMILES IDX 3 13 13 14 30 15 16 16 17 17 29 18 31 19 18 20 28 21 27 22
REMARK SMILES IDX 20 23 19 24 24 25 21 26 22 27 25 28 26 29 7 30 8 31 9 32
REMARK SMILES IDX 23 33
REMARK H PARENT 23 34
REMARK Flexibility Score: inf
ROOT
ATOM      1  C   UNL     1     -50.811 120.999 -10.508  1.00  0.00     0.017 C 
ATOM      2  C   UNL     1     -49.274 121.238 -10.630  1.00  0.00     0.014 C 
ATOM      3  C   UNL     1     -51.443 120.788 -11.907  1.00  0.00     0.014 C 
ATOM      4  C   UNL     1     -51.496 122.208  -9.784  1.00  0.00     0.028 C 
ATOM      5  C   UNL     1     -48.876 122.633 -11.136  1.00  0.00     0.007 C 
ATOM      6  C   UNL     1     -52.979 120.601 -11.862  1.00  0.00     0.013 C 
ATOM      7  C   UNL     1     -53.030 122.077  -9.828  1.00  0.00    -0.064 C 
ATOM      8  C   UNL     1     -51.026 123.606 -10.263  1.00  0.00     0.015 C 
ATOM      9  C   UNL     1     -49.488 123.779 -10.298  1.00  0.00    -0.035 C 
ATOM     10  C   UNL     1     -53.763 121.773 -11.169  1.00  0.00    -0.006 C 
ATOM     11  C   UNL     1     -53.652 121.975  -8.624  1.00  0.00    -0.027 C 
ATOM     12  C   UNL     1     -49.153 125.125 -10.984  1.00  0.00     0.011 C 
ATOM     13  C   UNL     1     -48.891 123.819  -8.871  1.00  0.00     0.011 C 
ATOM     14  C   UNL     1     -53.691 123.009 -12.124  1.00  0.00     0.017 C 
ATOM     15  C   UNL     1     -55.320 121.404 -10.917  1.00  0.00    -0.020 C 
ATOM     16  C   UNL     1     -54.996 121.339  -8.411  1.00  0.00     0.032 C 
ATOM     17  C   UNL     1     -55.458 120.521  -9.643  1.00  0.00     0.006 C 
ATOM     18  C   UNL     1     -55.892 120.582 -12.101  1.00  0.00     0.008 C 
ATOM     19  C   UNL     1     -56.159 122.715 -10.721  1.00  0.00     0.012 C 
ATOM     20  C   UNL     1     -56.816 119.652  -9.450  1.00  0.00    -0.025 C 
ATOM     21  C   UNL     1     -57.390 120.385 -11.990  1.00  0.00     0.005 C 
ATOM     22  C   UNL     1     -57.840 119.652 -10.695  1.00  0.00     0.003 C 
ATOM     23  C   UNL     1     -57.562 120.041  -8.132  1.00  0.00     0.010 C 
ATOM     24  C   UNL     1     -56.324 118.180  -9.234  1.00  0.00     0.012 C 
ATOM     25  C   UNL     1     -59.378 119.930 -10.369  1.00  0.00    -0.006 C 
ATOM     26  C   UNL     1     -58.890 119.303  -7.871  1.00  0.00     0.033 C 
ATOM     27  C   UNL     1     -59.824 119.140  -9.093  1.00  0.00     0.120 C 
ATOM     28  C   UNL     1     -60.261 119.457 -11.564  1.00  0.00     0.014 C 
ATOM     29  C   UNL     1     -59.733 121.437 -10.167  1.00  0.00     0.014 C 
ENDROOT
BRANCH   1  30
ATOM     30  C   UNL     1     -50.988 119.704  -9.707  1.00  0.00     0.048 C 
ATOM     31  O   UNL     1     -52.148 119.241  -9.512  1.00  0.00    -0.550 OA
ATOM     32  O   UNL     1     -49.905 119.056  -9.119  1.00  0.00    -0.550 OA
ENDBRANCH   1  30
BRANCH  27  33
ATOM     33  O   UNL     1     -60.052 117.777  -9.359  1.00  0.00    -0.393 OA
ATOM     34  H   UNL     1     -59.354 117.246  -8.903  1.00  0.00     0.210 HD
ENDBRANCH  27  33
TORSDOF 2
ENDMDL
