MODEL 1
REMARK VINA RESULT:    -4.896      0.000      0.000
REMARK INTER + INTRA:          -9.040
REMARK INTER:                  -7.759
REMARK INTRA:                  -1.281
REMARK UNBOUND:                -1.281
REMARK SMILES CCCCCCCCCCCC(=O)[O-]
REMARK SMILES IDX 7 1 8 2 9 3 10 4 11 5 12 6 13 7 14 8 6 9 5 10 4 11 3 12 2 13
REMARK SMILES IDX 1 14
REMARK H PARENT
REMARK Flexibility Score: inf
ROOT
ATOM      1  C   UNL     1     -29.610  64.653  82.372  1.00  0.00     0.000 C 
ENDROOT
BRANCH   1   2
ATOM      2  C   UNL     1     -28.251  65.247  81.980  1.00  0.00     0.000 C 
BRANCH   2   3
ATOM      3  C   UNL     1     -28.247  66.773  82.153  1.00  0.00     0.000 C 
BRANCH   3   4
ATOM      4  C   UNL     1     -28.623  67.213  83.579  1.00  0.00     0.006 C 
BRANCH   4   5
ATOM      5  C   UNL     1     -27.504  67.025  84.615  1.00  0.00     0.053 C 
BRANCH   5   6
ATOM      6  C   UNL     1     -27.453  68.156  85.596  1.00  0.00     0.041 C 
ATOM      7  O   UNL     1     -26.367  68.751  85.821  1.00  0.00    -0.550 OA
ATOM      8  O   UNL     1     -28.600  68.531  86.284  1.00  0.00    -0.550 OA
ENDBRANCH   5   6
ENDBRANCH   4   5
ENDBRANCH   3   4
ENDBRANCH   2   3
ENDBRANCH   1   2
BRANCH   1   9
ATOM      9  C   UNL     1     -29.433  63.388  83.225  1.00  0.00     0.000 C 
BRANCH   9  10
ATOM     10  C   UNL     1     -28.964  63.699  84.655  1.00  0.00    -0.000 C 
BRANCH  10  11
ATOM     11  C   UNL     1     -30.129  63.795  85.656  1.00  0.00    -0.000 C 
BRANCH  11  12
ATOM     12  C   UNL     1     -30.247  65.202  86.278  1.00  0.00    -0.000 C 
BRANCH  12  13
ATOM     13  C   UNL     1     -31.248  66.115  85.550  1.00  0.00    -0.003 C 
ATOM     14  C   UNL     1     -31.866  67.173  86.460  1.00  0.00     0.004 C 
ENDBRANCH  12  13
ENDBRANCH  11  12
ENDBRANCH  10  11
ENDBRANCH   9  10
ENDBRANCH   1   9
TORSDOF 10
ENDMDL
MODEL 2
REMARK VINA RESULT:    -4.890      2.370      4.379
REMARK INTER + INTRA:          -9.029
REMARK INTER:                  -7.839
REMARK INTRA:                  -1.190
REMARK UNBOUND:                -1.281
REMARK SMILES CCCCCCCCCCCC(=O)[O-]
REMARK SMILES IDX 7 1 8 2 9 3 10 4 11 5 12 6 13 7 14 8 6 9 5 10 4 11 3 12 2 13
REMARK SMILES IDX 1 14
REMARK H PARENT
REMARK Flexibility Score: inf
ROOT
ATOM      1  C   UNL     1     -28.271  68.141  86.858  1.00  0.00     0.000 C 
ENDROOT
BRANCH   1   2
ATOM      2  C   UNL     1     -27.276  68.598  85.784  1.00  0.00     0.000 C 
BRANCH   2   3
ATOM      3  C   UNL     1     -26.539  67.399  85.171  1.00  0.00     0.000 C 
BRANCH   3   4
ATOM      4  C   UNL     1     -27.496  66.306  84.661  1.00  0.00     0.006 C 
BRANCH   4   5
ATOM      5  C   UNL     1     -28.262  66.683  83.382  1.00  0.00     0.053 C 
BRANCH   5   6
ATOM      6  C   UNL     1     -28.478  65.499  82.490  1.00  0.00     0.041 C 
ATOM      7  O   UNL     1     -29.122  64.501  82.906  1.00  0.00    -0.550 OA
ATOM      8  O   UNL     1     -27.940  65.487  81.209  1.00  0.00    -0.550 OA
ENDBRANCH   5   6
ENDBRANCH   4   5
ENDBRANCH   3   4
ENDBRANCH   2   3
ENDBRANCH   1   2
BRANCH   1   9
ATOM      9  C   UNL     1     -29.590  68.923  86.754  1.00  0.00     0.000 C 
BRANCH   9  10
ATOM     10  C   UNL     1     -30.567  68.306  85.741  1.00  0.00    -0.000 C 
BRANCH  10  11
ATOM     11  C   UNL     1     -31.318  67.087  86.307  1.00  0.00    -0.000 C 
BRANCH  11  12
ATOM     12  C   UNL     1     -31.002  65.795  85.525  1.00  0.00    -0.000 C 
BRANCH  12  13
ATOM     13  C   UNL     1     -30.053  64.842  86.271  1.00  0.00    -0.003 C 
ATOM     14  C   UNL     1     -30.417  63.370  86.089  1.00  0.00     0.004 C 
ENDBRANCH  12  13
ENDBRANCH  11  12
ENDBRANCH  10  11
ENDBRANCH   9  10
ENDBRANCH   1   9
TORSDOF 10
ENDMDL
MODEL 3
REMARK VINA RESULT:    -4.800      1.304      3.928
REMARK INTER + INTRA:          -8.887
REMARK INTER:                  -7.570
REMARK INTRA:                  -1.317
REMARK UNBOUND:                -1.281
REMARK SMILES CCCCCCCCCCCC(=O)[O-]
REMARK SMILES IDX 7 1 8 2 9 3 10 4 11 5 12 6 13 7 14 8 6 9 5 10 4 11 3 12 2 13
REMARK SMILES IDX 1 14
REMARK H PARENT
REMARK Flexibility Score: inf
ROOT
ATOM      1  C   UNL     1     -29.383  63.504  83.418  1.00  0.00     0.000 C 
ENDROOT
BRANCH   1   2
ATOM      2  C   UNL     1     -28.906  63.886  84.825  1.00  0.00     0.000 C 
BRANCH   2   3
ATOM      3  C   UNL     1     -30.090  63.996  85.796  1.00  0.00     0.000 C 
BRANCH   3   4
ATOM      4  C   UNL     1     -30.221  65.397  86.421  1.00  0.00     0.006 C 
BRANCH   4   5
ATOM      5  C   UNL     1     -31.093  66.371  85.613  1.00  0.00     0.053 C 
BRANCH   5   6
ATOM      6  C   UNL     1     -31.382  67.627  86.375  1.00  0.00     0.041 C 
ATOM      7  O   UNL     1     -32.297  67.649  87.240  1.00  0.00    -0.550 OA
ATOM      8  O   UNL     1     -30.660  68.783  86.107  1.00  0.00    -0.550 OA
ENDBRANCH   5   6
ENDBRANCH   4   5
ENDBRANCH   3   4
ENDBRANCH   2   3
ENDBRANCH   1   2
BRANCH   1   9
ATOM      9  C   UNL     1     -29.582  64.753  82.546  1.00  0.00     0.000 C 
BRANCH   9  10
ATOM     10  C   UNL     1     -28.253  65.363  82.072  1.00  0.00    -0.000 C 
BRANCH  10  11
ATOM     11  C   UNL     1     -28.237  66.899  82.165  1.00  0.00    -0.000 C 
BRANCH  11  12
ATOM     12  C   UNL     1     -28.552  67.399  83.591  1.00  0.00    -0.000 C 
BRANCH  12  13
ATOM     13  C   UNL     1     -27.424  67.126  84.601  1.00  0.00    -0.003 C 
ATOM     14  C   UNL     1     -27.315  68.199  85.681  1.00  0.00     0.004 C 
ENDBRANCH  12  13
ENDBRANCH  11  12
ENDBRANCH  10  11
ENDBRANCH   9  10
ENDBRANCH   1   9
TORSDOF 10
ENDMDL
MODEL 4
REMARK VINA RESULT:    -4.731      2.408      5.270
REMARK INTER + INTRA:          -8.778
REMARK INTER:                  -7.508
REMARK INTRA:                  -1.270
REMARK UNBOUND:                -1.281
REMARK SMILES CCCCCCCCCCCC(=O)[O-]
REMARK SMILES IDX 7 1 8 2 9 3 10 4 11 5 12 6 13 7 14 8 6 9 5 10 4 11 3 12 2 13
REMARK SMILES IDX 1 14
REMARK H PARENT
REMARK Flexibility Score: inf
ROOT
ATOM      1  C   UNL     1     -30.514  68.633  86.014  1.00  0.00     0.000 C 
ENDROOT
BRANCH   1   2
ATOM      2  C   UNL     1     -31.655  67.995  86.816  1.00  0.00     0.000 C 
BRANCH   2   3
ATOM      3  C   UNL     1     -32.207  66.755  86.096  1.00  0.00     0.000 C 
BRANCH   3   4
ATOM      4  C   UNL     1     -31.130  65.999  85.298  1.00  0.00     0.006 C 
BRANCH   4   5
ATOM      5  C   UNL     1     -30.318  64.992  86.128  1.00  0.00     0.053 C 
BRANCH   5   6
ATOM      6  C   UNL     1     -30.067  63.721  85.377  1.00  0.00     0.041 C 
ATOM      7  O   UNL     1     -30.205  62.608  85.949  1.00  0.00    -0.550 OA
ATOM      8  O   UNL     1     -29.651  63.767  84.052  1.00  0.00    -0.550 OA
ENDBRANCH   5   6
ENDBRANCH   4   5
ENDBRANCH   3   4
ENDBRANCH   2   3
ENDBRANCH   1   2
BRANCH   1   9
ATOM      9  C   UNL     1     -29.301  68.918  86.913  1.00  0.00     0.000 C 
BRANCH   9  10
ATOM     10  C   UNL     1     -28.204  67.850  86.784  1.00  0.00    -0.000 C 
BRANCH  10  11
ATOM     11  C   UNL     1     -27.361  68.015  85.506  1.00  0.00    -0.000 C 
BRANCH  11  12
ATOM     12  C   UNL     1     -27.530  66.823  84.540  1.00  0.00    -0.000 C 
BRANCH  12  13
ATOM     13  C   UNL     1     -28.419  67.139  83.325  1.00  0.00    -0.003 C 
ATOM     14  C   UNL     1     -28.164  66.212  82.140  1.00  0.00     0.004 C 
ENDBRANCH  12  13
ENDBRANCH  11  12
ENDBRANCH  10  11
ENDBRANCH   9  10
ENDBRANCH   1   9
TORSDOF 10
ENDMDL
MODEL 5
REMARK VINA RESULT:    -4.682      2.115      4.607
REMARK INTER + INTRA:          -8.699
REMARK INTER:                  -7.532
REMARK INTRA:                  -1.168
REMARK UNBOUND:                -1.281
REMARK SMILES CCCCCCCCCCCC(=O)[O-]
REMARK SMILES IDX 7 1 8 2 9 3 10 4 11 5 12 6 13 7 14 8 6 9 5 10 4 11 3 12 2 13
REMARK SMILES IDX 1 14
REMARK H PARENT
REMARK Flexibility Score: inf
ROOT
ATOM      1  C   UNL     1     -31.333  65.970  85.646  1.00  0.00     0.000 C 
ENDROOT
BRANCH   1   2
ATOM      2  C   UNL     1     -30.132  65.179  86.178  1.00  0.00     0.000 C 
BRANCH   2   3
ATOM      3  C   UNL     1     -30.019  63.815  85.481  1.00  0.00     0.000 C 
BRANCH   3   4
ATOM      4  C   UNL     1     -28.906  63.777  84.419  1.00  0.00     0.006 C 
BRANCH   4   5
ATOM      5  C   UNL     1     -29.389  64.060  82.987  1.00  0.00     0.053 C 
BRANCH   5   6
ATOM      6  C   UNL     1     -28.844  65.350  82.457  1.00  0.00     0.041 C 
ATOM      7  O   UNL     1     -27.947  65.345  81.574  1.00  0.00    -0.550 OA
ATOM      8  O   UNL     1     -29.305  66.559  82.963  1.00  0.00    -0.550 OA
ENDBRANCH   5   6
ENDBRANCH   4   5
ENDBRANCH   3   4
ENDBRANCH   2   3
ENDBRANCH   1   2
BRANCH   1   9
ATOM      9  C   UNL     1     -31.439  67.339  86.336  1.00  0.00     0.000 C 
BRANCH   9  10
ATOM     10  C   UNL     1     -30.482  68.381  85.737  1.00  0.00    -0.000 C 
BRANCH  10  11
ATOM     11  C   UNL     1     -29.551  69.009  86.790  1.00  0.00    -0.000 C 
BRANCH  11  12
ATOM     12  C   UNL     1     -28.215  68.247  86.912  1.00  0.00    -0.000 C 
BRANCH  12  13
ATOM     13  C   UNL     1     -27.400  68.222  85.607  1.00  0.00    -0.003 C 
ATOM     14  C   UNL     1     -26.907  66.826  85.236  1.00  0.00     0.004 C 
ENDBRANCH  12  13
ENDBRANCH  11  12
ENDBRANCH  10  11
ENDBRANCH   9  10
ENDBRANCH   1   9
TORSDOF 10
ENDMDL
MODEL 6
REMARK VINA RESULT:    -4.627      1.747      3.370
REMARK INTER + INTRA:          -8.613
REMARK INTER:                  -7.447
REMARK INTRA:                  -1.166
REMARK UNBOUND:                -1.281
REMARK SMILES CCCCCCCCCCCC(=O)[O-]
REMARK SMILES IDX 7 1 8 2 9 3 10 4 11 5 12 6 13 7 14 8 6 9 5 10 4 11 3 12 2 13
REMARK SMILES IDX 1 14
REMARK H PARENT
REMARK Flexibility Score: inf
ROOT
ATOM      1  C   UNL     1     -28.150  67.181  83.465  1.00  0.00     0.000 C 
ENDROOT
BRANCH   1   2
ATOM      2  C   UNL     1     -27.562  66.838  84.839  1.00  0.00     0.000 C 
BRANCH   2   3
ATOM      3  C   UNL     1     -27.493  68.085  85.734  1.00  0.00     0.000 C 
BRANCH   3   4
ATOM      4  C   UNL     1     -28.559  68.082  86.845  1.00  0.00     0.006 C 
BRANCH   4   5
ATOM      5  C   UNL     1     -29.856  68.820  86.478  1.00  0.00     0.053 C 
BRANCH   5   6
ATOM      6  C   UNL     1     -30.989  67.872  86.234  1.00  0.00     0.041 C 
ATOM      7  O   UNL     1     -31.096  67.283  85.126  1.00  0.00    -0.550 OA
ATOM      8  O   UNL     1     -31.945  67.663  87.220  1.00  0.00    -0.550 OA
ENDBRANCH   5   6
ENDBRANCH   4   5
ENDBRANCH   3   4
ENDBRANCH   2   3
ENDBRANCH   1   2
BRANCH   1   9
ATOM      9  C   UNL     1     -28.270  65.924  82.589  1.00  0.00     0.000 C 
BRANCH   9  10
ATOM     10  C   UNL     1     -29.595  65.176  82.805  1.00  0.00    -0.000 C 
BRANCH  10  11
ATOM     11  C   UNL     1     -29.393  63.672  83.065  1.00  0.00    -0.000 C 
BRANCH  11  12
ATOM     12  C   UNL     1     -28.987  63.384  84.526  1.00  0.00    -0.000 C 
BRANCH  12  13
ATOM     13  C   UNL     1     -30.137  63.570  85.530  1.00  0.00    -0.003 C 
ATOM     14  C   UNL     1     -29.788  64.525  86.669  1.00  0.00     0.004 C 
ENDBRANCH  12  13
ENDBRANCH  11  12
ENDBRANCH  10  11
ENDBRANCH   9  10
ENDBRANCH   1   9
TORSDOF 10
ENDMDL
MODEL 7
REMARK VINA RESULT:    -4.583      1.411      4.452
REMARK INTER + INTRA:          -8.543
REMARK INTER:                  -7.208
REMARK INTRA:                  -1.335
REMARK UNBOUND:                -1.281
REMARK SMILES CCCCCCCCCCCC(=O)[O-]
REMARK SMILES IDX 7 1 8 2 9 3 10 4 11 5 12 6 13 7 14 8 6 9 5 10 4 11 3 12 2 13
REMARK SMILES IDX 1 14
REMARK H PARENT
REMARK Flexibility Score: inf
ROOT
ATOM      1  C   UNL     1     -27.537  66.719  85.789  1.00  0.00     0.000 C 
ENDROOT
BRANCH   1   2
ATOM      2  C   UNL     1     -28.194  65.334  85.736  1.00  0.00     0.000 C 
BRANCH   2   3
ATOM      3  C   UNL     1     -29.421  65.272  86.657  1.00  0.00     0.000 C 
BRANCH   3   4
ATOM      4  C   UNL     1     -30.743  65.122  85.881  1.00  0.00     0.006 C 
BRANCH   4   5
ATOM      5  C   UNL     1     -31.252  66.424  85.243  1.00  0.00     0.053 C 
BRANCH   5   6
ATOM      6  C   UNL     1     -31.333  67.541  86.238  1.00  0.00     0.041 C 
ATOM      7  O   UNL     1     -32.256  67.562  87.095  1.00  0.00    -0.550 OA
ATOM      8  O   UNL     1     -30.406  68.575  86.199  1.00  0.00    -0.550 OA
ENDBRANCH   5   6
ENDBRANCH   4   5
ENDBRANCH   3   4
ENDBRANCH   2   3
ENDBRANCH   1   2
BRANCH   1   9
ATOM      9  C   UNL     1     -27.287  67.264  84.374  1.00  0.00     0.000 C 
BRANCH   9  10
ATOM     10  C   UNL     1     -28.519  67.137  83.464  1.00  0.00    -0.000 C 
BRANCH  10  11
ATOM     11  C   UNL     1     -28.150  66.800  82.008  1.00  0.00    -0.000 C 
BRANCH  11  12
ATOM     12  C   UNL     1     -28.274  65.290  81.713  1.00  0.00    -0.000 C 
BRANCH  12  13
ATOM     13  C   UNL     1     -29.495  64.632  82.377  1.00  0.00    -0.003 C 
ATOM     14  C   UNL     1     -29.143  63.373  83.165  1.00  0.00     0.004 C 
ENDBRANCH  12  13
ENDBRANCH  11  12
ENDBRANCH  10  11
ENDBRANCH   9  10
ENDBRANCH   1   9
TORSDOF 10
ENDMDL
MODEL 8
REMARK VINA RESULT:    -4.542      1.787      3.791
REMARK INTER + INTRA:          -8.479
REMARK INTER:                  -7.239
REMARK INTRA:                  -1.240
REMARK UNBOUND:                -1.281
REMARK SMILES CCCCCCCCCCCC(=O)[O-]
REMARK SMILES IDX 7 1 8 2 9 3 10 4 11 5 12 6 13 7 14 8 6 9 5 10 4 11 3 12 2 13
REMARK SMILES IDX 1 14
REMARK H PARENT
REMARK Flexibility Score: inf
ROOT
ATOM      1  C   UNL     1     -27.995  65.600  86.097  1.00  0.00     0.000 C 
ENDROOT
BRANCH   1   2
ATOM      2  C   UNL     1     -27.136  66.543  85.245  1.00  0.00     0.000 C 
BRANCH   2   3
ATOM      3  C   UNL     1     -27.455  68.012  85.559  1.00  0.00     0.000 C 
BRANCH   3   4
ATOM      4  C   UNL     1     -28.203  68.189  86.893  1.00  0.00     0.006 C 
BRANCH   4   5
ATOM      5  C   UNL     1     -29.498  69.009  86.788  1.00  0.00     0.053 C 
BRANCH   5   6
ATOM      6  C   UNL     1     -30.592  68.244  86.109  1.00  0.00     0.041 C 
ATOM      7  O   UNL     1     -30.703  68.274  84.855  1.00  0.00    -0.550 OA
ATOM      8  O   UNL     1     -31.507  67.521  86.864  1.00  0.00    -0.550 OA
ENDBRANCH   5   6
ENDBRANCH   4   5
ENDBRANCH   3   4
ENDBRANCH   2   3
ENDBRANCH   1   2
BRANCH   1   9
ATOM      9  C   UNL     1     -28.643  64.511  85.229  1.00  0.00     0.000 C 
BRANCH   9  10
ATOM     10  C   UNL     1     -30.052  64.895  84.750  1.00  0.00    -0.000 C 
BRANCH  10  11
ATOM     11  C   UNL     1     -30.078  65.347  83.279  1.00  0.00    -0.000 C 
BRANCH  11  12
ATOM     12  C   UNL     1     -29.049  64.583  82.419  1.00  0.00    -0.000 C 
BRANCH  12  13
ATOM     13  C   UNL     1     -28.100  65.505  81.634  1.00  0.00    -0.003 C 
ATOM     14  C   UNL     1     -28.225  66.973  82.034  1.00  0.00     0.004 C 
ENDBRANCH  12  13
ENDBRANCH  11  12
ENDBRANCH  10  11
ENDBRANCH   9  10
ENDBRANCH   1   9
TORSDOF 10
ENDMDL
MODEL 9
REMARK VINA RESULT:    -4.541      2.462      3.916
REMARK INTER + INTRA:          -8.476
REMARK INTER:                  -7.207
REMARK INTRA:                  -1.269
REMARK UNBOUND:                -1.281
REMARK SMILES CCCCCCCCCCCC(=O)[O-]
REMARK SMILES IDX 7 1 8 2 9 3 10 4 11 5 12 6 13 7 14 8 6 9 5 10 4 11 3 12 2 13
REMARK SMILES IDX 1 14
REMARK H PARENT
REMARK Flexibility Score: inf
ROOT
ATOM      1  C   UNL     1     -27.488  67.499  84.219  1.00  0.00     0.000 C 
ENDROOT
BRANCH   1   2
ATOM      2  C   UNL     1     -28.633  67.126  83.269  1.00  0.00     0.000 C 
BRANCH   2   3
ATOM      3  C   UNL     1     -28.250  65.925  82.391  1.00  0.00     0.000 C 
BRANCH   3   4
ATOM      4  C   UNL     1     -29.258  64.766  82.492  1.00  0.00     0.006 C 
BRANCH   4   5
ATOM      5  C   UNL     1     -30.121  64.787  83.764  1.00  0.00     0.053 C 
BRANCH   5   6
ATOM      6  C   UNL     1     -29.716  63.718  84.732  1.00  0.00     0.041 C 
ATOM      7  O   UNL     1     -30.368  63.546  85.795  1.00  0.00    -0.550 OA
ATOM      8  O   UNL     1     -28.601  62.932  84.473  1.00  0.00    -0.550 OA
ENDBRANCH   5   6
ENDBRANCH   4   5
ENDBRANCH   3   4
ENDBRANCH   2   3
ENDBRANCH   1   2
BRANCH   1   9
ATOM      9  C   UNL     1     -27.357  66.469  85.352  1.00  0.00     0.000 C 
BRANCH   9  10
ATOM     10  C   UNL     1     -28.339  66.728  86.506  1.00  0.00    -0.000 C 
BRANCH  10  11
ATOM     11  C   UNL     1     -28.580  68.227  86.756  1.00  0.00    -0.000 C 
BRANCH  11  12
ATOM     12  C   UNL     1     -30.046  68.633  86.495  1.00  0.00    -0.000 C 
BRANCH  12  13
ATOM     13  C   UNL     1     -30.962  67.443  86.160  1.00  0.00    -0.003 C 
ATOM     14  C   UNL     1     -32.312  67.509  86.869  1.00  0.00     0.004 C 
ENDBRANCH  12  13
ENDBRANCH  11  12
ENDBRANCH  10  11
ENDBRANCH   9  10
ENDBRANCH   1   9
TORSDOF 10
ENDMDL
