MODEL 1
REMARK VINA RESULT:    -4.131      0.000      0.000
REMARK INTER + INTRA:          -9.741
REMARK INTER:                  -7.994
REMARK INTRA:                  -1.747
REMARK UNBOUND:                -1.747
REMARK SMILES CCCCCCCCCCCCCCCCCC(=O)[O-]
REMARK SMILES IDX 10 1 11 2 12 3 13 4 14 5 15 6 16 7 17 8 18 9 19 10 20 11
REMARK SMILES IDX 9 12 8 13 7 14 6 15 5 16 4 17 3 18 2 19 1 20
REMARK H PARENT
REMARK Flexibility Score: inf
ROOT
ATOM      1  C   UNL     1       8.182  48.628  94.666  1.00  0.00     0.000 C 
ENDROOT
BRANCH   1   2
ATOM      2  C   UNL     1       9.381  48.166  93.821  1.00  0.00     0.000 C 
BRANCH   2   3
ATOM      3  C   UNL     1       9.455  46.635  93.677  1.00  0.00     0.000 C 
BRANCH   3   4
ATOM      4  C   UNL     1      10.527  45.947  94.545  1.00  0.00     0.000 C 
BRANCH   4   5
ATOM      5  C   UNL     1      10.632  44.418  94.371  1.00  0.00     0.000 C 
BRANCH   5   6
ATOM      6  C   UNL     1      10.377  43.602  95.651  1.00  0.00     0.000 C 
BRANCH   6   7
ATOM      7  C   UNL     1      11.105  42.247  95.650  1.00  0.00     0.006 C 
BRANCH   7   8
ATOM      8  C   UNL     1      12.256  42.209  96.664  1.00  0.00     0.053 C 
BRANCH   8   9
ATOM      9  C   UNL     1      13.590  42.349  95.994  1.00  0.00     0.041 C 
ATOM     10  O   UNL     1      13.656  42.561  94.755  1.00  0.00    -0.550 OA
ATOM     11  O   UNL     1      14.757  42.211  96.734  1.00  0.00    -0.550 OA
ENDBRANCH   8   9
ENDBRANCH   7   8
ENDBRANCH   6   7
ENDBRANCH   5   6
ENDBRANCH   4   5
ENDBRANCH   3   4
ENDBRANCH   2   3
ENDBRANCH   1   2
BRANCH   1  12
ATOM     12  C   UNL     1       8.612  49.265  95.998  1.00  0.00     0.000 C 
BRANCH  12  13
ATOM     13  C   UNL     1       8.619  48.261  97.164  1.00  0.00    -0.000 C 
BRANCH  13  14
ATOM     14  C   UNL     1      10.040  47.930  97.646  1.00  0.00    -0.000 C 
BRANCH  14  15
ATOM     15  C   UNL     1      10.875  49.189  97.931  1.00  0.00    -0.000 C 
BRANCH  15  16
ATOM     16  C   UNL     1      12.260  49.155  97.259  1.00  0.00    -0.000 C 
BRANCH  16  17
ATOM     17  C   UNL     1      12.239  48.859  95.748  1.00  0.00    -0.000 C 
BRANCH  17  18
ATOM     18  C   UNL     1      13.421  49.488  94.997  1.00  0.00    -0.000 C 
BRANCH  18  19
ATOM     19  C   UNL     1      14.695  49.451  95.850  1.00  0.00    -0.003 C 
ATOM     20  C   UNL     1      15.902  49.026  95.019  1.00  0.00     0.004 C 
ENDBRANCH  18  19
ENDBRANCH  17  18
ENDBRANCH  16  17
ENDBRANCH  15  16
ENDBRANCH  14  15
ENDBRANCH  13  14
ENDBRANCH  12  13
ENDBRANCH   1  12
TORSDOF 16
ENDMDL
MODEL 2
REMARK VINA RESULT:    -4.009      2.627      6.148
REMARK INTER + INTRA:          -9.505
REMARK INTER:                  -8.442
REMARK INTRA:                  -1.062
REMARK UNBOUND:                -1.747
REMARK SMILES CCCCCCCCCCCCCCCCCC(=O)[O-]
REMARK SMILES IDX 10 1 11 2 12 3 13 4 14 5 15 6 16 7 17 8 18 9 19 10 20 11
REMARK SMILES IDX 9 12 8 13 7 14 6 15 5 16 4 17 3 18 2 19 1 20
REMARK H PARENT
REMARK Flexibility Score: inf
ROOT
ATOM      1  C   UNL     1      11.620  49.288  97.687  1.00  0.00     0.000 C 
ENDROOT
BRANCH   1   2
ATOM      2  C   UNL     1      12.944  49.254  96.907  1.00  0.00     0.000 C 
BRANCH   2   3
ATOM      3  C   UNL     1      13.745  50.563  97.034  1.00  0.00     0.000 C 
BRANCH   3   4
ATOM      4  C   UNL     1      14.310  51.117  95.711  1.00  0.00     0.000 C 
BRANCH   4   5
ATOM      5  C   UNL     1      15.543  50.372  95.159  1.00  0.00     0.000 C 
BRANCH   5   6
ATOM      6  C   UNL     1      15.245  49.383  94.019  1.00  0.00     0.000 C 
BRANCH   6   7
ATOM      7  C   UNL     1      16.296  48.265  93.908  1.00  0.00     0.006 C 
BRANCH   7   8
ATOM      8  C   UNL     1      16.397  47.704  92.483  1.00  0.00     0.053 C 
BRANCH   8   9
ATOM      9  C   UNL     1      17.697  46.993  92.259  1.00  0.00     0.041 C 
ATOM     10  O   UNL     1      18.157  46.867  91.094  1.00  0.00    -0.550 OA
ATOM     11  O   UNL     1      18.381  46.440  93.333  1.00  0.00    -0.550 OA
ENDBRANCH   8   9
ENDBRANCH   7   8
ENDBRANCH   6   7
ENDBRANCH   5   6
ENDBRANCH   4   5
ENDBRANCH   3   4
ENDBRANCH   2   3
ENDBRANCH   1   2
BRANCH   1  12
ATOM     12  C   UNL     1      10.431  48.789  96.849  1.00  0.00     0.000 C 
BRANCH  12  13
ATOM     13  C   UNL     1       9.955  47.386  97.267  1.00  0.00    -0.000 C 
BRANCH  13  14
ATOM     14  C   UNL     1       9.153  46.684  96.161  1.00  0.00    -0.000 C 
BRANCH  14  15
ATOM     15  C   UNL     1       9.600  47.104  94.750  1.00  0.00    -0.000 C 
BRANCH  15  16
ATOM     16  C   UNL     1      10.899  46.409  94.302  1.00  0.00    -0.000 C 
BRANCH  16  17
ATOM     17  C   UNL     1      10.698  45.059  93.588  1.00  0.00    -0.000 C 
BRANCH  17  18
ATOM     18  C   UNL     1      11.458  43.907  94.260  1.00  0.00    -0.000 C 
BRANCH  18  19
ATOM     19  C   UNL     1      10.739  43.443  95.533  1.00  0.00    -0.003 C 
ATOM     20  C   UNL     1      11.233  42.069  95.976  1.00  0.00     0.004 C 
ENDBRANCH  18  19
ENDBRANCH  17  18
ENDBRANCH  16  17
ENDBRANCH  15  16
ENDBRANCH  14  15
ENDBRANCH  13  14
ENDBRANCH  12  13
ENDBRANCH   1  12
TORSDOF 16
ENDMDL
MODEL 3
REMARK VINA RESULT:    -4.006      2.181      4.572
REMARK INTER + INTRA:          -9.499
REMARK INTER:                  -8.291
REMARK INTRA:                  -1.208
REMARK UNBOUND:                -1.747
REMARK SMILES CCCCCCCCCCCCCCCCCC(=O)[O-]
REMARK SMILES IDX 10 1 11 2 12 3 13 4 14 5 15 6 16 7 17 8 18 9 19 10 20 11
REMARK SMILES IDX 9 12 8 13 7 14 6 15 5 16 4 17 3 18 2 19 1 20
REMARK H PARENT
REMARK Flexibility Score: inf
ROOT
ATOM      1  C   UNL     1      13.012  49.628  97.403  1.00  0.00     0.000 C 
ENDROOT
BRANCH   1   2
ATOM      2  C   UNL     1      11.533  49.341  97.713  1.00  0.00     0.000 C 
BRANCH   2   3
ATOM      3  C   UNL     1      10.882  48.392  96.690  1.00  0.00     0.000 C 
BRANCH   3   4
ATOM      4  C   UNL     1       9.765  47.490  97.252  1.00  0.00     0.000 C 
BRANCH   4   5
ATOM      5  C   UNL     1       9.261  46.392  96.293  1.00  0.00     0.000 C 
BRANCH   5   6
ATOM      6  C   UNL     1       9.915  46.399  94.900  1.00  0.00     0.000 C 
BRANCH   6   7
ATOM      7  C   UNL     1      10.667  45.094  94.586  1.00  0.00     0.006 C 
BRANCH   7   8
ATOM      8  C   UNL     1      10.264  43.953  95.530  1.00  0.00     0.053 C 
BRANCH   8   9
ATOM      9  C   UNL     1      11.248  42.823  95.485  1.00  0.00     0.041 C 
ATOM     10  O   UNL     1      11.557  42.210  96.539  1.00  0.00    -0.550 OA
ATOM     11  O   UNL     1      11.847  42.472  94.282  1.00  0.00    -0.550 OA
ENDBRANCH   8   9
ENDBRANCH   7   8
ENDBRANCH   6   7
ENDBRANCH   5   6
ENDBRANCH   4   5
ENDBRANCH   3   4
ENDBRANCH   2   3
ENDBRANCH   1   2
BRANCH   1  12
ATOM     12  C   UNL     1      13.341  49.471  95.909  1.00  0.00     0.000 C 
BRANCH  12  13
ATOM     13  C   UNL     1      14.072  50.694  95.329  1.00  0.00    -0.000 C 
BRANCH  13  14
ATOM     14  C   UNL     1      15.435  50.331  94.721  1.00  0.00    -0.000 C 
BRANCH  14  15
ATOM     15  C   UNL     1      15.932  48.946  95.171  1.00  0.00    -0.000 C 
BRANCH  15  16
ATOM     16  C   UNL     1      16.433  48.080  94.001  1.00  0.00    -0.000 C 
BRANCH  16  17
ATOM     17  C   UNL     1      15.922  48.507  92.613  1.00  0.00    -0.000 C 
BRANCH  17  18
ATOM     18  C   UNL     1      16.664  47.814  91.461  1.00  0.00    -0.000 C 
BRANCH  18  19
ATOM     19  C   UNL     1      17.879  47.036  91.980  1.00  0.00    -0.003 C 
ATOM     20  C   UNL     1      17.943  45.640  91.367  1.00  0.00     0.004 C 
ENDBRANCH  18  19
ENDBRANCH  17  18
ENDBRANCH  16  17
ENDBRANCH  15  16
ENDBRANCH  14  15
ENDBRANCH  13  14
ENDBRANCH  12  13
ENDBRANCH   1  12
TORSDOF 16
ENDMDL
MODEL 4
REMARK VINA RESULT:    -3.990      4.072      6.375
REMARK INTER + INTRA:          -9.468
REMARK INTER:                  -7.620
REMARK INTRA:                  -1.848
REMARK UNBOUND:                -1.747
REMARK SMILES CCCCCCCCCCCCCCCCCC(=O)[O-]
REMARK SMILES IDX 10 1 11 2 12 3 13 4 14 5 15 6 16 7 17 8 18 9 19 10 20 11
REMARK SMILES IDX 9 12 8 13 7 14 6 15 5 16 4 17 3 18 2 19 1 20
REMARK H PARENT
REMARK Flexibility Score: inf
ROOT
ATOM      1  C   UNL     1       7.847  49.080  97.069  1.00  0.00     0.000 C 
ENDROOT
BRANCH   1   2
ATOM      2  C   UNL     1       9.303  49.015  96.579  1.00  0.00     0.000 C 
BRANCH   2   3
ATOM      3  C   UNL     1      10.277  48.523  97.666  1.00  0.00     0.000 C 
BRANCH   3   4
ATOM      4  C   UNL     1      11.483  49.446  97.931  1.00  0.00     0.000 C 
BRANCH   4   5
ATOM      5  C   UNL     1      12.669  49.272  96.962  1.00  0.00     0.000 C 
BRANCH   5   6
ATOM      6  C   UNL     1      13.791  50.313  97.118  1.00  0.00     0.000 C 
BRANCH   6   7
ATOM      7  C   UNL     1      14.129  51.029  95.799  1.00  0.00     0.006 C 
BRANCH   7   8
ATOM      8  C   UNL     1      15.512  50.635  95.264  1.00  0.00     0.053 C 
BRANCH   8   9
ATOM      9  C   UNL     1      15.493  49.280  94.624  1.00  0.00     0.041 C 
ATOM     10  O   UNL     1      16.435  48.471  94.827  1.00  0.00    -0.550 OA
ATOM     11  O   UNL     1      14.450  48.926  93.778  1.00  0.00    -0.550 OA
ENDBRANCH   8   9
ENDBRANCH   7   8
ENDBRANCH   6   7
ENDBRANCH   5   6
ENDBRANCH   4   5
ENDBRANCH   3   4
ENDBRANCH   2   3
ENDBRANCH   1   2
BRANCH   1  12
ATOM     12  C   UNL     1       7.644  50.128  98.175  1.00  0.00     0.000 C 
BRANCH  12  13
ATOM     13  C   UNL     1       7.415  51.545  97.619  1.00  0.00    -0.000 C 
BRANCH  13  14
ATOM     14  C   UNL     1       6.098  51.665  96.838  1.00  0.00    -0.000 C 
BRANCH  14  15
ATOM     15  C   UNL     1       6.184  52.685  95.690  1.00  0.00    -0.000 C 
BRANCH  15  16
ATOM     16  C   UNL     1       7.570  52.717  95.020  1.00  0.00    -0.000 C 
BRANCH  16  17
ATOM     17  C   UNL     1       7.616  52.135  93.596  1.00  0.00    -0.000 C 
BRANCH  17  18
ATOM     18  C   UNL     1       8.532  50.908  93.478  1.00  0.00    -0.000 C 
BRANCH  18  19
ATOM     19  C   UNL     1       7.764  49.701  92.926  1.00  0.00    -0.003 C 
ATOM     20  C   UNL     1       6.474  49.465  93.705  1.00  0.00     0.004 C 
ENDBRANCH  18  19
ENDBRANCH  17  18
ENDBRANCH  16  17
ENDBRANCH  15  16
ENDBRANCH  14  15
ENDBRANCH  13  14
ENDBRANCH  12  13
ENDBRANCH   1  12
TORSDOF 16
ENDMDL
MODEL 5
REMARK VINA RESULT:    -3.944      2.409      3.392
REMARK INTER + INTRA:          -9.380
REMARK INTER:                  -8.275
REMARK INTRA:                  -1.105
REMARK UNBOUND:                -1.747
REMARK SMILES CCCCCCCCCCCCCCCCCC(=O)[O-]
REMARK SMILES IDX 10 1 11 2 12 3 13 4 14 5 15 6 16 7 17 8 18 9 19 10 20 11
REMARK SMILES IDX 9 12 8 13 7 14 6 15 5 16 4 17 3 18 2 19 1 20
REMARK H PARENT
REMARK Flexibility Score: inf
ROOT
ATOM      1  C   UNL     1       8.979  46.153  95.645  1.00  0.00     0.000 C 
ENDROOT
BRANCH   1   2
ATOM      2  C   UNL     1      10.090  45.223  95.129  1.00  0.00     0.000 C 
BRANCH   2   3
ATOM      3  C   UNL     1      10.366  44.041  96.076  1.00  0.00     0.000 C 
BRANCH   3   4
ATOM      4  C   UNL     1      10.846  42.748  95.387  1.00  0.00     0.000 C 
BRANCH   4   5
ATOM      5  C   UNL     1      12.349  42.438  95.546  1.00  0.00     0.000 C 
BRANCH   5   6
ATOM      6  C   UNL     1      13.214  42.777  94.319  1.00  0.00     0.000 C 
BRANCH   6   7
ATOM      7  C   UNL     1      12.382  42.989  93.042  1.00  0.00     0.006 C 
BRANCH   7   8
ATOM      8  C   UNL     1      12.505  41.808  92.070  1.00  0.00     0.053 C 
BRANCH   8   9
ATOM      9  C   UNL     1      11.512  41.907  90.951  1.00  0.00     0.041 C 
ATOM     10  O   UNL     1      11.089  40.865  90.385  1.00  0.00    -0.550 OA
ATOM     11  O   UNL     1      11.082  43.153  90.512  1.00  0.00    -0.550 OA
ENDBRANCH   8   9
ENDBRANCH   7   8
ENDBRANCH   6   7
ENDBRANCH   5   6
ENDBRANCH   4   5
ENDBRANCH   3   4
ENDBRANCH   2   3
ENDBRANCH   1   2
BRANCH   1  12
ATOM     12  C   UNL     1       9.499  47.560  95.985  1.00  0.00     0.000 C 
BRANCH  12  13
ATOM     13  C   UNL     1       9.982  47.681  97.441  1.00  0.00    -0.000 C 
BRANCH  13  14
ATOM     14  C   UNL     1      10.962  48.847  97.640  1.00  0.00    -0.000 C 
BRANCH  14  15
ATOM     15  C   UNL     1      12.033  48.912  96.537  1.00  0.00    -0.000 C 
BRANCH  15  16
ATOM     16  C   UNL     1      13.433  49.252  97.082  1.00  0.00    -0.000 C 
BRANCH  16  17
ATOM     17  C   UNL     1      13.901  50.693  96.810  1.00  0.00    -0.000 C 
BRANCH  17  18
ATOM     18  C   UNL     1      14.886  50.793  95.636  1.00  0.00    -0.000 C 
BRANCH  18  19
ATOM     19  C   UNL     1      15.524  49.431  95.338  1.00  0.00    -0.003 C 
ATOM     20  C   UNL     1      15.536  49.145  93.839  1.00  0.00     0.004 C 
ENDBRANCH  18  19
ENDBRANCH  17  18
ENDBRANCH  16  17
ENDBRANCH  15  16
ENDBRANCH  14  15
ENDBRANCH  13  14
ENDBRANCH  12  13
ENDBRANCH   1  12
TORSDOF 16
ENDMDL
MODEL 6
REMARK VINA RESULT:    -3.935      4.042      7.174
REMARK INTER + INTRA:          -9.362
REMARK INTER:                  -8.140
REMARK INTRA:                  -1.222
REMARK UNBOUND:                -1.747
REMARK SMILES CCCCCCCCCCCCCCCCCC(=O)[O-]
REMARK SMILES IDX 10 1 11 2 12 3 13 4 14 5 15 6 16 7 17 8 18 9 19 10 20 11
REMARK SMILES IDX 9 12 8 13 7 14 6 15 5 16 4 17 3 18 2 19 1 20
REMARK H PARENT
REMARK Flexibility Score: inf
ROOT
ATOM      1  C   UNL     1      15.830  48.937  95.111  1.00  0.00     0.000 C 
ENDROOT
BRANCH   1   2
ATOM      2  C   UNL     1      16.532  48.126  94.009  1.00  0.00     0.000 C 
BRANCH   2   3
ATOM      3  C   UNL     1      17.463  47.036  94.571  1.00  0.00     0.000 C 
BRANCH   3   4
ATOM      4  C   UNL     1      17.878  45.946  93.564  1.00  0.00     0.000 C 
BRANCH   4   5
ATOM      5  C   UNL     1      19.373  45.937  93.183  1.00  0.00     0.000 C 
BRANCH   5   6
ATOM      6  C   UNL     1      19.670  46.289  91.715  1.00  0.00     0.000 C 
BRANCH   6   7
ATOM      7  C   UNL     1      18.753  47.398  91.170  1.00  0.00     0.006 C 
BRANCH   7   8
ATOM      8  C   UNL     1      18.116  47.014  89.827  1.00  0.00     0.053 C 
BRANCH   8   9
ATOM      9  C   UNL     1      17.050  45.975  89.998  1.00  0.00     0.041 C 
ATOM     10  O   UNL     1      17.208  44.820  89.521  1.00  0.00    -0.550 OA
ATOM     11  O   UNL     1      15.867  46.293  90.653  1.00  0.00    -0.550 OA
ENDBRANCH   8   9
ENDBRANCH   7   8
ENDBRANCH   6   7
ENDBRANCH   5   6
ENDBRANCH   4   5
ENDBRANCH   3   4
ENDBRANCH   2   3
ENDBRANCH   1   2
BRANCH   1  12
ATOM     12  C   UNL     1      15.444  50.351  94.646  1.00  0.00     0.000 C 
BRANCH  12  13
ATOM     13  C   UNL     1      14.175  50.879  95.337  1.00  0.00    -0.000 C 
BRANCH  13  14
ATOM     14  C   UNL     1      14.303  50.897  96.868  1.00  0.00    -0.000 C 
BRANCH  14  15
ATOM     15  C   UNL     1      13.267  49.992  97.557  1.00  0.00    -0.000 C 
BRANCH  15  16
ATOM     16  C   UNL     1      12.473  49.125  96.562  1.00  0.00    -0.000 C 
BRANCH  16  17
ATOM     17  C   UNL     1      11.082  48.686  97.053  1.00  0.00    -0.000 C 
BRANCH  17  18
ATOM     18  C   UNL     1      10.552  49.550  98.207  1.00  0.00    -0.000 C 
BRANCH  18  19
ATOM     19  C   UNL     1       9.055  49.833  98.038  1.00  0.00    -0.003 C 
ATOM     20  C   UNL     1       8.606  49.588  96.599  1.00  0.00     0.004 C 
ENDBRANCH  18  19
ENDBRANCH  17  18
ENDBRANCH  16  17
ENDBRANCH  15  16
ENDBRANCH  14  15
ENDBRANCH  13  14
ENDBRANCH  12  13
ENDBRANCH   1  12
TORSDOF 16
ENDMDL
MODEL 7
REMARK VINA RESULT:    -3.910      1.507      2.495
REMARK INTER + INTRA:          -9.314
REMARK INTER:                  -7.374
REMARK INTRA:                  -1.940
REMARK UNBOUND:                -1.747
REMARK SMILES CCCCCCCCCCCCCCCCCC(=O)[O-]
REMARK SMILES IDX 10 1 11 2 12 3 13 4 14 5 15 6 16 7 17 8 18 9 19 10 20 11
REMARK SMILES IDX 9 12 8 13 7 14 6 15 5 16 4 17 3 18 2 19 1 20
REMARK H PARENT
REMARK Flexibility Score: inf
ROOT
ATOM      1  C   UNL     1       7.742  47.579  97.525  1.00  0.00     0.000 C 
ENDROOT
BRANCH   1   2
ATOM      2  C   UNL     1       7.986  46.419  96.546  1.00  0.00     0.000 C 
BRANCH   2   3
ATOM      3  C   UNL     1       7.287  46.626  95.190  1.00  0.00     0.000 C 
BRANCH   3   4
ATOM      4  C   UNL     1       8.146  46.296  93.953  1.00  0.00     0.000 C 
BRANCH   4   5
ATOM      5  C   UNL     1       9.352  47.229  93.722  1.00  0.00     0.000 C 
BRANCH   5   6
ATOM      6  C   UNL     1      10.728  46.548  93.826  1.00  0.00     0.000 C 
BRANCH   6   7
ATOM      7  C   UNL     1      10.655  45.151  94.467  1.00  0.00     0.006 C 
BRANCH   7   8
ATOM      8  C   UNL     1      11.597  44.151  93.783  1.00  0.00     0.053 C 
BRANCH   8   9
ATOM      9  C   UNL     1      11.933  43.001  94.684  1.00  0.00     0.041 C 
ATOM     10  O   UNL     1      13.046  42.422  94.584  1.00  0.00    -0.550 OA
ATOM     11  O   UNL     1      11.002  42.550  95.611  1.00  0.00    -0.550 OA
ENDBRANCH   8   9
ENDBRANCH   7   8
ENDBRANCH   6   7
ENDBRANCH   5   6
ENDBRANCH   4   5
ENDBRANCH   3   4
ENDBRANCH   2   3
ENDBRANCH   1   2
BRANCH   1  12
ATOM     12  C   UNL     1       7.424  48.901  96.806  1.00  0.00     0.000 C 
BRANCH  12  13
ATOM     13  C   UNL     1       8.505  49.973  97.025  1.00  0.00    -0.000 C 
BRANCH  13  14
ATOM     14  C   UNL     1       9.255  49.789  98.353  1.00  0.00    -0.000 C 
BRANCH  14  15
ATOM     15  C   UNL     1      10.769  49.600  98.154  1.00  0.00    -0.000 C 
BRANCH  15  16
ATOM     16  C   UNL     1      11.106  48.681  96.965  1.00  0.00    -0.000 C 
BRANCH  16  17
ATOM     17  C   UNL     1      12.452  48.975  96.279  1.00  0.00    -0.000 C 
BRANCH  17  18
ATOM     18  C   UNL     1      13.509  49.530  97.246  1.00  0.00    -0.000 C 
BRANCH  18  19
ATOM     19  C   UNL     1      14.115  50.832  96.707  1.00  0.00    -0.003 C 
ATOM     20  C   UNL     1      14.710  50.629  95.316  1.00  0.00     0.004 C 
ENDBRANCH  18  19
ENDBRANCH  17  18
ENDBRANCH  16  17
ENDBRANCH  15  16
ENDBRANCH  14  15
ENDBRANCH  13  14
ENDBRANCH  12  13
ENDBRANCH   1  12
TORSDOF 16
ENDMDL
MODEL 8
REMARK VINA RESULT:    -3.882      3.128      5.883
REMARK INTER + INTRA:          -9.259
REMARK INTER:                  -7.531
REMARK INTRA:                  -1.728
REMARK UNBOUND:                -1.747
REMARK SMILES CCCCCCCCCCCCCCCCCC(=O)[O-]
REMARK SMILES IDX 10 1 11 2 12 3 13 4 14 5 15 6 16 7 17 8 18 9 19 10 20 11
REMARK SMILES IDX 9 12 8 13 7 14 6 15 5 16 4 17 3 18 2 19 1 20
REMARK H PARENT
REMARK Flexibility Score: inf
ROOT
ATOM      1  C   UNL     1      11.435  49.324  97.853  1.00  0.00     0.000 C 
ENDROOT
BRANCH   1   2
ATOM      2  C   UNL     1      12.448  49.007  96.741  1.00  0.00     0.000 C 
BRANCH   2   3
ATOM      3  C   UNL     1      13.808  49.696  96.958  1.00  0.00     0.000 C 
BRANCH   3   4
ATOM      4  C   UNL     1      14.114  50.860  95.994  1.00  0.00     0.000 C 
BRANCH   4   5
ATOM      5  C   UNL     1      15.443  50.742  95.221  1.00  0.00     0.000 C 
BRANCH   5   6
ATOM      6  C   UNL     1      15.874  49.302  94.890  1.00  0.00     0.000 C 
BRANCH   6   7
ATOM      7  C   UNL     1      15.480  48.873  93.466  1.00  0.00     0.006 C 
BRANCH   7   8
ATOM      8  C   UNL     1      16.337  47.707  92.955  1.00  0.00     0.053 C 
BRANCH   8   9
ATOM      9  C   UNL     1      16.413  47.691  91.459  1.00  0.00     0.041 C 
ATOM     10  O   UNL     1      16.233  46.617  90.827  1.00  0.00    -0.550 OA
ATOM     11  O   UNL     1      16.716  48.855  90.765  1.00  0.00    -0.550 OA
ENDBRANCH   8   9
ENDBRANCH   7   8
ENDBRANCH   6   7
ENDBRANCH   5   6
ENDBRANCH   4   5
ENDBRANCH   3   4
ENDBRANCH   2   3
ENDBRANCH   1   2
BRANCH   1  12
ATOM     12  C   UNL     1      10.001  48.915  97.477  1.00  0.00     0.000 C 
BRANCH  12  13
ATOM     13  C   UNL     1       9.794  47.390  97.492  1.00  0.00    -0.000 C 
BRANCH  13  14
ATOM     14  C   UNL     1       8.472  46.971  96.831  1.00  0.00    -0.000 C 
BRANCH  14  15
ATOM     15  C   UNL     1       8.621  46.716  95.322  1.00  0.00    -0.000 C 
BRANCH  15  16
ATOM     16  C   UNL     1       9.975  46.081  94.953  1.00  0.00    -0.000 C 
BRANCH  16  17
ATOM     17  C   UNL     1      10.820  46.892  93.953  1.00  0.00    -0.000 C 
BRANCH  17  18
ATOM     18  C   UNL     1      10.046  47.271  92.682  1.00  0.00    -0.000 C 
BRANCH  18  19
ATOM     19  C   UNL     1      10.050  48.789  92.470  1.00  0.00    -0.003 C 
ATOM     20  C   UNL     1      11.002  49.480  93.442  1.00  0.00     0.004 C 
ENDBRANCH  18  19
ENDBRANCH  17  18
ENDBRANCH  16  17
ENDBRANCH  15  16
ENDBRANCH  14  15
ENDBRANCH  13  14
ENDBRANCH  12  13
ENDBRANCH   1  12
TORSDOF 16
ENDMDL
MODEL 9
REMARK VINA RESULT:    -3.807      4.085      6.170
REMARK INTER + INTRA:          -9.114
REMARK INTER:                  -7.709
REMARK INTRA:                  -1.405
REMARK UNBOUND:                -1.747
REMARK SMILES CCCCCCCCCCCCCCCCCC(=O)[O-]
REMARK SMILES IDX 10 1 11 2 12 3 13 4 14 5 15 6 16 7 17 8 18 9 19 10 20 11
REMARK SMILES IDX 9 12 8 13 7 14 6 15 5 16 4 17 3 18 2 19 1 20
REMARK H PARENT
REMARK Flexibility Score: inf
ROOT
ATOM      1  C   UNL     1      12.632  49.286  97.093  1.00  0.00     0.000 C 
ENDROOT
BRANCH   1   2
ATOM      2  C   UNL     1      12.966  49.323  95.593  1.00  0.00     0.000 C 
BRANCH   2   3
ATOM      3  C   UNL     1      13.842  50.529  95.207  1.00  0.00     0.000 C 
BRANCH   3   4
ATOM      4  C   UNL     1      15.357  50.328  95.407  1.00  0.00     0.000 C 
BRANCH   4   5
ATOM      5  C   UNL     1      15.924  49.004  94.855  1.00  0.00     0.000 C 
BRANCH   5   6
ATOM      6  C   UNL     1      15.682  48.772  93.353  1.00  0.00     0.000 C 
BRANCH   6   7
ATOM      7  C   UNL     1      16.603  47.692  92.760  1.00  0.00     0.006 C 
BRANCH   7   8
ATOM      8  C   UNL     1      16.881  47.924  91.268  1.00  0.00     0.053 C 
BRANCH   8   9
ATOM      9  C   UNL     1      18.232  47.414  90.871  1.00  0.00     0.041 C 
ATOM     10  O   UNL     1      18.567  46.230  91.142  1.00  0.00    -0.550 OA
ATOM     11  O   UNL     1      19.134  48.256  90.233  1.00  0.00    -0.550 OA
ENDBRANCH   8   9
ENDBRANCH   7   8
ENDBRANCH   6   7
ENDBRANCH   5   6
ENDBRANCH   4   5
ENDBRANCH   3   4
ENDBRANCH   2   3
ENDBRANCH   1   2
BRANCH   1  12
ATOM     12  C   UNL     1      11.204  48.784  97.366  1.00  0.00     0.000 C 
BRANCH  12  13
ATOM     13  C   UNL     1      10.475  49.616  98.436  1.00  0.00    -0.000 C 
BRANCH  13  14
ATOM     14  C   UNL     1       9.070  50.047  97.990  1.00  0.00    -0.000 C 
BRANCH  14  15
ATOM     15  C   UNL     1       8.602  49.311  96.723  1.00  0.00    -0.000 C 
BRANCH  15  16
ATOM     16  C   UNL     1       7.888  50.237  95.722  1.00  0.00    -0.000 C 
BRANCH  16  17
ATOM     17  C   UNL     1       8.342  50.082  94.259  1.00  0.00    -0.000 C 
BRANCH  17  18
ATOM     18  C   UNL     1       9.534  49.127  94.098  1.00  0.00    -0.000 C 
BRANCH  18  19
ATOM     19  C   UNL     1      10.308  49.428  92.809  1.00  0.00    -0.003 C 
ATOM     20  C   UNL     1      10.322  50.925  92.512  1.00  0.00     0.004 C 
ENDBRANCH  18  19
ENDBRANCH  17  18
ENDBRANCH  16  17
ENDBRANCH  15  16
ENDBRANCH  14  15
ENDBRANCH  13  14
ENDBRANCH  12  13
ENDBRANCH   1  12
TORSDOF 16
ENDMDL
