MODEL 1
REMARK VINA RESULT:    -5.674      0.000      0.000
REMARK INTER + INTRA:          -6.963
REMARK INTER:                  -6.669
REMARK INTRA:                  -0.293
REMARK UNBOUND:                -0.293
REMARK SMILES O=c1cc(-c2ccc(O)c(O)c2)oc2cc(O)cc(O)c12
REMARK SMILES IDX 4 1 3 2 2 3 1 4 21 5 19 6 18 7 16 8 15 9 14 10 13 11 5 12
REMARK SMILES IDX 6 13 7 14 8 15 12 16 10 17 9 18 11 20 20 22 17 24
REMARK H PARENT 9 19 11 21 20 23 17 25
REMARK Flexibility Score: inf
ROOT
ATOM      1  C   UNL     1       1.149  -6.542   5.286  1.00  0.00     0.138 A 
ATOM      2  C   UNL     1       0.784  -7.738   4.654  1.00  0.00     0.100 A 
ATOM      3  C   UNL     1       1.773  -8.580   4.144  1.00  0.00     0.197 A 
ATOM      4  O   UNL     1       1.416  -9.672   3.631  1.00  0.00    -0.289 OA
ATOM      5  C   UNL     1       3.134  -8.202   4.236  1.00  0.00     0.107 A 
ATOM      6  C   UNL     1       4.228  -8.964   3.721  1.00  0.00     0.134 A 
ATOM      7  C   UNL     1       5.539  -8.535   3.959  1.00  0.00     0.093 A 
ATOM      8  C   UNL     1       5.796  -7.345   4.644  1.00  0.00     0.123 A 
ATOM      9  C   UNL     1       4.736  -6.569   5.106  1.00  0.00     0.094 A 
ATOM     10  C   UNL     1       3.417  -6.986   4.914  1.00  0.00     0.146 A 
ATOM     11  O   UNL     1       2.436  -6.226   5.388  1.00  0.00    -0.456 OA
ENDROOT
BRANCH   1  12
ATOM     12  C   UNL     1       0.138  -5.609   5.844  1.00  0.00     0.021 A 
ATOM     13  C   UNL     1       0.502  -4.278   6.113  1.00  0.00     0.016 A 
ATOM     14  C   UNL     1      -0.427  -3.381   6.644  1.00  0.00     0.051 A 
ATOM     15  C   UNL     1      -1.733  -3.800   6.927  1.00  0.00     0.157 A 
ATOM     16  C   UNL     1      -1.173  -6.027   6.143  1.00  0.00     0.062 A 
ATOM     17  C   UNL     1      -2.106  -5.130   6.677  1.00  0.00     0.158 A 
BRANCH  15  18
ATOM     18  O   UNL     1      -2.659  -2.901   7.456  1.00  0.00    -0.504 OA
ATOM     19  H   UNL     1      -3.580  -3.201   7.755  1.00  0.00     0.293 HD
ENDBRANCH  15  18
BRANCH  17  20
ATOM     20  O   UNL     1      -3.395  -5.581   6.959  1.00  0.00    -0.504 OA
ATOM     21  H   UNL     1      -3.697  -5.796   7.901  1.00  0.00     0.293 HD
ENDBRANCH  17  20
ENDBRANCH   1  12
BRANCH   6  22
ATOM     22  O   UNL     1       4.082 -10.125   2.956  1.00  0.00    -0.507 OA
ATOM     23  H   UNL     1       3.444 -10.878   3.162  1.00  0.00     0.293 HD
ENDBRANCH   6  22
BRANCH   8  24
ATOM     24  O   UNL     1       7.105  -6.919   4.862  1.00  0.00    -0.508 OA
ATOM     25  H   UNL     1       7.896  -7.531   4.698  1.00  0.00     0.293 HD
ENDBRANCH   8  24
TORSDOF 5
ENDMDL
MODEL 2
REMARK VINA RESULT:    -5.626      2.495      3.604
REMARK INTER + INTRA:          -6.906
REMARK INTER:                  -6.609
REMARK INTRA:                  -0.297
REMARK UNBOUND:                -0.293
REMARK SMILES O=c1cc(-c2ccc(O)c(O)c2)oc2cc(O)cc(O)c12
REMARK SMILES IDX 4 1 3 2 2 3 1 4 21 5 19 6 18 7 16 8 15 9 14 10 13 11 5 12
REMARK SMILES IDX 6 13 7 14 8 15 12 16 10 17 9 18 11 20 20 22 17 24
REMARK H PARENT 9 19 11 21 20 23 17 25
REMARK Flexibility Score: inf
ROOT
ATOM      1  C   UNL     1       2.330  -5.585   5.624  1.00  0.00     0.138 A 
ATOM      2  C   UNL     1       1.100  -6.190   5.335  1.00  0.00     0.100 A 
ATOM      3  C   UNL     1       1.073  -7.446   4.728  1.00  0.00     0.197 A 
ATOM      4  O   UNL     1      -0.046  -7.987   4.533  1.00  0.00    -0.289 OA
ATOM      5  C   UNL     1       2.287  -8.082   4.375  1.00  0.00     0.107 A 
ATOM      6  C   UNL     1       2.383  -9.348   3.721  1.00  0.00     0.134 A 
ATOM      7  C   UNL     1       3.643  -9.922   3.510  1.00  0.00     0.093 A 
ATOM      8  C   UNL     1       4.812  -9.252   3.879  1.00  0.00     0.123 A 
ATOM      9  C   UNL     1       4.731  -7.995   4.472  1.00  0.00     0.094 A 
ATOM     10  C   UNL     1       3.489  -7.410   4.726  1.00  0.00     0.146 A 
ATOM     11  O   UNL     1       3.456  -6.217   5.311  1.00  0.00    -0.456 OA
ENDROOT
BRANCH   1  12
ATOM     12  C   UNL     1       2.417  -4.249   6.267  1.00  0.00     0.021 A 
ATOM     13  C   UNL     1       1.516  -3.918   7.294  1.00  0.00     0.016 A 
ATOM     14  C   UNL     1       1.571  -2.666   7.911  1.00  0.00     0.051 A 
ATOM     15  C   UNL     1       2.520  -1.719   7.506  1.00  0.00     0.157 A 
ATOM     16  C   UNL     1       3.360  -3.288   5.856  1.00  0.00     0.062 A 
ATOM     17  C   UNL     1       3.416  -2.032   6.471  1.00  0.00     0.158 A 
BRANCH  15  18
ATOM     18  O   UNL     1       2.573  -0.470   8.125  1.00  0.00    -0.504 OA
ATOM     19  H   UNL     1       2.927   0.347   7.642  1.00  0.00     0.293 HD
ENDBRANCH  15  18
BRANCH  17  20
ATOM     20  O   UNL     1       4.365  -1.107   6.037  1.00  0.00    -0.504 OA
ATOM     21  H   UNL     1       4.483  -0.875   5.058  1.00  0.00     0.293 HD
ENDBRANCH  17  20
ENDBRANCH   1  12
BRANCH   6  22
ATOM     22  O   UNL     1       1.285 -10.067   3.240  1.00  0.00    -0.507 OA
ATOM     23  H   UNL     1       0.359  -9.691   3.108  1.00  0.00     0.293 HD
ENDBRANCH   6  22
BRANCH   8  24
ATOM     24  O   UNL     1       6.062  -9.825   3.651  1.00  0.00    -0.508 OA
ATOM     25  H   UNL     1       6.793  -9.323   3.162  1.00  0.00     0.293 HD
ENDBRANCH   8  24
TORSDOF 5
ENDMDL
MODEL 3
REMARK VINA RESULT:    -5.594      2.980      4.615
REMARK INTER + INTRA:          -6.869
REMARK INTER:                  -6.594
REMARK INTRA:                  -0.274
REMARK UNBOUND:                -0.293
REMARK SMILES O=c1cc(-c2ccc(O)c(O)c2)oc2cc(O)cc(O)c12
REMARK SMILES IDX 4 1 3 2 2 3 1 4 21 5 19 6 18 7 16 8 15 9 14 10 13 11 5 12
REMARK SMILES IDX 6 13 7 14 8 15 12 16 10 17 9 18 11 20 20 22 17 24
REMARK H PARENT 9 19 11 21 20 23 17 25
REMARK Flexibility Score: inf
ROOT
ATOM      1  C   UNL     1       4.016  -5.244   5.530  1.00  0.00     0.138 A 
ATOM      2  C   UNL     1       5.348  -5.615   5.297  1.00  0.00     0.100 A 
ATOM      3  C   UNL     1       5.630  -6.864   4.743  1.00  0.00     0.197 A 
ATOM      4  O   UNL     1       6.831  -7.144   4.495  1.00  0.00    -0.289 OA
ATOM      5  C   UNL     1       4.574  -7.761   4.456  1.00  0.00     0.107 A 
ATOM      6  C   UNL     1       4.743  -9.075   3.921  1.00  0.00     0.134 A 
ATOM      7  C   UNL     1       3.616  -9.834   3.586  1.00  0.00     0.093 A 
ATOM      8  C   UNL     1       2.326  -9.351   3.818  1.00  0.00     0.123 A 
ATOM      9  C   UNL     1       2.150  -8.091   4.385  1.00  0.00     0.094 A 
ATOM     10  C   UNL     1       3.254  -7.295   4.699  1.00  0.00     0.146 A 
ATOM     11  O   UNL     1       3.041  -6.092   5.222  1.00  0.00    -0.456 OA
ENDROOT
BRANCH   1  12
ATOM     12  C   UNL     1       3.659  -3.929   6.119  1.00  0.00     0.021 A 
ATOM     13  C   UNL     1       2.774  -3.879   7.211  1.00  0.00     0.016 A 
ATOM     14  C   UNL     1       2.416  -2.655   7.779  1.00  0.00     0.051 A 
ATOM     15  C   UNL     1       2.926  -1.458   7.262  1.00  0.00     0.157 A 
ATOM     16  C   UNL     1       4.159  -2.721   5.596  1.00  0.00     0.062 A 
ATOM     17  C   UNL     1       3.800  -1.492   6.163  1.00  0.00     0.158 A 
BRANCH  15  18
ATOM     18  O   UNL     1       2.568  -0.237   7.833  1.00  0.00    -0.504 OA
ATOM     19  H   UNL     1       1.946   0.408   7.360  1.00  0.00     0.293 HD
ENDBRANCH  15  18
BRANCH  17  20
ATOM     20  O   UNL     1       4.316  -0.318   5.617  1.00  0.00    -0.504 OA
ATOM     21  H   UNL     1       4.349  -0.157   4.617  1.00  0.00     0.293 HD
ENDBRANCH  17  20
ENDBRANCH   1  12
BRANCH   6  22
ATOM     22  O   UNL     1       5.985  -9.686   3.724  1.00  0.00    -0.507 OA
ATOM     23  H   UNL     1       6.121 -10.652   3.469  1.00  0.00     0.293 HD
ENDBRANCH   6  22
BRANCH   8  24
ATOM     24  O   UNL     1       1.210 -10.120   3.495  1.00  0.00    -0.508 OA
ATOM     25  H   UNL     1       0.272  -9.820   3.733  1.00  0.00     0.293 HD
ENDBRANCH   8  24
TORSDOF 5
ENDMDL
MODEL 4
REMARK VINA RESULT:    -5.530      2.379      4.658
REMARK INTER + INTRA:          -6.793
REMARK INTER:                  -6.506
REMARK INTRA:                  -0.287
REMARK UNBOUND:                -0.293
REMARK SMILES O=c1cc(-c2ccc(O)c(O)c2)oc2cc(O)cc(O)c12
REMARK SMILES IDX 4 1 3 2 2 3 1 4 21 5 19 6 18 7 16 8 15 9 14 10 13 11 5 12
REMARK SMILES IDX 6 13 7 14 8 15 12 16 10 17 9 18 11 20 20 22 17 24
REMARK H PARENT 9 19 11 21 20 23 17 25
REMARK Flexibility Score: inf
ROOT
ATOM      1  C   UNL     1      -1.536  -4.526   6.414  1.00  0.00     0.138 A 
ATOM      2  C   UNL     1      -0.283  -3.913   6.276  1.00  0.00     0.100 A 
ATOM      3  C   UNL     1       0.814  -4.670   5.860  1.00  0.00     0.197 A 
ATOM      4  O   UNL     1       1.912  -4.079   5.693  1.00  0.00    -0.289 OA
ATOM      5  C   UNL     1       0.661  -6.055   5.616  1.00  0.00     0.107 A 
ATOM      6  C   UNL     1       1.715  -6.934   5.220  1.00  0.00     0.134 A 
ATOM      7  C   UNL     1       1.422  -8.268   4.912  1.00  0.00     0.093 A 
ATOM      8  C   UNL     1       0.125  -8.770   5.040  1.00  0.00     0.123 A 
ATOM      9  C   UNL     1      -0.901  -7.934   5.473  1.00  0.00     0.094 A 
ATOM     10  C   UNL     1      -0.648  -6.590   5.755  1.00  0.00     0.146 A 
ATOM     11  O   UNL     1      -1.660  -5.822   6.148  1.00  0.00    -0.456 OA
ENDROOT
BRANCH   1  12
ATOM     12  C   UNL     1      -2.735  -3.771   6.855  1.00  0.00     0.021 A 
ATOM     13  C   UNL     1      -3.738  -4.433   7.585  1.00  0.00     0.016 A 
ATOM     14  C   UNL     1      -4.879  -3.747   8.007  1.00  0.00     0.051 A 
ATOM     15  C   UNL     1      -5.045  -2.391   7.698  1.00  0.00     0.157 A 
ATOM     16  C   UNL     1      -2.913  -2.410   6.538  1.00  0.00     0.062 A 
ATOM     17  C   UNL     1      -4.057  -1.721   6.958  1.00  0.00     0.158 A 
BRANCH  15  18
ATOM     18  O   UNL     1      -6.185  -1.709   8.122  1.00  0.00    -0.504 OA
ATOM     19  H   UNL     1      -6.940  -2.185   8.602  1.00  0.00     0.293 HD
ENDBRANCH  15  18
BRANCH  17  20
ATOM     20  O   UNL     1      -4.197  -0.374   6.625  1.00  0.00    -0.504 OA
ATOM     21  H   UNL     1      -4.678   0.282   7.228  1.00  0.00     0.293 HD
ENDBRANCH  17  20
ENDBRANCH   1  12
BRANCH   6  22
ATOM     22  O   UNL     1       3.059  -6.558   5.137  1.00  0.00    -0.507 OA
ATOM     23  H   UNL     1       3.423  -5.839   4.531  1.00  0.00     0.293 HD
ENDBRANCH   6  22
BRANCH   8  24
ATOM     24  O   UNL     1      -0.154 -10.103   4.746  1.00  0.00    -0.508 OA
ATOM     25  H   UNL     1      -0.996 -10.372   4.251  1.00  0.00     0.293 HD
ENDBRANCH   8  24
TORSDOF 5
ENDMDL
MODEL 5
REMARK VINA RESULT:    -5.450      1.355      7.007
REMARK INTER + INTRA:          -6.700
REMARK INTER:                  -6.385
REMARK INTRA:                  -0.315
REMARK UNBOUND:                -0.293
REMARK SMILES O=c1cc(-c2ccc(O)c(O)c2)oc2cc(O)cc(O)c12
REMARK SMILES IDX 4 1 3 2 2 3 1 4 21 5 19 6 18 7 16 8 15 9 14 10 13 11 5 12
REMARK SMILES IDX 6 13 7 14 8 15 12 16 10 17 9 18 11 20 20 22 17 24
REMARK H PARENT 9 19 11 21 20 23 17 25
REMARK Flexibility Score: inf
ROOT
ATOM      1  C   UNL     1       0.944  -7.738   5.089  1.00  0.00     0.138 A 
ATOM      2  C   UNL     1      -0.232  -8.490   5.218  1.00  0.00     0.100 A 
ATOM      3  C   UNL     1      -1.364  -7.909   5.789  1.00  0.00     0.197 A 
ATOM      4  O   UNL     1      -2.419  -8.592   5.840  1.00  0.00    -0.289 OA
ATOM      5  C   UNL     1      -1.307  -6.578   6.267  1.00  0.00     0.107 A 
ATOM      6  C   UNL     1      -2.389  -5.891   6.899  1.00  0.00     0.134 A 
ATOM      7  C   UNL     1      -2.243  -4.542   7.242  1.00  0.00     0.093 A 
ATOM      8  C   UNL     1      -1.038  -3.869   7.028  1.00  0.00     0.123 A 
ATOM      9  C   UNL     1       0.040  -4.543   6.458  1.00  0.00     0.094 A 
ATOM     10  C   UNL     1      -0.084  -5.880   6.074  1.00  0.00     0.146 A 
ATOM     11  O   UNL     1       0.963  -6.480   5.517  1.00  0.00    -0.456 OA
ENDROOT
BRANCH   1  12
ATOM     12  C   UNL     1       2.178  -8.307   4.492  1.00  0.00     0.021 A 
ATOM     13  C   UNL     1       2.104  -9.509   3.766  1.00  0.00     0.016 A 
ATOM     14  C   UNL     1       3.251 -10.069   3.200  1.00  0.00     0.051 A 
ATOM     15  C   UNL     1       4.495  -9.445   3.357  1.00  0.00     0.157 A 
ATOM     16  C   UNL     1       3.434  -7.691   4.656  1.00  0.00     0.062 A 
ATOM     17  C   UNL     1       4.586  -8.251   4.092  1.00  0.00     0.158 A 
BRANCH  15  18
ATOM     18  O   UNL     1       5.638 -10.006   2.788  1.00  0.00    -0.504 OA
ATOM     19  H   UNL     1       6.111 -10.793   3.216  1.00  0.00     0.293 HD
ENDBRANCH  15  18
BRANCH  17  20
ATOM     20  O   UNL     1       5.811  -7.611   4.275  1.00  0.00    -0.504 OA
ATOM     21  H   UNL     1       6.465  -7.897   4.994  1.00  0.00     0.293 HD
ENDBRANCH  17  20
ENDBRANCH   1  12
BRANCH   6  22
ATOM     22  O   UNL     1      -3.608  -6.489   7.231  1.00  0.00    -0.507 OA
ATOM     23  H   UNL     1      -4.288  -6.827   6.567  1.00  0.00     0.293 HD
ENDBRANCH   6  22
BRANCH   8  24
ATOM     24  O   UNL     1      -0.898  -2.530   7.387  1.00  0.00    -0.508 OA
ATOM     25  H   UNL     1      -1.700  -1.919   7.478  1.00  0.00     0.293 HD
ENDBRANCH   8  24
TORSDOF 5
ENDMDL
MODEL 6
REMARK VINA RESULT:    -5.426      8.531     10.297
REMARK INTER + INTRA:          -6.671
REMARK INTER:                  -6.379
REMARK INTRA:                  -0.291
REMARK UNBOUND:                -0.293
REMARK SMILES O=c1cc(-c2ccc(O)c(O)c2)oc2cc(O)cc(O)c12
REMARK SMILES IDX 4 1 3 2 2 3 1 4 21 5 19 6 18 7 16 8 15 9 14 10 13 11 5 12
REMARK SMILES IDX 6 13 7 14 8 15 12 16 10 17 9 18 11 20 20 22 17 24
REMARK H PARENT 9 19 11 21 20 23 17 25
REMARK Flexibility Score: inf
ROOT
ATOM      1  C   UNL     1       5.714   2.449   5.584  1.00  0.00     0.138 A 
ATOM      2  C   UNL     1       6.990   2.096   5.125  1.00  0.00     0.100 A 
ATOM      3  C   UNL     1       7.338   0.748   5.021  1.00  0.00     0.197 A 
ATOM      4  O   UNL     1       8.470   0.463   4.552  1.00  0.00    -0.289 OA
ATOM      5  C   UNL     1       6.414  -0.250   5.414  1.00  0.00     0.107 A 
ATOM      6  C   UNL     1       6.671  -1.654   5.384  1.00  0.00     0.134 A 
ATOM      7  C   UNL     1       5.644  -2.550   5.706  1.00  0.00     0.093 A 
ATOM      8  C   UNL     1       4.387  -2.092   6.110  1.00  0.00     0.123 A 
ATOM      9  C   UNL     1       4.142  -0.724   6.191  1.00  0.00     0.094 A 
ATOM     10  C   UNL     1       5.135   0.196   5.844  1.00  0.00     0.146 A 
ATOM     11  O   UNL     1       4.853   1.492   5.918  1.00  0.00    -0.456 OA
ENDROOT
BRANCH   1  12
ATOM     12  C   UNL     1       5.291   3.866   5.717  1.00  0.00     0.021 A 
ATOM     13  C   UNL     1       3.921   4.182   5.703  1.00  0.00     0.016 A 
ATOM     14  C   UNL     1       3.497   5.508   5.819  1.00  0.00     0.051 A 
ATOM     15  C   UNL     1       4.433   6.542   5.941  1.00  0.00     0.157 A 
ATOM     16  C   UNL     1       6.228   4.912   5.827  1.00  0.00     0.062 A 
ATOM     17  C   UNL     1       5.805   6.241   5.942  1.00  0.00     0.158 A 
BRANCH  15  18
ATOM     18  O   UNL     1       4.006   7.864   6.059  1.00  0.00    -0.504 OA
ATOM     19  H   UNL     1       4.386   8.484   6.764  1.00  0.00     0.293 HD
ENDBRANCH  15  18
BRANCH  17  20
ATOM     20  O   UNL     1       6.762   7.250   6.050  1.00  0.00    -0.504 OA
ATOM     21  H   UNL     1       6.536   8.172   6.404  1.00  0.00     0.293 HD
ENDBRANCH  17  20
ENDBRANCH   1  12
BRANCH   6  22
ATOM     22  O   UNL     1       7.911  -2.218   5.072  1.00  0.00    -0.507 OA
ATOM     23  H   UNL     1       8.785  -1.978   5.516  1.00  0.00     0.293 HD
ENDBRANCH   6  22
BRANCH   8  24
ATOM     24  O   UNL     1       3.377  -2.992   6.443  1.00  0.00    -0.508 OA
ATOM     25  H   UNL     1       3.576  -3.966   6.634  1.00  0.00     0.293 HD
ENDBRANCH   8  24
TORSDOF 5
ENDMDL
MODEL 7
REMARK VINA RESULT:    -5.351      2.421      4.283
REMARK INTER + INTRA:          -6.583
REMARK INTER:                  -6.284
REMARK INTRA:                  -0.298
REMARK UNBOUND:                -0.293
REMARK SMILES O=c1cc(-c2ccc(O)c(O)c2)oc2cc(O)cc(O)c12
REMARK SMILES IDX 4 1 3 2 2 3 1 4 21 5 19 6 18 7 16 8 15 9 14 10 13 11 5 12
REMARK SMILES IDX 6 13 7 14 8 15 12 16 10 17 9 18 11 20 20 22 17 24
REMARK H PARENT 9 19 11 21 20 23 17 25
REMARK Flexibility Score: inf
ROOT
ATOM      1  C   UNL     1       4.190  -7.225   4.993  1.00  0.00     0.138 A 
ATOM      2  C   UNL     1       4.956  -8.362   5.287  1.00  0.00     0.100 A 
ATOM      3  C   UNL     1       6.347  -8.262   5.340  1.00  0.00     0.197 A 
ATOM      4  O   UNL     1       7.002  -9.287   5.660  1.00  0.00    -0.289 OA
ATOM      5  C   UNL     1       6.975  -7.025   5.061  1.00  0.00     0.107 A 
ATOM      6  C   UNL     1       8.387  -6.811   5.052  1.00  0.00     0.134 A 
ATOM      7  C   UNL     1       8.888  -5.518   4.858  1.00  0.00     0.093 A 
ATOM      8  C   UNL     1       8.032  -4.441   4.618  1.00  0.00     0.123 A 
ATOM      9  C   UNL     1       6.656  -4.647   4.575  1.00  0.00     0.094 A 
ATOM     10  C   UNL     1       6.122  -5.919   4.798  1.00  0.00     0.146 A 
ATOM     11  O   UNL     1       4.802  -6.067   4.767  1.00  0.00    -0.456 OA
ENDROOT
BRANCH   1  12
ATOM     12  C   UNL     1       2.708  -7.274   4.921  1.00  0.00     0.021 A 
ATOM     13  C   UNL     1       2.082  -8.389   4.335  1.00  0.00     0.016 A 
ATOM     14  C   UNL     1       0.689  -8.457   4.249  1.00  0.00     0.051 A 
ATOM     15  C   UNL     1      -0.102  -7.409   4.736  1.00  0.00     0.157 A 
ATOM     16  C   UNL     1       1.906  -6.219   5.398  1.00  0.00     0.062 A 
ATOM     17  C   UNL     1       0.511  -6.284   5.311  1.00  0.00     0.158 A 
BRANCH  15  18
ATOM     18  O   UNL     1      -1.492  -7.482   4.650  1.00  0.00    -0.504 OA
ATOM     19  H   UNL     1      -1.965  -8.349   4.423  1.00  0.00     0.293 HD
ENDBRANCH  15  18
BRANCH  17  20
ATOM     20  O   UNL     1      -0.249  -5.220   5.795  1.00  0.00    -0.504 OA
ATOM     21  H   UNL     1      -0.995  -4.801   5.253  1.00  0.00     0.293 HD
ENDBRANCH  17  20
ENDBRANCH   1  12
BRANCH   6  22
ATOM     22  O   UNL     1       9.334  -7.829   5.202  1.00  0.00    -0.507 OA
ATOM     23  H   UNL     1      10.205  -7.889   4.697  1.00  0.00     0.293 HD
ENDBRANCH   6  22
BRANCH   8  24
ATOM     24  O   UNL     1       8.542  -3.161   4.411  1.00  0.00    -0.508 OA
ATOM     25  H   UNL     1       9.507  -3.012   4.141  1.00  0.00     0.293 HD
ENDBRANCH   8  24
TORSDOF 5
ENDMDL
MODEL 8
REMARK VINA RESULT:    -5.332      2.674      3.937
REMARK INTER + INTRA:          -6.560
REMARK INTER:                  -6.246
REMARK INTRA:                  -0.314
REMARK UNBOUND:                -0.293
REMARK SMILES O=c1cc(-c2ccc(O)c(O)c2)oc2cc(O)cc(O)c12
REMARK SMILES IDX 4 1 3 2 2 3 1 4 21 5 19 6 18 7 16 8 15 9 14 10 13 11 5 12
REMARK SMILES IDX 6 13 7 14 8 15 12 16 10 17 9 18 11 20 20 22 17 24
REMARK H PARENT 9 19 11 21 20 23 17 25
REMARK Flexibility Score: inf
ROOT
ATOM      1  C   UNL     1       1.802  -4.578   5.986  1.00  0.00     0.138 A 
ATOM      2  C   UNL     1       2.585  -5.738   6.050  1.00  0.00     0.100 A 
ATOM      3  C   UNL     1       3.958  -5.658   5.810  1.00  0.00     0.197 A 
ATOM      4  O   UNL     1       4.642  -6.707   5.930  1.00  0.00    -0.289 OA
ATOM      5  C   UNL     1       4.541  -4.415   5.467  1.00  0.00     0.107 A 
ATOM      6  C   UNL     1       5.924  -4.219   5.167  1.00  0.00     0.134 A 
ATOM      7  C   UNL     1       6.403  -2.924   4.938  1.00  0.00     0.093 A 
ATOM      8  C   UNL     1       5.541  -1.825   4.941  1.00  0.00     0.123 A 
ATOM      9  C   UNL     1       4.182  -2.011   5.183  1.00  0.00     0.094 A 
ATOM     10  C   UNL     1       3.678  -3.286   5.449  1.00  0.00     0.146 A 
ATOM     11  O   UNL     1       2.379  -3.417   5.693  1.00  0.00    -0.456 OA
ENDROOT
BRANCH   1  12
ATOM     12  C   UNL     1       0.337  -4.605   6.230  1.00  0.00     0.021 A 
ATOM     13  C   UNL     1      -0.349  -5.831   6.173  1.00  0.00     0.016 A 
ATOM     14  C   UNL     1      -1.728  -5.883   6.392  1.00  0.00     0.051 A 
ATOM     15  C   UNL     1      -2.447  -4.712   6.661  1.00  0.00     0.157 A 
ATOM     16  C   UNL     1      -0.394  -3.429   6.489  1.00  0.00     0.062 A 
ATOM     17  C   UNL     1      -1.775  -3.480   6.707  1.00  0.00     0.158 A 
BRANCH  15  18
ATOM     18  O   UNL     1      -3.823  -4.769   6.881  1.00  0.00    -0.504 OA
ATOM     19  H   UNL     1      -4.281  -5.629   7.156  1.00  0.00     0.293 HD
ENDBRANCH  15  18
BRANCH  17  20
ATOM     20  O   UNL     1      -2.464  -2.294   6.961  1.00  0.00    -0.504 OA
ATOM     21  H   UNL     1      -3.263  -2.258   7.583  1.00  0.00     0.293 HD
ENDBRANCH  17  20
ENDBRANCH   1  12
BRANCH   6  22
ATOM     22  O   UNL     1       6.857  -5.255   5.060  1.00  0.00    -0.507 OA
ATOM     23  H   UNL     1       7.713  -5.211   4.528  1.00  0.00     0.293 HD
ENDBRANCH   6  22
BRANCH   8  24
ATOM     24  O   UNL     1       6.025  -0.541   4.696  1.00  0.00    -0.508 OA
ATOM     25  H   UNL     1       5.658   0.266   5.185  1.00  0.00     0.293 HD
ENDBRANCH   8  24
TORSDOF 5
ENDMDL
MODEL 9
REMARK VINA RESULT:    -5.278      2.282      6.439
REMARK INTER + INTRA:          -6.497
REMARK INTER:                  -6.233
REMARK INTRA:                  -0.264
REMARK UNBOUND:                -0.293
REMARK SMILES O=c1cc(-c2ccc(O)c(O)c2)oc2cc(O)cc(O)c12
REMARK SMILES IDX 4 1 3 2 2 3 1 4 21 5 19 6 18 7 16 8 15 9 14 10 13 11 5 12
REMARK SMILES IDX 6 13 7 14 8 15 12 16 10 17 9 18 11 20 20 22 17 24
REMARK H PARENT 9 19 11 21 20 23 17 25
REMARK Flexibility Score: inf
ROOT
ATOM      1  C   UNL     1       4.661  -6.677   5.088  1.00  0.00     0.138 A 
ATOM      2  C   UNL     1       4.850  -7.862   4.363  1.00  0.00     0.100 A 
ATOM      3  C   UNL     1       3.743  -8.604   3.951  1.00  0.00     0.197 A 
ATOM      4  O   UNL     1       3.945  -9.633   3.255  1.00  0.00    -0.289 OA
ATOM      5  C   UNL     1       2.440  -8.176   4.300  1.00  0.00     0.107 A 
ATOM      6  C   UNL     1       1.237  -8.870   3.964  1.00  0.00     0.134 A 
ATOM      7  C   UNL     1      -0.001  -8.297   4.279  1.00  0.00     0.093 A 
ATOM      8  C   UNL     1      -0.080  -7.084   4.967  1.00  0.00     0.123 A 
ATOM      9  C   UNL     1       1.087  -6.423   5.343  1.00  0.00     0.094 A 
ATOM     10  C   UNL     1       2.337  -6.952   5.013  1.00  0.00     0.146 A 
ATOM     11  O   UNL     1       3.425  -6.280   5.375  1.00  0.00    -0.456 OA
ENDROOT
BRANCH   1  12
ATOM     12  C   UNL     1       5.802  -5.850   5.553  1.00  0.00     0.021 A 
ATOM     13  C   UNL     1       6.372  -6.105   6.813  1.00  0.00     0.016 A 
ATOM     14  C   UNL     1       7.442  -5.337   7.277  1.00  0.00     0.051 A 
ATOM     15  C   UNL     1       7.956  -4.294   6.497  1.00  0.00     0.157 A 
ATOM     16  C   UNL     1       6.316  -4.792   4.778  1.00  0.00     0.062 A 
ATOM     17  C   UNL     1       7.387  -4.020   5.242  1.00  0.00     0.158 A 
BRANCH  15  18
ATOM     18  O   UNL     1       9.026  -3.531   6.963  1.00  0.00    -0.504 OA
ATOM     19  H   UNL     1       8.879  -2.672   7.480  1.00  0.00     0.293 HD
ENDBRANCH  15  18
BRANCH  17  20
ATOM     20  O   UNL     1       7.869  -2.981   4.446  1.00  0.00    -0.504 OA
ATOM     21  H   UNL     1       8.710  -3.074   3.890  1.00  0.00     0.293 HD
ENDBRANCH  17  20
ENDBRANCH   1  12
BRANCH   6  22
ATOM     22  O   UNL     1       1.202 -10.125   3.349  1.00  0.00    -0.507 OA
ATOM     23  H   UNL     1       1.398 -10.298   2.375  1.00  0.00     0.293 HD
ENDBRANCH   6  22
BRANCH   8  24
ATOM     24  O   UNL     1      -1.317  -6.529   5.289  1.00  0.00    -0.508 OA
ATOM     25  H   UNL     1      -2.061  -7.089   5.688  1.00  0.00     0.293 HD
ENDBRANCH   8  24
TORSDOF 5
ENDMDL
