MODEL 1
REMARK VINA RESULT:    -4.832      0.000      0.000
REMARK INTER + INTRA:          -8.360
REMARK INTER:                  -7.657
REMARK INTRA:                  -0.702
REMARK UNBOUND:                -0.702
REMARK SMILES CCCCCCCCCCCC(=O)[O-]
REMARK SMILES IDX 7 1 8 2 9 3 10 4 11 5 12 6 13 7 14 8 6 9 5 10 4 11 3 12 2 13
REMARK SMILES IDX 1 14
REMARK H PARENT
REMARK Flexibility Score: inf
ROOT
ATOM      1  C   UNL     1      48.134  34.106  16.974  1.00  0.00     0.000 C 
ENDROOT
BRANCH   1   2
ATOM      2  C   UNL     1      48.987  32.901  17.406  1.00  0.00     0.000 C 
BRANCH   2   3
ATOM      3  C   UNL     1      48.146  31.786  18.051  1.00  0.00     0.000 C 
BRANCH   3   4
ATOM      4  C   UNL     1      48.590  30.378  17.614  1.00  0.00     0.006 C 
BRANCH   4   5
ATOM      5  C   UNL     1      49.077  30.288  16.160  1.00  0.00     0.053 C 
BRANCH   5   6
ATOM      6  C   UNL     1      47.939  30.201  15.191  1.00  0.00     0.041 C 
ATOM      7  O   UNL     1      48.036  30.727  14.051  1.00  0.00    -0.550 OA
ATOM      8  O   UNL     1      46.758  29.569  15.559  1.00  0.00    -0.550 OA
ENDBRANCH   5   6
ENDBRANCH   4   5
ENDBRANCH   3   4
ENDBRANCH   2   3
ENDBRANCH   1   2
BRANCH   1   9
ATOM      9  C   UNL     1      47.401  33.868  15.643  1.00  0.00     0.000 C 
BRANCH   9  10
ATOM     10  C   UNL     1      48.343  33.909  14.426  1.00  0.00    -0.000 C 
BRANCH  10  11
ATOM     11  C   UNL     1      47.717  34.471  13.136  1.00  0.00    -0.000 C 
BRANCH  11  12
ATOM     12  C   UNL     1      48.259  33.796  11.864  1.00  0.00    -0.000 C 
BRANCH  12  13
ATOM     13  C   UNL     1      49.792  33.840  11.783  1.00  0.00    -0.003 C 
ATOM     14  C   UNL     1      50.315  33.689  10.355  1.00  0.00     0.004 C 
ENDBRANCH  12  13
ENDBRANCH  11  12
ENDBRANCH  10  11
ENDBRANCH   9  10
ENDBRANCH   1   9
TORSDOF 10
ENDMDL
MODEL 2
REMARK VINA RESULT:    -4.754      3.066      4.714
REMARK INTER + INTRA:          -8.236
REMARK INTER:                  -7.647
REMARK INTRA:                  -0.589
REMARK UNBOUND:                -0.702
REMARK SMILES CCCCCCCCCCCC(=O)[O-]
REMARK SMILES IDX 7 1 8 2 9 3 10 4 11 5 12 6 13 7 14 8 6 9 5 10 4 11 3 12 2 13
REMARK SMILES IDX 1 14
REMARK H PARENT
REMARK Flexibility Score: inf
ROOT
ATOM      1  C   UNL     1      48.378  33.678  12.435  1.00  0.00     0.000 C 
ENDROOT
BRANCH   1   2
ATOM      2  C   UNL     1      48.580  34.191  13.870  1.00  0.00     0.000 C 
BRANCH   2   3
ATOM      3  C   UNL     1      48.076  33.195  14.929  1.00  0.00     0.000 C 
BRANCH   3   4
ATOM      4  C   UNL     1      47.618  33.886  16.226  1.00  0.00     0.006 C 
BRANCH   4   5
ATOM      5  C   UNL     1      48.645  33.833  17.369  1.00  0.00     0.053 C 
BRANCH   5   6
ATOM      6  C   UNL     1      48.946  32.428  17.789  1.00  0.00     0.041 C 
ATOM      7  O   UNL     1      50.130  32.002  17.773  1.00  0.00    -0.550 OA
ATOM      8  O   UNL     1      47.914  31.578  18.166  1.00  0.00    -0.550 OA
ENDBRANCH   5   6
ENDBRANCH   4   5
ENDBRANCH   3   4
ENDBRANCH   2   3
ENDBRANCH   1   2
BRANCH   1   9
ATOM      9  C   UNL     1      47.113  34.252  11.772  1.00  0.00     0.000 C 
BRANCH   9  10
ATOM     10  C   UNL     1      46.573  35.500  12.496  1.00  0.00    -0.000 C 
BRANCH  10  11
ATOM     11  C   UNL     1      45.087  35.429  12.894  1.00  0.00    -0.000 C 
BRANCH  11  12
ATOM     12  C   UNL     1      44.286  36.662  12.439  1.00  0.00    -0.000 C 
BRANCH  12  13
ATOM     13  C   UNL     1      42.774  36.489  12.644  1.00  0.00    -0.003 C 
ATOM     14  C   UNL     1      42.024  36.225  11.339  1.00  0.00     0.004 C 
ENDBRANCH  12  13
ENDBRANCH  11  12
ENDBRANCH  10  11
ENDBRANCH   9  10
ENDBRANCH   1   9
TORSDOF 10
ENDMDL
MODEL 3
REMARK VINA RESULT:    -4.672      2.962      6.436
REMARK INTER + INTRA:          -8.106
REMARK INTER:                  -7.270
REMARK INTRA:                  -0.836
REMARK UNBOUND:                -0.702
REMARK SMILES CCCCCCCCCCCC(=O)[O-]
REMARK SMILES IDX 7 1 8 2 9 3 10 4 11 5 12 6 13 7 14 8 6 9 5 10 4 11 3 12 2 13
REMARK SMILES IDX 1 14
REMARK H PARENT
REMARK Flexibility Score: inf
ROOT
ATOM      1  C   UNL     1      48.998  30.022  16.692  1.00  0.00     0.000 C 
ENDROOT
BRANCH   1   2
ATOM      2  C   UNL     1      47.911  30.346  17.730  1.00  0.00     0.000 C 
BRANCH   2   3
ATOM      3  C   UNL     1      48.139  31.704  18.418  1.00  0.00     0.000 C 
BRANCH   3   4
ATOM      4  C   UNL     1      49.268  32.520  17.763  1.00  0.00     0.006 C 
BRANCH   4   5
ATOM      5  C   UNL     1      48.842  33.911  17.268  1.00  0.00     0.053 C 
BRANCH   5   6
ATOM      6  C   UNL     1      47.778  33.831  16.217  1.00  0.00     0.041 C 
ATOM      7  O   UNL     1      46.658  34.373  16.407  1.00  0.00    -0.550 OA
ATOM      8  O   UNL     1      48.012  33.128  15.042  1.00  0.00    -0.550 OA
ENDBRANCH   5   6
ENDBRANCH   4   5
ENDBRANCH   3   4
ENDBRANCH   2   3
ENDBRANCH   1   2
BRANCH   1   9
ATOM      9  C   UNL     1      48.529  29.002  15.640  1.00  0.00     0.000 C 
BRANCH   9  10
ATOM     10  C   UNL     1      48.054  27.676  16.263  1.00  0.00    -0.000 C 
BRANCH  10  11
ATOM     11  C   UNL     1      48.809  26.423  15.783  1.00  0.00    -0.000 C 
BRANCH  11  12
ATOM     12  C   UNL     1      49.377  25.586  16.943  1.00  0.00    -0.000 C 
BRANCH  12  13
ATOM     13  C   UNL     1      49.280  26.311  18.294  1.00  0.00    -0.003 C 
ATOM     14  C   UNL     1      48.561  25.485  19.360  1.00  0.00     0.004 C 
ENDBRANCH  12  13
ENDBRANCH  11  12
ENDBRANCH  10  11
ENDBRANCH   9  10
ENDBRANCH   1   9
TORSDOF 10
ENDMDL
MODEL 4
REMARK VINA RESULT:    -4.581      5.325      9.104
REMARK INTER + INTRA:          -7.961
REMARK INTER:                  -7.264
REMARK INTRA:                  -0.697
REMARK UNBOUND:                -0.702
REMARK SMILES CCCCCCCCCCCC(=O)[O-]
REMARK SMILES IDX 7 1 8 2 9 3 10 4 11 5 12 6 13 7 14 8 6 9 5 10 4 11 3 12 2 13
REMARK SMILES IDX 1 14
REMARK H PARENT
REMARK Flexibility Score: inf
ROOT
ATOM      1  C   UNL     1      48.501  25.547  19.518  1.00  0.00     0.000 C 
ENDROOT
BRANCH   1   2
ATOM      2  C   UNL     1      49.836  25.089  18.909  1.00  0.00     0.000 C 
BRANCH   2   3
ATOM      3  C   UNL     1      49.940  25.411  17.408  1.00  0.00     0.000 C 
BRANCH   3   4
ATOM      4  C   UNL     1      48.608  25.899  16.810  1.00  0.00     0.006 C 
BRANCH   4   5
ATOM      5  C   UNL     1      48.759  26.786  15.565  1.00  0.00     0.053 C 
BRANCH   5   6
ATOM      6  C   UNL     1      48.680  28.243  15.900  1.00  0.00     0.041 C 
ATOM      7  O   UNL     1      49.728  28.939  15.955  1.00  0.00    -0.550 OA
ATOM      8  O   UNL     1      47.452  28.826  16.185  1.00  0.00    -0.550 OA
ENDBRANCH   5   6
ENDBRANCH   4   5
ENDBRANCH   3   4
ENDBRANCH   2   3
ENDBRANCH   1   2
BRANCH   1   9
ATOM      9  C   UNL     1      48.421  25.292  21.034  1.00  0.00     0.000 C 
BRANCH   9  10
ATOM     10  C   UNL     1      48.196  26.581  21.846  1.00  0.00    -0.000 C 
BRANCH  10  11
ATOM     11  C   UNL     1      49.414  27.061  22.655  1.00  0.00    -0.000 C 
BRANCH  11  12
ATOM     12  C   UNL     1      50.600  26.083  22.590  1.00  0.00    -0.000 C 
BRANCH  12  13
ATOM     13  C   UNL     1      51.924  26.786  22.251  1.00  0.00    -0.003 C 
ATOM     14  C   UNL     1      53.150  25.940  22.594  1.00  0.00     0.004 C 
ENDBRANCH  12  13
ENDBRANCH  11  12
ENDBRANCH  10  11
ENDBRANCH   9  10
ENDBRANCH   1   9
TORSDOF 10
ENDMDL
MODEL 5
REMARK VINA RESULT:    -4.523      7.417      9.477
REMARK INTER + INTRA:          -7.870
REMARK INTER:                  -6.503
REMARK INTRA:                  -1.366
REMARK UNBOUND:                -0.702
REMARK SMILES CCCCCCCCCCCC(=O)[O-]
REMARK SMILES IDX 7 1 8 2 9 3 10 4 11 5 12 6 13 7 14 8 6 9 5 10 4 11 3 12 2 13
REMARK SMILES IDX 1 14
REMARK H PARENT
REMARK Flexibility Score: inf
ROOT
ATOM      1  C   UNL     1      41.385  39.878  11.993  1.00  0.00     0.000 C 
ENDROOT
BRANCH   1   2
ATOM      2  C   UNL     1      42.083  39.392  10.712  1.00  0.00     0.000 C 
BRANCH   2   3
ATOM      3  C   UNL     1      42.528  37.922  10.805  1.00  0.00     0.000 C 
BRANCH   3   4
ATOM      4  C   UNL     1      43.384  37.637  12.053  1.00  0.00     0.006 C 
BRANCH   4   5
ATOM      5  C   UNL     1      43.473  36.152  12.436  1.00  0.00     0.053 C 
BRANCH   5   6
ATOM      6  C   UNL     1      44.740  35.836  13.169  1.00  0.00     0.041 C 
ATOM      7  O   UNL     1      45.837  35.808  12.554  1.00  0.00    -0.550 OA
ATOM      8  O   UNL     1      44.703  35.538  14.526  1.00  0.00    -0.550 OA
ENDBRANCH   5   6
ENDBRANCH   4   5
ENDBRANCH   3   4
ENDBRANCH   2   3
ENDBRANCH   1   2
BRANCH   1   9
ATOM      9  C   UNL     1      40.006  39.228  12.200  1.00  0.00     0.000 C 
BRANCH   9  10
ATOM     10  C   UNL     1      39.958  38.307  13.433  1.00  0.00    -0.000 C 
BRANCH  10  11
ATOM     11  C   UNL     1      39.610  36.837  13.134  1.00  0.00    -0.000 C 
BRANCH  11  12
ATOM     12  C   UNL     1      38.527  36.686  12.051  1.00  0.00    -0.000 C 
BRANCH  12  13
ATOM     13  C   UNL     1      39.015  35.874  10.841  1.00  0.00    -0.003 C 
ATOM     14  C   UNL     1      40.150  34.913  11.191  1.00  0.00     0.004 C 
ENDBRANCH  12  13
ENDBRANCH  11  12
ENDBRANCH  10  11
ENDBRANCH   9  10
ENDBRANCH   1   9
TORSDOF 10
ENDMDL
MODEL 6
REMARK VINA RESULT:    -4.495      3.986      6.088
REMARK INTER + INTRA:          -7.826
REMARK INTER:                  -7.241
REMARK INTRA:                  -0.585
REMARK UNBOUND:                -0.702
REMARK SMILES CCCCCCCCCCCC(=O)[O-]
REMARK SMILES IDX 7 1 8 2 9 3 10 4 11 5 12 6 13 7 14 8 6 9 5 10 4 11 3 12 2 13
REMARK SMILES IDX 1 14
REMARK H PARENT
REMARK Flexibility Score: inf
ROOT
ATOM      1  C   UNL     1      49.659  28.485  16.451  1.00  0.00     0.000 C 
ENDROOT
BRANCH   1   2
ATOM      2  C   UNL     1      48.475  27.525  16.249  1.00  0.00     0.000 C 
BRANCH   2   3
ATOM      3  C   UNL     1      48.824  26.073  16.620  1.00  0.00     0.000 C 
BRANCH   3   4
ATOM      4  C   UNL     1      48.371  25.697  18.043  1.00  0.00     0.006 C 
BRANCH   4   5
ATOM      5  C   UNL     1      49.512  25.278  18.982  1.00  0.00     0.053 C 
BRANCH   5   6
ATOM      6  C   UNL     1      49.153  25.469  20.423  1.00  0.00     0.041 C 
ATOM      7  O   UNL     1      50.055  25.645  21.283  1.00  0.00    -0.550 OA
ATOM      8  O   UNL     1      47.823  25.420  20.821  1.00  0.00    -0.550 OA
ENDBRANCH   5   6
ENDBRANCH   4   5
ENDBRANCH   3   4
ENDBRANCH   2   3
ENDBRANCH   1   2
BRANCH   1   9
ATOM      9  C   UNL     1      49.249  29.964  16.336  1.00  0.00     0.000 C 
BRANCH   9  10
ATOM     10  C   UNL     1      48.002  30.305  17.172  1.00  0.00    -0.000 C 
BRANCH  10  11
ATOM     11  C   UNL     1      48.166  31.501  18.128  1.00  0.00    -0.000 C 
BRANCH  11  12
ATOM     12  C   UNL     1      49.348  32.411  17.750  1.00  0.00    -0.000 C 
BRANCH  12  13
ATOM     13  C   UNL     1      48.900  33.834  17.383  1.00  0.00    -0.003 C 
ATOM     14  C   UNL     1      47.891  33.861  16.235  1.00  0.00     0.004 C 
ENDBRANCH  12  13
ENDBRANCH  11  12
ENDBRANCH  10  11
ENDBRANCH   9  10
ENDBRANCH   1   9
TORSDOF 10
ENDMDL
MODEL 7
REMARK VINA RESULT:    -4.466      8.935     10.592
REMARK INTER + INTRA:          -7.779
REMARK INTER:                  -6.252
REMARK INTRA:                  -1.527
REMARK UNBOUND:                -0.702
REMARK SMILES CCCCCCCCCCCC(=O)[O-]
REMARK SMILES IDX 7 1 8 2 9 3 10 4 11 5 12 6 13 7 14 8 6 9 5 10 4 11 3 12 2 13
REMARK SMILES IDX 1 14
REMARK H PARENT
REMARK Flexibility Score: inf
ROOT
ATOM      1  C   UNL     1      39.705  35.093  11.738  1.00  0.00     0.000 C 
ENDROOT
BRANCH   1   2
ATOM      2  C   UNL     1      38.637  36.186  11.564  1.00  0.00     0.000 C 
BRANCH   2   3
ATOM      3  C   UNL     1      38.966  37.463  12.358  1.00  0.00     0.000 C 
BRANCH   3   4
ATOM      4  C   UNL     1      39.569  37.164  13.743  1.00  0.00     0.006 C 
BRANCH   4   5
ATOM      5  C   UNL     1      40.383  38.320  14.344  1.00  0.00     0.053 C 
BRANCH   5   6
ATOM      6  C   UNL     1      39.525  39.507  14.657  1.00  0.00     0.041 C 
ATOM      7  O   UNL     1      38.702  39.460  15.607  1.00  0.00    -0.550 OA
ATOM      8  O   UNL     1      39.612  40.653  13.877  1.00  0.00    -0.550 OA
ENDBRANCH   5   6
ENDBRANCH   4   5
ENDBRANCH   3   4
ENDBRANCH   2   3
ENDBRANCH   1   2
BRANCH   1   9
ATOM      9  C   UNL     1      40.609  34.946  10.502  1.00  0.00     0.000 C 
BRANCH   9  10
ATOM     10  C   UNL     1      41.748  35.983  10.468  1.00  0.00    -0.000 C 
BRANCH  10  11
ATOM     11  C   UNL     1      42.562  36.099  11.770  1.00  0.00    -0.000 C 
BRANCH  11  12
ATOM     12  C   UNL     1      43.204  37.486  11.952  1.00  0.00    -0.000 C 
BRANCH  12  13
ATOM     13  C   UNL     1      42.789  38.475  10.853  1.00  0.00    -0.003 C 
ATOM     14  C   UNL     1      42.056  39.699  11.403  1.00  0.00     0.004 C 
ENDBRANCH  12  13
ENDBRANCH  11  12
ENDBRANCH  10  11
ENDBRANCH   9  10
ENDBRANCH   1   9
TORSDOF 10
ENDMDL
MODEL 8
REMARK VINA RESULT:    -4.436      4.818      7.294
REMARK INTER + INTRA:          -7.732
REMARK INTER:                  -7.160
REMARK INTRA:                  -0.571
REMARK UNBOUND:                -0.702
REMARK SMILES CCCCCCCCCCCC(=O)[O-]
REMARK SMILES IDX 7 1 8 2 9 3 10 4 11 5 12 6 13 7 14 8 6 9 5 10 4 11 3 12 2 13
REMARK SMILES IDX 1 14
REMARK H PARENT
REMARK Flexibility Score: inf
ROOT
ATOM      1  C   UNL     1      46.539  34.525  12.070  1.00  0.00     0.000 C 
ENDROOT
BRANCH   1   2
ATOM      2  C   UNL     1      46.129  35.806  12.814  1.00  0.00     0.000 C 
BRANCH   2   3
ATOM      3  C   UNL     1      44.660  35.777  13.272  1.00  0.00     0.000 C 
BRANCH   3   4
ATOM      4  C   UNL     1      43.771  36.756  12.483  1.00  0.00     0.006 C 
BRANCH   4   5
ATOM      5  C   UNL     1      42.528  36.113  11.849  1.00  0.00     0.053 C 
BRANCH   5   6
ATOM      6  C   UNL     1      41.751  37.091  11.023  1.00  0.00     0.041 C 
ATOM      7  O   UNL     1      40.561  37.369  11.323  1.00  0.00    -0.550 OA
ATOM      8  O   UNL     1      42.330  37.669   9.900  1.00  0.00    -0.550 OA
ENDBRANCH   5   6
ENDBRANCH   4   5
ENDBRANCH   3   4
ENDBRANCH   2   3
ENDBRANCH   1   2
BRANCH   1   9
ATOM      9  C   UNL     1      48.050  34.248  12.154  1.00  0.00     0.000 C 
BRANCH   9  10
ATOM     10  C   UNL     1      48.605  34.384  13.584  1.00  0.00    -0.000 C 
BRANCH  10  11
ATOM     11  C   UNL     1      48.173  33.272  14.558  1.00  0.00    -0.000 C 
BRANCH  11  12
ATOM     12  C   UNL     1      47.583  33.821  15.869  1.00  0.00    -0.000 C 
BRANCH  12  13
ATOM     13  C   UNL     1      48.660  34.092  16.930  1.00  0.00    -0.003 C 
ATOM     14  C   UNL     1      49.188  32.814  17.580  1.00  0.00     0.004 C 
ENDBRANCH  12  13
ENDBRANCH  11  12
ENDBRANCH  10  11
ENDBRANCH   9  10
ENDBRANCH   1   9
TORSDOF 10
ENDMDL
MODEL 9
REMARK VINA RESULT:    -4.377      4.637      8.608
REMARK INTER + INTRA:          -7.638
REMARK INTER:                  -6.921
REMARK INTRA:                  -0.717
REMARK UNBOUND:                -0.702
REMARK SMILES CCCCCCCCCCCC(=O)[O-]
REMARK SMILES IDX 7 1 8 2 9 3 10 4 11 5 12 6 13 7 14 8 6 9 5 10 4 11 3 12 2 13
REMARK SMILES IDX 1 14
REMARK H PARENT
REMARK Flexibility Score: inf
ROOT
ATOM      1  C   UNL     1      49.696  25.226  18.162  1.00  0.00     0.000 C 
ENDROOT
BRANCH   1   2
ATOM      2  C   UNL     1      49.494  25.858  16.775  1.00  0.00     0.000 C 
BRANCH   2   3
ATOM      3  C   UNL     1      48.106  26.503  16.618  1.00  0.00     0.000 C 
BRANCH   3   4
ATOM      4  C   UNL     1      48.181  27.981  16.193  1.00  0.00     0.006 C 
BRANCH   4   5
ATOM      5  C   UNL     1      49.116  28.843  17.055  1.00  0.00     0.053 C 
BRANCH   5   6
ATOM      6  C   UNL     1      49.156  30.265  16.590  1.00  0.00     0.041 C 
ATOM      7  O   UNL     1      49.672  31.155  17.316  1.00  0.00    -0.550 OA
ATOM      8  O   UNL     1      48.593  30.615  15.369  1.00  0.00    -0.550 OA
ENDBRANCH   5   6
ENDBRANCH   4   5
ENDBRANCH   3   4
ENDBRANCH   2   3
ENDBRANCH   1   2
BRANCH   1   9
ATOM      9  C   UNL     1      48.517  25.496  19.114  1.00  0.00     0.000 C 
BRANCH   9  10
ATOM     10  C   UNL     1      48.908  25.374  20.599  1.00  0.00    -0.000 C 
BRANCH  10  11
ATOM     11  C   UNL     1      48.458  26.547  21.489  1.00  0.00    -0.000 C 
BRANCH  11  12
ATOM     12  C   UNL     1      49.532  26.972  22.506  1.00  0.00    -0.000 C 
BRANCH  12  13
ATOM     13  C   UNL     1      50.881  26.281  22.260  1.00  0.00    -0.003 C 
ATOM     14  C   UNL     1      52.051  27.264  22.209  1.00  0.00     0.004 C 
ENDBRANCH  12  13
ENDBRANCH  11  12
ENDBRANCH  10  11
ENDBRANCH   9  10
ENDBRANCH   1   9
TORSDOF 10
ENDMDL
