MODEL 1
REMARK VINA RESULT:    -6.674      0.000      0.000
REMARK INTER + INTRA:         -13.181
REMARK INTER:                 -10.966
REMARK INTRA:                  -2.214
REMARK UNBOUND:                -2.214
REMARK SMILES C[C@@H]1O[C@H](OC[C@H]2O[C@@H](Oc3c(-c4ccc(O)c(O)c4)oc4cc(O)cc(O)c4c3=O)[C@H](O)[C@H](O)[C@@H]2O)[C@H](O)[C@H](O)[C@H]1O
REMARK SMILES IDX 7 1 36 2 34 3 32 4 9 5 8 6 6 7 5 8 4 9 1 10 2 11 42 12 3 13
REMARK SMILES IDX 40 14 38 15 43 16 41 18 39 20 37 22 35 24 10 26 11 27 12 28
REMARK SMILES IDX 30 29 21 30 29 31 31 32 22 33 27 34 23 35 26 36 24 37 13 38
REMARK SMILES IDX 20 39 14 40 18 41 15 42 16 43 19 44 17 46 28 48 25 50 33 52
REMARK H PARENT 43 17 41 19 39 21 37 23 35 25 19 45 17 47 28 49 25 51 33 53
REMARK Flexibility Score: inf
ROOT
ATOM      1  C   UNL     1     -15.105  38.625   0.042  1.00  0.00     0.180 C 
ATOM      2  C   UNL     1     -16.221  37.745  -0.607  1.00  0.00     0.177 C 
ATOM      3  C   UNL     1     -16.014  37.663  -2.126  1.00  0.00     0.180 C 
ATOM      4  C   UNL     1     -15.910  39.075  -2.712  1.00  0.00     0.214 C 
ATOM      5  C   UNL     1     -14.734  39.823  -2.019  1.00  0.00     0.339 C 
ATOM      6  O   UNL     1     -14.895  39.882  -0.603  1.00  0.00    -0.332 OA
ENDROOT
BRANCH   1   7
ATOM      7  C   UNL     1     -13.768  37.913   0.359  1.00  0.00     0.198 C 
BRANCH   7   8
ATOM      8  O   UNL     1     -13.936  36.525   0.553  1.00  0.00    -0.347 OA
BRANCH   8   9
ATOM      9  C   UNL     1     -13.202  36.081   1.684  1.00  0.00     0.281 C 
ATOM     10  C   UNL     1     -16.255  36.850   2.985  1.00  0.00     0.041 C 
ATOM     11  C   UNL     1     -15.151  35.786   3.031  1.00  0.00     0.150 C 
ATOM     12  C   UNL     1     -15.497  34.591   2.074  1.00  0.00     0.174 C 
ATOM     13  O   UNL     1     -13.900  36.444   2.859  1.00  0.00    -0.344 OA
ATOM     14  C   UNL     1     -14.284  33.798   1.540  1.00  0.00     0.179 C 
ATOM     15  C   UNL     1     -12.968  34.569   1.655  1.00  0.00     0.202 C 
BRANCH  12  16
ATOM     16  O   UNL     1     -16.347  33.692   2.742  1.00  0.00    -0.388 OA
ATOM     17  H   UNL     1     -16.263  33.856   3.721  1.00  0.00     0.211 HD
ENDBRANCH  12  16
BRANCH  14  18
ATOM     18  O   UNL     1     -14.513  33.458   0.193  1.00  0.00    -0.387 OA
ATOM     19  H   UNL     1     -15.486  33.579   0.014  1.00  0.00     0.211 HD
ENDBRANCH  14  18
BRANCH  15  20
ATOM     20  O   UNL     1     -12.096  34.222   0.603  1.00  0.00    -0.385 OA
ATOM     21  H   UNL     1     -11.679  33.350   0.850  1.00  0.00     0.211 HD
ENDBRANCH  15  20
ENDBRANCH   8   9
ENDBRANCH   7   8
ENDBRANCH   1   7
BRANCH   2  22
ATOM     22  O   UNL     1     -17.496  38.298  -0.347  1.00  0.00    -0.387 OA
ATOM     23  H   UNL     1     -17.910  37.749   0.370  1.00  0.00     0.211 HD
ENDBRANCH   2  22
BRANCH   3  24
ATOM     24  O   UNL     1     -17.058  36.947  -2.734  1.00  0.00    -0.387 OA
ATOM     25  H   UNL     1     -17.483  37.558  -3.391  1.00  0.00     0.211 HD
ENDBRANCH   3  24
BRANCH   5  26
ATOM     26  O   UNL     1     -13.477  39.245  -2.400  1.00  0.00    -0.454 OA
BRANCH  26  27
ATOM     27  C   UNL     1     -12.991  39.345  -3.717  1.00  0.00     0.214 A 
ATOM     28  C   UNL     1     -12.308  38.267  -4.314  1.00  0.00     0.180 A 
ATOM     29  C   UNL     1     -12.998  40.586  -4.363  1.00  0.00     0.239 A 
ATOM     30  O   UNL     1     -11.486  38.509  -5.336  1.00  0.00    -0.452 OA
ATOM     31  C   UNL     1     -12.139  40.793  -5.465  1.00  0.00     0.111 A 
ATOM     32  O   UNL     1     -13.699  41.521  -3.906  1.00  0.00    -0.285 OA
ATOM     33  C   UNL     1     -11.331  39.711  -5.876  1.00  0.00     0.146 A 
ATOM     34  C   UNL     1     -11.951  42.065  -6.059  1.00  0.00     0.134 A 
ATOM     35  C   UNL     1     -10.314  39.918  -6.819  1.00  0.00     0.094 A 
ATOM     36  C   UNL     1     -10.836  42.285  -6.877  1.00  0.00     0.093 A 
ATOM     37  C   UNL     1     -10.015  41.218  -7.244  1.00  0.00     0.123 A 
BRANCH  28  38
ATOM     38  C   UNL     1     -12.403  36.875  -3.791  1.00  0.00     0.025 A 
ATOM     39  C   UNL     1     -13.652  36.272  -3.537  1.00  0.00     0.062 A 
ATOM     40  C   UNL     1     -11.229  36.127  -3.565  1.00  0.00     0.016 A 
ATOM     41  C   UNL     1     -13.726  34.988  -2.969  1.00  0.00     0.158 A 
ATOM     42  C   UNL     1     -11.295  34.829  -3.032  1.00  0.00     0.051 A 
ATOM     43  C   UNL     1     -12.542  34.269  -2.720  1.00  0.00     0.157 A 
BRANCH  41  44
ATOM     44  O   UNL     1     -14.957  34.424  -2.654  1.00  0.00    -0.504 OA
ATOM     45  H   UNL     1     -15.032  33.525  -2.190  1.00  0.00     0.293 HD
ENDBRANCH  41  44
BRANCH  43  46
ATOM     46  O   UNL     1     -12.620  32.978  -2.187  1.00  0.00    -0.504 OA
ATOM     47  H   UNL     1     -11.861  32.569  -1.656  1.00  0.00     0.293 HD
ENDBRANCH  43  46
ENDBRANCH  28  38
BRANCH  34  48
ATOM     48  O   UNL     1     -12.856  43.112  -5.880  1.00  0.00    -0.507 OA
ATOM     49  H   UNL     1     -12.517  44.034  -5.702  1.00  0.00     0.293 HD
ENDBRANCH  34  48
BRANCH  37  50
ATOM     50  O   UNL     1      -8.878  41.440  -8.024  1.00  0.00    -0.508 OA
ATOM     51  H   UNL     1      -8.939  41.433  -9.035  1.00  0.00     0.293 HD
ENDBRANCH  37  50
ENDBRANCH  26  27
ENDBRANCH   5  26
BRANCH   4  52
ATOM     52  O   UNL     1     -17.142  39.761  -2.623  1.00  0.00    -0.384 OA
ATOM     53  H   UNL     1     -17.748  39.295  -1.989  1.00  0.00     0.211 HD
ENDBRANCH   4  52
TORSDOF 16
ENDMDL
MODEL 2
REMARK VINA RESULT:    -6.618      2.037      6.740
REMARK INTER + INTRA:         -13.089
REMARK INTER:                 -10.328
REMARK INTRA:                  -2.761
REMARK UNBOUND:                -2.214
REMARK SMILES C[C@@H]1O[C@H](OC[C@H]2O[C@@H](Oc3c(-c4ccc(O)c(O)c4)oc4cc(O)cc(O)c4c3=O)[C@H](O)[C@H](O)[C@@H]2O)[C@H](O)[C@H](O)[C@H]1O
REMARK SMILES IDX 7 1 36 2 34 3 32 4 9 5 8 6 6 7 5 8 4 9 1 10 2 11 42 12 3 13
REMARK SMILES IDX 40 14 38 15 43 16 41 18 39 20 37 22 35 24 10 26 11 27 12 28
REMARK SMILES IDX 30 29 21 30 29 31 31 32 22 33 27 34 23 35 26 36 24 37 13 38
REMARK SMILES IDX 20 39 14 40 18 41 15 42 16 43 19 44 17 46 28 48 25 50 33 52
REMARK H PARENT 43 17 41 19 39 21 37 23 35 25 19 45 17 47 28 49 25 51 33 53
REMARK Flexibility Score: inf
ROOT
ATOM      1  C   UNL     1     -11.342  34.906  -1.490  1.00  0.00     0.180 C 
ATOM      2  C   UNL     1     -10.483  35.288  -2.739  1.00  0.00     0.177 C 
ATOM      3  C   UNL     1     -11.189  36.382  -3.551  1.00  0.00     0.180 C 
ATOM      4  C   UNL     1     -12.618  35.941  -3.885  1.00  0.00     0.214 C 
ATOM      5  C   UNL     1     -13.376  35.642  -2.559  1.00  0.00     0.339 C 
ATOM      6  O   UNL     1     -12.717  34.648  -1.776  1.00  0.00    -0.332 OA
ENDROOT
BRANCH   1   7
ATOM      7  C   UNL     1     -11.175  35.806  -0.243  1.00  0.00     0.198 C 
BRANCH   7   8
ATOM      8  O   UNL     1     -12.145  35.532   0.746  1.00  0.00    -0.347 OA
BRANCH   8   9
ATOM      9  C   UNL     1     -11.606  35.714   2.047  1.00  0.00     0.281 C 
ATOM     10  C   UNL     1     -12.707  38.828   1.213  1.00  0.00     0.041 C 
ATOM     11  C   UNL     1     -12.681  37.822   2.369  1.00  0.00     0.150 C 
ATOM     12  C   UNL     1     -14.021  37.006   2.420  1.00  0.00     0.174 C 
ATOM     13  O   UNL     1     -11.456  37.098   2.295  1.00  0.00    -0.344 OA
ATOM     14  C   UNL     1     -13.920  35.606   3.065  1.00  0.00     0.179 C 
ATOM     15  C   UNL     1     -12.486  35.077   3.124  1.00  0.00     0.202 C 
BRANCH  12  16
ATOM     16  O   UNL     1     -14.988  37.743   3.125  1.00  0.00    -0.388 OA
ATOM     17  H   UNL     1     -15.216  38.549   2.586  1.00  0.00     0.211 HD
ENDBRANCH  12  16
BRANCH  14  18
ATOM     18  O   UNL     1     -14.723  34.705   2.339  1.00  0.00    -0.387 OA
ATOM     19  H   UNL     1     -15.275  34.199   2.996  1.00  0.00     0.211 HD
ENDBRANCH  14  18
BRANCH  15  20
ATOM     20  O   UNL     1     -12.470  33.672   3.010  1.00  0.00    -0.385 OA
ATOM     21  H   UNL     1     -13.324  33.341   3.405  1.00  0.00     0.211 HD
ENDBRANCH  15  20
ENDBRANCH   8   9
ENDBRANCH   7   8
ENDBRANCH   1   7
BRANCH   2  22
ATOM     22  O   UNL     1     -10.288  34.158  -3.565  1.00  0.00    -0.387 OA
ATOM     23  H   UNL     1     -10.317  34.477  -4.505  1.00  0.00     0.211 HD
ENDBRANCH   2  22
BRANCH   3  24
ATOM     24  O   UNL     1     -10.471  36.675  -4.723  1.00  0.00    -0.387 OA
ATOM     25  H   UNL     1     -10.797  37.555  -5.047  1.00  0.00     0.211 HD
ENDBRANCH   3  24
BRANCH   5  26
ATOM     26  O   UNL     1     -13.599  36.853  -1.823  1.00  0.00    -0.454 OA
BRANCH  26  27
ATOM     27  C   UNL     1     -14.897  37.290  -1.502  1.00  0.00     0.214 A 
ATOM     28  C   UNL     1     -15.336  38.575  -1.877  1.00  0.00     0.180 A 
ATOM     29  C   UNL     1     -15.684  36.532  -0.628  1.00  0.00     0.239 A 
ATOM     30  O   UNL     1     -16.345  39.134  -1.208  1.00  0.00    -0.452 OA
ATOM     31  C   UNL     1     -16.767  37.151   0.035  1.00  0.00     0.111 A 
ATOM     32  O   UNL     1     -15.369  35.344  -0.380  1.00  0.00    -0.285 OA
ATOM     33  C   UNL     1     -17.016  38.511  -0.248  1.00  0.00     0.146 A 
ATOM     34  C   UNL     1     -17.499  36.512   1.066  1.00  0.00     0.134 A 
ATOM     35  C   UNL     1     -17.935  39.229   0.531  1.00  0.00     0.094 A 
ATOM     36  C   UNL     1     -18.291  37.280   1.928  1.00  0.00     0.093 A 
ATOM     37  C   UNL     1     -18.497  38.635   1.667  1.00  0.00     0.123 A 
BRANCH  28  38
ATOM     38  C   UNL     1     -14.657  39.372  -2.938  1.00  0.00     0.025 A 
ATOM     39  C   UNL     1     -14.280  38.785  -4.164  1.00  0.00     0.062 A 
ATOM     40  C   UNL     1     -14.406  40.744  -2.735  1.00  0.00     0.016 A 
ATOM     41  C   UNL     1     -13.570  39.527  -5.125  1.00  0.00     0.158 A 
ATOM     42  C   UNL     1     -13.729  41.501  -3.705  1.00  0.00     0.051 A 
ATOM     43  C   UNL     1     -13.299  40.887  -4.890  1.00  0.00     0.157 A 
BRANCH  41  44
ATOM     44  O   UNL     1     -13.136  38.928  -6.302  1.00  0.00    -0.504 OA
ATOM     45  H   UNL     1     -13.595  38.112  -6.690  1.00  0.00     0.293 HD
ENDBRANCH  41  44
BRANCH  43  46
ATOM     46  O   UNL     1     -12.622  41.632  -5.863  1.00  0.00    -0.504 OA
ATOM     47  H   UNL     1     -11.634  41.840  -5.790  1.00  0.00     0.293 HD
ENDBRANCH  43  46
ENDBRANCH  28  38
BRANCH  34  48
ATOM     48  O   UNL     1     -17.480  35.127   1.244  1.00  0.00    -0.507 OA
ATOM     49  H   UNL     1     -17.543  34.525   0.449  1.00  0.00     0.293 HD
ENDBRANCH  34  48
BRANCH  37  50
ATOM     50  O   UNL     1     -19.251  39.415   2.547  1.00  0.00    -0.508 OA
ATOM     51  H   UNL     1     -20.112  39.056   2.943  1.00  0.00     0.293 HD
ENDBRANCH  37  50
ENDBRANCH  26  27
ENDBRANCH   5  26
BRANCH   4  52
ATOM     52  O   UNL     1     -12.623  34.857  -4.791  1.00  0.00    -0.384 OA
ATOM     53  H   UNL     1     -13.177  34.115  -4.434  1.00  0.00     0.211 HD
ENDBRANCH   4  52
TORSDOF 16
ENDMDL
MODEL 3
REMARK VINA RESULT:    -6.534      2.122      7.070
REMARK INTER + INTRA:         -12.949
REMARK INTER:                 -10.322
REMARK INTRA:                  -2.627
REMARK UNBOUND:                -2.214
REMARK SMILES C[C@@H]1O[C@H](OC[C@H]2O[C@@H](Oc3c(-c4ccc(O)c(O)c4)oc4cc(O)cc(O)c4c3=O)[C@H](O)[C@H](O)[C@@H]2O)[C@H](O)[C@H](O)[C@H]1O
REMARK SMILES IDX 7 1 36 2 34 3 32 4 9 5 8 6 6 7 5 8 4 9 1 10 2 11 42 12 3 13
REMARK SMILES IDX 40 14 38 15 43 16 41 18 39 20 37 22 35 24 10 26 11 27 12 28
REMARK SMILES IDX 30 29 21 30 29 31 31 32 22 33 27 34 23 35 26 36 24 37 13 38
REMARK SMILES IDX 20 39 14 40 18 41 15 42 16 43 19 44 17 46 28 48 25 50 33 52
REMARK H PARENT 43 17 41 19 39 21 37 23 35 25 19 45 17 47 28 49 25 51 33 53
REMARK Flexibility Score: inf
ROOT
ATOM      1  C   UNL     1     -12.619  33.075  -1.662  1.00  0.00     0.180 C 
ATOM      2  C   UNL     1     -11.118  33.368  -1.987  1.00  0.00     0.177 C 
ATOM      3  C   UNL     1     -10.882  34.883  -2.068  1.00  0.00     0.180 C 
ATOM      4  C   UNL     1     -11.872  35.511  -3.055  1.00  0.00     0.214 C 
ATOM      5  C   UNL     1     -13.321  35.188  -2.590  1.00  0.00     0.339 C 
ATOM      6  O   UNL     1     -13.550  33.784  -2.479  1.00  0.00    -0.332 OA
ENDROOT
BRANCH   1   7
ATOM      7  C   UNL     1     -13.017  33.120  -0.167  1.00  0.00     0.198 C 
BRANCH   7   8
ATOM      8  O   UNL     1     -12.253  34.058   0.561  1.00  0.00    -0.347 OA
BRANCH   8   9
ATOM      9  C   UNL     1     -12.237  33.732   1.943  1.00  0.00     0.281 C 
ATOM     10  C   UNL     1      -8.963  34.362   1.248  1.00  0.00     0.041 C 
ATOM     11  C   UNL     1     -10.053  34.633   2.291  1.00  0.00     0.150 C 
ATOM     12  C   UNL     1     -10.713  36.036   2.046  1.00  0.00     0.174 C 
ATOM     13  O   UNL     1     -10.904  33.492   2.344  1.00  0.00    -0.344 OA
ATOM     14  C   UNL     1     -12.163  36.186   2.560  1.00  0.00     0.179 C 
ATOM     15  C   UNL     1     -12.854  34.842   2.797  1.00  0.00     0.202 C 
BRANCH  12  16
ATOM     16  O   UNL     1      -9.930  37.032   2.655  1.00  0.00    -0.388 OA
ATOM     17  H   UNL     1      -9.070  37.097   2.154  1.00  0.00     0.211 HD
ENDBRANCH  12  16
BRANCH  14  18
ATOM     18  O   UNL     1     -12.906  36.938   1.631  1.00  0.00    -0.387 OA
ATOM     19  H   UNL     1     -12.383  36.970   0.784  1.00  0.00     0.211 HD
ENDBRANCH  14  18
BRANCH  15  20
ATOM     20  O   UNL     1     -14.238  34.946   2.552  1.00  0.00    -0.385 OA
ATOM     21  H   UNL     1     -14.690  34.939   3.441  1.00  0.00     0.211 HD
ENDBRANCH  15  20
ENDBRANCH   8   9
ENDBRANCH   7   8
ENDBRANCH   1   7
BRANCH   2  22
ATOM     22  O   UNL     1     -10.760  32.782  -3.221  1.00  0.00    -0.387 OA
ATOM     23  H   UNL     1     -11.411  32.052  -3.396  1.00  0.00     0.211 HD
ENDBRANCH   2  22
BRANCH   3  24
ATOM     24  O   UNL     1      -9.557  35.162  -2.444  1.00  0.00    -0.387 OA
ATOM     25  H   UNL     1      -9.498  35.008  -3.423  1.00  0.00     0.211 HD
ENDBRANCH   3  24
BRANCH   5  26
ATOM     26  O   UNL     1     -13.625  35.885  -1.373  1.00  0.00    -0.454 OA
BRANCH  26  27
ATOM     27  C   UNL     1     -14.866  36.523  -1.182  1.00  0.00     0.214 A 
ATOM     28  C   UNL     1     -15.096  37.814  -1.695  1.00  0.00     0.180 A 
ATOM     29  C   UNL     1     -15.799  35.964  -0.302  1.00  0.00     0.239 A 
ATOM     30  O   UNL     1     -16.053  38.565  -1.149  1.00  0.00    -0.452 OA
ATOM     31  C   UNL     1     -16.820  36.784   0.228  1.00  0.00     0.111 A 
ATOM     32  O   UNL     1     -15.670  34.773   0.068  1.00  0.00    -0.285 OA
ATOM     33  C   UNL     1     -16.858  38.132  -0.187  1.00  0.00     0.146 A 
ATOM     34  C   UNL     1     -17.692  36.350   1.257  1.00  0.00     0.134 A 
ATOM     35  C   UNL     1     -17.709  39.039   0.462  1.00  0.00     0.094 A 
ATOM     36  C   UNL     1     -18.415  37.297   1.993  1.00  0.00     0.093 A 
ATOM     37  C   UNL     1     -18.412  38.636   1.603  1.00  0.00     0.123 A 
BRANCH  28  38
ATOM     38  C   UNL     1     -14.253  38.407  -2.771  1.00  0.00     0.025 A 
ATOM     39  C   UNL     1     -13.102  39.162  -2.466  1.00  0.00     0.062 A 
ATOM     40  C   UNL     1     -14.587  38.195  -4.125  1.00  0.00     0.016 A 
ATOM     41  C   UNL     1     -12.361  39.783  -3.486  1.00  0.00     0.158 A 
ATOM     42  C   UNL     1     -13.831  38.781  -5.152  1.00  0.00     0.051 A 
ATOM     43  C   UNL     1     -12.729  39.587  -4.830  1.00  0.00     0.157 A 
BRANCH  41  44
ATOM     44  O   UNL     1     -11.268  40.586  -3.179  1.00  0.00    -0.504 OA
ATOM     45  H   UNL     1     -11.252  41.576  -3.396  1.00  0.00     0.293 HD
ENDBRANCH  41  44
BRANCH  43  46
ATOM     46  O   UNL     1     -11.969  40.178  -5.846  1.00  0.00    -0.504 OA
ATOM     47  H   UNL     1     -11.470  39.627  -6.534  1.00  0.00     0.293 HD
ENDBRANCH  43  46
ENDBRANCH  28  38
BRANCH  34  48
ATOM     48  O   UNL     1     -17.878  34.999   1.555  1.00  0.00    -0.507 OA
ATOM     49  H   UNL     1     -18.724  34.544   1.280  1.00  0.00     0.293 HD
ENDBRANCH  34  48
BRANCH  37  50
ATOM     50  O   UNL     1     -19.097  39.591   2.359  1.00  0.00    -0.508 OA
ATOM     51  H   UNL     1     -19.617  40.331   1.902  1.00  0.00     0.293 HD
ENDBRANCH  37  50
ENDBRANCH  26  27
ENDBRANCH   5  26
BRANCH   4  52
ATOM     52  O   UNL     1     -11.603  35.103  -4.381  1.00  0.00    -0.384 OA
ATOM     53  H   UNL     1     -11.695  34.118  -4.461  1.00  0.00     0.211 HD
ENDBRANCH   4  52
TORSDOF 16
ENDMDL
MODEL 4
REMARK VINA RESULT:    -6.398      1.470      2.079
REMARK INTER + INTRA:         -12.727
REMARK INTER:                  -9.961
REMARK INTRA:                  -2.766
REMARK UNBOUND:                -2.214
REMARK SMILES C[C@@H]1O[C@H](OC[C@H]2O[C@@H](Oc3c(-c4ccc(O)c(O)c4)oc4cc(O)cc(O)c4c3=O)[C@H](O)[C@H](O)[C@@H]2O)[C@H](O)[C@H](O)[C@H]1O
REMARK SMILES IDX 7 1 36 2 34 3 32 4 9 5 8 6 6 7 5 8 4 9 1 10 2 11 42 12 3 13
REMARK SMILES IDX 40 14 38 15 43 16 41 18 39 20 37 22 35 24 10 26 11 27 12 28
REMARK SMILES IDX 30 29 21 30 29 31 31 32 22 33 27 34 23 35 26 36 24 37 13 38
REMARK SMILES IDX 20 39 14 40 18 41 15 42 16 43 19 44 17 46 28 48 25 50 33 52
REMARK H PARENT 43 17 41 19 39 21 37 23 35 25 19 45 17 47 28 49 25 51 33 53
REMARK Flexibility Score: inf
ROOT
ATOM      1  C   UNL     1     -15.539  37.074  -0.008  1.00  0.00     0.180 C 
ATOM      2  C   UNL     1     -15.773  35.705  -0.726  1.00  0.00     0.177 C 
ATOM      3  C   UNL     1     -15.226  35.759  -2.159  1.00  0.00     0.180 C 
ATOM      4  C   UNL     1     -15.820  36.964  -2.897  1.00  0.00     0.214 C 
ATOM      5  C   UNL     1     -15.473  38.259  -2.108  1.00  0.00     0.339 C 
ATOM      6  O   UNL     1     -15.948  38.214  -0.763  1.00  0.00    -0.332 OA
ENDROOT
BRANCH   1   7
ATOM      7  C   UNL     1     -14.146  37.281   0.633  1.00  0.00     0.198 C 
BRANCH   7   8
ATOM      8  O   UNL     1     -13.446  36.066   0.794  1.00  0.00    -0.347 OA
BRANCH   8   9
ATOM      9  C   UNL     1     -12.852  35.991   2.082  1.00  0.00     0.281 C 
ATOM     10  C   UNL     1     -15.779  34.292   2.470  1.00  0.00     0.041 C 
ATOM     11  C   UNL     1     -14.286  34.228   2.815  1.00  0.00     0.150 C 
ATOM     12  C   UNL     1     -13.520  33.326   1.784  1.00  0.00     0.174 C 
ATOM     13  O   UNL     1     -13.823  35.561   3.014  1.00  0.00    -0.344 OA
ATOM     14  C   UNL     1     -12.020  33.649   1.607  1.00  0.00     0.179 C 
ATOM     15  C   UNL     1     -11.648  35.048   2.101  1.00  0.00     0.202 C 
BRANCH  12  16
ATOM     16  O   UNL     1     -13.634  31.979   2.170  1.00  0.00    -0.388 OA
ATOM     17  H   UNL     1     -13.248  31.415   1.445  1.00  0.00     0.211 HD
ENDBRANCH  12  16
BRANCH  14  18
ATOM     18  O   UNL     1     -11.680  33.526   0.246  1.00  0.00    -0.387 OA
ATOM     19  H   UNL     1     -10.715  33.756   0.156  1.00  0.00     0.211 HD
ENDBRANCH  14  18
BRANCH  15  20
ATOM     20  O   UNL     1     -10.589  35.579   1.336  1.00  0.00    -0.385 OA
ATOM     21  H   UNL     1     -10.503  36.540   1.590  1.00  0.00     0.211 HD
ENDBRANCH  15  20
ENDBRANCH   8   9
ENDBRANCH   7   8
ENDBRANCH   1   7
BRANCH   2  22
ATOM     22  O   UNL     1     -17.153  35.406  -0.773  1.00  0.00    -0.387 OA
ATOM     23  H   UNL     1     -17.376  35.211  -1.722  1.00  0.00     0.211 HD
ENDBRANCH   2  22
BRANCH   3  24
ATOM     24  O   UNL     1     -15.506  34.566  -2.845  1.00  0.00    -0.387 OA
ATOM     25  H   UNL     1     -15.365  34.750  -3.811  1.00  0.00     0.211 HD
ENDBRANCH   3  24
BRANCH   5  26
ATOM     26  O   UNL     1     -14.065  38.528  -2.179  1.00  0.00    -0.454 OA
BRANCH  26  27
ATOM     27  C   UNL     1     -13.474  39.051  -3.344  1.00  0.00     0.214 A 
ATOM     28  C   UNL     1     -12.362  38.417  -3.931  1.00  0.00     0.180 A 
ATOM     29  C   UNL     1     -13.855  40.317  -3.802  1.00  0.00     0.239 A 
ATOM     30  O   UNL     1     -11.557  39.127  -4.723  1.00  0.00    -0.452 OA
ATOM     31  C   UNL     1     -12.991  41.023  -4.668  1.00  0.00     0.111 A 
ATOM     32  O   UNL     1     -14.910  40.842  -3.373  1.00  0.00    -0.285 OA
ATOM     33  C   UNL     1     -11.789  40.391  -5.052  1.00  0.00     0.146 A 
ATOM     34  C   UNL     1     -13.212  42.374  -5.033  1.00  0.00     0.134 A 
ATOM     35  C   UNL     1     -10.803  41.121  -5.732  1.00  0.00     0.094 A 
ATOM     36  C   UNL     1     -12.158  43.124  -5.571  1.00  0.00     0.093 A 
ATOM     37  C   UNL     1     -10.956  42.501  -5.906  1.00  0.00     0.123 A 
BRANCH  28  38
ATOM     38  C   UNL     1     -12.001  37.002  -3.633  1.00  0.00     0.025 A 
ATOM     39  C   UNL     1     -11.120  36.679  -2.579  1.00  0.00     0.062 A 
ATOM     40  C   UNL     1     -12.562  35.957  -4.395  1.00  0.00     0.016 A 
ATOM     41  C   UNL     1     -10.725  35.348  -2.359  1.00  0.00     0.158 A 
ATOM     42  C   UNL     1     -12.201  34.621  -4.157  1.00  0.00     0.051 A 
ATOM     43  C   UNL     1     -11.271  34.321  -3.151  1.00  0.00     0.157 A 
BRANCH  41  44
ATOM     44  O   UNL     1      -9.802  35.039  -1.367  1.00  0.00    -0.504 OA
ATOM     45  H   UNL     1      -8.811  35.218  -1.480  1.00  0.00     0.293 HD
ENDBRANCH  41  44
BRANCH  43  46
ATOM     46  O   UNL     1     -10.902  32.993  -2.908  1.00  0.00    -0.504 OA
ATOM     47  H   UNL     1     -10.637  32.670  -1.986  1.00  0.00     0.293 HD
ENDBRANCH  43  46
ENDBRANCH  28  38
BRANCH  34  48
ATOM     48  O   UNL     1     -14.458  42.988  -4.899  1.00  0.00    -0.507 OA
ATOM     49  H   UNL     1     -14.658  43.530  -4.084  1.00  0.00     0.293 HD
ENDBRANCH  34  48
BRANCH  37  50
ATOM     50  O   UNL     1      -9.888  43.252  -6.402  1.00  0.00    -0.508 OA
ATOM     51  H   UNL     1      -9.997  44.242  -6.587  1.00  0.00     0.293 HD
ENDBRANCH  37  50
ENDBRANCH  26  27
ENDBRANCH   5  26
BRANCH   4  52
ATOM     52  O   UNL     1     -17.205  36.797  -3.120  1.00  0.00    -0.384 OA
ATOM     53  H   UNL     1     -17.608  37.651  -3.426  1.00  0.00     0.211 HD
ENDBRANCH   4  52
TORSDOF 16
ENDMDL
MODEL 5
REMARK VINA RESULT:    -6.361      2.141      6.665
REMARK INTER + INTRA:         -12.665
REMARK INTER:                 -10.226
REMARK INTRA:                  -2.439
REMARK UNBOUND:                -2.214
REMARK SMILES C[C@@H]1O[C@H](OC[C@H]2O[C@@H](Oc3c(-c4ccc(O)c(O)c4)oc4cc(O)cc(O)c4c3=O)[C@H](O)[C@H](O)[C@@H]2O)[C@H](O)[C@H](O)[C@H]1O
REMARK SMILES IDX 7 1 36 2 34 3 32 4 9 5 8 6 6 7 5 8 4 9 1 10 2 11 42 12 3 13
REMARK SMILES IDX 40 14 38 15 43 16 41 18 39 20 37 22 35 24 10 26 11 27 12 28
REMARK SMILES IDX 30 29 21 30 29 31 31 32 22 33 27 34 23 35 26 36 24 37 13 38
REMARK SMILES IDX 20 39 14 40 18 41 15 42 16 43 19 44 17 46 28 48 25 50 33 52
REMARK H PARENT 43 17 41 19 39 21 37 23 35 25 19 45 17 47 28 49 25 51 33 53
REMARK Flexibility Score: inf
ROOT
ATOM      1  C   UNL     1     -12.419  39.559  -2.291  1.00  0.00     0.180 C 
ATOM      2  C   UNL     1     -12.443  40.692  -3.368  1.00  0.00     0.177 C 
ATOM      3  C   UNL     1     -13.384  40.308  -4.518  1.00  0.00     0.180 C 
ATOM      4  C   UNL     1     -12.999  38.930  -5.067  1.00  0.00     0.214 C 
ATOM      5  C   UNL     1     -13.065  37.891  -3.910  1.00  0.00     0.339 C 
ATOM      6  O   UNL     1     -12.218  38.248  -2.818  1.00  0.00    -0.332 OA
ENDROOT
BRANCH   1   7
ATOM      7  C   UNL     1     -13.557  39.587  -1.243  1.00  0.00     0.198 C 
BRANCH   7   8
ATOM      8  O   UNL     1     -13.383  38.608  -0.240  1.00  0.00    -0.347 OA
BRANCH   8   9
ATOM      9  C   UNL     1     -12.553  39.096   0.804  1.00  0.00     0.281 C 
ATOM     10  C   UNL     1     -15.238  37.824   2.468  1.00  0.00     0.041 C 
ATOM     11  C   UNL     1     -13.707  37.880   2.504  1.00  0.00     0.150 C 
ATOM     12  C   UNL     1     -13.093  36.594   1.845  1.00  0.00     0.174 C 
ATOM     13  O   UNL     1     -13.301  39.150   2.001  1.00  0.00    -0.344 OA
ATOM     14  C   UNL     1     -11.677  36.764   1.251  1.00  0.00     0.179 C 
ATOM     15  C   UNL     1     -11.309  38.227   0.996  1.00  0.00     0.202 C 
BRANCH  12  16
ATOM     16  O   UNL     1     -13.046  35.561   2.798  1.00  0.00    -0.388 OA
ATOM     17  H   UNL     1     -12.089  35.341   2.967  1.00  0.00     0.211 HD
ENDBRANCH  12  16
BRANCH  14  18
ATOM     18  O   UNL     1     -11.594  36.042   0.045  1.00  0.00    -0.387 OA
ATOM     19  H   UNL     1     -10.642  36.062  -0.250  1.00  0.00     0.211 HD
ENDBRANCH  14  18
BRANCH  15  20
ATOM     20  O   UNL     1     -10.450  38.335  -0.116  1.00  0.00    -0.385 OA
ATOM     21  H   UNL     1      -9.594  37.890   0.136  1.00  0.00     0.211 HD
ENDBRANCH  15  20
ENDBRANCH   8   9
ENDBRANCH   7   8
ENDBRANCH   1   7
BRANCH   2  22
ATOM     22  O   UNL     1     -11.146  40.902  -3.888  1.00  0.00    -0.387 OA
ATOM     23  H   UNL     1     -11.251  41.114  -4.853  1.00  0.00     0.211 HD
ENDBRANCH   2  22
BRANCH   3  24
ATOM     24  O   UNL     1     -13.350  41.276  -5.535  1.00  0.00    -0.387 OA
ATOM     25  H   UNL     1     -12.522  41.115  -6.058  1.00  0.00     0.211 HD
ENDBRANCH   3  24
BRANCH   5  26
ATOM     26  O   UNL     1     -14.423  37.682  -3.498  1.00  0.00    -0.454 OA
BRANCH  26  27
ATOM     27  C   UNL     1     -14.799  36.552  -2.747  1.00  0.00     0.214 A 
ATOM     28  C   UNL     1     -15.828  36.637  -1.790  1.00  0.00     0.180 A 
ATOM     29  C   UNL     1     -14.011  35.397  -2.799  1.00  0.00     0.239 A 
ATOM     30  O   UNL     1     -15.870  35.738  -0.805  1.00  0.00    -0.452 OA
ATOM     31  C   UNL     1     -14.109  34.451  -1.754  1.00  0.00     0.111 A 
ATOM     32  O   UNL     1     -13.172  35.257  -3.720  1.00  0.00    -0.285 OA
ATOM     33  C   UNL     1     -15.030  34.714  -0.718  1.00  0.00     0.146 A 
ATOM     34  C   UNL     1     -13.226  33.350  -1.634  1.00  0.00     0.134 A 
ATOM     35  C   UNL     1     -15.019  33.927   0.442  1.00  0.00     0.094 A 
ATOM     36  C   UNL     1     -13.125  32.677  -0.410  1.00  0.00     0.093 A 
ATOM     37  C   UNL     1     -14.010  32.975   0.626  1.00  0.00     0.123 A 
BRANCH  28  38
ATOM     38  C   UNL     1     -16.824  37.745  -1.785  1.00  0.00     0.025 A 
ATOM     39  C   UNL     1     -17.014  38.553  -0.644  1.00  0.00     0.062 A 
ATOM     40  C   UNL     1     -17.580  38.017  -2.944  1.00  0.00     0.016 A 
ATOM     41  C   UNL     1     -18.012  39.543  -0.625  1.00  0.00     0.158 A 
ATOM     42  C   UNL     1     -18.554  39.028  -2.945  1.00  0.00     0.051 A 
ATOM     43  C   UNL     1     -18.779  39.778  -1.782  1.00  0.00     0.157 A 
BRANCH  41  44
ATOM     44  O   UNL     1     -18.246  40.290   0.523  1.00  0.00    -0.504 OA
ATOM     45  H   UNL     1     -17.833  41.206   0.661  1.00  0.00     0.293 HD
ENDBRANCH  41  44
BRANCH  43  46
ATOM     46  O   UNL     1     -19.749  40.787  -1.771  1.00  0.00    -0.504 OA
ATOM     47  H   UNL     1     -20.165  41.141  -2.624  1.00  0.00     0.293 HD
ENDBRANCH  43  46
ENDBRANCH  28  38
BRANCH  34  48
ATOM     48  O   UNL     1     -12.460  32.889  -2.707  1.00  0.00    -0.507 OA
ATOM     49  H   UNL     1     -11.912  33.535  -3.237  1.00  0.00     0.293 HD
ENDBRANCH  34  48
BRANCH  37  50
ATOM     50  O   UNL     1     -13.887  32.336   1.863  1.00  0.00    -0.508 OA
ATOM     51  H   UNL     1     -14.639  32.378   2.540  1.00  0.00     0.293 HD
ENDBRANCH  37  50
ENDBRANCH  26  27
ENDBRANCH   5  26
BRANCH   4  52
ATOM     52  O   UNL     1     -11.745  38.968  -5.717  1.00  0.00    -0.384 OA
ATOM     53  H   UNL     1     -11.165  38.234  -5.385  1.00  0.00     0.211 HD
ENDBRANCH   4  52
TORSDOF 16
ENDMDL
MODEL 6
REMARK VINA RESULT:    -6.325      1.864      3.675
REMARK INTER + INTRA:         -12.607
REMARK INTER:                 -10.433
REMARK INTRA:                  -2.174
REMARK UNBOUND:                -2.214
REMARK SMILES C[C@@H]1O[C@H](OC[C@H]2O[C@@H](Oc3c(-c4ccc(O)c(O)c4)oc4cc(O)cc(O)c4c3=O)[C@H](O)[C@H](O)[C@@H]2O)[C@H](O)[C@H](O)[C@H]1O
REMARK SMILES IDX 7 1 36 2 34 3 32 4 9 5 8 6 6 7 5 8 4 9 1 10 2 11 42 12 3 13
REMARK SMILES IDX 40 14 38 15 43 16 41 18 39 20 37 22 35 24 10 26 11 27 12 28
REMARK SMILES IDX 30 29 21 30 29 31 31 32 22 33 27 34 23 35 26 36 24 37 13 38
REMARK SMILES IDX 20 39 14 40 18 41 15 42 16 43 19 44 17 46 28 48 25 50 33 52
REMARK H PARENT 43 17 41 19 39 21 37 23 35 25 19 45 17 47 28 49 25 51 33 53
REMARK Flexibility Score: inf
ROOT
ATOM      1  C   UNL     1     -12.812  38.591   0.573  1.00  0.00     0.180 C 
ATOM      2  C   UNL     1     -12.031  39.884   0.972  1.00  0.00     0.177 C 
ATOM      3  C   UNL     1     -11.480  40.578  -0.282  1.00  0.00     0.180 C 
ATOM      4  C   UNL     1     -10.661  39.581  -1.109  1.00  0.00     0.214 C 
ATOM      5  C   UNL     1     -11.566  38.371  -1.481  1.00  0.00     0.339 C 
ATOM      6  O   UNL     1     -12.112  37.733  -0.327  1.00  0.00    -0.332 OA
ENDROOT
BRANCH   1   7
ATOM      7  C   UNL     1     -14.287  38.785   0.149  1.00  0.00     0.198 C 
BRANCH   7   8
ATOM      8  O   UNL     1     -14.857  37.599  -0.362  1.00  0.00    -0.347 OA
BRANCH   8   9
ATOM      9  C   UNL     1     -16.171  37.411   0.142  1.00  0.00     0.281 C 
ATOM     10  C   UNL     1     -16.649  39.423  -2.564  1.00  0.00     0.041 C 
ATOM     11  C   UNL     1     -17.218  38.187  -1.859  1.00  0.00     0.150 C 
ATOM     12  C   UNL     1     -16.672  36.873  -2.523  1.00  0.00     0.174 C 
ATOM     13  O   UNL     1     -17.034  38.357  -0.456  1.00  0.00    -0.344 OA
ATOM     14  C   UNL     1     -16.628  35.634  -1.601  1.00  0.00     0.179 C 
ATOM     15  C   UNL     1     -16.682  35.992  -0.115  1.00  0.00     0.202 C 
BRANCH  12  16
ATOM     16  O   UNL     1     -17.459  36.556  -3.643  1.00  0.00    -0.388 OA
ATOM     17  H   UNL     1     -17.263  35.614  -3.902  1.00  0.00     0.211 HD
ENDBRANCH  12  16
BRANCH  14  18
ATOM     18  O   UNL     1     -15.452  34.906  -1.865  1.00  0.00    -0.387 OA
ATOM     19  H   UNL     1     -14.733  35.563  -2.073  1.00  0.00     0.211 HD
ENDBRANCH  14  18
BRANCH  15  20
ATOM     20  O   UNL     1     -15.956  35.056   0.648  1.00  0.00    -0.385 OA
ATOM     21  H   UNL     1     -16.251  34.151   0.352  1.00  0.00     0.211 HD
ENDBRANCH  15  20
ENDBRANCH   8   9
ENDBRANCH   7   8
ENDBRANCH   1   7
BRANCH   2  22
ATOM     22  O   UNL     1     -10.953  39.563   1.829  1.00  0.00    -0.387 OA
ATOM     23  H   UNL     1     -10.634  40.415   2.226  1.00  0.00     0.211 HD
ENDBRANCH   2  22
BRANCH   3  24
ATOM     24  O   UNL     1     -10.702  41.694   0.066  1.00  0.00    -0.387 OA
ATOM     25  H   UNL     1     -10.616  41.688   1.055  1.00  0.00     0.211 HD
ENDBRANCH   3  24
BRANCH   5  26
ATOM     26  O   UNL     1     -12.582  38.771  -2.412  1.00  0.00    -0.454 OA
BRANCH  26  27
ATOM     27  C   UNL     1     -12.276  39.064  -3.754  1.00  0.00     0.214 A 
ATOM     28  C   UNL     1     -11.487  38.183  -4.519  1.00  0.00     0.180 A 
ATOM     29  C   UNL     1     -12.576  40.330  -4.269  1.00  0.00     0.239 A 
ATOM     30  O   UNL     1     -10.844  38.655  -5.589  1.00  0.00    -0.452 OA
ATOM     31  C   UNL     1     -11.899  40.780  -5.424  1.00  0.00     0.111 A 
ATOM     32  O   UNL     1     -13.373  41.079  -3.655  1.00  0.00    -0.285 OA
ATOM     33  C   UNL     1     -10.966  39.904  -6.019  1.00  0.00     0.146 A 
ATOM     34  C   UNL     1     -12.008  42.109  -5.905  1.00  0.00     0.134 A 
ATOM     35  C   UNL     1     -10.117  40.372  -7.032  1.00  0.00     0.094 A 
ATOM     36  C   UNL     1     -11.051  42.597  -6.803  1.00  0.00     0.093 A 
ATOM     37  C   UNL     1     -10.103  41.734  -7.353  1.00  0.00     0.123 A 
BRANCH  28  38
ATOM     38  C   UNL     1     -11.274  36.761  -4.131  1.00  0.00     0.025 A 
ATOM     39  C   UNL     1     -12.357  35.928  -3.780  1.00  0.00     0.062 A 
ATOM     40  C   UNL     1      -9.973  36.218  -4.136  1.00  0.00     0.016 A 
ATOM     41  C   UNL     1     -12.136  34.612  -3.339  1.00  0.00     0.158 A 
ATOM     42  C   UNL     1      -9.747  34.892  -3.731  1.00  0.00     0.051 A 
ATOM     43  C   UNL     1     -10.826  34.098  -3.319  1.00  0.00     0.157 A 
BRANCH  41  44
ATOM     44  O   UNL     1     -13.197  33.816  -2.925  1.00  0.00    -0.504 OA
ATOM     45  H   UNL     1     -14.098  33.838  -3.389  1.00  0.00     0.293 HD
ENDBRANCH  41  44
BRANCH  43  46
ATOM     46  O   UNL     1     -10.611  32.776  -2.912  1.00  0.00    -0.504 OA
ATOM     47  H   UNL     1      -9.687  32.423  -2.696  1.00  0.00     0.293 HD
ENDBRANCH  43  46
ENDBRANCH  28  38
BRANCH  34  48
ATOM     48  O   UNL     1     -13.057  42.952  -5.534  1.00  0.00    -0.507 OA
ATOM     49  H   UNL     1     -13.994  42.714  -5.782  1.00  0.00     0.293 HD
ENDBRANCH  34  48
BRANCH  37  50
ATOM     50  O   UNL     1      -9.120  42.225  -8.216  1.00  0.00    -0.508 OA
ATOM     51  H   UNL     1      -9.029  43.221  -8.378  1.00  0.00     0.293 HD
ENDBRANCH  37  50
ENDBRANCH  26  27
ENDBRANCH   5  26
BRANCH   4  52
ATOM     52  O   UNL     1      -9.475  39.209  -0.437  1.00  0.00    -0.384 OA
ATOM     53  H   UNL     1      -9.479  39.566   0.489  1.00  0.00     0.211 HD
ENDBRANCH   4  52
TORSDOF 16
ENDMDL
MODEL 7
REMARK VINA RESULT:    -6.226      2.483      4.544
REMARK INTER + INTRA:         -12.444
REMARK INTER:                 -10.406
REMARK INTRA:                  -2.037
REMARK UNBOUND:                -2.214
REMARK SMILES C[C@@H]1O[C@H](OC[C@H]2O[C@@H](Oc3c(-c4ccc(O)c(O)c4)oc4cc(O)cc(O)c4c3=O)[C@H](O)[C@H](O)[C@@H]2O)[C@H](O)[C@H](O)[C@H]1O
REMARK SMILES IDX 7 1 36 2 34 3 32 4 9 5 8 6 6 7 5 8 4 9 1 10 2 11 42 12 3 13
REMARK SMILES IDX 40 14 38 15 43 16 41 18 39 20 37 22 35 24 10 26 11 27 12 28
REMARK SMILES IDX 30 29 21 30 29 31 31 32 22 33 27 34 23 35 26 36 24 37 13 38
REMARK SMILES IDX 20 39 14 40 18 41 15 42 16 43 19 44 17 46 28 48 25 50 33 52
REMARK H PARENT 43 17 41 19 39 21 37 23 35 25 19 45 17 47 28 49 25 51 33 53
REMARK Flexibility Score: inf
ROOT
ATOM      1  C   UNL     1     -16.284  35.587   2.068  1.00  0.00     0.180 C 
ATOM      2  C   UNL     1     -17.644  36.334   1.873  1.00  0.00     0.177 C 
ATOM      3  C   UNL     1     -17.435  37.601   1.032  1.00  0.00     0.180 C 
ATOM      4  C   UNL     1     -16.331  38.462   1.656  1.00  0.00     0.214 C 
ATOM      5  C   UNL     1     -15.025  37.619   1.745  1.00  0.00     0.339 C 
ATOM      6  O   UNL     1     -15.209  36.421   2.498  1.00  0.00    -0.332 OA
ENDROOT
BRANCH   1   7
ATOM      7  C   UNL     1     -15.852  34.641   0.922  1.00  0.00     0.198 C 
BRANCH   7   8
ATOM      8  O   UNL     1     -14.468  34.723   0.656  1.00  0.00    -0.347 OA
BRANCH   8   9
ATOM      9  C   UNL     1     -13.777  33.621   1.226  1.00  0.00     0.281 C 
ATOM     10  C   UNL     1     -13.355  33.162  -2.122  1.00  0.00     0.041 C 
ATOM     11  C   UNL     1     -12.601  33.114  -0.789  1.00  0.00     0.150 C 
ATOM     12  C   UNL     1     -11.826  34.457  -0.545  1.00  0.00     0.174 C 
ATOM     13  O   UNL     1     -13.510  32.671   0.215  1.00  0.00    -0.344 OA
ATOM     14  C   UNL     1     -11.562  34.810   0.936  1.00  0.00     0.179 C 
ATOM     15  C   UNL     1     -12.475  34.054   1.903  1.00  0.00     0.202 C 
BRANCH  12  16
ATOM     16  O   UNL     1     -10.589  34.408  -1.209  1.00  0.00    -0.388 OA
ATOM     17  H   UNL     1      -9.986  33.802  -0.697  1.00  0.00     0.211 HD
ENDBRANCH  12  16
BRANCH  14  18
ATOM     18  O   UNL     1     -11.732  36.196   1.117  1.00  0.00    -0.387 OA
ATOM     19  H   UNL     1     -10.840  36.625   1.008  1.00  0.00     0.211 HD
ENDBRANCH  14  18
BRANCH  15  20
ATOM     20  O   UNL     1     -12.744  34.835   3.045  1.00  0.00    -0.385 OA
ATOM     21  H   UNL     1     -12.833  34.204   3.812  1.00  0.00     0.211 HD
ENDBRANCH  15  20
ENDBRANCH   8   9
ENDBRANCH   7   8
ENDBRANCH   1   7
BRANCH   2  22
ATOM     22  O   UNL     1     -18.187  36.699   3.125  1.00  0.00    -0.387 OA
ATOM     23  H   UNL     1     -17.881  37.625   3.315  1.00  0.00     0.211 HD
ENDBRANCH   2  22
BRANCH   3  24
ATOM     24  O   UNL     1     -18.631  38.329   0.920  1.00  0.00    -0.387 OA
ATOM     25  H   UNL     1     -18.378  39.273   0.748  1.00  0.00     0.211 HD
ENDBRANCH   3  24
BRANCH   5  26
ATOM     26  O   UNL     1     -14.502  37.362   0.435  1.00  0.00    -0.454 OA
BRANCH  26  27
ATOM     27  C   UNL     1     -14.091  38.409  -0.411  1.00  0.00     0.214 A 
ATOM     28  C   UNL     1     -14.424  38.399  -1.780  1.00  0.00     0.180 A 
ATOM     29  C   UNL     1     -13.173  39.355   0.058  1.00  0.00     0.239 A 
ATOM     30  O   UNL     1     -13.684  39.113  -2.630  1.00  0.00    -0.452 OA
ATOM     31  C   UNL     1     -12.433  40.117  -0.874  1.00  0.00     0.111 A 
ATOM     32  O   UNL     1     -12.957  39.455   1.290  1.00  0.00    -0.285 OA
ATOM     33  C   UNL     1     -12.686  39.898  -2.245  1.00  0.00     0.146 A 
ATOM     34  C   UNL     1     -11.361  40.961  -0.492  1.00  0.00     0.134 A 
ATOM     35  C   UNL     1     -11.841  40.464  -3.210  1.00  0.00     0.094 A 
ATOM     36  C   UNL     1     -10.441  41.387  -1.458  1.00  0.00     0.093 A 
ATOM     37  C   UNL     1     -10.676  41.128  -2.809  1.00  0.00     0.123 A 
BRANCH  28  38
ATOM     38  C   UNL     1     -15.521  37.553  -2.328  1.00  0.00     0.025 A 
ATOM     39  C   UNL     1     -16.628  38.128  -2.986  1.00  0.00     0.062 A 
ATOM     40  C   UNL     1     -15.450  36.149  -2.216  1.00  0.00     0.016 A 
ATOM     41  C   UNL     1     -17.694  37.325  -3.428  1.00  0.00     0.158 A 
ATOM     42  C   UNL     1     -16.494  35.337  -2.688  1.00  0.00     0.051 A 
ATOM     43  C   UNL     1     -17.620  35.927  -3.278  1.00  0.00     0.157 A 
BRANCH  41  44
ATOM     44  O   UNL     1     -18.817  37.898  -4.013  1.00  0.00    -0.504 OA
ATOM     45  H   UNL     1     -19.739  37.815  -3.600  1.00  0.00     0.293 HD
ENDBRANCH  41  44
BRANCH  43  46
ATOM     46  O   UNL     1     -18.668  35.128  -3.750  1.00  0.00    -0.504 OA
ATOM     47  H   UNL     1     -19.598  35.172  -3.354  1.00  0.00     0.293 HD
ENDBRANCH  43  46
ENDBRANCH  28  38
BRANCH  34  48
ATOM     48  O   UNL     1     -11.197  41.409   0.820  1.00  0.00    -0.507 OA
ATOM     49  H   UNL     1     -11.571  42.296   1.090  1.00  0.00     0.293 HD
ENDBRANCH  34  48
BRANCH  37  50
ATOM     50  O   UNL     1      -9.740  41.513  -3.772  1.00  0.00    -0.508 OA
ATOM     51  H   UNL     1      -9.974  42.215  -4.464  1.00  0.00     0.293 HD
ENDBRANCH  37  50
ENDBRANCH  26  27
ENDBRANCH   5  26
BRANCH   4  52
ATOM     52  O   UNL     1     -16.738  39.000   2.897  1.00  0.00    -0.384 OA
ATOM     53  H   UNL     1     -17.441  38.428   3.303  1.00  0.00     0.211 HD
ENDBRANCH   4  52
TORSDOF 16
ENDMDL
MODEL 8
REMARK VINA RESULT:    -6.216      2.057      3.630
REMARK INTER + INTRA:         -12.427
REMARK INTER:                  -9.960
REMARK INTRA:                  -2.468
REMARK UNBOUND:                -2.214
REMARK SMILES C[C@@H]1O[C@H](OC[C@H]2O[C@@H](Oc3c(-c4ccc(O)c(O)c4)oc4cc(O)cc(O)c4c3=O)[C@H](O)[C@H](O)[C@@H]2O)[C@H](O)[C@H](O)[C@H]1O
REMARK SMILES IDX 7 1 36 2 34 3 32 4 9 5 8 6 6 7 5 8 4 9 1 10 2 11 42 12 3 13
REMARK SMILES IDX 40 14 38 15 43 16 41 18 39 20 37 22 35 24 10 26 11 27 12 28
REMARK SMILES IDX 30 29 21 30 29 31 31 32 22 33 27 34 23 35 26 36 24 37 13 38
REMARK SMILES IDX 20 39 14 40 18 41 15 42 16 43 19 44 17 46 28 48 25 50 33 52
REMARK H PARENT 43 17 41 19 39 21 37 23 35 25 19 45 17 47 28 49 25 51 33 53
REMARK Flexibility Score: inf
ROOT
ATOM      1  C   UNL     1     -14.586  37.499   2.560  1.00  0.00     0.180 C 
ATOM      2  C   UNL     1     -15.763  36.482   2.414  1.00  0.00     0.177 C 
ATOM      3  C   UNL     1     -16.137  36.316   0.934  1.00  0.00     0.180 C 
ATOM      4  C   UNL     1     -16.413  37.688   0.311  1.00  0.00     0.214 C 
ATOM      5  C   UNL     1     -15.151  38.582   0.480  1.00  0.00     0.339 C 
ATOM      6  O   UNL     1     -14.770  38.722   1.848  1.00  0.00    -0.332 OA
ENDROOT
BRANCH   1   7
ATOM      7  C   UNL     1     -13.160  36.930   2.363  1.00  0.00     0.198 C 
BRANCH   7   8
ATOM      8  O   UNL     1     -13.143  35.829   1.479  1.00  0.00    -0.347 OA
BRANCH   8   9
ATOM      9  C   UNL     1     -12.008  35.009   1.716  1.00  0.00     0.281 C 
ATOM     10  C   UNL     1     -14.510  32.756   1.194  1.00  0.00     0.041 C 
ATOM     11  C   UNL     1     -13.047  33.047   0.837  1.00  0.00     0.150 C 
ATOM     12  C   UNL     1     -12.952  33.756  -0.560  1.00  0.00     0.174 C 
ATOM     13  O   UNL     1     -12.440  33.684   1.956  1.00  0.00    -0.344 OA
ATOM     14  C   UNL     1     -11.704  34.642  -0.769  1.00  0.00     0.179 C 
ATOM     15  C   UNL     1     -11.027  35.040   0.543  1.00  0.00     0.202 C 
BRANCH  12  16
ATOM     16  O   UNL     1     -12.974  32.786  -1.577  1.00  0.00    -0.388 OA
ATOM     17  H   UNL     1     -12.735  31.907  -1.171  1.00  0.00     0.211 HD
ENDBRANCH  12  16
BRANCH  14  18
ATOM     18  O   UNL     1     -12.075  35.802  -1.475  1.00  0.00    -0.387 OA
ATOM     19  H   UNL     1     -12.815  35.552  -2.095  1.00  0.00     0.211 HD
ENDBRANCH  14  18
BRANCH  15  20
ATOM     20  O   UNL     1     -10.430  36.312   0.429  1.00  0.00    -0.385 OA
ATOM     21  H   UNL     1     -11.161  36.955   0.210  1.00  0.00     0.211 HD
ENDBRANCH  15  20
ENDBRANCH   8   9
ENDBRANCH   7   8
ENDBRANCH   1   7
BRANCH   2  22
ATOM     22  O   UNL     1     -16.896  36.937   3.125  1.00  0.00    -0.387 OA
ATOM     23  H   UNL     1     -17.147  36.218   3.763  1.00  0.00     0.211 HD
ENDBRANCH   2  22
BRANCH   3  24
ATOM     24  O   UNL     1     -17.250  35.471   0.793  1.00  0.00    -0.387 OA
ATOM     25  H   UNL     1     -17.841  35.884   0.110  1.00  0.00     0.211 HD
ENDBRANCH   3  24
BRANCH   5  26
ATOM     26  O   UNL     1     -14.076  38.092  -0.335  1.00  0.00    -0.454 OA
BRANCH  26  27
ATOM     27  C   UNL     1     -13.647  38.787  -1.482  1.00  0.00     0.214 A 
ATOM     28  C   UNL     1     -14.076  38.392  -2.763  1.00  0.00     0.180 A 
ATOM     29  C   UNL     1     -12.629  39.740  -1.369  1.00  0.00     0.239 A 
ATOM     30  O   UNL     1     -13.346  38.738  -3.825  1.00  0.00    -0.452 OA
ATOM     31  C   UNL     1     -11.901  40.107  -2.523  1.00  0.00     0.111 A 
ATOM     32  O   UNL     1     -12.319  40.190  -0.240  1.00  0.00    -0.285 OA
ATOM     33  C   UNL     1     -12.266  39.506  -3.746  1.00  0.00     0.146 A 
ATOM     34  C   UNL     1     -10.744  40.922  -2.469  1.00  0.00     0.134 A 
ATOM     35  C   UNL     1     -11.451  39.668  -4.875  1.00  0.00     0.094 A 
ATOM     36  C   UNL     1      -9.865  40.944  -3.559  1.00  0.00     0.093 A 
ATOM     37  C   UNL     1     -10.213  40.309  -4.751  1.00  0.00     0.123 A 
BRANCH  28  38
ATOM     38  C   UNL     1     -15.271  37.526  -2.974  1.00  0.00     0.025 A 
ATOM     39  C   UNL     1     -16.482  38.057  -3.463  1.00  0.00     0.062 A 
ATOM     40  C   UNL     1     -15.194  36.143  -2.706  1.00  0.00     0.016 A 
ATOM     41  C   UNL     1     -17.624  37.246  -3.582  1.00  0.00     0.158 A 
ATOM     42  C   UNL     1     -16.321  35.319  -2.857  1.00  0.00     0.051 A 
ATOM     43  C   UNL     1     -17.537  35.875  -3.279  1.00  0.00     0.157 A 
BRANCH  41  44
ATOM     44  O   UNL     1     -18.836  37.786  -3.996  1.00  0.00    -0.504 OA
ATOM     45  H   UNL     1     -19.425  38.327  -3.372  1.00  0.00     0.293 HD
ENDBRANCH  41  44
BRANCH  43  46
ATOM     46  O   UNL     1     -18.666  35.063  -3.430  1.00  0.00    -0.504 OA
ATOM     47  H   UNL     1     -18.629  34.059  -3.299  1.00  0.00     0.293 HD
ENDBRANCH  43  46
ENDBRANCH  28  38
BRANCH  34  48
ATOM     48  O   UNL     1     -10.454  41.733  -1.370  1.00  0.00    -0.507 OA
ATOM     49  H   UNL     1     -11.141  42.373  -1.033  1.00  0.00     0.293 HD
ENDBRANCH  34  48
BRANCH  37  50
ATOM     50  O   UNL     1      -9.321  40.291  -5.827  1.00  0.00    -0.508 OA
ATOM     51  H   UNL     1      -9.176  41.122  -6.387  1.00  0.00     0.293 HD
ENDBRANCH  37  50
ENDBRANCH  26  27
ENDBRANCH   5  26
BRANCH   4  52
ATOM     52  O   UNL     1     -17.587  38.268   0.845  1.00  0.00    -0.384 OA
ATOM     53  H   UNL     1     -17.812  37.845   1.714  1.00  0.00     0.211 HD
ENDBRANCH   4  52
TORSDOF 16
ENDMDL
MODEL 9
REMARK VINA RESULT:    -6.043      2.464      7.322
REMARK INTER + INTRA:         -12.143
REMARK INTER:                  -9.167
REMARK INTRA:                  -2.976
REMARK UNBOUND:                -2.214
REMARK SMILES C[C@@H]1O[C@H](OC[C@H]2O[C@@H](Oc3c(-c4ccc(O)c(O)c4)oc4cc(O)cc(O)c4c3=O)[C@H](O)[C@H](O)[C@@H]2O)[C@H](O)[C@H](O)[C@H]1O
REMARK SMILES IDX 7 1 36 2 34 3 32 4 9 5 8 6 6 7 5 8 4 9 1 10 2 11 42 12 3 13
REMARK SMILES IDX 40 14 38 15 43 16 41 18 39 20 37 22 35 24 10 26 11 27 12 28
REMARK SMILES IDX 30 29 21 30 29 31 31 32 22 33 27 34 23 35 26 36 24 37 13 38
REMARK SMILES IDX 20 39 14 40 18 41 15 42 16 43 19 44 17 46 28 48 25 50 33 52
REMARK H PARENT 43 17 41 19 39 21 37 23 35 25 19 45 17 47 28 49 25 51 33 53
REMARK Flexibility Score: inf
ROOT
ATOM      1  C   UNL     1     -12.620  37.754  -4.070  1.00  0.00     0.180 C 
ATOM      2  C   UNL     1     -13.100  39.164  -4.544  1.00  0.00     0.177 C 
ATOM      3  C   UNL     1     -14.053  39.774  -3.507  1.00  0.00     0.180 C 
ATOM      4  C   UNL     1     -15.191  38.793  -3.207  1.00  0.00     0.214 C 
ATOM      5  C   UNL     1     -14.581  37.455  -2.698  1.00  0.00     0.339 C 
ATOM      6  O   UNL     1     -13.668  36.888  -3.637  1.00  0.00    -0.332 OA
ENDROOT
BRANCH   1   7
ATOM      7  C   UNL     1     -11.419  37.732  -3.094  1.00  0.00     0.198 C 
BRANCH   7   8
ATOM      8  O   UNL     1     -11.157  39.004  -2.541  1.00  0.00    -0.347 OA
BRANCH   8   9
ATOM      9  C   UNL     1     -10.104  38.935  -1.591  1.00  0.00     0.281 C 
ATOM     10  C   UNL     1      -9.594  41.942  -3.108  1.00  0.00     0.041 C 
ATOM     11  C   UNL     1      -9.612  41.268  -1.731  1.00  0.00     0.150 C 
ATOM     12  C   UNL     1     -10.998  41.489  -1.027  1.00  0.00     0.174 C 
ATOM     13  O   UNL     1      -9.146  39.931  -1.890  1.00  0.00    -0.344 OA
ATOM     14  C   UNL     1     -11.395  40.413   0.008  1.00  0.00     0.179 C 
ATOM     15  C   UNL     1     -10.615  39.107  -0.159  1.00  0.00     0.202 C 
BRANCH  12  16
ATOM     16  O   UNL     1     -10.996  42.737  -0.380  1.00  0.00    -0.388 OA
ATOM     17  H   UNL     1     -11.941  43.043  -0.295  1.00  0.00     0.211 HD
ENDBRANCH  12  16
BRANCH  14  18
ATOM     18  O   UNL     1     -12.774  40.152  -0.105  1.00  0.00    -0.387 OA
ATOM     19  H   UNL     1     -13.111  40.658  -0.894  1.00  0.00     0.211 HD
ENDBRANCH  14  18
BRANCH  15  20
ATOM     20  O   UNL     1     -11.406  38.004   0.222  1.00  0.00    -0.385 OA
ATOM     21  H   UNL     1     -10.815  37.392   0.742  1.00  0.00     0.211 HD
ENDBRANCH  15  20
ENDBRANCH   8   9
ENDBRANCH   7   8
ENDBRANCH   1   7
BRANCH   2  22
ATOM     22  O   UNL     1     -13.773  39.062  -5.782  1.00  0.00    -0.387 OA
ATOM     23  H   UNL     1     -14.391  38.287  -5.714  1.00  0.00     0.211 HD
ENDBRANCH   2  22
BRANCH   3  24
ATOM     24  O   UNL     1     -14.561  41.004  -3.959  1.00  0.00    -0.387 OA
ATOM     25  H   UNL     1     -15.507  40.847  -4.214  1.00  0.00     0.211 HD
ENDBRANCH   3  24
BRANCH   5  26
ATOM     26  O   UNL     1     -13.988  37.633  -1.404  1.00  0.00    -0.454 OA
BRANCH  26  27
ATOM     27  C   UNL     1     -14.531  37.024  -0.256  1.00  0.00     0.214 A 
ATOM     28  C   UNL     1     -14.363  35.645  -0.027  1.00  0.00     0.180 A 
ATOM     29  C   UNL     1     -15.416  37.745   0.553  1.00  0.00     0.239 A 
ATOM     30  O   UNL     1     -15.221  35.014   0.775  1.00  0.00    -0.452 OA
ATOM     31  C   UNL     1     -16.285  37.042   1.417  1.00  0.00     0.111 A 
ATOM     32  O   UNL     1     -15.487  38.992   0.441  1.00  0.00    -0.285 OA
ATOM     33  C   UNL     1     -16.191  35.634   1.436  1.00  0.00     0.146 A 
ATOM     34  C   UNL     1     -17.330  37.677   2.132  1.00  0.00     0.134 A 
ATOM     35  C   UNL     1     -17.163  34.878   2.107  1.00  0.00     0.094 A 
ATOM     36  C   UNL     1     -18.372  36.905   2.661  1.00  0.00     0.093 A 
ATOM     37  C   UNL     1     -18.292  35.512   2.636  1.00  0.00     0.123 A 
BRANCH  28  38
ATOM     38  C   UNL     1     -13.313  34.843  -0.717  1.00  0.00     0.025 A 
ATOM     39  C   UNL     1     -11.952  34.967  -0.368  1.00  0.00     0.062 A 
ATOM     40  C   UNL     1     -13.676  33.922  -1.720  1.00  0.00     0.016 A 
ATOM     41  C   UNL     1     -10.963  34.265  -1.079  1.00  0.00     0.158 A 
ATOM     42  C   UNL     1     -12.697  33.189  -2.411  1.00  0.00     0.051 A 
ATOM     43  C   UNL     1     -11.343  33.374  -2.100  1.00  0.00     0.157 A 
BRANCH  41  44
ATOM     44  O   UNL     1      -9.617  34.442  -0.782  1.00  0.00    -0.504 OA
ATOM     45  H   UNL     1      -9.105  35.266  -1.078  1.00  0.00     0.293 HD
ENDBRANCH  41  44
BRANCH  43  46
ATOM     46  O   UNL     1     -10.359  32.651  -2.784  1.00  0.00    -0.504 OA
ATOM     47  H   UNL     1      -9.539  32.285  -2.317  1.00  0.00     0.293 HD
ENDBRANCH  43  46
ENDBRANCH  28  38
BRANCH  34  48
ATOM     48  O   UNL     1     -17.351  39.055   2.354  1.00  0.00    -0.507 OA
ATOM     49  H   UNL     1     -17.103  39.415   3.252  1.00  0.00     0.293 HD
ENDBRANCH  34  48
BRANCH  37  50
ATOM     50  O   UNL     1     -19.348  34.738   3.124  1.00  0.00    -0.508 OA
ATOM     51  H   UNL     1     -19.853  35.022   3.955  1.00  0.00     0.293 HD
ENDBRANCH  37  50
ENDBRANCH  26  27
ENDBRANCH   5  26
BRANCH   4  52
ATOM     52  O   UNL     1     -16.040  38.634  -4.325  1.00  0.00    -0.384 OA
ATOM     53  H   UNL     1     -16.383  39.516  -4.623  1.00  0.00     0.211 HD
ENDBRANCH   4  52
TORSDOF 16
ENDMDL
