MODEL 1
REMARK VINA RESULT:    -6.847      0.000      0.000
REMARK INTER + INTRA:          -8.521
REMARK INTER:                  -8.248
REMARK INTRA:                  -0.273
REMARK UNBOUND:                -0.273
REMARK SMILES O=c1c(O)c(-c2ccc(O)c(O)c2)oc2cc(O)cc(O)c12
REMARK SMILES IDX 5 1 3 2 2 3 1 4 22 5 20 6 19 7 17 8 16 9 15 10 14 11 6 12
REMARK SMILES IDX 7 13 8 14 9 15 13 16 11 17 10 18 12 20 4 22 21 24 18 26
REMARK H PARENT 10 19 12 21 4 23 21 25 18 27
REMARK Flexibility Score: inf
ROOT
ATOM      1  C   UNL     1       7.459  -5.449   5.835  1.00  0.00     0.180 A 
ATOM      2  C   UNL     1       7.945  -4.780   6.975  1.00  0.00     0.208 A 
ATOM      3  C   UNL     1       8.699  -3.608   6.804  1.00  0.00     0.238 A 
ATOM      4  O   UNL     1       9.129  -2.994   7.818  1.00  0.00    -0.285 OA
ATOM      5  C   UNL     1       8.971  -3.138   5.503  1.00  0.00     0.111 A 
ATOM      6  C   UNL     1       9.725  -1.969   5.245  1.00  0.00     0.134 A 
ATOM      7  C   UNL     1       9.962  -1.572   3.920  1.00  0.00     0.093 A 
ATOM      8  C   UNL     1       9.458  -2.321   2.850  1.00  0.00     0.123 A 
ATOM      9  C   UNL     1       8.713  -3.475   3.101  1.00  0.00     0.094 A 
ATOM     10  C   UNL     1       8.465  -3.886   4.414  1.00  0.00     0.146 A 
ATOM     11  O   UNL     1       7.748  -4.985   4.623  1.00  0.00    -0.452 OA
ENDROOT
BRANCH   1  12
ATOM     12  C   UNL     1       6.641  -6.679   5.934  1.00  0.00     0.025 A 
ATOM     13  C   UNL     1       7.221  -7.922   6.239  1.00  0.00     0.016 A 
ATOM     14  C   UNL     1       6.425  -9.065   6.351  1.00  0.00     0.051 A 
ATOM     15  C   UNL     1       5.038  -8.981   6.173  1.00  0.00     0.157 A 
ATOM     16  C   UNL     1       5.247  -6.596   5.776  1.00  0.00     0.062 A 
ATOM     17  C   UNL     1       4.447  -7.739   5.887  1.00  0.00     0.158 A 
BRANCH  15  18
ATOM     18  O   UNL     1       4.246 -10.124   6.283  1.00  0.00    -0.504 OA
ATOM     19  H   UNL     1       4.466 -10.859   6.944  1.00  0.00     0.293 HD
ENDBRANCH  15  18
BRANCH  17  20
ATOM     20  O   UNL     1       3.069  -7.621   5.711  1.00  0.00    -0.504 OA
ATOM     21  H   UNL     1       2.628  -6.736   5.493  1.00  0.00     0.293 HD
ENDBRANCH  17  20
ENDBRANCH   1  12
BRANCH   2  22
ATOM     22  O   UNL     1       7.702  -5.293   8.252  1.00  0.00    -0.502 OA
ATOM     23  H   UNL     1       6.774  -5.543   8.569  1.00  0.00     0.293 HD
ENDBRANCH   2  22
BRANCH   6  24
ATOM     24  O   UNL     1      10.242  -1.201   6.289  1.00  0.00    -0.507 OA
ATOM     25  H   UNL     1       9.776  -0.364   6.618  1.00  0.00     0.293 HD
ENDBRANCH   6  24
BRANCH   8  26
ATOM     26  O   UNL     1       9.692  -1.928   1.535  1.00  0.00    -0.508 OA
ATOM     27  H   UNL     1       9.550  -2.564   0.759  1.00  0.00     0.293 HD
ENDBRANCH   8  26
TORSDOF 6
ENDMDL
MODEL 2
REMARK VINA RESULT:    -6.797      1.240      1.720
REMARK INTER + INTRA:          -8.460
REMARK INTER:                  -8.145
REMARK INTRA:                  -0.315
REMARK UNBOUND:                -0.273
REMARK SMILES O=c1c(O)c(-c2ccc(O)c(O)c2)oc2cc(O)cc(O)c12
REMARK SMILES IDX 5 1 3 2 2 3 1 4 22 5 20 6 19 7 17 8 16 9 15 10 14 11 6 12
REMARK SMILES IDX 7 13 8 14 9 15 13 16 11 17 10 18 12 20 4 22 21 24 18 26
REMARK H PARENT 10 19 12 21 4 23 21 25 18 27
REMARK Flexibility Score: inf
ROOT
ATOM      1  C   UNL     1       7.150  -5.671   6.069  1.00  0.00     0.180 A 
ATOM      2  C   UNL     1       8.213  -5.710   6.993  1.00  0.00     0.208 A 
ATOM      3  C   UNL     1       9.331  -4.889   6.775  1.00  0.00     0.238 A 
ATOM      4  O   UNL     1      10.284  -4.907   7.601  1.00  0.00    -0.285 OA
ATOM      5  C   UNL     1       9.377  -4.062   5.635  1.00  0.00     0.111 A 
ATOM      6  C   UNL     1      10.467  -3.208   5.341  1.00  0.00     0.134 A 
ATOM      7  C   UNL     1      10.442  -2.422   4.179  1.00  0.00     0.093 A 
ATOM      8  C   UNL     1       9.349  -2.473   3.307  1.00  0.00     0.123 A 
ATOM      9  C   UNL     1       8.271  -3.313   3.593  1.00  0.00     0.094 A 
ATOM     10  C   UNL     1       8.276  -4.103   4.746  1.00  0.00     0.146 A 
ATOM     11  O   UNL     1       7.235  -4.889   4.997  1.00  0.00    -0.452 OA
ENDROOT
BRANCH   1  12
ATOM     12  C   UNL     1       5.930  -6.492   6.239  1.00  0.00     0.025 A 
ATOM     13  C   UNL     1       4.764  -5.960   6.817  1.00  0.00     0.016 A 
ATOM     14  C   UNL     1       3.616  -6.748   6.945  1.00  0.00     0.051 A 
ATOM     15  C   UNL     1       3.612  -8.072   6.487  1.00  0.00     0.157 A 
ATOM     16  C   UNL     1       5.914  -7.813   5.762  1.00  0.00     0.062 A 
ATOM     17  C   UNL     1       4.767  -8.604   5.890  1.00  0.00     0.158 A 
BRANCH  15  18
ATOM     18  O   UNL     1       2.467  -8.855   6.618  1.00  0.00    -0.504 OA
ATOM     19  H   UNL     1       1.625  -8.496   7.052  1.00  0.00     0.293 HD
ENDBRANCH  15  18
BRANCH  17  20
ATOM     20  O   UNL     1       4.794  -9.916   5.417  1.00  0.00    -0.504 OA
ATOM     21  H   UNL     1       5.655 -10.441   5.332  1.00  0.00     0.293 HD
ENDBRANCH  17  20
ENDBRANCH   1  12
BRANCH   2  22
ATOM     22  O   UNL     1       8.164  -6.574   8.089  1.00  0.00    -0.502 OA
ATOM     23  H   UNL     1       8.953  -7.145   8.366  1.00  0.00     0.293 HD
ENDBRANCH   2  22
BRANCH   6  24
ATOM     24  O   UNL     1      11.573  -3.136   6.190  1.00  0.00    -0.507 OA
ATOM     25  H   UNL     1      11.549  -3.516   7.129  1.00  0.00     0.293 HD
ENDBRANCH   6  24
BRANCH   8  26
ATOM     26  O   UNL     1       9.323  -1.694   2.153  1.00  0.00    -0.508 OA
ATOM     27  H   UNL     1       9.385  -0.684   2.195  1.00  0.00     0.293 HD
ENDBRANCH   8  26
TORSDOF 6
ENDMDL
MODEL 3
REMARK VINA RESULT:    -6.569      1.945      3.245
REMARK INTER + INTRA:          -8.185
REMARK INTER:                  -7.883
REMARK INTRA:                  -0.302
REMARK UNBOUND:                -0.273
REMARK SMILES O=c1c(O)c(-c2ccc(O)c(O)c2)oc2cc(O)cc(O)c12
REMARK SMILES IDX 5 1 3 2 2 3 1 4 22 5 20 6 19 7 17 8 16 9 15 10 14 11 6 12
REMARK SMILES IDX 7 13 8 14 9 15 13 16 11 17 10 18 12 20 4 22 21 24 18 26
REMARK H PARENT 10 19 12 21 4 23 21 25 18 27
REMARK Flexibility Score: inf
ROOT
ATOM      1  C   UNL     1       8.079  -4.499   5.270  1.00  0.00     0.180 A 
ATOM      2  C   UNL     1       8.078  -3.409   4.377  1.00  0.00     0.208 A 
ATOM      3  C   UNL     1       9.150  -2.503   4.411  1.00  0.00     0.238 A 
ATOM      4  O   UNL     1       9.166  -1.531   3.608  1.00  0.00    -0.285 OA
ATOM      5  C   UNL     1      10.188  -2.687   5.347  1.00  0.00     0.111 A 
ATOM      6  C   UNL     1      11.301  -1.817   5.449  1.00  0.00     0.134 A 
ATOM      7  C   UNL     1      12.289  -2.063   6.414  1.00  0.00     0.093 A 
ATOM      8  C   UNL     1      12.186  -3.160   7.277  1.00  0.00     0.123 A 
ATOM      9  C   UNL     1      11.091  -4.020   7.179  1.00  0.00     0.094 A 
ATOM     10  C   UNL     1      10.096  -3.793   6.223  1.00  0.00     0.146 A 
ATOM     11  O   UNL     1       9.068  -4.631   6.149  1.00  0.00    -0.452 OA
ENDROOT
BRANCH   1  12
ATOM     12  C   UNL     1       6.995  -5.507   5.282  1.00  0.00     0.025 A 
ATOM     13  C   UNL     1       7.150  -6.755   4.654  1.00  0.00     0.016 A 
ATOM     14  C   UNL     1       6.121  -7.700   4.699  1.00  0.00     0.051 A 
ATOM     15  C   UNL     1       4.931  -7.419   5.382  1.00  0.00     0.157 A 
ATOM     16  C   UNL     1       5.808  -5.237   5.983  1.00  0.00     0.062 A 
ATOM     17  C   UNL     1       4.777  -6.181   6.029  1.00  0.00     0.158 A 
BRANCH  15  18
ATOM     18  O   UNL     1       3.906  -8.363   5.424  1.00  0.00    -0.504 OA
ATOM     19  H   UNL     1       2.997  -8.178   5.016  1.00  0.00     0.293 HD
ENDBRANCH  15  18
BRANCH  17  20
ATOM     20  O   UNL     1       3.607  -5.873   6.724  1.00  0.00    -0.504 OA
ATOM     21  H   UNL     1       2.768  -6.433   6.642  1.00  0.00     0.293 HD
ENDBRANCH  17  20
ENDBRANCH   1  12
BRANCH   2  22
ATOM     22  O   UNL     1       7.013  -3.222   3.492  1.00  0.00    -0.502 OA
ATOM     23  H   UNL     1       6.160  -2.748   3.762  1.00  0.00     0.293 HD
ENDBRANCH   2  22
BRANCH   6  24
ATOM     24  O   UNL     1      11.431  -0.715   4.603  1.00  0.00    -0.507 OA
ATOM     25  H   UNL     1      10.704  -0.014   4.525  1.00  0.00     0.293 HD
ENDBRANCH   6  24
BRANCH   8  26
ATOM     26  O   UNL     1      13.167  -3.404   8.236  1.00  0.00    -0.508 OA
ATOM     27  H   UNL     1      13.379  -4.344   8.549  1.00  0.00     0.293 HD
ENDBRANCH   8  26
TORSDOF 6
ENDMDL
MODEL 4
REMARK VINA RESULT:    -6.502      1.615      3.412
REMARK INTER + INTRA:          -8.105
REMARK INTER:                  -7.787
REMARK INTRA:                  -0.318
REMARK UNBOUND:                -0.273
REMARK SMILES O=c1c(O)c(-c2ccc(O)c(O)c2)oc2cc(O)cc(O)c12
REMARK SMILES IDX 5 1 3 2 2 3 1 4 22 5 20 6 19 7 17 8 16 9 15 10 14 11 6 12
REMARK SMILES IDX 7 13 8 14 9 15 13 16 11 17 10 18 12 20 4 22 21 24 18 26
REMARK H PARENT 10 19 12 21 4 23 21 25 18 27
REMARK Flexibility Score: inf
ROOT
ATOM      1  C   UNL     1       7.889  -4.583   5.510  1.00  0.00     0.180 A 
ATOM      2  C   UNL     1       8.484  -4.229   4.283  1.00  0.00     0.208 A 
ATOM      3  C   UNL     1       9.411  -3.176   4.258  1.00  0.00     0.238 A 
ATOM      4  O   UNL     1       9.959  -2.858   3.167  1.00  0.00    -0.285 OA
ATOM      5  C   UNL     1       9.712  -2.484   5.448  1.00  0.00     0.111 A 
ATOM      6  C   UNL     1      10.632  -1.409   5.507  1.00  0.00     0.134 A 
ATOM      7  C   UNL     1      10.870  -0.764   6.730  1.00  0.00     0.093 A 
ATOM      8  C   UNL     1      10.207  -1.172   7.893  1.00  0.00     0.123 A 
ATOM      9  C   UNL     1       9.300  -2.231   7.839  1.00  0.00     0.094 A 
ATOM     10  C   UNL     1       9.050  -2.889   6.631  1.00  0.00     0.146 A 
ATOM     11  O   UNL     1       8.186  -3.897   6.610  1.00  0.00    -0.452 OA
ENDROOT
BRANCH   1  12
ATOM     12  C   UNL     1       6.917  -5.694   5.622  1.00  0.00     0.025 A 
ATOM     13  C   UNL     1       5.532  -5.467   5.528  1.00  0.00     0.016 A 
ATOM     14  C   UNL     1       4.635  -6.536   5.612  1.00  0.00     0.051 A 
ATOM     15  C   UNL     1       5.107  -7.845   5.778  1.00  0.00     0.157 A 
ATOM     16  C   UNL     1       7.386  -7.010   5.766  1.00  0.00     0.062 A 
ATOM     17  C   UNL     1       6.490  -8.081   5.852  1.00  0.00     0.158 A 
BRANCH  15  18
ATOM     18  O   UNL     1       4.209  -8.908   5.863  1.00  0.00    -0.504 OA
ATOM     19  H   UNL     1       3.319  -8.814   6.338  1.00  0.00     0.293 HD
ENDBRANCH  15  18
BRANCH  17  20
ATOM     20  O   UNL     1       6.992  -9.373   6.008  1.00  0.00    -0.504 OA
ATOM     21  H   UNL     1       7.320  -9.719   6.902  1.00  0.00     0.293 HD
ENDBRANCH  17  20
ENDBRANCH   1  12
BRANCH   2  22
ATOM     22  O   UNL     1       8.132  -4.899   3.109  1.00  0.00    -0.502 OA
ATOM     23  H   UNL     1       8.297  -5.890   2.979  1.00  0.00     0.293 HD
ENDBRANCH   2  22
BRANCH   6  24
ATOM     24  O   UNL     1      11.308  -0.978   4.365  1.00  0.00    -0.507 OA
ATOM     25  H   UNL     1      11.194  -0.039   4.001  1.00  0.00     0.293 HD
ENDBRANCH   6  24
BRANCH   8  26
ATOM     26  O   UNL     1      10.443  -0.531   9.107  1.00  0.00    -0.508 OA
ATOM     27  H   UNL     1      10.364  -1.023   9.989  1.00  0.00     0.293 HD
ENDBRANCH   8  26
TORSDOF 6
ENDMDL
MODEL 5
REMARK VINA RESULT:    -6.408      1.593      6.887
REMARK INTER + INTRA:          -7.992
REMARK INTER:                  -7.968
REMARK INTRA:                  -0.024
REMARK UNBOUND:                -0.273
REMARK SMILES O=c1c(O)c(-c2ccc(O)c(O)c2)oc2cc(O)cc(O)c12
REMARK SMILES IDX 5 1 3 2 2 3 1 4 22 5 20 6 19 7 17 8 16 9 15 10 14 11 6 12
REMARK SMILES IDX 7 13 8 14 9 15 13 16 11 17 10 18 12 20 4 22 21 24 18 26
REMARK H PARENT 10 19 12 21 4 23 21 25 18 27
REMARK Flexibility Score: inf
ROOT
ATOM      1  C   UNL     1       7.347  -5.553   6.181  1.00  0.00     0.180 A 
ATOM      2  C   UNL     1       8.118  -6.526   6.849  1.00  0.00     0.208 A 
ATOM      3  C   UNL     1       7.498  -7.716   7.260  1.00  0.00     0.238 A 
ATOM      4  O   UNL     1       8.180  -8.600   7.848  1.00  0.00    -0.285 OA
ATOM      5  C   UNL     1       6.123  -7.907   7.016  1.00  0.00     0.111 A 
ATOM      6  C   UNL     1       5.423  -9.076   7.401  1.00  0.00     0.134 A 
ATOM      7  C   UNL     1       4.051  -9.185   7.131  1.00  0.00     0.093 A 
ATOM      8  C   UNL     1       3.366  -8.149   6.485  1.00  0.00     0.123 A 
ATOM      9  C   UNL     1       4.052  -6.995   6.103  1.00  0.00     0.094 A 
ATOM     10  C   UNL     1       5.420  -6.867   6.361  1.00  0.00     0.146 A 
ATOM     11  O   UNL     1       6.049  -5.761   5.983  1.00  0.00    -0.452 OA
ENDROOT
BRANCH   1  12
ATOM     12  C   UNL     1       7.932  -4.281   5.701  1.00  0.00     0.025 A 
ATOM     13  C   UNL     1       8.666  -3.442   6.558  1.00  0.00     0.016 A 
ATOM     14  C   UNL     1       9.229  -2.257   6.075  1.00  0.00     0.051 A 
ATOM     15  C   UNL     1       9.079  -1.900   4.729  1.00  0.00     0.157 A 
ATOM     16  C   UNL     1       7.803  -3.928   4.347  1.00  0.00     0.062 A 
ATOM     17  C   UNL     1       8.365  -2.743   3.861  1.00  0.00     0.158 A 
BRANCH  15  18
ATOM     18  O   UNL     1       9.641  -0.717   4.251  1.00  0.00    -0.504 OA
ATOM     19  H   UNL     1      10.595  -0.682   3.912  1.00  0.00     0.293 HD
ENDBRANCH  15  18
BRANCH  17  20
ATOM     20  O   UNL     1       8.204  -2.419   2.514  1.00  0.00    -0.504 OA
ATOM     21  H   UNL     1       8.936  -1.971   1.977  1.00  0.00     0.293 HD
ENDBRANCH  17  20
ENDBRANCH   1  12
BRANCH   2  22
ATOM     22  O   UNL     1       9.468  -6.292   7.122  1.00  0.00    -0.502 OA
ATOM     23  H   UNL     1       9.842  -6.307   8.062  1.00  0.00     0.293 HD
ENDBRANCH   2  22
BRANCH   6  24
ATOM     24  O   UNL     1       6.077 -10.125   8.048  1.00  0.00    -0.507 OA
ATOM     25  H   UNL     1       6.690  -9.964   8.838  1.00  0.00     0.293 HD
ENDBRANCH   6  24
BRANCH   8  26
ATOM     26  O   UNL     1       2.003  -8.257   6.217  1.00  0.00    -0.508 OA
ATOM     27  H   UNL     1       1.663  -8.525   5.301  1.00  0.00     0.293 HD
ENDBRANCH   8  26
TORSDOF 6
ENDMDL
MODEL 6
REMARK VINA RESULT:    -6.237      1.802      6.648
REMARK INTER + INTRA:          -7.786
REMARK INTER:                  -7.545
REMARK INTRA:                  -0.241
REMARK UNBOUND:                -0.273
REMARK SMILES O=c1c(O)c(-c2ccc(O)c(O)c2)oc2cc(O)cc(O)c12
REMARK SMILES IDX 5 1 3 2 2 3 1 4 22 5 20 6 19 7 17 8 16 9 15 10 14 11 6 12
REMARK SMILES IDX 7 13 8 14 9 15 13 16 11 17 10 18 12 20 4 22 21 24 18 26
REMARK H PARENT 10 19 12 21 4 23 21 25 18 27
REMARK Flexibility Score: inf
ROOT
ATOM      1  C   UNL     1       8.086  -5.464   6.331  1.00  0.00     0.180 A 
ATOM      2  C   UNL     1       7.760  -5.786   7.663  1.00  0.00     0.208 A 
ATOM      3  C   UNL     1       7.043  -6.965   7.920  1.00  0.00     0.238 A 
ATOM      4  O   UNL     1       6.756  -7.269   9.110  1.00  0.00    -0.285 OA
ATOM      5  C   UNL     1       6.648  -7.788   6.846  1.00  0.00     0.111 A 
ATOM      6  C   UNL     1       5.920  -8.990   7.020  1.00  0.00     0.134 A 
ATOM      7  C   UNL     1       5.554  -9.750   5.899  1.00  0.00     0.093 A 
ATOM      8  C   UNL     1       5.902  -9.331   4.609  1.00  0.00     0.123 A 
ATOM      9  C   UNL     1       6.620  -8.147   4.434  1.00  0.00     0.094 A 
ATOM     10  C   UNL     1       6.996  -7.376   5.538  1.00  0.00     0.146 A 
ATOM     11  O   UNL     1       7.683  -6.257   5.343  1.00  0.00    -0.452 OA
ENDROOT
BRANCH   1  12
ATOM     12  C   UNL     1       8.856  -4.249   5.981  1.00  0.00     0.025 A 
ATOM     13  C   UNL     1      10.220  -4.130   6.299  1.00  0.00     0.016 A 
ATOM     14  C   UNL     1      10.932  -2.983   5.937  1.00  0.00     0.051 A 
ATOM     15  C   UNL     1      10.297  -1.946   5.242  1.00  0.00     0.157 A 
ATOM     16  C   UNL     1       8.229  -3.216   5.265  1.00  0.00     0.062 A 
ATOM     17  C   UNL     1       8.939  -2.066   4.902  1.00  0.00     0.158 A 
BRANCH  15  18
ATOM     18  O   UNL     1      11.009  -0.802   4.883  1.00  0.00    -0.504 OA
ATOM     19  H   UNL     1      10.723   0.119   5.192  1.00  0.00     0.293 HD
ENDBRANCH  15  18
BRANCH  17  20
ATOM     20  O   UNL     1       8.279  -1.055   4.204  1.00  0.00    -0.504 OA
ATOM     21  H   UNL     1       8.288  -1.005   3.192  1.00  0.00     0.293 HD
ENDBRANCH  17  20
ENDBRANCH   1  12
BRANCH   2  22
ATOM     22  O   UNL     1       8.122  -4.928   8.706  1.00  0.00    -0.502 OA
ATOM     23  H   UNL     1       8.914  -5.111   9.308  1.00  0.00     0.293 HD
ENDBRANCH   2  22
BRANCH   6  24
ATOM     24  O   UNL     1       5.557  -9.433   8.292  1.00  0.00    -0.507 OA
ATOM     25  H   UNL     1       6.237  -9.818   8.937  1.00  0.00     0.293 HD
ENDBRANCH   6  24
BRANCH   8  26
ATOM     26  O   UNL     1       5.540 -10.084   3.495  1.00  0.00    -0.508 OA
ATOM     27  H   UNL     1       5.208  -9.645   2.644  1.00  0.00     0.293 HD
ENDBRANCH   8  26
TORSDOF 6
ENDMDL
MODEL 7
REMARK VINA RESULT:    -5.933      1.697      2.238
REMARK INTER + INTRA:          -7.420
REMARK INTER:                  -7.121
REMARK INTRA:                  -0.299
REMARK UNBOUND:                -0.273
REMARK SMILES O=c1c(O)c(-c2ccc(O)c(O)c2)oc2cc(O)cc(O)c12
REMARK SMILES IDX 5 1 3 2 2 3 1 4 22 5 20 6 19 7 17 8 16 9 15 10 14 11 6 12
REMARK SMILES IDX 7 13 8 14 9 15 13 16 11 17 10 18 12 20 4 22 21 24 18 26
REMARK H PARENT 10 19 12 21 4 23 21 25 18 27
REMARK Flexibility Score: inf
ROOT
ATOM      1  C   UNL     1       8.450  -5.270   6.886  1.00  0.00     0.180 A 
ATOM      2  C   UNL     1       9.215  -4.544   7.819  1.00  0.00     0.208 A 
ATOM      3  C   UNL     1       9.840  -3.357   7.406  1.00  0.00     0.238 A 
ATOM      4  O   UNL     1      10.518  -2.692   8.236  1.00  0.00    -0.285 OA
ATOM      5  C   UNL     1       9.707  -2.927   6.070  1.00  0.00     0.111 A 
ATOM      6  C   UNL     1      10.308  -1.745   5.574  1.00  0.00     0.134 A 
ATOM      7  C   UNL     1      10.137  -1.391   4.227  1.00  0.00     0.093 A 
ATOM      8  C   UNL     1       9.378  -2.195   3.369  1.00  0.00     0.123 A 
ATOM      9  C   UNL     1       8.784  -3.361   3.855  1.00  0.00     0.094 A 
ATOM     10  C   UNL     1       8.941  -3.731   5.194  1.00  0.00     0.146 A 
ATOM     11  O   UNL     1       8.360  -4.842   5.630  1.00  0.00    -0.452 OA
ENDROOT
BRANCH   1  12
ATOM     12  C   UNL     1       7.745  -6.520   7.249  1.00  0.00     0.025 A 
ATOM     13  C   UNL     1       6.363  -6.534   7.507  1.00  0.00     0.016 A 
ATOM     14  C   UNL     1       5.716  -7.732   7.824  1.00  0.00     0.051 A 
ATOM     15  C   UNL     1       6.436  -8.933   7.877  1.00  0.00     0.157 A 
ATOM     16  C   UNL     1       8.458  -7.731   7.283  1.00  0.00     0.062 A 
ATOM     17  C   UNL     1       7.813  -8.931   7.602  1.00  0.00     0.158 A 
BRANCH  15  18
ATOM     18  O   UNL     1       5.787 -10.125   8.196  1.00  0.00    -0.504 OA
ATOM     19  H   UNL     1       5.801 -10.501   9.137  1.00  0.00     0.293 HD
ENDBRANCH  15  18
BRANCH  17  20
ATOM     20  O   UNL     1       8.556 -10.110   7.638  1.00  0.00    -0.504 OA
ATOM     21  H   UNL     1       8.177 -10.975   8.003  1.00  0.00     0.293 HD
ENDBRANCH  17  20
ENDBRANCH   1  12
BRANCH   2  22
ATOM     22  O   UNL     1       9.371  -5.017   9.125  1.00  0.00    -0.502 OA
ATOM     23  H   UNL     1       9.387  -6.004   9.346  1.00  0.00     0.293 HD
ENDBRANCH   2  22
BRANCH   6  24
ATOM     24  O   UNL     1      11.072  -0.924   6.404  1.00  0.00    -0.507 OA
ATOM     25  H   UNL     1      10.650  -0.371   7.141  1.00  0.00     0.293 HD
ENDBRANCH   6  24
BRANCH   8  26
ATOM     26  O   UNL     1       9.208  -1.844   2.032  1.00  0.00    -0.508 OA
ATOM     27  H   UNL     1       9.816  -2.208   1.308  1.00  0.00     0.293 HD
ENDBRANCH   8  26
TORSDOF 6
ENDMDL
MODEL 8
REMARK VINA RESULT:    -5.886      1.997      7.324
REMARK INTER + INTRA:          -7.363
REMARK INTER:                  -7.278
REMARK INTRA:                  -0.086
REMARK UNBOUND:                -0.273
REMARK SMILES O=c1c(O)c(-c2ccc(O)c(O)c2)oc2cc(O)cc(O)c12
REMARK SMILES IDX 5 1 3 2 2 3 1 4 22 5 20 6 19 7 17 8 16 9 15 10 14 11 6 12
REMARK SMILES IDX 7 13 8 14 9 15 13 16 11 17 10 18 12 20 4 22 21 24 18 26
REMARK H PARENT 10 19 12 21 4 23 21 25 18 27
REMARK Flexibility Score: inf
ROOT
ATOM      1  C   UNL     1       9.041  -4.125   5.767  1.00  0.00     0.180 A 
ATOM      2  C   UNL     1       7.762  -4.055   5.181  1.00  0.00     0.208 A 
ATOM      3  C   UNL     1       6.817  -5.045   5.494  1.00  0.00     0.238 A 
ATOM      4  O   UNL     1       5.665  -4.986   4.985  1.00  0.00    -0.285 OA
ATOM      5  C   UNL     1       7.170  -6.094   6.367  1.00  0.00     0.111 A 
ATOM      6  C   UNL     1       6.278  -7.132   6.730  1.00  0.00     0.134 A 
ATOM      7  C   UNL     1       6.709  -8.147   7.598  1.00  0.00     0.093 A 
ATOM      8  C   UNL     1       8.013  -8.144   8.108  1.00  0.00     0.123 A 
ATOM      9  C   UNL     1       8.895  -7.122   7.753  1.00  0.00     0.094 A 
ATOM     10  C   UNL     1       8.484  -6.101   6.891  1.00  0.00     0.146 A 
ATOM     11  O   UNL     1       9.343  -5.138   6.574  1.00  0.00    -0.452 OA
ENDROOT
BRANCH   1  12
ATOM     12  C   UNL     1      10.084  -3.109   5.502  1.00  0.00     0.025 A 
ATOM     13  C   UNL     1      10.526  -2.837   4.195  1.00  0.00     0.016 A 
ATOM     14  C   UNL     1      11.495  -1.855   3.968  1.00  0.00     0.051 A 
ATOM     15  C   UNL     1      12.027  -1.125   5.038  1.00  0.00     0.157 A 
ATOM     16  C   UNL     1      10.606  -2.359   6.570  1.00  0.00     0.062 A 
ATOM     17  C   UNL     1      11.577  -1.377   6.345  1.00  0.00     0.158 A 
BRANCH  15  18
ATOM     18  O   UNL     1      12.995  -0.148   4.807  1.00  0.00    -0.504 OA
ATOM     19  H   UNL     1      12.763   0.838   4.808  1.00  0.00     0.293 HD
ENDBRANCH  15  18
BRANCH  17  20
ATOM     20  O   UNL     1      12.081  -0.662   7.430  1.00  0.00    -0.504 OA
ATOM     21  H   UNL     1      11.763  -0.826   8.377  1.00  0.00     0.293 HD
ENDBRANCH  17  20
ENDBRANCH   1  12
BRANCH   2  22
ATOM     22  O   UNL     1       7.452  -3.032   4.281  1.00  0.00    -0.502 OA
ATOM     23  H   UNL     1       6.616  -3.045   3.712  1.00  0.00     0.293 HD
ENDBRANCH   2  22
BRANCH   6  24
ATOM     24  O   UNL     1       4.973  -7.164   6.237  1.00  0.00    -0.507 OA
ATOM     25  H   UNL     1       4.367  -7.962   6.383  1.00  0.00     0.293 HD
ENDBRANCH   6  24
BRANCH   8  26
ATOM     26  O   UNL     1       8.441  -9.152   8.968  1.00  0.00    -0.508 OA
ATOM     27  H   UNL     1       9.426  -9.347   9.107  1.00  0.00     0.293 HD
ENDBRANCH   8  26
TORSDOF 6
ENDMDL
