MODEL 1
REMARK VINA RESULT:     0.000      0.000      0.000
REMARK INTER + INTRA:          -0.335
REMARK INTER:                   0.000
REMARK INTRA:                  -0.335
REMARK UNBOUND:                -0.335
REMARK SMILES O=c1c(O)c(-c2ccc(O)c(O)c2)oc2cc(O)cc(O)c12
REMARK SMILES IDX 5 1 3 2 2 3 1 4 22 5 20 6 19 7 17 8 16 9 15 10 14 11 6 12
REMARK SMILES IDX 7 13 8 14 9 15 13 16 11 17 10 18 12 20 4 22 21 24 18 26
REMARK H PARENT 10 19 12 21 4 23 21 25 18 27
REMARK Flexibility Score: inf
ROOT
ATOM      1  C   UNL     1      24.204  67.842  21.551  1.00  0.00     0.180 A 
ATOM      2  C   UNL     1      22.938  67.266  21.753  1.00  0.00     0.208 A 
ATOM      3  C   UNL     1      22.101  67.058  20.644  1.00  0.00     0.238 A 
ATOM      4  O   UNL     1      20.947  66.592  20.837  1.00  0.00    -0.285 OA
ATOM      5  C   UNL     1      22.547  67.412  19.348  1.00  0.00     0.111 A 
ATOM      6  C   UNL     1      21.798  67.209  18.150  1.00  0.00     0.134 A 
ATOM      7  C   UNL     1      22.282  67.718  16.938  1.00  0.00     0.093 A 
ATOM      8  C   UNL     1      23.519  68.364  16.872  1.00  0.00     0.123 A 
ATOM      9  C   UNL     1      24.284  68.515  18.026  1.00  0.00     0.094 A 
ATOM     10  C   UNL     1      23.811  68.050  19.256  1.00  0.00     0.146 A 
ATOM     11  O   UNL     1      24.567  68.224  20.332  1.00  0.00    -0.452 OA
ENDROOT
BRANCH   1  12
ATOM     12  C   UNL     1      25.152  68.070  22.666  1.00  0.00     0.025 A 
ATOM     13  C   UNL     1      26.075  67.083  23.055  1.00  0.00     0.016 A 
ATOM     14  C   UNL     1      26.977  67.330  24.093  1.00  0.00     0.051 A 
ATOM     15  C   UNL     1      26.978  68.567  24.751  1.00  0.00     0.157 A 
ATOM     16  C   UNL     1      25.172  69.315  23.314  1.00  0.00     0.062 A 
ATOM     17  C   UNL     1      26.072  69.565  24.355  1.00  0.00     0.158 A 
BRANCH  15  18
ATOM     18  O   UNL     1      27.877  68.808  25.788  1.00  0.00    -0.504 OA
ATOM     19  H   UNL     1      28.648  68.179  25.980  1.00  0.00     0.293 HD
ENDBRANCH  15  18
BRANCH  17  20
ATOM     20  O   UNL     1      26.052  70.811  24.984  1.00  0.00    -0.504 OA
ATOM     21  H   UNL     1      26.837  71.449  24.935  1.00  0.00     0.293 HD
ENDBRANCH  17  20
ENDBRANCH   1  12
BRANCH   2  22
ATOM     22  O   UNL     1      22.508  66.944  23.043  1.00  0.00    -0.502 OA
ATOM     23  H   UNL     1      22.494  65.992  23.390  1.00  0.00     0.293 HD
ENDBRANCH   2  22
BRANCH   6  24
ATOM     24  O   UNL     1      20.597  66.496  18.091  1.00  0.00    -0.507 OA
ATOM     25  H   UNL     1      20.527  65.492  18.023  1.00  0.00     0.293 HD
ENDBRANCH   6  24
BRANCH   8  26
ATOM     26  O   UNL     1      24.000  68.853  15.660  1.00  0.00    -0.508 OA
ATOM     27  H   UNL     1      23.373  69.151  14.922  1.00  0.00     0.293 HD
ENDBRANCH   8  26
TORSDOF 6
ENDMDL
MODEL 2
REMARK VINA RESULT:     0.000      9.736     11.621
REMARK INTER + INTRA:          -0.335
REMARK INTER:                   0.000
REMARK INTRA:                  -0.335
REMARK UNBOUND:                -0.335
REMARK SMILES O=c1c(O)c(-c2ccc(O)c(O)c2)oc2cc(O)cc(O)c12
REMARK SMILES IDX 5 1 3 2 2 3 1 4 22 5 20 6 19 7 17 8 16 9 15 10 14 11 6 12
REMARK SMILES IDX 7 13 8 14 9 15 13 16 11 17 10 18 12 20 4 22 21 24 18 26
REMARK H PARENT 10 19 12 21 4 23 21 25 18 27
REMARK Flexibility Score: inf
ROOT
ATOM      1  C   UNL     1      24.023  57.692  22.030  1.00  0.00     0.180 A 
ATOM      2  C   UNL     1      24.200  57.002  20.818  1.00  0.00     0.208 A 
ATOM      3  C   UNL     1      25.502  56.811  20.327  1.00  0.00     0.238 A 
ATOM      4  O   UNL     1      25.651  56.241  19.215  1.00  0.00    -0.285 OA
ATOM      5  C   UNL     1      26.610  57.299  21.061  1.00  0.00     0.111 A 
ATOM      6  C   UNL     1      27.974  57.128  20.676  1.00  0.00     0.134 A 
ATOM      7  C   UNL     1      28.983  57.765  21.410  1.00  0.00     0.093 A 
ATOM      8  C   UNL     1      28.682  58.513  22.551  1.00  0.00     0.123 A 
ATOM      9  C   UNL     1      27.358  58.637  22.967  1.00  0.00     0.094 A 
ATOM     10  C   UNL     1      26.327  58.042  22.235  1.00  0.00     0.146 A 
ATOM     11  O   UNL     1      25.079  58.194  22.661  1.00  0.00    -0.452 OA
ENDROOT
BRANCH   1  12
ATOM     12  C   UNL     1      22.685  57.910  22.624  1.00  0.00     0.025 A 
ATOM     13  C   UNL     1      22.114  56.974  23.506  1.00  0.00     0.016 A 
ATOM     14  C   UNL     1      20.860  57.213  24.074  1.00  0.00     0.051 A 
ATOM     15  C   UNL     1      20.163  58.393  23.780  1.00  0.00     0.157 A 
ATOM     16  C   UNL     1      21.992  59.100  22.350  1.00  0.00     0.062 A 
ATOM     17  C   UNL     1      20.735  59.341  22.916  1.00  0.00     0.158 A 
BRANCH  15  18
ATOM     18  O   UNL     1      18.912  58.626  24.347  1.00  0.00    -0.504 OA
ATOM     19  H   UNL     1      18.538  58.028  25.075  1.00  0.00     0.293 HD
ENDBRANCH  15  18
BRANCH  17  20
ATOM     20  O   UNL     1      20.071  60.530  22.609  1.00  0.00    -0.504 OA
ATOM     21  H   UNL     1      19.317  60.565  21.933  1.00  0.00     0.293 HD
ENDBRANCH  17  20
ENDBRANCH   1  12
BRANCH   2  22
ATOM     22  O   UNL     1      23.091  56.548  20.099  1.00  0.00    -0.502 OA
ATOM     23  H   UNL     1      22.944  56.778  19.123  1.00  0.00     0.293 HD
ENDBRANCH   2  22
BRANCH   6  24
ATOM     24  O   UNL     1      28.391  56.326  19.610  1.00  0.00    -0.507 OA
ATOM     25  H   UNL     1      27.821  55.623  19.163  1.00  0.00     0.293 HD
ENDBRANCH   6  24
BRANCH   8  26
ATOM     26  O   UNL     1      29.693  59.130  23.283  1.00  0.00    -0.508 OA
ATOM     27  H   UNL     1      29.484  59.796  24.018  1.00  0.00     0.293 HD
ENDBRANCH   8  26
TORSDOF 6
ENDMDL
MODEL 3
REMARK VINA RESULT:     0.000      7.010      8.752
REMARK INTER + INTRA:          -0.335
REMARK INTER:                   0.000
REMARK INTRA:                  -0.335
REMARK UNBOUND:                -0.335
REMARK SMILES O=c1c(O)c(-c2ccc(O)c(O)c2)oc2cc(O)cc(O)c12
REMARK SMILES IDX 5 1 3 2 2 3 1 4 22 5 20 6 19 7 17 8 16 9 15 10 14 11 6 12
REMARK SMILES IDX 7 13 8 14 9 15 13 16 11 17 10 18 12 20 4 22 21 24 18 26
REMARK H PARENT 10 19 12 21 4 23 21 25 18 27
REMARK Flexibility Score: inf
ROOT
ATOM      1  C   UNL     1      19.992  63.418  26.589  1.00  0.00     0.180 A 
ATOM      2  C   UNL     1      19.516  62.914  25.366  1.00  0.00     0.208 A 
ATOM      3  C   UNL     1      19.953  63.506  24.169  1.00  0.00     0.238 A 
ATOM      4  O   UNL     1      19.482  63.086  23.080  1.00  0.00    -0.285 OA
ATOM      5  C   UNL     1      20.870  64.583  24.210  1.00  0.00     0.111 A 
ATOM      6  C   UNL     1      21.409  65.232  23.058  1.00  0.00     0.134 A 
ATOM      7  C   UNL     1      22.207  66.372  23.218  1.00  0.00     0.093 A 
ATOM      8  C   UNL     1      22.540  66.846  24.490  1.00  0.00     0.123 A 
ATOM      9  C   UNL     1      22.066  66.184  25.621  1.00  0.00     0.094 A 
ATOM     10  C   UNL     1      21.238  65.066  25.492  1.00  0.00     0.146 A 
ATOM     11  O   UNL     1      20.801  64.472  26.595  1.00  0.00    -0.452 OA
ENDROOT
BRANCH   1  12
ATOM     12  C   UNL     1      19.598  62.831  27.889  1.00  0.00     0.025 A 
ATOM     13  C   UNL     1      20.328  61.777  28.468  1.00  0.00     0.016 A 
ATOM     14  C   UNL     1      19.952  61.256  29.708  1.00  0.00     0.051 A 
ATOM     15  C   UNL     1      18.851  61.785  30.394  1.00  0.00     0.157 A 
ATOM     16  C   UNL     1      18.508  63.371  28.591  1.00  0.00     0.062 A 
ATOM     17  C   UNL     1      18.128  62.850  29.832  1.00  0.00     0.158 A 
BRANCH  15  18
ATOM     18  O   UNL     1      18.477  61.260  31.630  1.00  0.00    -0.504 OA
ATOM     19  H   UNL     1      19.166  60.973  32.316  1.00  0.00     0.293 HD
ENDBRANCH  15  18
BRANCH  17  20
ATOM     20  O   UNL     1      17.032  63.406  30.493  1.00  0.00    -0.504 OA
ATOM     21  H   UNL     1      16.989  63.470  31.503  1.00  0.00     0.293 HD
ENDBRANCH  17  20
ENDBRANCH   1  12
BRANCH   2  22
ATOM     22  O   UNL     1      18.594  61.864  25.349  1.00  0.00    -0.502 OA
ATOM     23  H   UNL     1      17.601  62.013  25.210  1.00  0.00     0.293 HD
ENDBRANCH   2  22
BRANCH   6  24
ATOM     24  O   UNL     1      21.215  64.785  21.748  1.00  0.00    -0.507 OA
ATOM     25  H   UNL     1      21.380  63.841  21.433  1.00  0.00     0.293 HD
ENDBRANCH   6  24
BRANCH   8  26
ATOM     26  O   UNL     1      23.347  67.971  24.640  1.00  0.00    -0.508 OA
ATOM     27  H   UNL     1      23.355  68.714  23.951  1.00  0.00     0.293 HD
ENDBRANCH   8  26
TORSDOF 6
ENDMDL
MODEL 4
REMARK VINA RESULT:     0.000      8.797     10.802
REMARK INTER + INTRA:          -0.335
REMARK INTER:                   0.000
REMARK INTRA:                  -0.335
REMARK UNBOUND:                -0.335
REMARK SMILES O=c1c(O)c(-c2ccc(O)c(O)c2)oc2cc(O)cc(O)c12
REMARK SMILES IDX 5 1 3 2 2 3 1 4 22 5 20 6 19 7 17 8 16 9 15 10 14 11 6 12
REMARK SMILES IDX 7 13 8 14 9 15 13 16 11 17 10 18 12 20 4 22 21 24 18 26
REMARK H PARENT 10 19 12 21 4 23 21 25 18 27
REMARK Flexibility Score: inf
ROOT
ATOM      1  C   UNL     1      19.991  59.605  24.902  1.00  0.00     0.180 A 
ATOM      2  C   UNL     1      19.693  59.496  23.533  1.00  0.00     0.208 A 
ATOM      3  C   UNL     1      20.599  60.020  22.595  1.00  0.00     0.238 A 
ATOM      4  O   UNL     1      20.302  59.968  21.373  1.00  0.00    -0.285 OA
ATOM      5  C   UNL     1      21.796  60.631  23.038  1.00  0.00     0.111 A 
ATOM      6  C   UNL     1      22.802  61.161  22.175  1.00  0.00     0.134 A 
ATOM      7  C   UNL     1      23.884  61.860  22.724  1.00  0.00     0.093 A 
ATOM      8  C   UNL     1      24.030  61.992  24.108  1.00  0.00     0.123 A 
ATOM      9  C   UNL     1      23.083  61.428  24.960  1.00  0.00     0.094 A 
ATOM     10  C   UNL     1      21.974  60.756  24.441  1.00  0.00     0.146 A 
ATOM     11  O   UNL     1      21.090  60.243  25.287  1.00  0.00    -0.452 OA
ENDROOT
BRANCH   1  12
ATOM     12  C   UNL     1      19.099  59.055  25.948  1.00  0.00     0.025 A 
ATOM     13  C   UNL     1      19.236  57.732  26.406  1.00  0.00     0.016 A 
ATOM     14  C   UNL     1      18.399  57.243  27.412  1.00  0.00     0.051 A 
ATOM     15  C   UNL     1      17.421  58.068  27.983  1.00  0.00     0.157 A 
ATOM     16  C   UNL     1      18.132  59.884  26.539  1.00  0.00     0.062 A 
ATOM     17  C   UNL     1      17.291  59.397  27.545  1.00  0.00     0.158 A 
BRANCH  15  18
ATOM     18  O   UNL     1      16.586  57.576  28.984  1.00  0.00    -0.504 OA
ATOM     19  H   UNL     1      16.931  56.952  29.704  1.00  0.00     0.293 HD
ENDBRANCH  15  18
BRANCH  17  20
ATOM     20  O   UNL     1      16.333  60.247  28.099  1.00  0.00    -0.504 OA
ATOM     21  H   UNL     1      15.899  60.057  28.994  1.00  0.00     0.293 HD
ENDBRANCH  17  20
ENDBRANCH   1  12
BRANCH   2  22
ATOM     22  O   UNL     1      18.495  58.908  23.118  1.00  0.00    -0.502 OA
ATOM     23  H   UNL     1      17.610  59.400  23.142  1.00  0.00     0.293 HD
ENDBRANCH   2  22
BRANCH   6  24
ATOM     24  O   UNL     1      22.802  61.004  20.786  1.00  0.00    -0.507 OA
ATOM     25  H   UNL     1      22.695  60.122  20.308  1.00  0.00     0.293 HD
ENDBRANCH   6  24
BRANCH   8  26
ATOM     26  O   UNL     1      25.117  62.676  24.645  1.00  0.00    -0.508 OA
ATOM     27  H   UNL     1      25.562  63.439  24.149  1.00  0.00     0.293 HD
ENDBRANCH   8  26
TORSDOF 6
ENDMDL
MODEL 5
REMARK VINA RESULT:     0.000      7.186      9.075
REMARK INTER + INTRA:          -0.335
REMARK INTER:                   0.000
REMARK INTRA:                  -0.335
REMARK UNBOUND:                -0.335
REMARK SMILES O=c1c(O)c(-c2ccc(O)c(O)c2)oc2cc(O)cc(O)c12
REMARK SMILES IDX 5 1 3 2 2 3 1 4 22 5 20 6 19 7 17 8 16 9 15 10 14 11 6 12
REMARK SMILES IDX 7 13 8 14 9 15 13 16 11 17 10 18 12 20 4 22 21 24 18 26
REMARK H PARENT 10 19 12 21 4 23 21 25 18 27
REMARK Flexibility Score: inf
ROOT
ATOM      1  C   UNL     1      28.823  62.053  23.262  1.00  0.00     0.180 A 
ATOM      2  C   UNL     1      29.955  61.287  23.593  1.00  0.00     0.208 A 
ATOM      3  C   UNL     1      30.016  59.948  23.173  1.00  0.00     0.238 A 
ATOM      4  O   UNL     1      31.007  59.251  23.518  1.00  0.00    -0.285 OA
ATOM      5  C   UNL     1      28.955  59.397  22.417  1.00  0.00     0.111 A 
ATOM      6  C   UNL     1      28.931  58.064  21.906  1.00  0.00     0.134 A 
ATOM      7  C   UNL     1      27.771  57.584  21.283  1.00  0.00     0.093 A 
ATOM      8  C   UNL     1      26.661  58.411  21.093  1.00  0.00     0.123 A 
ATOM      9  C   UNL     1      26.697  59.731  21.536  1.00  0.00     0.094 A 
ATOM     10  C   UNL     1      27.826  60.227  22.194  1.00  0.00     0.146 A 
ATOM     11  O   UNL     1      27.815  61.488  22.608  1.00  0.00    -0.452 OA
ENDROOT
BRANCH   1  12
ATOM     12  C   UNL     1      28.696  63.477  23.647  1.00  0.00     0.025 A 
ATOM     13  C   UNL     1      29.172  64.505  22.814  1.00  0.00     0.016 A 
ATOM     14  C   UNL     1      29.019  65.843  23.186  1.00  0.00     0.051 A 
ATOM     15  C   UNL     1      28.380  66.175  24.387  1.00  0.00     0.157 A 
ATOM     16  C   UNL     1      28.037  63.815  24.839  1.00  0.00     0.062 A 
ATOM     17  C   UNL     1      27.884  65.154  25.216  1.00  0.00     0.158 A 
BRANCH  15  18
ATOM     18  O   UNL     1      28.231  67.510  24.756  1.00  0.00    -0.504 OA
ATOM     19  H   UNL     1      28.626  68.262  24.202  1.00  0.00     0.293 HD
ENDBRANCH  15  18
BRANCH  17  20
ATOM     20  O   UNL     1      27.234  65.451  26.415  1.00  0.00    -0.504 OA
ATOM     21  H   UNL     1      27.362  66.336  26.890  1.00  0.00     0.293 HD
ENDBRANCH  17  20
ENDBRANCH   1  12
BRANCH   2  22
ATOM     22  O   UNL     1      30.982  61.844  24.359  1.00  0.00    -0.502 OA
ATOM     23  H   UNL     1      31.814  61.325  24.613  1.00  0.00     0.293 HD
ENDBRANCH   2  22
BRANCH   6  24
ATOM     24  O   UNL     1      30.018  57.187  21.960  1.00  0.00    -0.507 OA
ATOM     25  H   UNL     1      30.818  57.301  22.564  1.00  0.00     0.293 HD
ENDBRANCH   6  24
BRANCH   8  26
ATOM     26  O   UNL     1      25.518  57.930  20.459  1.00  0.00    -0.508 OA
ATOM     27  H   UNL     1      25.558  57.150  19.813  1.00  0.00     0.293 HD
ENDBRANCH   8  26
TORSDOF 6
ENDMDL
MODEL 6
REMARK VINA RESULT:     0.000      6.991      8.976
REMARK INTER + INTRA:          -0.335
REMARK INTER:                   0.000
REMARK INTRA:                  -0.335
REMARK UNBOUND:                -0.335
REMARK SMILES O=c1c(O)c(-c2ccc(O)c(O)c2)oc2cc(O)cc(O)c12
REMARK SMILES IDX 5 1 3 2 2 3 1 4 22 5 20 6 19 7 17 8 16 9 15 10 14 11 6 12
REMARK SMILES IDX 7 13 8 14 9 15 13 16 11 17 10 18 12 20 4 22 21 24 18 26
REMARK H PARENT 10 19 12 21 4 23 21 25 18 27
REMARK Flexibility Score: inf
ROOT
ATOM      1  C   UNL     1      28.319  62.827  20.937  1.00  0.00     0.180 A 
ATOM      2  C   UNL     1      28.876  62.693  22.221  1.00  0.00     0.208 A 
ATOM      3  C   UNL     1      29.361  61.439  22.626  1.00  0.00     0.238 A 
ATOM      4  O   UNL     1      29.808  61.312  23.795  1.00  0.00    -0.285 OA
ATOM      5  C   UNL     1      29.297  60.339  21.737  1.00  0.00     0.111 A 
ATOM      6  C   UNL     1      29.795  59.033  22.028  1.00  0.00     0.134 A 
ATOM      7  C   UNL     1      29.560  57.988  21.125  1.00  0.00     0.093 A 
ATOM      8  C   UNL     1      28.906  58.217  19.912  1.00  0.00     0.123 A 
ATOM      9  C   UNL     1      28.468  59.500  19.594  1.00  0.00     0.094 A 
ATOM     10  C   UNL     1      28.655  60.556  20.491  1.00  0.00     0.146 A 
ATOM     11  O   UNL     1      28.214  61.761  20.152  1.00  0.00    -0.452 OA
ENDROOT
BRANCH   1  12
ATOM     12  C   UNL     1      27.811  64.121  20.430  1.00  0.00     0.025 A 
ATOM     13  C   UNL     1      28.650  65.022  19.751  1.00  0.00     0.016 A 
ATOM     14  C   UNL     1      28.142  66.227  19.260  1.00  0.00     0.051 A 
ATOM     15  C   UNL     1      26.788  66.546  19.427  1.00  0.00     0.157 A 
ATOM     16  C   UNL     1      26.450  64.435  20.576  1.00  0.00     0.062 A 
ATOM     17  C   UNL     1      25.938  65.642  20.086  1.00  0.00     0.158 A 
BRANCH  15  18
ATOM     18  O   UNL     1      26.285  67.749  18.937  1.00  0.00    -0.504 OA
ATOM     19  H   UNL     1      26.715  68.638  19.169  1.00  0.00     0.293 HD
ENDBRANCH  15  18
BRANCH  17  20
ATOM     20  O   UNL     1      24.583  65.924  20.262  1.00  0.00    -0.504 OA
ATOM     21  H   UNL     1      24.180  66.070  21.180  1.00  0.00     0.293 HD
ENDBRANCH  17  20
ENDBRANCH   1  12
BRANCH   2  22
ATOM     22  O   UNL     1      28.909  63.787  23.091  1.00  0.00    -0.502 OA
ATOM     23  H   UNL     1      28.666  64.725  22.795  1.00  0.00     0.293 HD
ENDBRANCH   2  22
BRANCH   6  24
ATOM     24  O   UNL     1      30.542  58.717  23.167  1.00  0.00    -0.507 OA
ATOM     25  H   UNL     1      30.302  58.994  24.107  1.00  0.00     0.293 HD
ENDBRANCH   6  24
BRANCH   8  26
ATOM     26  O   UNL     1      28.691  57.175  19.014  1.00  0.00    -0.508 OA
ATOM     27  H   UNL     1      27.921  56.526  19.128  1.00  0.00     0.293 HD
ENDBRANCH   8  26
TORSDOF 6
ENDMDL
MODEL 7
REMARK VINA RESULT:     0.000     12.766     14.391
REMARK INTER + INTRA:          -0.335
REMARK INTER:                   0.000
REMARK INTRA:                  -0.335
REMARK UNBOUND:                -0.335
REMARK SMILES O=c1c(O)c(-c2ccc(O)c(O)c2)oc2cc(O)cc(O)c12
REMARK SMILES IDX 5 1 3 2 2 3 1 4 22 5 20 6 19 7 17 8 16 9 15 10 14 11 6 12
REMARK SMILES IDX 7 13 8 14 9 15 13 16 11 17 10 18 12 20 4 22 21 24 18 26
REMARK H PARENT 10 19 12 21 4 23 21 25 18 27
REMARK Flexibility Score: inf
ROOT
ATOM      1  C   UNL     1      26.810  55.086  20.562  1.00  0.00     0.180 A 
ATOM      2  C   UNL     1      27.197  53.749  20.762  1.00  0.00     0.208 A 
ATOM      3  C   UNL     1      28.555  53.409  20.647  1.00  0.00     0.238 A 
ATOM      4  O   UNL     1      28.889  52.202  20.773  1.00  0.00    -0.285 OA
ATOM      5  C   UNL     1      29.510  54.411  20.349  1.00  0.00     0.111 A 
ATOM      6  C   UNL     1      30.916  54.186  20.248  1.00  0.00     0.134 A 
ATOM      7  C   UNL     1      31.752  55.225  19.820  1.00  0.00     0.093 A 
ATOM      8  C   UNL     1      31.241  56.498  19.553  1.00  0.00     0.123 A 
ATOM      9  C   UNL     1      29.878  56.742  19.705  1.00  0.00     0.094 A 
ATOM     10  C   UNL     1      29.014  55.716  20.096  1.00  0.00     0.146 A 
ATOM     11  O   UNL     1      27.721  55.990  20.219  1.00  0.00    -0.452 OA
ENDROOT
BRANCH   1  12
ATOM     12  C   UNL     1      25.403  55.526  20.691  1.00  0.00     0.025 A 
ATOM     13  C   UNL     1      24.879  55.950  21.925  1.00  0.00     0.016 A 
ATOM     14  C   UNL     1      23.554  56.385  22.018  1.00  0.00     0.051 A 
ATOM     15  C   UNL     1      22.737  56.413  20.880  1.00  0.00     0.157 A 
ATOM     16  C   UNL     1      24.586  55.576  19.550  1.00  0.00     0.062 A 
ATOM     17  C   UNL     1      23.259  56.010  19.640  1.00  0.00     0.158 A 
BRANCH  15  18
ATOM     18  O   UNL     1      21.416  56.845  20.977  1.00  0.00    -0.504 OA
ATOM     19  H   UNL     1      20.834  56.601  21.771  1.00  0.00     0.293 HD
ENDBRANCH  15  18
BRANCH  17  20
ATOM     20  O   UNL     1      22.475  56.033  18.486  1.00  0.00    -0.504 OA
ATOM     21  H   UNL     1      21.496  56.295  18.507  1.00  0.00     0.293 HD
ENDBRANCH  17  20
ENDBRANCH   1  12
BRANCH   2  22
ATOM     22  O   UNL     1      26.236  52.772  21.033  1.00  0.00    -0.502 OA
ATOM     23  H   UNL     1      25.296  52.814  20.659  1.00  0.00     0.293 HD
ENDBRANCH   2  22
BRANCH   6  24
ATOM     24  O   UNL     1      31.540  52.980  20.580  1.00  0.00    -0.507 OA
ATOM     25  H   UNL     1      32.279  52.884  21.261  1.00  0.00     0.293 HD
ENDBRANCH   6  24
BRANCH   8  26
ATOM     26  O   UNL     1      32.082  57.529  19.142  1.00  0.00    -0.508 OA
ATOM     27  H   UNL     1      33.074  57.518  19.349  1.00  0.00     0.293 HD
ENDBRANCH   8  26
TORSDOF 6
ENDMDL
MODEL 8
REMARK VINA RESULT:     0.000      9.873     11.551
REMARK INTER + INTRA:          -0.335
REMARK INTER:                   0.000
REMARK INTRA:                  -0.335
REMARK UNBOUND:                -0.335
REMARK SMILES O=c1c(O)c(-c2ccc(O)c(O)c2)oc2cc(O)cc(O)c12
REMARK SMILES IDX 5 1 3 2 2 3 1 4 22 5 20 6 19 7 17 8 16 9 15 10 14 11 6 12
REMARK SMILES IDX 7 13 8 14 9 15 13 16 11 17 10 18 12 20 4 22 21 24 18 26
REMARK H PARENT 10 19 12 21 4 23 21 25 18 27
REMARK Flexibility Score: inf
ROOT
ATOM      1  C   UNL     1      22.013  58.287  23.831  1.00  0.00     0.180 A 
ATOM      2  C   UNL     1      21.334  59.441  24.262  1.00  0.00     0.208 A 
ATOM      3  C   UNL     1      19.960  59.358  24.543  1.00  0.00     0.238 A 
ATOM      4  O   UNL     1      19.347  60.405  24.876  1.00  0.00    -0.285 OA
ATOM      5  C   UNL     1      19.287  58.121  24.404  1.00  0.00     0.111 A 
ATOM      6  C   UNL     1      17.905  57.913  24.699  1.00  0.00     0.134 A 
ATOM      7  C   UNL     1      17.313  56.680  24.400  1.00  0.00     0.093 A 
ATOM      8  C   UNL     1      18.068  55.626  23.879  1.00  0.00     0.123 A 
ATOM      9  C   UNL     1      19.430  55.801  23.643  1.00  0.00     0.094 A 
ATOM     10  C   UNL     1      20.041  57.031  23.897  1.00  0.00     0.146 A 
ATOM     11  O   UNL     1      21.338  57.158  23.648  1.00  0.00    -0.452 OA
ENDROOT
BRANCH   1  12
ATOM     12  C   UNL     1      23.464  58.290  23.541  1.00  0.00     0.025 A 
ATOM     13  C   UNL     1      24.412  58.018  24.544  1.00  0.00     0.016 A 
ATOM     14  C   UNL     1      25.776  58.002  24.241  1.00  0.00     0.051 A 
ATOM     15  C   UNL     1      26.213  58.244  22.932  1.00  0.00     0.157 A 
ATOM     16  C   UNL     1      23.907  58.511  22.227  1.00  0.00     0.062 A 
ATOM     17  C   UNL     1      25.272  58.497  21.920  1.00  0.00     0.158 A 
BRANCH  15  18
ATOM     18  O   UNL     1      27.574  58.229  22.634  1.00  0.00    -0.504 OA
ATOM     19  H   UNL     1      28.093  59.086  22.478  1.00  0.00     0.293 HD
ENDBRANCH  15  18
BRANCH  17  20
ATOM     20  O   UNL     1      25.673  58.734  20.605  1.00  0.00    -0.504 OA
ATOM     21  H   UNL     1      25.131  58.413  19.812  1.00  0.00     0.293 HD
ENDBRANCH  17  20
ENDBRANCH   1  12
BRANCH   2  22
ATOM     22  O   UNL     1      22.014  60.657  24.371  1.00  0.00    -0.502 OA
ATOM     23  H   UNL     1      22.580  61.034  23.620  1.00  0.00     0.293 HD
ENDBRANCH   2  22
BRANCH   6  24
ATOM     24  O   UNL     1      17.084  58.868  25.305  1.00  0.00    -0.507 OA
ATOM     25  H   UNL     1      16.577  59.587  24.811  1.00  0.00     0.293 HD
ENDBRANCH   6  24
BRANCH   8  26
ATOM     26  O   UNL     1      17.475  54.397  23.599  1.00  0.00    -0.508 OA
ATOM     27  H   UNL     1      16.818  53.968  24.240  1.00  0.00     0.293 HD
ENDBRANCH   8  26
TORSDOF 6
ENDMDL
MODEL 9
REMARK VINA RESULT:     0.000      9.039     12.191
REMARK INTER + INTRA:          -0.335
REMARK INTER:                   0.000
REMARK INTRA:                  -0.335
REMARK UNBOUND:                -0.335
REMARK SMILES O=c1c(O)c(-c2ccc(O)c(O)c2)oc2cc(O)cc(O)c12
REMARK SMILES IDX 5 1 3 2 2 3 1 4 22 5 20 6 19 7 17 8 16 9 15 10 14 11 6 12
REMARK SMILES IDX 7 13 8 14 9 15 13 16 11 17 10 18 12 20 4 22 21 24 18 26
REMARK H PARENT 10 19 12 21 4 23 21 25 18 27
REMARK Flexibility Score: inf
ROOT
ATOM      1  C   UNL     1      30.416  61.346  25.041  1.00  0.00     0.180 A 
ATOM      2  C   UNL     1      29.153  60.769  25.262  1.00  0.00     0.208 A 
ATOM      3  C   UNL     1      28.823  60.329  26.555  1.00  0.00     0.238 A 
ATOM      4  O   UNL     1      27.712  59.764  26.736  1.00  0.00    -0.285 OA
ATOM      5  C   UNL     1      29.752  60.484  27.610  1.00  0.00     0.111 A 
ATOM      6  C   UNL     1      29.508  60.109  28.966  1.00  0.00     0.134 A 
ATOM      7  C   UNL     1      30.547  60.187  29.902  1.00  0.00     0.093 A 
ATOM      8  C   UNL     1      31.802  60.688  29.546  1.00  0.00     0.123 A 
ATOM      9  C   UNL     1      32.031  61.111  28.238  1.00  0.00     0.094 A 
ATOM     10  C   UNL     1      31.025  61.012  27.274  1.00  0.00     0.146 A 
ATOM     11  O   UNL     1      31.290  61.417  26.038  1.00  0.00    -0.452 OA
ENDROOT
BRANCH   1  12
ATOM     12  C   UNL     1      30.826  61.856  23.714  1.00  0.00     0.025 A 
ATOM     13  C   UNL     1      30.568  63.184  23.328  1.00  0.00     0.016 A 
ATOM     14  C   UNL     1      30.987  63.651  22.080  1.00  0.00     0.051 A 
ATOM     15  C   UNL     1      31.679  62.805  21.203  1.00  0.00     0.157 A 
ATOM     16  C   UNL     1      31.539  61.019  22.840  1.00  0.00     0.062 A 
ATOM     17  C   UNL     1      31.959  61.484  21.589  1.00  0.00     0.158 A 
BRANCH  15  18
ATOM     18  O   UNL     1      32.094  63.274  19.958  1.00  0.00    -0.504 OA
ATOM     19  H   UNL     1      31.514  63.172  19.133  1.00  0.00     0.293 HD
ENDBRANCH  15  18
BRANCH  17  20
ATOM     20  O   UNL     1      32.654  60.618  20.743  1.00  0.00    -0.504 OA
ATOM     21  H   UNL     1      32.185  60.074  20.028  1.00  0.00     0.293 HD
ENDBRANCH  17  20
ENDBRANCH   1  12
BRANCH   2  22
ATOM     22  O   UNL     1      28.258  60.606  24.201  1.00  0.00    -0.502 OA
ATOM     23  H   UNL     1      27.898  61.388  23.667  1.00  0.00     0.293 HD
ENDBRANCH   2  22
BRANCH   6  24
ATOM     24  O   UNL     1      28.266  59.684  29.447  1.00  0.00    -0.507 OA
ATOM     25  H   UNL     1      27.758  60.129  30.197  1.00  0.00     0.293 HD
ENDBRANCH   6  24
BRANCH   8  26
ATOM     26  O   UNL     1      32.824  60.777  30.486  1.00  0.00    -0.508 OA
ATOM     27  H   UNL     1      33.553  60.075  30.546  1.00  0.00     0.293 HD
ENDBRANCH   8  26
TORSDOF 6
ENDMDL
