MODEL 1
REMARK VINA RESULT:    -7.065      0.000      0.000
REMARK INTER + INTRA:         -18.100
REMARK INTER:                 -16.152
REMARK INTRA:                  -1.948
REMARK UNBOUND:                -1.948
REMARK SMILES CCCCCCCCCCCCCCCCCCCCCCCC(=O)[O-]
REMARK SMILES IDX 13 1 14 2 15 3 16 4 17 5 18 6 19 7 20 8 21 9 22 10 23 11
REMARK SMILES IDX 24 12 25 13 26 14 12 15 11 16 10 17 9 18 8 19 7 20 6 21 5 22
REMARK SMILES IDX 4 23 3 24 2 25 1 26
REMARK H PARENT
REMARK Flexibility Score: inf
ROOT
ATOM      1  C   UNL     1     -21.708 -22.995  29.188  1.00  0.00     0.000 C 
ENDROOT
BRANCH   1   2
ATOM      2  C   UNL     1     -22.763 -23.870  28.489  1.00  0.00     0.000 C 
BRANCH   2   3
ATOM      3  C   UNL     1     -23.288 -24.999  29.402  1.00  0.00     0.000 C 
BRANCH   3   4
ATOM      4  C   UNL     1     -23.048 -24.744  30.904  1.00  0.00     0.000 C 
BRANCH   4   5
ATOM      5  C   UNL     1     -24.048 -25.436  31.847  1.00  0.00     0.000 C 
BRANCH   5   6
ATOM      6  C   UNL     1     -25.379 -25.857  31.191  1.00  0.00     0.000 C 
BRANCH   6   7
ATOM      7  C   UNL     1     -25.837 -27.282  31.568  1.00  0.00     0.000 C 
BRANCH   7   8
ATOM      8  C   UNL     1     -26.108 -28.161  30.334  1.00  0.00     0.000 C 
BRANCH   8   9
ATOM      9  C   UNL     1     -25.823 -27.409  29.014  1.00  0.00     0.000 C 
BRANCH   9  10
ATOM     10  C   UNL     1     -25.941 -28.303  27.767  1.00  0.00     0.006 C 
BRANCH  10  11
ATOM     11  C   UNL     1     -27.192 -28.021  26.920  1.00  0.00     0.053 C 
BRANCH  11  12
ATOM     12  C   UNL     1     -27.128 -28.697  25.584  1.00  0.00     0.041 C 
ATOM     13  O   UNL     1     -26.015 -29.009  25.085  1.00  0.00    -0.550 OA
ATOM     14  O   UNL     1     -28.297 -28.977  24.887  1.00  0.00    -0.550 OA
ENDBRANCH  11  12
ENDBRANCH  10  11
ENDBRANCH   9  10
ENDBRANCH   8   9
ENDBRANCH   7   8
ENDBRANCH   6   7
ENDBRANCH   5   6
ENDBRANCH   4   5
ENDBRANCH   3   4
ENDBRANCH   2   3
ENDBRANCH   1   2
BRANCH   1  15
ATOM     15  C   UNL     1     -22.011 -21.492  29.071  1.00  0.00     0.000 C 
BRANCH  15  16
ATOM     16  C   UNL     1     -22.521 -20.890  30.391  1.00  0.00     0.000 C 
BRANCH  16  17
ATOM     17  C   UNL     1     -21.749 -21.400  31.619  1.00  0.00     0.000 C 
BRANCH  17  18
ATOM     18  C   UNL     1     -20.582 -20.478  32.014  1.00  0.00    -0.000 C 
BRANCH  18  19
ATOM     19  C   UNL     1     -20.835 -19.004  31.648  1.00  0.00    -0.000 C 
BRANCH  19  20
ATOM     20  C   UNL     1     -19.747 -18.353  30.768  1.00  0.00    -0.000 C 
BRANCH  20  21
ATOM     21  C   UNL     1     -20.038 -18.346  29.254  1.00  0.00    -0.000 C 
BRANCH  21  22
ATOM     22  C   UNL     1     -19.562 -17.090  28.500  1.00  0.00    -0.000 C 
BRANCH  22  23
ATOM     23  C   UNL     1     -18.355 -16.413  29.171  1.00  0.00    -0.000 C 
BRANCH  23  24
ATOM     24  C   UNL     1     -17.516 -15.578  28.186  1.00  0.00    -0.000 C 
BRANCH  24  25
ATOM     25  C   UNL     1     -17.977 -15.643  26.719  1.00  0.00    -0.003 C 
ATOM     26  C   UNL     1     -16.855 -15.343  25.726  1.00  0.00     0.004 C 
ENDBRANCH  24  25
ENDBRANCH  23  24
ENDBRANCH  22  23
ENDBRANCH  21  22
ENDBRANCH  20  21
ENDBRANCH  19  20
ENDBRANCH  18  19
ENDBRANCH  17  18
ENDBRANCH  16  17
ENDBRANCH  15  16
ENDBRANCH   1  15
TORSDOF 22
ENDMDL
MODEL 2
REMARK VINA RESULT:    -7.012      4.664     11.370
REMARK INTER + INTRA:         -17.980
REMARK INTER:                 -15.863
REMARK INTRA:                  -2.117
REMARK UNBOUND:                -1.948
REMARK SMILES CCCCCCCCCCCCCCCCCCCCCCCC(=O)[O-]
REMARK SMILES IDX 13 1 14 2 15 3 16 4 17 5 18 6 19 7 20 8 21 9 22 10 23 11
REMARK SMILES IDX 24 12 25 13 26 14 12 15 11 16 10 17 9 18 8 19 7 20 6 21 5 22
REMARK SMILES IDX 4 23 3 24 2 25 1 26
REMARK H PARENT
REMARK Flexibility Score: inf
ROOT
ATOM      1  C   UNL     1     -22.473 -21.042  29.139  1.00  0.00     0.000 C 
ENDROOT
BRANCH   1   2
ATOM      2  C   UNL     1     -21.393 -20.073  28.626  1.00  0.00     0.000 C 
BRANCH   2   3
ATOM      3  C   UNL     1     -21.258 -18.820  29.517  1.00  0.00     0.000 C 
BRANCH   3   4
ATOM      4  C   UNL     1     -21.439 -19.106  31.022  1.00  0.00     0.000 C 
BRANCH   4   5
ATOM      5  C   UNL     1     -20.133 -19.340  31.801  1.00  0.00     0.000 C 
BRANCH   5   6
ATOM      6  C   UNL     1     -18.893 -18.628  31.222  1.00  0.00     0.000 C 
BRANCH   6   7
ATOM      7  C   UNL     1     -18.784 -17.141  31.621  1.00  0.00     0.000 C 
BRANCH   7   8
ATOM      8  C   UNL     1     -18.331 -16.249  30.452  1.00  0.00     0.000 C 
BRANCH   8   9
ATOM      9  C   UNL     1     -18.237 -17.035  29.125  1.00  0.00     0.000 C 
BRANCH   9  10
ATOM     10  C   UNL     1     -18.574 -16.185  27.887  1.00  0.00     0.006 C 
BRANCH  10  11
ATOM     11  C   UNL     1     -17.393 -15.346  27.373  1.00  0.00     0.053 C 
BRANCH  11  12
ATOM     12  C   UNL     1     -17.302 -15.364  25.878  1.00  0.00     0.041 C 
ATOM     13  O   UNL     1     -16.189 -15.525  25.313  1.00  0.00    -0.550 OA
ATOM     14  O   UNL     1     -18.447 -15.198  25.106  1.00  0.00    -0.550 OA
ENDBRANCH  11  12
ENDBRANCH  10  11
ENDBRANCH   9  10
ENDBRANCH   8   9
ENDBRANCH   7   8
ENDBRANCH   6   7
ENDBRANCH   5   6
ENDBRANCH   4   5
ENDBRANCH   3   4
ENDBRANCH   2   3
ENDBRANCH   1   2
BRANCH   1  15
ATOM     15  C   UNL     1     -22.131 -22.514  28.857  1.00  0.00     0.000 C 
BRANCH  15  16
ATOM     16  C   UNL     1     -21.654 -23.258  30.115  1.00  0.00     0.000 C 
BRANCH  16  17
ATOM     17  C   UNL     1     -22.323 -22.749  31.402  1.00  0.00     0.000 C 
BRANCH  17  18
ATOM     18  C   UNL     1     -23.620 -23.505  31.738  1.00  0.00    -0.000 C 
BRANCH  18  19
ATOM     19  C   UNL     1     -23.465 -25.034  31.635  1.00  0.00    -0.000 C 
BRANCH  19  20
ATOM     20  C   UNL     1     -24.429 -25.723  30.647  1.00  0.00    -0.000 C 
BRANCH  20  21
ATOM     21  C   UNL     1     -23.866 -25.965  29.232  1.00  0.00    -0.000 C 
BRANCH  21  22
ATOM     22  C   UNL     1     -24.562 -27.081  28.430  1.00  0.00    -0.000 C 
BRANCH  22  23
ATOM     23  C   UNL     1     -26.032 -27.278  28.835  1.00  0.00    -0.000 C 
BRANCH  23  24
ATOM     24  C   UNL     1     -26.740 -28.364  28.004  1.00  0.00    -0.000 C 
BRANCH  24  25
ATOM     25  C   UNL     1     -26.373 -28.382  26.509  1.00  0.00    -0.003 C 
ATOM     26  C   UNL     1     -27.537 -28.799  25.612  1.00  0.00     0.004 C 
ENDBRANCH  24  25
ENDBRANCH  23  24
ENDBRANCH  22  23
ENDBRANCH  21  22
ENDBRANCH  20  21
ENDBRANCH  19  20
ENDBRANCH  18  19
ENDBRANCH  17  18
ENDBRANCH  16  17
ENDBRANCH  15  16
ENDBRANCH   1  15
TORSDOF 22
ENDMDL
MODEL 3
REMARK VINA RESULT:    -6.904      1.115      1.885
REMARK INTER + INTRA:         -17.732
REMARK INTER:                 -15.931
REMARK INTRA:                  -1.802
REMARK UNBOUND:                -1.948
REMARK SMILES CCCCCCCCCCCCCCCCCCCCCCCC(=O)[O-]
REMARK SMILES IDX 13 1 14 2 15 3 16 4 17 5 18 6 19 7 20 8 21 9 22 10 23 11
REMARK SMILES IDX 24 12 25 13 26 14 12 15 11 16 10 17 9 18 8 19 7 20 6 21 5 22
REMARK SMILES IDX 4 23 3 24 2 25 1 26
REMARK H PARENT
REMARK Flexibility Score: inf
ROOT
ATOM      1  C   UNL     1     -22.550 -21.023  29.070  1.00  0.00     0.000 C 
ENDROOT
BRANCH   1   2
ATOM      2  C   UNL     1     -22.319 -22.470  28.600  1.00  0.00     0.000 C 
BRANCH   2   3
ATOM      3  C   UNL     1     -21.873 -23.397  29.751  1.00  0.00     0.000 C 
BRANCH   3   4
ATOM      4  C   UNL     1     -22.158 -22.825  31.154  1.00  0.00     0.000 C 
BRANCH   4   5
ATOM      5  C   UNL     1     -23.352 -23.463  31.886  1.00  0.00     0.000 C 
BRANCH   5   6
ATOM      6  C   UNL     1     -23.440 -24.999  31.771  1.00  0.00     0.000 C 
BRANCH   6   7
ATOM      7  C   UNL     1     -24.722 -25.500  31.072  1.00  0.00     0.000 C 
BRANCH   7   8
ATOM      8  C   UNL     1     -24.448 -26.048  29.660  1.00  0.00     0.000 C 
BRANCH   8   9
ATOM      9  C   UNL     1     -25.726 -26.611  28.999  1.00  0.00     0.000 C 
BRANCH   9  10
ATOM     10  C   UNL     1     -25.438 -27.696  27.946  1.00  0.00     0.006 C 
BRANCH  10  11
ATOM     11  C   UNL     1     -26.685 -28.484  27.513  1.00  0.00     0.053 C 
BRANCH  11  12
ATOM     12  C   UNL     1     -26.874 -28.463  26.028  1.00  0.00     0.041 C 
ATOM     13  O   UNL     1     -27.852 -27.852  25.523  1.00  0.00    -0.550 OA
ATOM     14  O   UNL     1     -25.974 -29.123  25.199  1.00  0.00    -0.550 OA
ENDBRANCH  11  12
ENDBRANCH  10  11
ENDBRANCH   9  10
ENDBRANCH   8   9
ENDBRANCH   7   8
ENDBRANCH   6   7
ENDBRANCH   5   6
ENDBRANCH   4   5
ENDBRANCH   3   4
ENDBRANCH   2   3
ENDBRANCH   1   2
BRANCH   1  15
ATOM     15  C   UNL     1     -21.604 -20.020  28.390  1.00  0.00     0.000 C 
BRANCH  15  16
ATOM     16  C   UNL     1     -21.152 -18.899  29.341  1.00  0.00     0.000 C 
BRANCH  16  17
ATOM     17  C   UNL     1     -21.441 -19.214  30.817  1.00  0.00     0.000 C 
BRANCH  17  18
ATOM     18  C   UNL     1     -20.161 -19.341  31.661  1.00  0.00    -0.000 C 
BRANCH  18  19
ATOM     19  C   UNL     1     -18.945 -18.657  31.009  1.00  0.00    -0.000 C 
BRANCH  19  20
ATOM     20  C   UNL     1     -18.562 -17.290  31.613  1.00  0.00    -0.000 C 
BRANCH  20  21
ATOM     21  C   UNL     1     -18.495 -16.119  30.611  1.00  0.00    -0.000 C 
BRANCH  21  22
ATOM     22  C   UNL     1     -18.652 -16.512  29.130  1.00  0.00    -0.000 C 
BRANCH  22  23
ATOM     23  C   UNL     1     -17.831 -15.617  28.186  1.00  0.00    -0.000 C 
BRANCH  23  24
ATOM     24  C   UNL     1     -17.850 -16.112  26.728  1.00  0.00    -0.000 C 
BRANCH  24  25
ATOM     25  C   UNL     1     -17.481 -15.051  25.675  1.00  0.00    -0.003 C 
ATOM     26  C   UNL     1     -16.045 -15.183  25.171  1.00  0.00     0.004 C 
ENDBRANCH  24  25
ENDBRANCH  23  24
ENDBRANCH  22  23
ENDBRANCH  21  22
ENDBRANCH  20  21
ENDBRANCH  19  20
ENDBRANCH  18  19
ENDBRANCH  17  18
ENDBRANCH  16  17
ENDBRANCH  15  16
ENDBRANCH   1  15
TORSDOF 22
ENDMDL
MODEL 4
REMARK VINA RESULT:    -6.801      4.569     11.388
REMARK INTER + INTRA:         -17.497
REMARK INTER:                 -15.729
REMARK INTRA:                  -1.768
REMARK UNBOUND:                -1.948
REMARK SMILES CCCCCCCCCCCCCCCCCCCCCCCC(=O)[O-]
REMARK SMILES IDX 13 1 14 2 15 3 16 4 17 5 18 6 19 7 20 8 21 9 22 10 23 11
REMARK SMILES IDX 24 12 25 13 26 14 12 15 11 16 10 17 9 18 8 19 7 20 6 21 5 22
REMARK SMILES IDX 4 23 3 24 2 25 1 26
REMARK H PARENT
REMARK Flexibility Score: inf
ROOT
ATOM      1  C   UNL     1     -22.136 -21.748  28.621  1.00  0.00     0.000 C 
ENDROOT
BRANCH   1   2
ATOM      2  C   UNL     1     -22.268 -20.697  29.738  1.00  0.00     0.000 C 
BRANCH   2   3
ATOM      3  C   UNL     1     -22.024 -21.297  31.139  1.00  0.00     0.000 C 
BRANCH   3   4
ATOM      4  C   UNL     1     -20.890 -20.605  31.922  1.00  0.00     0.000 C 
BRANCH   4   5
ATOM      5  C   UNL     1     -20.826 -19.076  31.759  1.00  0.00     0.000 C 
BRANCH   5   6
ATOM      6  C   UNL     1     -19.410 -18.502  31.547  1.00  0.00     0.000 C 
BRANCH   6   7
ATOM      7  C   UNL     1     -18.922 -18.569  30.084  1.00  0.00     0.000 C 
BRANCH   7   8
ATOM      8  C   UNL     1     -19.931 -17.956  29.097  1.00  0.00     0.000 C 
BRANCH   8   9
ATOM      9  C   UNL     1     -19.425 -16.622  28.505  1.00  0.00     0.000 C 
BRANCH   9  10
ATOM     10  C   UNL     1     -17.959 -16.679  28.040  1.00  0.00     0.006 C 
BRANCH  10  11
ATOM     11  C   UNL     1     -17.425 -15.339  27.508  1.00  0.00     0.053 C 
BRANCH  11  12
ATOM     12  C   UNL     1     -17.295 -15.340  26.016  1.00  0.00     0.041 C 
ATOM     13  O   UNL     1     -16.158 -15.401  25.480  1.00  0.00    -0.550 OA
ATOM     14  O   UNL     1     -18.429 -15.269  25.216  1.00  0.00    -0.550 OA
ENDBRANCH  11  12
ENDBRANCH  10  11
ENDBRANCH   9  10
ENDBRANCH   8   9
ENDBRANCH   7   8
ENDBRANCH   6   7
ENDBRANCH   5   6
ENDBRANCH   4   5
ENDBRANCH   3   4
ENDBRANCH   2   3
ENDBRANCH   1   2
BRANCH   1  15
ATOM     15  C   UNL     1     -21.762 -23.139  29.157  1.00  0.00     0.000 C 
BRANCH  15  16
ATOM     16  C   UNL     1     -22.711 -24.239  28.652  1.00  0.00     0.000 C 
BRANCH  16  17
ATOM     17  C   UNL     1     -23.819 -24.582  29.660  1.00  0.00     0.000 C 
BRANCH  17  18
ATOM     18  C   UNL     1     -23.286 -24.775  31.090  1.00  0.00    -0.000 C 
BRANCH  18  19
ATOM     19  C   UNL     1     -24.236 -25.603  31.976  1.00  0.00    -0.000 C 
BRANCH  19  20
ATOM     20  C   UNL     1     -25.540 -26.058  31.288  1.00  0.00    -0.000 C 
BRANCH  20  21
ATOM     21  C   UNL     1     -25.526 -27.494  30.727  1.00  0.00    -0.000 C 
BRANCH  21  22
ATOM     22  C   UNL     1     -25.145 -27.615  29.240  1.00  0.00    -0.000 C 
BRANCH  22  23
ATOM     23  C   UNL     1     -26.300 -27.239  28.297  1.00  0.00    -0.000 C 
BRANCH  23  24
ATOM     24  C   UNL     1     -26.784 -28.426  27.443  1.00  0.00    -0.000 C 
BRANCH  24  25
ATOM     25  C   UNL     1     -27.112 -28.085  25.978  1.00  0.00    -0.003 C 
ATOM     26  C   UNL     1     -27.569 -29.297  25.170  1.00  0.00     0.004 C 
ENDBRANCH  24  25
ENDBRANCH  23  24
ENDBRANCH  22  23
ENDBRANCH  21  22
ENDBRANCH  20  21
ENDBRANCH  19  20
ENDBRANCH  18  19
ENDBRANCH  17  18
ENDBRANCH  16  17
ENDBRANCH  15  16
ENDBRANCH   1  15
TORSDOF 22
ENDMDL
MODEL 5
REMARK VINA RESULT:    -6.717      2.016      2.536
REMARK INTER + INTRA:         -17.304
REMARK INTER:                 -15.993
REMARK INTRA:                  -1.311
REMARK UNBOUND:                -1.948
REMARK SMILES CCCCCCCCCCCCCCCCCCCCCCCC(=O)[O-]
REMARK SMILES IDX 13 1 14 2 15 3 16 4 17 5 18 6 19 7 20 8 21 9 22 10 23 11
REMARK SMILES IDX 24 12 25 13 26 14 12 15 11 16 10 17 9 18 8 19 7 20 6 21 5 22
REMARK SMILES IDX 4 23 3 24 2 25 1 26
REMARK H PARENT
REMARK Flexibility Score: inf
ROOT
ATOM      1  C   UNL     1     -22.008 -22.174  28.508  1.00  0.00     0.000 C 
ENDROOT
BRANCH   1   2
ATOM      2  C   UNL     1     -21.985 -23.184  29.669  1.00  0.00     0.000 C 
BRANCH   2   3
ATOM      3  C   UNL     1     -22.155 -22.502  31.043  1.00  0.00     0.000 C 
BRANCH   3   4
ATOM      4  C   UNL     1     -23.026 -23.304  32.031  1.00  0.00     0.000 C 
BRANCH   4   5
ATOM      5  C   UNL     1     -23.352 -24.742  31.590  1.00  0.00     0.000 C 
BRANCH   5   6
ATOM      6  C   UNL     1     -24.839 -25.137  31.702  1.00  0.00     0.000 C 
BRANCH   6   7
ATOM      7  C   UNL     1     -25.377 -25.898  30.471  1.00  0.00     0.000 C 
BRANCH   7   8
ATOM      8  C   UNL     1     -24.288 -26.156  29.416  1.00  0.00     0.000 C 
BRANCH   8   9
ATOM      9  C   UNL     1     -24.751 -27.163  28.339  1.00  0.00     0.000 C 
BRANCH   9  10
ATOM     10  C   UNL     1     -26.258 -27.469  28.400  1.00  0.00     0.006 C 
BRANCH  10  11
ATOM     11  C   UNL     1     -26.581 -28.967  28.526  1.00  0.00     0.053 C 
BRANCH  11  12
ATOM     12  C   UNL     1     -26.598 -29.418  29.955  1.00  0.00     0.041 C 
ATOM     13  O   UNL     1     -26.495 -28.577  30.886  1.00  0.00    -0.550 OA
ATOM     14  O   UNL     1     -26.722 -30.768  30.259  1.00  0.00    -0.550 OA
ENDBRANCH  11  12
ENDBRANCH  10  11
ENDBRANCH   9  10
ENDBRANCH   8   9
ENDBRANCH   7   8
ENDBRANCH   6   7
ENDBRANCH   5   6
ENDBRANCH   4   5
ENDBRANCH   3   4
ENDBRANCH   2   3
ENDBRANCH   1   2
BRANCH   1  15
ATOM     15  C   UNL     1     -22.420 -20.763  28.957  1.00  0.00     0.000 C 
BRANCH  15  16
ATOM     16  C   UNL     1     -21.227 -19.794  29.017  1.00  0.00     0.000 C 
BRANCH  16  17
ATOM     17  C   UNL     1     -21.288 -18.844  30.224  1.00  0.00     0.000 C 
BRANCH  17  18
ATOM     18  C   UNL     1     -20.394 -19.302  31.389  1.00  0.00    -0.000 C 
BRANCH  18  19
ATOM     19  C   UNL     1     -19.069 -18.521  31.468  1.00  0.00    -0.000 C 
BRANCH  19  20
ATOM     20  C   UNL     1     -19.147 -17.052  31.005  1.00  0.00    -0.000 C 
BRANCH  20  21
ATOM     21  C   UNL     1     -18.525 -16.758  29.625  1.00  0.00    -0.000 C 
BRANCH  21  22
ATOM     22  C   UNL     1     -17.846 -15.383  29.490  1.00  0.00    -0.000 C 
BRANCH  22  23
ATOM     23  C   UNL     1     -17.182 -15.178  28.118  1.00  0.00    -0.000 C 
BRANCH  23  24
ATOM     24  C   UNL     1     -17.886 -15.958  26.992  1.00  0.00    -0.000 C 
BRANCH  24  25
ATOM     25  C   UNL     1     -17.774 -15.327  25.593  1.00  0.00    -0.003 C 
ATOM     26  C   UNL     1     -16.356 -14.868  25.256  1.00  0.00     0.004 C 
ENDBRANCH  24  25
ENDBRANCH  23  24
ENDBRANCH  22  23
ENDBRANCH  21  22
ENDBRANCH  20  21
ENDBRANCH  19  20
ENDBRANCH  18  19
ENDBRANCH  17  18
ENDBRANCH  16  17
ENDBRANCH  15  16
ENDBRANCH   1  15
TORSDOF 22
ENDMDL
MODEL 6
REMARK VINA RESULT:    -6.647      4.779     11.512
REMARK INTER + INTRA:         -17.144
REMARK INTER:                 -15.611
REMARK INTRA:                  -1.533
REMARK UNBOUND:                -1.948
REMARK SMILES CCCCCCCCCCCCCCCCCCCCCCCC(=O)[O-]
REMARK SMILES IDX 13 1 14 2 15 3 16 4 17 5 18 6 19 7 20 8 21 9 22 10 23 11
REMARK SMILES IDX 24 12 25 13 26 14 12 15 11 16 10 17 9 18 8 19 7 20 6 21 5 22
REMARK SMILES IDX 4 23 3 24 2 25 1 26
REMARK H PARENT
REMARK Flexibility Score: inf
ROOT
ATOM      1  C   UNL     1     -22.924 -23.874  29.433  1.00  0.00     0.000 C 
ENDROOT
BRANCH   1   2
ATOM      2  C   UNL     1     -22.291 -23.953  30.834  1.00  0.00     0.000 C 
BRANCH   2   3
ATOM      3  C   UNL     1     -22.684 -22.754  31.723  1.00  0.00     0.000 C 
BRANCH   3   4
ATOM      4  C   UNL     1     -21.691 -21.576  31.652  1.00  0.00     0.000 C 
BRANCH   4   5
ATOM      5  C   UNL     1     -22.161 -20.380  30.805  1.00  0.00     0.000 C 
BRANCH   5   6
ATOM      6  C   UNL     1     -21.727 -20.419  29.325  1.00  0.00     0.000 C 
BRANCH   6   7
ATOM      7  C   UNL     1     -21.206 -19.066  28.793  1.00  0.00     0.000 C 
BRANCH   7   8
ATOM      8  C   UNL     1     -20.687 -18.151  29.916  1.00  0.00     0.000 C 
BRANCH   8   9
ATOM      9  C   UNL     1     -19.174 -18.342  30.166  1.00  0.00     0.000 C 
BRANCH   9  10
ATOM     10  C   UNL     1     -18.299 -17.877  28.989  1.00  0.00     0.006 C 
BRANCH  10  11
ATOM     11  C   UNL     1     -18.813 -16.602  28.301  1.00  0.00     0.053 C 
BRANCH  11  12
ATOM     12  C   UNL     1     -17.694 -15.687  27.908  1.00  0.00     0.041 C 
ATOM     13  O   UNL     1     -17.086 -15.018  28.784  1.00  0.00    -0.550 OA
ATOM     14  O   UNL     1     -17.325 -15.568  26.573  1.00  0.00    -0.550 OA
ENDBRANCH  11  12
ENDBRANCH  10  11
ENDBRANCH   9  10
ENDBRANCH   8   9
ENDBRANCH   7   8
ENDBRANCH   6   7
ENDBRANCH   5   6
ENDBRANCH   4   5
ENDBRANCH   3   4
ENDBRANCH   2   3
ENDBRANCH   1   2
BRANCH   1  15
ATOM     15  C   UNL     1     -22.789 -25.188  28.646  1.00  0.00     0.000 C 
BRANCH  15  16
ATOM     16  C   UNL     1     -23.822 -26.242  29.079  1.00  0.00     0.000 C 
BRANCH  16  17
ATOM     17  C   UNL     1     -25.103 -25.621  29.659  1.00  0.00     0.000 C 
BRANCH  17  18
ATOM     18  C   UNL     1     -25.361 -26.040  31.117  1.00  0.00    -0.000 C 
BRANCH  18  19
ATOM     19  C   UNL     1     -26.226 -27.310  31.229  1.00  0.00    -0.000 C 
BRANCH  19  20
ATOM     20  C   UNL     1     -25.820 -28.463  30.287  1.00  0.00    -0.000 C 
BRANCH  20  21
ATOM     21  C   UNL     1     -26.968 -29.077  29.461  1.00  0.00    -0.000 C 
BRANCH  21  22
ATOM     22  C   UNL     1     -27.270 -28.368  28.127  1.00  0.00    -0.000 C 
BRANCH  22  23
ATOM     23  C   UNL     1     -26.051 -28.317  27.191  1.00  0.00    -0.000 C 
BRANCH  23  24
ATOM     24  C   UNL     1     -26.394 -28.719  25.743  1.00  0.00    -0.000 C 
BRANCH  24  25
ATOM     25  C   UNL     1     -27.891 -28.947  25.468  1.00  0.00    -0.003 C 
ATOM     26  C   UNL     1     -28.461 -27.986  24.426  1.00  0.00     0.004 C 
ENDBRANCH  24  25
ENDBRANCH  23  24
ENDBRANCH  22  23
ENDBRANCH  21  22
ENDBRANCH  20  21
ENDBRANCH  19  20
ENDBRANCH  18  19
ENDBRANCH  17  18
ENDBRANCH  16  17
ENDBRANCH  15  16
ENDBRANCH   1  15
TORSDOF 22
ENDMDL
MODEL 7
REMARK VINA RESULT:    -6.622      0.822      1.681
REMARK INTER + INTRA:         -17.088
REMARK INTER:                 -15.865
REMARK INTRA:                  -1.223
REMARK UNBOUND:                -1.948
REMARK SMILES CCCCCCCCCCCCCCCCCCCCCCCC(=O)[O-]
REMARK SMILES IDX 13 1 14 2 15 3 16 4 17 5 18 6 19 7 20 8 21 9 22 10 23 11
REMARK SMILES IDX 24 12 25 13 26 14 12 15 11 16 10 17 9 18 8 19 7 20 6 21 5 22
REMARK SMILES IDX 4 23 3 24 2 25 1 26
REMARK H PARENT
REMARK Flexibility Score: inf
ROOT
ATOM      1  C   UNL     1     -22.360 -21.403  29.495  1.00  0.00     0.000 C 
ENDROOT
BRANCH   1   2
ATOM      2  C   UNL     1     -22.398 -22.664  28.613  1.00  0.00     0.000 C 
BRANCH   2   3
ATOM      3  C   UNL     1     -22.087 -23.948  29.412  1.00  0.00     0.000 C 
BRANCH   3   4
ATOM      4  C   UNL     1     -23.301 -24.885  29.579  1.00  0.00     0.000 C 
BRANCH   4   5
ATOM      5  C   UNL     1     -23.785 -25.069  31.028  1.00  0.00     0.000 C 
BRANCH   5   6
ATOM      6  C   UNL     1     -25.042 -25.949  31.188  1.00  0.00     0.000 C 
BRANCH   6   7
ATOM      7  C   UNL     1     -25.216 -26.998  30.070  1.00  0.00     0.000 C 
BRANCH   7   8
ATOM      8  C   UNL     1     -26.146 -28.152  30.484  1.00  0.00     0.000 C 
BRANCH   8   9
ATOM      9  C   UNL     1     -26.710 -28.909  29.261  1.00  0.00     0.000 C 
BRANCH   9  10
ATOM     10  C   UNL     1     -26.203 -28.358  27.916  1.00  0.00     0.006 C 
BRANCH  10  11
ATOM     11  C   UNL     1     -27.323 -28.059  26.908  1.00  0.00     0.053 C 
BRANCH  11  12
ATOM     12  C   UNL     1     -27.080 -28.721  25.586  1.00  0.00     0.041 C 
ATOM     13  O   UNL     1     -28.050 -29.093  24.876  1.00  0.00    -0.550 OA
ATOM     14  O   UNL     1     -25.780 -28.932  25.140  1.00  0.00    -0.550 OA
ENDBRANCH  11  12
ENDBRANCH  10  11
ENDBRANCH   9  10
ENDBRANCH   8   9
ENDBRANCH   7   8
ENDBRANCH   6   7
ENDBRANCH   5   6
ENDBRANCH   4   5
ENDBRANCH   3   4
ENDBRANCH   2   3
ENDBRANCH   1   2
BRANCH   1  15
ATOM     15  C   UNL     1     -22.407 -21.728  30.997  1.00  0.00     0.000 C 
BRANCH  15  16
ATOM     16  C   UNL     1     -21.453 -20.846  31.820  1.00  0.00     0.000 C 
BRANCH  16  17
ATOM     17  C   UNL     1     -20.748 -19.774  30.973  1.00  0.00     0.000 C 
BRANCH  17  18
ATOM     18  C   UNL     1     -20.348 -18.535  31.792  1.00  0.00    -0.000 C 
BRANCH  18  19
ATOM     19  C   UNL     1     -19.369 -17.613  31.041  1.00  0.00    -0.000 C 
BRANCH  19  20
ATOM     20  C   UNL     1     -19.698 -17.385  29.551  1.00  0.00    -0.000 C 
BRANCH  20  21
ATOM     21  C   UNL     1     -18.503 -16.983  28.664  1.00  0.00    -0.000 C 
BRANCH  21  22
ATOM     22  C   UNL     1     -17.870 -15.618  28.993  1.00  0.00    -0.000 C 
BRANCH  22  23
ATOM     23  C   UNL     1     -17.104 -15.014  27.804  1.00  0.00    -0.000 C 
BRANCH  23  24
ATOM     24  C   UNL     1     -17.439 -15.700  26.467  1.00  0.00    -0.000 C 
BRANCH  24  25
ATOM     25  C   UNL     1     -16.846 -15.021  25.219  1.00  0.00    -0.003 C 
ATOM     26  C   UNL     1     -15.791 -15.875  24.518  1.00  0.00     0.004 C 
ENDBRANCH  24  25
ENDBRANCH  23  24
ENDBRANCH  22  23
ENDBRANCH  21  22
ENDBRANCH  20  21
ENDBRANCH  19  20
ENDBRANCH  18  19
ENDBRANCH  17  18
ENDBRANCH  16  17
ENDBRANCH  15  16
ENDBRANCH   1  15
TORSDOF 22
ENDMDL
MODEL 8
REMARK VINA RESULT:    -5.655      4.542     11.462
REMARK INTER + INTRA:         -14.875
REMARK INTER:                 -13.376
REMARK INTRA:                  -1.499
REMARK UNBOUND:                -1.948
REMARK SMILES CCCCCCCCCCCCCCCCCCCCCCCC(=O)[O-]
REMARK SMILES IDX 13 1 14 2 15 3 16 4 17 5 18 6 19 7 20 8 21 9 22 10 23 11
REMARK SMILES IDX 24 12 25 13 26 14 12 15 11 16 10 17 9 18 8 19 7 20 6 21 5 22
REMARK SMILES IDX 4 23 3 24 2 25 1 26
REMARK H PARENT
REMARK Flexibility Score: inf
ROOT
ATOM      1  C   UNL     1     -23.192 -25.489  29.273  1.00  0.00     0.000 C 
ENDROOT
BRANCH   1   2
ATOM      2  C   UNL     1     -22.601 -24.368  28.401  1.00  0.00     0.000 C 
BRANCH   2   3
ATOM      3  C   UNL     1     -22.564 -23.010  29.135  1.00  0.00     0.000 C 
BRANCH   3   4
ATOM      4  C   UNL     1     -21.910 -23.077  30.531  1.00  0.00     0.000 C 
BRANCH   4   5
ATOM      5  C   UNL     1     -21.989 -21.776  31.348  1.00  0.00     0.000 C 
BRANCH   5   6
ATOM      6  C   UNL     1     -22.415 -20.528  30.547  1.00  0.00     0.000 C 
BRANCH   6   7
ATOM      7  C   UNL     1     -21.271 -19.520  30.309  1.00  0.00     0.000 C 
BRANCH   7   8
ATOM      8  C   UNL     1     -20.524 -19.158  31.605  1.00  0.00     0.000 C 
BRANCH   8   9
ATOM      9  C   UNL     1     -19.107 -18.610  31.324  1.00  0.00     0.000 C 
BRANCH   9  10
ATOM     10  C   UNL     1     -18.931 -18.086  29.888  1.00  0.00     0.006 C 
BRANCH  10  11
ATOM     11  C   UNL     1     -18.847 -16.554  29.794  1.00  0.00     0.053 C 
BRANCH  11  12
ATOM     12  C   UNL     1     -18.053 -16.108  28.605  1.00  0.00     0.041 C 
ATOM     13  O   UNL     1     -17.629 -16.953  27.773  1.00  0.00    -0.550 OA
ATOM     14  O   UNL     1     -17.774 -14.759  28.417  1.00  0.00    -0.550 OA
ENDBRANCH  11  12
ENDBRANCH  10  11
ENDBRANCH   9  10
ENDBRANCH   8   9
ENDBRANCH   7   8
ENDBRANCH   6   7
ENDBRANCH   5   6
ENDBRANCH   4   5
ENDBRANCH   3   4
ENDBRANCH   2   3
ENDBRANCH   1   2
BRANCH   1  15
ATOM     15  C   UNL     1     -24.645 -25.212  29.692  1.00  0.00     0.000 C 
BRANCH  15  16
ATOM     16  C   UNL     1     -24.859 -25.359  31.207  1.00  0.00     0.000 C 
BRANCH  16  17
ATOM     17  C   UNL     1     -25.538 -26.684  31.590  1.00  0.00     0.000 C 
BRANCH  17  18
ATOM     18  C   UNL     1     -25.321 -27.789  30.542  1.00  0.00    -0.000 C 
BRANCH  18  19
ATOM     19  C   UNL     1     -26.491 -28.788  30.477  1.00  0.00    -0.000 C 
BRANCH  19  20
ATOM     20  C   UNL     1     -27.036 -29.065  29.061  1.00  0.00    -0.000 C 
BRANCH  20  21
ATOM     21  C   UNL     1     -26.876 -27.910  28.052  1.00  0.00    -0.000 C 
BRANCH  21  22
ATOM     22  C   UNL     1     -25.722 -28.074  27.045  1.00  0.00    -0.000 C 
BRANCH  22  23
ATOM     23  C   UNL     1     -26.168 -28.737  25.731  1.00  0.00    -0.000 C 
BRANCH  23  24
ATOM     24  C   UNL     1     -27.699 -28.842  25.605  1.00  0.00    -0.000 C 
BRANCH  24  25
ATOM     25  C   UNL     1     -28.371 -27.683  24.847  1.00  0.00    -0.003 C 
ATOM     26  C   UNL     1     -29.073 -28.133  23.566  1.00  0.00     0.004 C 
ENDBRANCH  24  25
ENDBRANCH  23  24
ENDBRANCH  22  23
ENDBRANCH  21  22
ENDBRANCH  20  21
ENDBRANCH  19  20
ENDBRANCH  18  19
ENDBRANCH  17  18
ENDBRANCH  16  17
ENDBRANCH  15  16
ENDBRANCH   1  15
TORSDOF 22
ENDMDL
MODEL 9
REMARK VINA RESULT:    -5.506      1.856      3.594
REMARK INTER + INTRA:         -14.537
REMARK INTER:                 -14.007
REMARK INTRA:                  -0.530
REMARK UNBOUND:                -1.948
REMARK SMILES CCCCCCCCCCCCCCCCCCCCCCCC(=O)[O-]
REMARK SMILES IDX 13 1 14 2 15 3 16 4 17 5 18 6 19 7 20 8 21 9 22 10 23 11
REMARK SMILES IDX 24 12 25 13 26 14 12 15 11 16 10 17 9 18 8 19 7 20 6 21 5 22
REMARK SMILES IDX 4 23 3 24 2 25 1 26
REMARK H PARENT
REMARK Flexibility Score: inf
ROOT
ATOM      1  C   UNL     1     -21.256 -19.412  28.875  1.00  0.00     0.000 C 
ENDROOT
BRANCH   1   2
ATOM      2  C   UNL     1     -21.637 -20.521  29.871  1.00  0.00     0.000 C 
BRANCH   2   3
ATOM      3  C   UNL     1     -22.808 -21.389  29.362  1.00  0.00     0.000 C 
BRANCH   3   4
ATOM      4  C   UNL     1     -22.360 -22.616  28.541  1.00  0.00     0.000 C 
BRANCH   4   5
ATOM      5  C   UNL     1     -22.124 -23.896  29.362  1.00  0.00     0.000 C 
BRANCH   5   6
ATOM      6  C   UNL     1     -22.115 -23.697  30.892  1.00  0.00     0.000 C 
BRANCH   6   7
ATOM      7  C   UNL     1     -23.484 -23.944  31.562  1.00  0.00     0.000 C 
BRANCH   7   8
ATOM      8  C   UNL     1     -23.996 -25.378  31.342  1.00  0.00     0.000 C 
BRANCH   8   9
ATOM      9  C   UNL     1     -24.859 -25.496  30.066  1.00  0.00     0.000 C 
BRANCH   9  10
ATOM     10  C   UNL     1     -24.522 -26.733  29.215  1.00  0.00     0.006 C 
BRANCH  10  11
ATOM     11  C   UNL     1     -25.748 -27.383  28.554  1.00  0.00     0.053 C 
BRANCH  11  12
ATOM     12  C   UNL     1     -26.398 -28.393  29.449  1.00  0.00     0.041 C 
ATOM     13  O   UNL     1     -27.169 -29.263  28.967  1.00  0.00    -0.550 OA
ATOM     14  O   UNL     1     -26.158 -28.371  30.818  1.00  0.00    -0.550 OA
ENDBRANCH  11  12
ENDBRANCH  10  11
ENDBRANCH   9  10
ENDBRANCH   8   9
ENDBRANCH   7   8
ENDBRANCH   6   7
ENDBRANCH   5   6
ENDBRANCH   4   5
ENDBRANCH   3   4
ENDBRANCH   2   3
ENDBRANCH   1   2
BRANCH   1  15
ATOM     15  C   UNL     1     -20.792 -18.122  29.571  1.00  0.00     0.000 C 
BRANCH  15  16
ATOM     16  C   UNL     1     -20.580 -18.314  31.083  1.00  0.00     0.000 C 
BRANCH  16  17
ATOM     17  C   UNL     1     -19.108 -18.551  31.455  1.00  0.00     0.000 C 
BRANCH  17  18
ATOM     18  C   UNL     1     -18.326 -17.242  31.658  1.00  0.00    -0.000 C 
BRANCH  18  19
ATOM     19  C   UNL     1     -18.755 -16.132  30.680  1.00  0.00    -0.000 C 
BRANCH  19  20
ATOM     20  C   UNL     1     -17.696 -15.040  30.425  1.00  0.00    -0.000 C 
BRANCH  20  21
ATOM     21  C   UNL     1     -17.631 -14.506  28.980  1.00  0.00    -0.000 C 
BRANCH  21  22
ATOM     22  C   UNL     1     -17.255 -15.548  27.910  1.00  0.00    -0.000 C 
BRANCH  22  23
ATOM     23  C   UNL     1     -18.256 -15.593  26.744  1.00  0.00    -0.000 C 
BRANCH  23  24
ATOM     24  C   UNL     1     -17.606 -15.264  25.386  1.00  0.00    -0.000 C 
BRANCH  24  25
ATOM     25  C   UNL     1     -16.072 -15.393  25.350  1.00  0.00    -0.003 C 
ATOM     26  C   UNL     1     -15.543 -15.856  23.994  1.00  0.00     0.004 C 
ENDBRANCH  24  25
ENDBRANCH  23  24
ENDBRANCH  22  23
ENDBRANCH  21  22
ENDBRANCH  20  21
ENDBRANCH  19  20
ENDBRANCH  18  19
ENDBRANCH  17  18
ENDBRANCH  16  17
ENDBRANCH  15  16
ENDBRANCH   1  15
TORSDOF 22
ENDMDL
