MODEL 1
REMARK VINA RESULT:    -4.930      0.000      0.000
REMARK INTER + INTRA:         -13.469
REMARK INTER:                 -10.694
REMARK INTRA:                  -2.774
REMARK UNBOUND:                -2.774
REMARK SMILES CCCCCCCCCCCCCCCCCCCCCC(=O)[O-]
REMARK SMILES IDX 12 1 11 2 10 3 9 4 8 5 7 6 6 7 5 8 4 9 3 10 2 11 1 12 13 13
REMARK SMILES IDX 14 14 15 15 16 16 17 17 18 18 19 19 20 20 21 21 22 22 23 23
REMARK SMILES IDX 24 24
REMARK H PARENT
REMARK Flexibility Score: inf
ROOT
ATOM      1  C   UNL     1     -22.135  17.830 -25.285  1.00  0.00     0.000 C 
ENDROOT
BRANCH   1   2
ATOM      2  C   UNL     1     -20.716  18.021 -24.715  1.00  0.00     0.000 C 
BRANCH   2   3
ATOM      3  C   UNL     1     -20.257  16.931 -23.729  1.00  0.00     0.000 C 
BRANCH   3   4
ATOM      4  C   UNL     1     -20.626  15.512 -24.190  1.00  0.00    -0.000 C 
BRANCH   4   5
ATOM      5  C   UNL     1     -20.605  14.495 -23.037  1.00  0.00    -0.000 C 
BRANCH   5   6
ATOM      6  C   UNL     1     -20.506  15.169 -21.658  1.00  0.00    -0.000 C 
BRANCH   6   7
ATOM      7  C   UNL     1     -21.695  14.830 -20.739  1.00  0.00    -0.000 C 
BRANCH   7   8
ATOM      8  C   UNL     1     -23.077  14.899 -21.413  1.00  0.00    -0.000 C 
BRANCH   8   9
ATOM      9  C   UNL     1     -24.141  14.062 -20.683  1.00  0.00    -0.000 C 
BRANCH   9  10
ATOM     10  C   UNL     1     -23.582  13.360 -19.433  1.00  0.00    -0.000 C 
BRANCH  10  11
ATOM     11  C   UNL     1     -24.341  13.736 -18.153  1.00  0.00    -0.003 C 
ATOM     12  C   UNL     1     -23.894  12.874 -16.975  1.00  0.00     0.004 C 
ENDBRANCH  10  11
ENDBRANCH   9  10
ENDBRANCH   8   9
ENDBRANCH   7   8
ENDBRANCH   6   7
ENDBRANCH   5   6
ENDBRANCH   4   5
ENDBRANCH   3   4
ENDBRANCH   2   3
ENDBRANCH   1   2
BRANCH   1  13
ATOM     13  C   UNL     1     -23.205  18.605 -24.497  1.00  0.00     0.000 C 
BRANCH  13  14
ATOM     14  C   UNL     1     -23.977  17.712 -23.513  1.00  0.00     0.000 C 
BRANCH  14  15
ATOM     15  C   UNL     1     -23.925  18.231 -22.065  1.00  0.00     0.000 C 
BRANCH  15  16
ATOM     16  C   UNL     1     -22.695  19.114 -21.801  1.00  0.00     0.000 C 
BRANCH  16  17
ATOM     17  C   UNL     1     -23.066  20.493 -21.236  1.00  0.00     0.000 C 
BRANCH  17  18
ATOM     18  C   UNL     1     -23.926  21.280 -22.236  1.00  0.00     0.000 C 
BRANCH  18  19
ATOM     19  C   UNL     1     -23.171  22.463 -22.864  1.00  0.00     0.000 C 
BRANCH  19  20
ATOM     20  C   UNL     1     -23.129  22.388 -24.400  1.00  0.00     0.006 C 
BRANCH  20  21
ATOM     21  C   UNL     1     -21.730  22.038 -24.925  1.00  0.00     0.053 C 
BRANCH  21  22
ATOM     22  C   UNL     1     -20.997  23.250 -25.411  1.00  0.00     0.041 C 
ATOM     23  O   UNL     1     -21.322  23.794 -26.499  1.00  0.00    -0.550 OA
ATOM     24  O   UNL     1     -19.981  23.804 -24.642  1.00  0.00    -0.550 OA
ENDBRANCH  21  22
ENDBRANCH  20  21
ENDBRANCH  19  20
ENDBRANCH  18  19
ENDBRANCH  17  18
ENDBRANCH  16  17
ENDBRANCH  15  16
ENDBRANCH  14  15
ENDBRANCH  13  14
ENDBRANCH   1  13
TORSDOF 20
ENDMDL
MODEL 2
REMARK VINA RESULT:    -4.903      2.634      4.913
REMARK INTER + INTRA:         -13.410
REMARK INTER:                 -10.486
REMARK INTRA:                  -2.924
REMARK UNBOUND:                -2.774
REMARK SMILES CCCCCCCCCCCCCCCCCCCCCC(=O)[O-]
REMARK SMILES IDX 12 1 11 2 10 3 9 4 8 5 7 6 6 7 5 8 4 9 3 10 2 11 1 12 13 13
REMARK SMILES IDX 14 14 15 15 16 16 17 17 18 18 19 19 20 20 21 21 22 22 23 23
REMARK SMILES IDX 24 24
REMARK H PARENT
REMARK Flexibility Score: inf
ROOT
ATOM      1  C   UNL     1     -23.751  21.522 -22.383  1.00  0.00     0.000 C 
ENDROOT
BRANCH   1   2
ATOM      2  C   UNL     1     -22.823  20.735 -23.327  1.00  0.00     0.000 C 
BRANCH   2   3
ATOM      3  C   UNL     1     -22.843  21.196 -24.796  1.00  0.00     0.000 C 
BRANCH   3   4
ATOM      4  C   UNL     1     -21.662  20.647 -25.613  1.00  0.00    -0.000 C 
BRANCH   4   5
ATOM      5  C   UNL     1     -21.057  19.378 -24.992  1.00  0.00    -0.000 C 
BRANCH   5   6
ATOM      6  C   UNL     1     -21.600  18.091 -25.634  1.00  0.00    -0.000 C 
BRANCH   6   7
ATOM      7  C   UNL     1     -21.071  16.813 -24.957  1.00  0.00    -0.000 C 
BRANCH   7   8
ATOM      8  C   UNL     1     -20.318  17.043 -23.633  1.00  0.00    -0.000 C 
BRANCH   8   9
ATOM      9  C   UNL     1     -21.115  16.576 -22.403  1.00  0.00    -0.000 C 
BRANCH   9  10
ATOM     10  C   UNL     1     -22.050  17.669 -21.857  1.00  0.00    -0.000 C 
BRANCH  10  11
ATOM     11  C   UNL     1     -23.509  17.204 -21.752  1.00  0.00    -0.003 C 
ATOM     12  C   UNL     1     -24.259  17.448 -23.059  1.00  0.00     0.004 C 
ENDBRANCH  10  11
ENDBRANCH   9  10
ENDBRANCH   8   9
ENDBRANCH   7   8
ENDBRANCH   6   7
ENDBRANCH   5   6
ENDBRANCH   4   5
ENDBRANCH   3   4
ENDBRANCH   2   3
ENDBRANCH   1   2
BRANCH   1  13
ATOM     13  C   UNL     1     -23.259  21.525 -20.926  1.00  0.00     0.000 C 
BRANCH  13  14
ATOM     14  C   UNL     1     -23.238  22.934 -20.312  1.00  0.00     0.000 C 
BRANCH  14  15
ATOM     15  C   UNL     1     -23.169  24.048 -21.372  1.00  0.00     0.000 C 
BRANCH  15  16
ATOM     16  C   UNL     1     -21.976  24.992 -21.158  1.00  0.00     0.000 C 
BRANCH  16  17
ATOM     17  C   UNL     1     -21.307  25.409 -22.476  1.00  0.00     0.000 C 
BRANCH  17  18
ATOM     18  C   UNL     1     -21.565  24.367 -23.574  1.00  0.00     0.000 C 
BRANCH  18  19
ATOM     19  C   UNL     1     -20.406  24.264 -24.578  1.00  0.00     0.000 C 
BRANCH  19  20
ATOM     20  C   UNL     1     -20.893  24.153 -26.033  1.00  0.00     0.006 C 
BRANCH  20  21
ATOM     21  C   UNL     1     -19.886  24.746 -27.028  1.00  0.00     0.053 C 
BRANCH  21  22
ATOM     22  C   UNL     1     -20.328  26.082 -27.540  1.00  0.00     0.041 C 
ATOM     23  O   UNL     1     -19.587  27.090 -27.405  1.00  0.00    -0.550 OA
ATOM     24  O   UNL     1     -21.542  26.206 -28.204  1.00  0.00    -0.550 OA
ENDBRANCH  21  22
ENDBRANCH  20  21
ENDBRANCH  19  20
ENDBRANCH  18  19
ENDBRANCH  17  18
ENDBRANCH  16  17
ENDBRANCH  15  16
ENDBRANCH  14  15
ENDBRANCH  13  14
ENDBRANCH   1  13
TORSDOF 20
ENDMDL
MODEL 3
REMARK VINA RESULT:    -4.893      2.203      4.227
REMARK INTER + INTRA:         -13.389
REMARK INTER:                 -10.887
REMARK INTRA:                  -2.502
REMARK UNBOUND:                -2.774
REMARK SMILES CCCCCCCCCCCCCCCCCCCCCC(=O)[O-]
REMARK SMILES IDX 12 1 11 2 10 3 9 4 8 5 7 6 6 7 5 8 4 9 3 10 2 11 1 12 13 13
REMARK SMILES IDX 14 14 15 15 16 16 17 17 18 18 19 19 20 20 21 21 22 22 23 23
REMARK SMILES IDX 24 24
REMARK H PARENT
REMARK Flexibility Score: inf
ROOT
ATOM      1  C   UNL     1     -22.565  19.137 -24.916  1.00  0.00     0.000 C 
ENDROOT
BRANCH   1   2
ATOM      2  C   UNL     1     -22.458  17.649 -25.299  1.00  0.00     0.000 C 
BRANCH   2   3
ATOM      3  C   UNL     1     -21.042  17.051 -25.208  1.00  0.00     0.000 C 
BRANCH   3   4
ATOM      4  C   UNL     1     -20.465  17.091 -23.784  1.00  0.00    -0.000 C 
BRANCH   4   5
ATOM      5  C   UNL     1     -20.683  15.773 -23.024  1.00  0.00    -0.000 C 
BRANCH   5   6
ATOM      6  C   UNL     1     -21.305  15.989 -21.634  1.00  0.00    -0.000 C 
BRANCH   6   7
ATOM      7  C   UNL     1     -22.682  15.316 -21.482  1.00  0.00    -0.000 C 
BRANCH   7   8
ATOM      8  C   UNL     1     -23.865  16.288 -21.321  1.00  0.00    -0.000 C 
BRANCH   8   9
ATOM      9  C   UNL     1     -23.501  17.738 -21.681  1.00  0.00    -0.000 C 
BRANCH   9  10
ATOM     10  C   UNL     1     -24.741  18.619 -21.909  1.00  0.00    -0.000 C 
BRANCH  10  11
ATOM     11  C   UNL     1     -24.490  20.096 -21.576  1.00  0.00    -0.003 C 
ATOM     12  C   UNL     1     -23.019  20.346 -21.257  1.00  0.00     0.004 C 
ENDBRANCH  10  11
ENDBRANCH   9  10
ENDBRANCH   8   9
ENDBRANCH   7   8
ENDBRANCH   6   7
ENDBRANCH   5   6
ENDBRANCH   4   5
ENDBRANCH   3   4
ENDBRANCH   2   3
ENDBRANCH   1   2
BRANCH   1  13
ATOM     13  C   UNL     1     -21.536  20.017 -25.645  1.00  0.00     0.000 C 
BRANCH  13  14
ATOM     14  C   UNL     1     -21.729  21.515 -25.357  1.00  0.00     0.000 C 
BRANCH  14  15
ATOM     15  C   UNL     1     -23.022  21.812 -24.576  1.00  0.00     0.000 C 
BRANCH  15  16
ATOM     16  C   UNL     1     -23.167  23.300 -24.221  1.00  0.00     0.000 C 
BRANCH  16  17
ATOM     17  C   UNL     1     -24.376  23.958 -24.904  1.00  0.00     0.000 C 
BRANCH  17  18
ATOM     18  C   UNL     1     -24.050  25.400 -25.321  1.00  0.00     0.000 C 
BRANCH  18  19
ATOM     19  C   UNL     1     -23.201  25.468 -26.601  1.00  0.00     0.000 C 
BRANCH  19  20
ATOM     20  C   UNL     1     -21.752  25.908 -26.326  1.00  0.00     0.006 C 
BRANCH  20  21
ATOM     21  C   UNL     1     -20.736  25.094 -27.137  1.00  0.00     0.053 C 
BRANCH  21  22
ATOM     22  C   UNL     1     -20.137  25.898 -28.251  1.00  0.00     0.041 C 
ATOM     23  O   UNL     1     -20.841  26.730 -28.881  1.00  0.00    -0.550 OA
ATOM     24  O   UNL     1     -18.791  25.758 -28.565  1.00  0.00    -0.550 OA
ENDBRANCH  21  22
ENDBRANCH  20  21
ENDBRANCH  19  20
ENDBRANCH  18  19
ENDBRANCH  17  18
ENDBRANCH  16  17
ENDBRANCH  15  16
ENDBRANCH  14  15
ENDBRANCH  13  14
ENDBRANCH   1  13
TORSDOF 20
ENDMDL
MODEL 4
REMARK VINA RESULT:    -4.892      1.871      4.244
REMARK INTER + INTRA:         -13.385
REMARK INTER:                 -10.832
REMARK INTRA:                  -2.553
REMARK UNBOUND:                -2.774
REMARK SMILES CCCCCCCCCCCCCCCCCCCCCC(=O)[O-]
REMARK SMILES IDX 12 1 11 2 10 3 9 4 8 5 7 6 6 7 5 8 4 9 3 10 2 11 1 12 13 13
REMARK SMILES IDX 14 14 15 15 16 16 17 17 18 18 19 19 20 20 21 21 22 22 23 23
REMARK SMILES IDX 24 24
REMARK H PARENT
REMARK Flexibility Score: inf
ROOT
ATOM      1  C   UNL     1     -22.872  19.107 -21.759  1.00  0.00     0.000 C 
ENDROOT
BRANCH   1   2
ATOM      2  C   UNL     1     -24.144  18.298 -22.073  1.00  0.00     0.000 C 
BRANCH   2   3
ATOM      3  C   UNL     1     -24.075  17.444 -23.352  1.00  0.00     0.000 C 
BRANCH   3   4
ATOM      4  C   UNL     1     -23.605  18.242 -24.580  1.00  0.00    -0.000 C 
BRANCH   4   5
ATOM      5  C   UNL     1     -22.443  17.556 -25.317  1.00  0.00    -0.000 C 
BRANCH   5   6
ATOM      6  C   UNL     1     -21.088  18.224 -25.031  1.00  0.00    -0.000 C 
BRANCH   6   7
ATOM      7  C   UNL     1     -20.269  17.482 -23.958  1.00  0.00    -0.000 C 
BRANCH   7   8
ATOM      8  C   UNL     1     -20.634  15.998 -23.772  1.00  0.00    -0.000 C 
BRANCH   8   9
ATOM      9  C   UNL     1     -20.313  15.476 -22.362  1.00  0.00    -0.000 C 
BRANCH   9  10
ATOM     10  C   UNL     1     -21.457  15.729 -21.365  1.00  0.00    -0.000 C 
BRANCH  10  11
ATOM     11  C   UNL     1     -22.257  14.458 -21.044  1.00  0.00    -0.003 C 
ATOM     12  C   UNL     1     -23.731  14.780 -20.813  1.00  0.00     0.004 C 
ENDBRANCH  10  11
ENDBRANCH   9  10
ENDBRANCH   8   9
ENDBRANCH   7   8
ENDBRANCH   6   7
ENDBRANCH   5   6
ENDBRANCH   4   5
ENDBRANCH   3   4
ENDBRANCH   2   3
ENDBRANCH   1   2
BRANCH   1  13
ATOM     13  C   UNL     1     -23.176  20.526 -21.249  1.00  0.00     0.000 C 
BRANCH  13  14
ATOM     14  C   UNL     1     -23.742  21.441 -22.347  1.00  0.00     0.000 C 
BRANCH  14  15
ATOM     15  C   UNL     1     -22.857  21.482 -23.606  1.00  0.00     0.000 C 
BRANCH  15  16
ATOM     16  C   UNL     1     -23.329  22.533 -24.623  1.00  0.00     0.000 C 
BRANCH  16  17
ATOM     17  C   UNL     1     -22.420  23.771 -24.660  1.00  0.00     0.000 C 
BRANCH  17  18
ATOM     18  C   UNL     1     -20.985  23.384 -25.048  1.00  0.00     0.000 C 
BRANCH  18  19
ATOM     19  C   UNL     1     -20.605  23.860 -26.459  1.00  0.00     0.000 C 
BRANCH  19  20
ATOM     20  C   UNL     1     -21.435  25.071 -26.918  1.00  0.00     0.006 C 
BRANCH  20  21
ATOM     21  C   UNL     1     -20.595  26.353 -26.997  1.00  0.00     0.053 C 
BRANCH  21  22
ATOM     22  C   UNL     1     -19.891  26.479 -28.314  1.00  0.00     0.041 C 
ATOM     23  O   UNL     1     -20.213  27.390 -29.120  1.00  0.00    -0.550 OA
ATOM     24  O   UNL     1     -18.852  25.614 -28.633  1.00  0.00    -0.550 OA
ENDBRANCH  21  22
ENDBRANCH  20  21
ENDBRANCH  19  20
ENDBRANCH  18  19
ENDBRANCH  17  18
ENDBRANCH  16  17
ENDBRANCH  15  16
ENDBRANCH  14  15
ENDBRANCH  13  14
ENDBRANCH   1  13
TORSDOF 20
ENDMDL
MODEL 5
REMARK VINA RESULT:    -4.882      2.802      5.544
REMARK INTER + INTRA:         -13.363
REMARK INTER:                 -10.077
REMARK INTRA:                  -3.287
REMARK UNBOUND:                -2.774
REMARK SMILES CCCCCCCCCCCCCCCCCCCCCC(=O)[O-]
REMARK SMILES IDX 12 1 11 2 10 3 9 4 8 5 7 6 6 7 5 8 4 9 3 10 2 11 1 12 13 13
REMARK SMILES IDX 14 14 15 15 16 16 17 17 18 18 19 19 20 20 21 21 22 22 23 23
REMARK SMILES IDX 24 24
REMARK H PARENT
REMARK Flexibility Score: inf
ROOT
ATOM      1  C   UNL     1     -23.252  22.595 -20.482  1.00  0.00     0.000 C 
ENDROOT
BRANCH   1   2
ATOM      2  C   UNL     1     -24.388  21.555 -20.538  1.00  0.00     0.000 C 
BRANCH   2   3
ATOM      3  C   UNL     1     -24.199  20.439 -21.582  1.00  0.00     0.000 C 
BRANCH   3   4
ATOM      4  C   UNL     1     -22.869  19.686 -21.420  1.00  0.00    -0.000 C 
BRANCH   4   5
ATOM      5  C   UNL     1     -22.953  18.231 -21.909  1.00  0.00    -0.000 C 
BRANCH   5   6
ATOM      6  C   UNL     1     -24.016  18.037 -23.003  1.00  0.00    -0.000 C 
BRANCH   6   7
ATOM      7  C   UNL     1     -23.410  17.924 -24.415  1.00  0.00    -0.000 C 
BRANCH   7   8
ATOM      8  C   UNL     1     -22.657  19.176 -24.901  1.00  0.00    -0.000 C 
BRANCH   8   9
ATOM      9  C   UNL     1     -21.212  18.874 -25.333  1.00  0.00    -0.000 C 
BRANCH   9  10
ATOM     10  C   UNL     1     -20.794  17.427 -25.024  1.00  0.00    -0.000 C 
BRANCH  10  11
ATOM     11  C   UNL     1     -19.853  17.326 -23.816  1.00  0.00    -0.003 C 
ATOM     12  C   UNL     1     -20.254  16.173 -22.900  1.00  0.00     0.004 C 
ENDBRANCH  10  11
ENDBRANCH   9  10
ENDBRANCH   8   9
ENDBRANCH   7   8
ENDBRANCH   6   7
ENDBRANCH   5   6
ENDBRANCH   4   5
ENDBRANCH   3   4
ENDBRANCH   2   3
ENDBRANCH   1   2
BRANCH   1  13
ATOM     13  C   UNL     1     -23.751  24.008 -20.136  1.00  0.00     0.000 C 
BRANCH  13  14
ATOM     14  C   UNL     1     -24.840  24.503 -21.101  1.00  0.00     0.000 C 
BRANCH  14  15
ATOM     15  C   UNL     1     -24.303  25.491 -22.153  1.00  0.00     0.000 C 
BRANCH  15  16
ATOM     16  C   UNL     1     -24.638  25.060 -23.589  1.00  0.00     0.000 C 
BRANCH  16  17
ATOM     17  C   UNL     1     -24.923  23.556 -23.706  1.00  0.00     0.000 C 
BRANCH  17  18
ATOM     18  C   UNL     1     -23.907  22.878 -24.637  1.00  0.00     0.000 C 
BRANCH  18  19
ATOM     19  C   UNL     1     -22.506  22.777 -24.011  1.00  0.00     0.000 C 
BRANCH  19  20
ATOM     20  C   UNL     1     -21.399  22.608 -25.067  1.00  0.00     0.006 C 
BRANCH  20  21
ATOM     21  C   UNL     1     -20.526  23.863 -25.197  1.00  0.00     0.053 C 
BRANCH  21  22
ATOM     22  C   UNL     1     -20.556  24.423 -26.586  1.00  0.00     0.041 C 
ATOM     23  O   UNL     1     -19.506  24.452 -27.280  1.00  0.00    -0.550 OA
ATOM     24  O   UNL     1     -21.752  24.874 -27.130  1.00  0.00    -0.550 OA
ENDBRANCH  21  22
ENDBRANCH  20  21
ENDBRANCH  19  20
ENDBRANCH  18  19
ENDBRANCH  17  18
ENDBRANCH  16  17
ENDBRANCH  15  16
ENDBRANCH  14  15
ENDBRANCH  13  14
ENDBRANCH   1  13
TORSDOF 20
ENDMDL
MODEL 6
REMARK VINA RESULT:    -4.874      1.730      4.787
REMARK INTER + INTRA:         -13.346
REMARK INTER:                 -10.747
REMARK INTRA:                  -2.599
REMARK UNBOUND:                -2.774
REMARK SMILES CCCCCCCCCCCCCCCCCCCCCC(=O)[O-]
REMARK SMILES IDX 12 1 11 2 10 3 9 4 8 5 7 6 6 7 5 8 4 9 3 10 2 11 1 12 13 13
REMARK SMILES IDX 14 14 15 15 16 16 17 17 18 18 19 19 20 20 21 21 22 22 23 23
REMARK SMILES IDX 24 24
REMARK H PARENT
REMARK Flexibility Score: inf
ROOT
ATOM      1  C   UNL     1     -23.548  15.808 -21.042  1.00  0.00     0.000 C 
ENDROOT
BRANCH   1   2
ATOM      2  C   UNL     1     -23.667  14.283 -20.862  1.00  0.00     0.000 C 
BRANCH   2   3
ATOM      3  C   UNL     1     -22.370  13.573 -20.433  1.00  0.00     0.000 C 
BRANCH   3   4
ATOM      4  C   UNL     1     -21.122  14.457 -20.593  1.00  0.00    -0.000 C 
BRANCH   4   5
ATOM      5  C   UNL     1     -20.241  14.020 -21.774  1.00  0.00    -0.000 C 
BRANCH   5   6
ATOM      6  C   UNL     1     -20.428  14.914 -23.011  1.00  0.00    -0.000 C 
BRANCH   6   7
ATOM      7  C   UNL     1     -20.352  16.417 -22.683  1.00  0.00    -0.000 C 
BRANCH   7   8
ATOM      8  C   UNL     1     -20.800  17.353 -23.821  1.00  0.00    -0.000 C 
BRANCH   8   9
ATOM      9  C   UNL     1     -21.799  16.689 -24.783  1.00  0.00    -0.000 C 
BRANCH   9  10
ATOM     10  C   UNL     1     -22.339  17.668 -25.840  1.00  0.00    -0.000 C 
BRANCH  10  11
ATOM     11  C   UNL     1     -21.224  18.447 -26.552  1.00  0.00    -0.003 C 
ATOM     12  C   UNL     1     -20.819  17.763 -27.854  1.00  0.00     0.004 C 
ENDBRANCH  10  11
ENDBRANCH   9  10
ENDBRANCH   8   9
ENDBRANCH   7   8
ENDBRANCH   6   7
ENDBRANCH   5   6
ENDBRANCH   4   5
ENDBRANCH   3   4
ENDBRANCH   2   3
ENDBRANCH   1   2
BRANCH   1  13
ATOM     13  C   UNL     1     -24.820  16.443 -21.627  1.00  0.00     0.000 C 
BRANCH  13  14
ATOM     14  C   UNL     1     -24.516  17.626 -22.560  1.00  0.00     0.000 C 
BRANCH  14  15
ATOM     15  C   UNL     1     -24.325  18.952 -21.800  1.00  0.00     0.000 C 
BRANCH  15  16
ATOM     16  C   UNL     1     -22.992  19.638 -22.140  1.00  0.00     0.000 C 
BRANCH  16  17
ATOM     17  C   UNL     1     -23.185  20.996 -22.833  1.00  0.00     0.000 C 
BRANCH  17  18
ATOM     18  C   UNL     1     -22.761  20.921 -24.307  1.00  0.00     0.000 C 
BRANCH  18  19
ATOM     19  C   UNL     1     -21.978  22.164 -24.762  1.00  0.00     0.000 C 
BRANCH  19  20
ATOM     20  C   UNL     1     -22.486  23.456 -24.099  1.00  0.00     0.006 C 
BRANCH  20  21
ATOM     21  C   UNL     1     -21.568  24.653 -24.383  1.00  0.00     0.053 C 
BRANCH  21  22
ATOM     22  C   UNL     1     -22.345  25.876 -24.762  1.00  0.00     0.041 C 
ATOM     23  O   UNL     1     -23.434  25.767 -25.383  1.00  0.00    -0.550 OA
ATOM     24  O   UNL     1     -21.886  27.134 -24.393  1.00  0.00    -0.550 OA
ENDBRANCH  21  22
ENDBRANCH  20  21
ENDBRANCH  19  20
ENDBRANCH  18  19
ENDBRANCH  17  18
ENDBRANCH  16  17
ENDBRANCH  15  16
ENDBRANCH  14  15
ENDBRANCH  13  14
ENDBRANCH   1  13
TORSDOF 20
ENDMDL
MODEL 7
REMARK VINA RESULT:    -4.853      3.105      5.206
REMARK INTER + INTRA:         -13.302
REMARK INTER:                 -10.389
REMARK INTRA:                  -2.913
REMARK UNBOUND:                -2.774
REMARK SMILES CCCCCCCCCCCCCCCCCCCCCC(=O)[O-]
REMARK SMILES IDX 12 1 11 2 10 3 9 4 8 5 7 6 6 7 5 8 4 9 3 10 2 11 1 12 13 13
REMARK SMILES IDX 14 14 15 15 16 16 17 17 18 18 19 19 20 20 21 21 22 22 23 23
REMARK SMILES IDX 24 24
REMARK H PARENT
REMARK Flexibility Score: inf
ROOT
ATOM      1  C   UNL     1     -21.415  19.288 -25.584  1.00  0.00     0.000 C 
ENDROOT
BRANCH   1   2
ATOM      2  C   UNL     1     -22.121  17.970 -25.957  1.00  0.00     0.000 C 
BRANCH   2   3
ATOM      3  C   UNL     1     -21.695  16.745 -25.127  1.00  0.00     0.000 C 
BRANCH   3   4
ATOM      4  C   UNL     1     -22.087  16.860 -23.645  1.00  0.00    -0.000 C 
BRANCH   4   5
ATOM      5  C   UNL     1     -23.583  17.158 -23.454  1.00  0.00    -0.000 C 
BRANCH   5   6
ATOM      6  C   UNL     1     -23.868  17.943 -22.163  1.00  0.00    -0.000 C 
BRANCH   6   7
ATOM      7  C   UNL     1     -22.628  18.681 -21.624  1.00  0.00    -0.000 C 
BRANCH   7   8
ATOM      8  C   UNL     1     -22.843  20.174 -21.317  1.00  0.00    -0.000 C 
BRANCH   8   9
ATOM      9  C   UNL     1     -24.298  20.625 -21.534  1.00  0.00    -0.000 C 
BRANCH   9  10
ATOM     10  C   UNL     1     -24.553  22.056 -21.031  1.00  0.00    -0.000 C 
BRANCH  10  11
ATOM     11  C   UNL     1     -23.361  22.633 -20.253  1.00  0.00    -0.003 C 
ATOM     12  C   UNL     1     -23.790  23.119 -18.871  1.00  0.00     0.004 C 
ENDBRANCH  10  11
ENDBRANCH   9  10
ENDBRANCH   8   9
ENDBRANCH   7   8
ENDBRANCH   6   7
ENDBRANCH   5   6
ENDBRANCH   4   5
ENDBRANCH   3   4
ENDBRANCH   2   3
ENDBRANCH   1   2
BRANCH   1  13
ATOM     13  C   UNL     1     -22.361  20.309 -24.931  1.00  0.00     0.000 C 
BRANCH  13  14
ATOM     14  C   UNL     1     -21.880  21.759 -25.108  1.00  0.00     0.000 C 
BRANCH  14  15
ATOM     15  C   UNL     1     -22.491  22.722 -24.074  1.00  0.00     0.000 C 
BRANCH  15  16
ATOM     16  C   UNL     1     -23.871  23.246 -24.502  1.00  0.00     0.000 C 
BRANCH  16  17
ATOM     17  C   UNL     1     -24.156  24.661 -23.974  1.00  0.00     0.000 C 
BRANCH  17  18
ATOM     18  C   UNL     1     -23.728  25.722 -24.999  1.00  0.00     0.000 C 
BRANCH  18  19
ATOM     19  C   UNL     1     -22.352  26.329 -24.683  1.00  0.00     0.000 C 
BRANCH  19  20
ATOM     20  C   UNL     1     -21.451  26.428 -25.926  1.00  0.00     0.006 C 
BRANCH  20  21
ATOM     21  C   UNL     1     -21.648  25.242 -26.880  1.00  0.00     0.053 C 
BRANCH  21  22
ATOM     22  C   UNL     1     -21.947  25.692 -28.277  1.00  0.00     0.041 C 
ATOM     23  O   UNL     1     -23.121  25.623 -28.727  1.00  0.00    -0.550 OA
ATOM     24  O   UNL     1     -20.938  26.227 -29.068  1.00  0.00    -0.550 OA
ENDBRANCH  21  22
ENDBRANCH  20  21
ENDBRANCH  19  20
ENDBRANCH  18  19
ENDBRANCH  17  18
ENDBRANCH  16  17
ENDBRANCH  15  16
ENDBRANCH  14  15
ENDBRANCH  13  14
ENDBRANCH   1  13
TORSDOF 20
ENDMDL
MODEL 8
REMARK VINA RESULT:    -4.849      1.725      2.839
REMARK INTER + INTRA:         -13.293
REMARK INTER:                 -10.781
REMARK INTRA:                  -2.512
REMARK UNBOUND:                -2.774
REMARK SMILES CCCCCCCCCCCCCCCCCCCCCC(=O)[O-]
REMARK SMILES IDX 12 1 11 2 10 3 9 4 8 5 7 6 6 7 5 8 4 9 3 10 2 11 1 12 13 13
REMARK SMILES IDX 14 14 15 15 16 16 17 17 18 18 19 19 20 20 21 21 22 22 23 23
REMARK SMILES IDX 24 24
REMARK H PARENT
REMARK Flexibility Score: inf
ROOT
ATOM      1  C   UNL     1     -22.509  20.737 -23.976  1.00  0.00     0.000 C 
ENDROOT
BRANCH   1   2
ATOM      2  C   UNL     1     -22.042  20.095 -25.295  1.00  0.00     0.000 C 
BRANCH   2   3
ATOM      3  C   UNL     1     -21.075  18.907 -25.136  1.00  0.00     0.000 C 
BRANCH   3   4
ATOM      4  C   UNL     1     -21.749  17.548 -25.391  1.00  0.00    -0.000 C 
BRANCH   4   5
ATOM      5  C   UNL     1     -21.056  16.399 -24.642  1.00  0.00    -0.000 C 
BRANCH   5   6
ATOM      6  C   UNL     1     -20.214  16.892 -23.453  1.00  0.00    -0.000 C 
BRANCH   6   7
ATOM      7  C   UNL     1     -20.956  16.784 -22.107  1.00  0.00    -0.000 C 
BRANCH   7   8
ATOM      8  C   UNL     1     -21.243  15.346 -21.638  1.00  0.00    -0.000 C 
BRANCH   8   9
ATOM      9  C   UNL     1     -22.695  15.149 -21.171  1.00  0.00    -0.000 C 
BRANCH   9  10
ATOM     10  C   UNL     1     -23.600  16.336 -21.542  1.00  0.00    -0.000 C 
BRANCH  10  11
ATOM     11  C   UNL     1     -24.992  16.245 -20.901  1.00  0.00    -0.003 C 
ATOM     12  C   UNL     1     -24.995  15.269 -19.728  1.00  0.00     0.004 C 
ENDBRANCH  10  11
ENDBRANCH   9  10
ENDBRANCH   8   9
ENDBRANCH   7   8
ENDBRANCH   6   7
ENDBRANCH   5   6
ENDBRANCH   4   5
ENDBRANCH   3   4
ENDBRANCH   2   3
ENDBRANCH   1   2
BRANCH   1  13
ATOM     13  C   UNL     1     -22.956  19.700 -22.931  1.00  0.00     0.000 C 
BRANCH  13  14
ATOM     14  C   UNL     1     -23.107  20.304 -21.525  1.00  0.00     0.000 C 
BRANCH  14  15
ATOM     15  C   UNL     1     -23.952  21.591 -21.515  1.00  0.00     0.000 C 
BRANCH  15  16
ATOM     16  C   UNL     1     -23.562  22.542 -20.373  1.00  0.00     0.000 C 
BRANCH  16  17
ATOM     17  C   UNL     1     -22.825  23.795 -20.870  1.00  0.00     0.000 C 
BRANCH  17  18
ATOM     18  C   UNL     1     -23.091  24.027 -22.365  1.00  0.00     0.000 C 
BRANCH  18  19
ATOM     19  C   UNL     1     -21.823  24.426 -23.137  1.00  0.00     0.000 C 
BRANCH  19  20
ATOM     20  C   UNL     1     -21.965  24.213 -24.655  1.00  0.00     0.006 C 
BRANCH  20  21
ATOM     21  C   UNL     1     -20.624  23.873 -25.319  1.00  0.00     0.053 C 
BRANCH  21  22
ATOM     22  C   UNL     1     -20.531  24.429 -26.707  1.00  0.00     0.041 C 
ATOM     23  O   UNL     1     -19.436  24.404 -27.328  1.00  0.00    -0.550 OA
ATOM     24  O   UNL     1     -21.664  24.937 -27.331  1.00  0.00    -0.550 OA
ENDBRANCH  21  22
ENDBRANCH  20  21
ENDBRANCH  19  20
ENDBRANCH  18  19
ENDBRANCH  17  18
ENDBRANCH  16  17
ENDBRANCH  15  16
ENDBRANCH  14  15
ENDBRANCH  13  14
ENDBRANCH   1  13
TORSDOF 20
ENDMDL
MODEL 9
REMARK VINA RESULT:    -4.842      2.010      4.043
REMARK INTER + INTRA:         -13.278
REMARK INTER:                 -10.544
REMARK INTRA:                  -2.734
REMARK UNBOUND:                -2.774
REMARK SMILES CCCCCCCCCCCCCCCCCCCCCC(=O)[O-]
REMARK SMILES IDX 12 1 11 2 10 3 9 4 8 5 7 6 6 7 5 8 4 9 3 10 2 11 1 12 13 13
REMARK SMILES IDX 14 14 15 15 16 16 17 17 18 18 19 19 20 20 21 21 22 22 23 23
REMARK SMILES IDX 24 24
REMARK H PARENT
REMARK Flexibility Score: inf
ROOT
ATOM      1  C   UNL     1     -22.499  18.601 -22.106  1.00  0.00     0.000 C 
ENDROOT
BRANCH   1   2
ATOM      2  C   UNL     1     -23.694  17.751 -22.575  1.00  0.00     0.000 C 
BRANCH   2   3
ATOM      3  C   UNL     1     -23.861  16.403 -21.850  1.00  0.00     0.000 C 
BRANCH   3   4
ATOM      4  C   UNL     1     -25.055  16.388 -20.881  1.00  0.00    -0.000 C 
BRANCH   4   5
ATOM      5  C   UNL     1     -24.974  15.236 -19.867  1.00  0.00    -0.000 C 
BRANCH   5   6
ATOM      6  C   UNL     1     -25.046  13.853 -20.537  1.00  0.00    -0.000 C 
BRANCH   6   7
ATOM      7  C   UNL     1     -24.171  12.799 -19.833  1.00  0.00    -0.000 C 
BRANCH   7   8
ATOM      8  C   UNL     1     -22.939  13.362 -19.100  1.00  0.00    -0.000 C 
BRANCH   8   9
ATOM      9  C   UNL     1     -21.637  13.185 -19.900  1.00  0.00    -0.000 C 
BRANCH   9  10
ATOM     10  C   UNL     1     -21.147  14.502 -20.527  1.00  0.00    -0.000 C 
BRANCH  10  11
ATOM     11  C   UNL     1     -20.492  14.297 -21.901  1.00  0.00    -0.003 C 
ATOM     12  C   UNL     1     -20.399  15.614 -22.667  1.00  0.00     0.004 C 
ENDBRANCH  10  11
ENDBRANCH   9  10
ENDBRANCH   8   9
ENDBRANCH   7   8
ENDBRANCH   6   7
ENDBRANCH   5   6
ENDBRANCH   4   5
ENDBRANCH   3   4
ENDBRANCH   2   3
ENDBRANCH   1   2
BRANCH   1  13
ATOM     13  C   UNL     1     -22.921  19.813 -21.259  1.00  0.00     0.000 C 
BRANCH  13  14
ATOM     14  C   UNL     1     -24.389  20.210 -21.485  1.00  0.00     0.000 C 
BRANCH  14  15
ATOM     15  C   UNL     1     -24.594  21.734 -21.552  1.00  0.00     0.000 C 
BRANCH  15  16
ATOM     16  C   UNL     1     -23.326  22.515 -21.171  1.00  0.00     0.000 C 
BRANCH  16  17
ATOM     17  C   UNL     1     -22.868  23.477 -22.278  1.00  0.00     0.000 C 
BRANCH  17  18
ATOM     18  C   UNL     1     -23.511  23.107 -23.623  1.00  0.00     0.000 C 
BRANCH  18  19
ATOM     19  C   UNL     1     -22.491  22.561 -24.636  1.00  0.00     0.000 C 
BRANCH  19  20
ATOM     20  C   UNL     1     -22.384  21.027 -24.597  1.00  0.00     0.006 C 
BRANCH  20  21
ATOM     21  C   UNL     1     -21.659  20.465 -25.827  1.00  0.00     0.053 C 
BRANCH  21  22
ATOM     22  C   UNL     1     -21.317  19.016 -25.661  1.00  0.00     0.041 C 
ATOM     23  O   UNL     1     -22.062  18.129 -26.154  1.00  0.00    -0.550 OA
ATOM     24  O   UNL     1     -20.154  18.647 -24.997  1.00  0.00    -0.550 OA
ENDBRANCH  21  22
ENDBRANCH  20  21
ENDBRANCH  19  20
ENDBRANCH  18  19
ENDBRANCH  17  18
ENDBRANCH  16  17
ENDBRANCH  15  16
ENDBRANCH  14  15
ENDBRANCH  13  14
ENDBRANCH   1  13
TORSDOF 20
ENDMDL
