MODEL 1
REMARK VINA RESULT:     0.962      0.000      0.000
REMARK INTER + INTRA:           1.684
REMARK INTER:                   2.087
REMARK INTRA:                  -0.403
REMARK UNBOUND:                -0.403
REMARK SMILES CCCCCCCCCCCCCCCCCCCCCC(=O)[O-]
REMARK SMILES IDX 12 1 11 2 10 3 9 4 8 5 7 6 6 7 5 8 4 9 3 10 2 11 1 12 13 13
REMARK SMILES IDX 14 14 15 15 16 16 17 17 18 18 19 19 20 20 21 21 22 22 23 23
REMARK SMILES IDX 24 24
REMARK H PARENT
REMARK Flexibility Score: inf
ROOT
ATOM      1  C   UNL     1     -14.106  -4.062  -3.963  1.00  0.00     0.000 C 
ENDROOT
BRANCH   1   2
ATOM      2  C   UNL     1     -14.382  -2.560  -4.146  1.00  0.00     0.000 C 
BRANCH   2   3
ATOM      3  C   UNL     1     -15.533  -2.052  -3.259  1.00  0.00     0.000 C 
BRANCH   3   4
ATOM      4  C   UNL     1     -16.262  -0.799  -3.783  1.00  0.00    -0.000 C 
BRANCH   4   5
ATOM      5  C   UNL     1     -16.887   0.098  -2.697  1.00  0.00    -0.000 C 
BRANCH   5   6
ATOM      6  C   UNL     1     -16.885  -0.496  -1.277  1.00  0.00    -0.000 C 
BRANCH   6   7
ATOM      7  C   UNL     1     -16.979   0.578  -0.180  1.00  0.00    -0.000 C 
BRANCH   7   8
ATOM      8  C   UNL     1     -15.701   0.682   0.671  1.00  0.00    -0.000 C 
BRANCH   8   9
ATOM      9  C   UNL     1     -15.335  -0.586   1.466  1.00  0.00    -0.000 C 
BRANCH   9  10
ATOM     10  C   UNL     1     -15.804  -0.532   2.930  1.00  0.00    -0.000 C 
BRANCH  10  11
ATOM     11  C   UNL     1     -16.829   0.586   3.178  1.00  0.00    -0.003 C 
ATOM     12  C   UNL     1     -17.118   0.804   4.662  1.00  0.00     0.004 C 
ENDBRANCH  10  11
ENDBRANCH   9  10
ENDBRANCH   8   9
ENDBRANCH   7   8
ENDBRANCH   6   7
ENDBRANCH   5   6
ENDBRANCH   4   5
ENDBRANCH   3   4
ENDBRANCH   2   3
ENDBRANCH   1   2
BRANCH   1  13
ATOM     13  C   UNL     1     -12.666  -4.350  -3.503  1.00  0.00     0.000 C 
BRANCH  13  14
ATOM     14  C   UNL     1     -11.762  -5.022  -4.557  1.00  0.00     0.000 C 
BRANCH  14  15
ATOM     15  C   UNL     1     -11.526  -4.206  -5.843  1.00  0.00     0.000 C 
BRANCH  15  16
ATOM     16  C   UNL     1     -11.231  -5.046  -7.097  1.00  0.00     0.000 C 
BRANCH  16  17
ATOM     17  C   UNL     1     -12.429  -5.124  -8.059  1.00  0.00     0.000 C 
BRANCH  17  18
ATOM     18  C   UNL     1     -13.773  -4.827  -7.368  1.00  0.00     0.000 C 
BRANCH  18  19
ATOM     19  C   UNL     1     -14.609  -3.714  -8.026  1.00  0.00     0.000 C 
BRANCH  19  20
ATOM     20  C   UNL     1     -15.837  -4.251  -8.782  1.00  0.00     0.006 C 
BRANCH  20  21
ATOM     21  C   UNL     1     -16.838  -4.936  -7.845  1.00  0.00     0.053 C 
BRANCH  21  22
ATOM     22  C   UNL     1     -16.759  -4.384  -6.453  1.00  0.00     0.041 C 
ATOM     23  O   UNL     1     -16.344  -5.105  -5.506  1.00  0.00    -0.550 OA
ATOM     24  O   UNL     1     -17.105  -3.062  -6.208  1.00  0.00    -0.550 OA
ENDBRANCH  21  22
ENDBRANCH  20  21
ENDBRANCH  19  20
ENDBRANCH  18  19
ENDBRANCH  17  18
ENDBRANCH  16  17
ENDBRANCH  15  16
ENDBRANCH  14  15
ENDBRANCH  13  14
ENDBRANCH   1  13
TORSDOF 20
ENDMDL
MODEL 2
REMARK VINA RESULT:     3.327      4.748      6.377
REMARK INTER + INTRA:           6.813
REMARK INTER:                   6.725
REMARK INTRA:                   0.087
REMARK UNBOUND:                -0.403
REMARK SMILES CCCCCCCCCCCCCCCCCCCCCC(=O)[O-]
REMARK SMILES IDX 12 1 11 2 10 3 9 4 8 5 7 6 6 7 5 8 4 9 3 10 2 11 1 12 13 13
REMARK SMILES IDX 14 14 15 15 16 16 17 17 18 18 19 19 20 20 21 21 22 22 23 23
REMARK SMILES IDX 24 24
REMARK H PARENT
REMARK Flexibility Score: inf
ROOT
ATOM      1  C   UNL     1     -16.364   0.190  -1.507  1.00  0.00     0.000 C 
ENDROOT
BRANCH   1   2
ATOM      2  C   UNL     1     -16.173   0.837  -0.126  1.00  0.00     0.000 C 
BRANCH   2   3
ATOM      3  C   UNL     1     -15.530   2.234  -0.205  1.00  0.00     0.000 C 
BRANCH   3   4
ATOM      4  C   UNL     1     -14.074   2.315   0.295  1.00  0.00    -0.000 C 
BRANCH   4   5
ATOM      5  C   UNL     1     -13.326   3.612  -0.072  1.00  0.00    -0.000 C 
BRANCH   5   6
ATOM      6  C   UNL     1     -11.994   3.829   0.668  1.00  0.00    -0.000 C 
BRANCH   6   7
ATOM      7  C   UNL     1     -10.870   4.322  -0.259  1.00  0.00    -0.000 C 
BRANCH   7   8
ATOM      8  C   UNL     1      -9.540   4.558   0.480  1.00  0.00    -0.000 C 
BRANCH   8   9
ATOM      9  C   UNL     1      -8.607   3.335   0.563  1.00  0.00    -0.000 C 
BRANCH   9  10
ATOM     10  C   UNL     1      -7.313   3.618   1.344  1.00  0.00    -0.000 C 
BRANCH  10  11
ATOM     11  C   UNL     1      -6.096   2.893   0.747  1.00  0.00    -0.003 C 
ATOM     12  C   UNL     1      -4.842   3.765   0.722  1.00  0.00     0.004 C 
ENDBRANCH  10  11
ENDBRANCH   9  10
ENDBRANCH   8   9
ENDBRANCH   7   8
ENDBRANCH   6   7
ENDBRANCH   5   6
ENDBRANCH   4   5
ENDBRANCH   3   4
ENDBRANCH   2   3
ENDBRANCH   1   2
BRANCH   1  13
ATOM     13  C   UNL     1     -17.010  -1.205  -1.426  1.00  0.00     0.000 C 
BRANCH  13  14
ATOM     14  C   UNL     1     -16.996  -2.013  -2.740  1.00  0.00     0.000 C 
BRANCH  14  15
ATOM     15  C   UNL     1     -16.062  -3.240  -2.751  1.00  0.00     0.000 C 
BRANCH  15  16
ATOM     16  C   UNL     1     -14.988  -3.226  -3.853  1.00  0.00     0.000 C 
BRANCH  16  17
ATOM     17  C   UNL     1     -13.875  -4.259  -3.615  1.00  0.00     0.000 C 
BRANCH  17  18
ATOM     18  C   UNL     1     -12.907  -4.383  -4.805  1.00  0.00     0.000 C 
BRANCH  18  19
ATOM     19  C   UNL     1     -13.475  -5.125  -6.030  1.00  0.00     0.000 C 
BRANCH  19  20
ATOM     20  C   UNL     1     -14.998  -4.967  -6.175  1.00  0.00     0.006 C 
BRANCH  20  21
ATOM     21  C   UNL     1     -15.372  -3.800  -7.098  1.00  0.00     0.053 C 
BRANCH  21  22
ATOM     22  C   UNL     1     -15.591  -4.260  -8.509  1.00  0.00     0.041 C 
ATOM     23  O   UNL     1     -16.694  -4.055  -9.081  1.00  0.00    -0.550 OA
ATOM     24  O   UNL     1     -14.561  -4.880  -9.205  1.00  0.00    -0.550 OA
ENDBRANCH  21  22
ENDBRANCH  20  21
ENDBRANCH  19  20
ENDBRANCH  18  19
ENDBRANCH  17  18
ENDBRANCH  16  17
ENDBRANCH  15  16
ENDBRANCH  14  15
ENDBRANCH  13  14
ENDBRANCH   1  13
TORSDOF 20
ENDMDL
MODEL 3
REMARK VINA RESULT:     3.382      5.317      9.674
REMARK INTER + INTRA:           6.934
REMARK INTER:                   8.420
REMARK INTRA:                  -1.486
REMARK UNBOUND:                -0.403
REMARK SMILES CCCCCCCCCCCCCCCCCCCCCC(=O)[O-]
REMARK SMILES IDX 12 1 11 2 10 3 9 4 8 5 7 6 6 7 5 8 4 9 3 10 2 11 1 12 13 13
REMARK SMILES IDX 14 14 15 15 16 16 17 17 18 18 19 19 20 20 21 21 22 22 23 23
REMARK SMILES IDX 24 24
REMARK H PARENT
REMARK Flexibility Score: inf
ROOT
ATOM      1  C   UNL     1     -16.270  -0.709  -0.790  1.00  0.00     0.000 C 
ENDROOT
BRANCH   1   2
ATOM      2  C   UNL     1     -16.676  -1.487  -2.053  1.00  0.00     0.000 C 
BRANCH   2   3
ATOM      3  C   UNL     1     -17.083  -2.941  -1.754  1.00  0.00     0.000 C 
BRANCH   3   4
ATOM      4  C   UNL     1     -17.042  -3.897  -2.963  1.00  0.00    -0.000 C 
BRANCH   4   5
ATOM      5  C   UNL     1     -17.050  -3.210  -4.343  1.00  0.00    -0.000 C 
BRANCH   5   6
ATOM      6  C   UNL     1     -17.089  -4.166  -5.549  1.00  0.00    -0.000 C 
BRANCH   6   7
ATOM      7  C   UNL     1     -15.754  -4.895  -5.774  1.00  0.00    -0.000 C 
BRANCH   7   8
ATOM      8  C   UNL     1     -14.568  -3.933  -5.964  1.00  0.00    -0.000 C 
BRANCH   8   9
ATOM      9  C   UNL     1     -13.421  -4.092  -4.948  1.00  0.00    -0.000 C 
BRANCH   9  10
ATOM     10  C   UNL     1     -13.732  -5.122  -3.848  1.00  0.00    -0.000 C 
BRANCH  10  11
ATOM     11  C   UNL     1     -12.847  -4.938  -2.605  1.00  0.00    -0.003 C 
ATOM     12  C   UNL     1     -13.659  -4.698  -1.333  1.00  0.00     0.004 C 
ENDBRANCH  10  11
ENDBRANCH   9  10
ENDBRANCH   8   9
ENDBRANCH   7   8
ENDBRANCH   6   7
ENDBRANCH   5   6
ENDBRANCH   4   5
ENDBRANCH   3   4
ENDBRANCH   2   3
ENDBRANCH   1   2
BRANCH   1  13
ATOM     13  C   UNL     1     -17.123   0.552  -0.569  1.00  0.00     0.000 C 
BRANCH  13  14
ATOM     14  C   UNL     1     -16.326   1.847  -0.309  1.00  0.00     0.000 C 
BRANCH  14  15
ATOM     15  C   UNL     1     -15.036   1.674   0.516  1.00  0.00     0.000 C 
BRANCH  15  16
ATOM     16  C   UNL     1     -13.770   2.259  -0.133  1.00  0.00     0.000 C 
BRANCH  16  17
ATOM     17  C   UNL     1     -13.200   3.459   0.643  1.00  0.00     0.000 C 
BRANCH  17  18
ATOM     18  C   UNL     1     -11.687   3.342   0.900  1.00  0.00     0.000 C 
BRANCH  18  19
ATOM     19  C   UNL     1     -10.821   4.378   0.159  1.00  0.00     0.000 C 
BRANCH  19  20
ATOM     20  C   UNL     1      -9.322   4.252   0.485  1.00  0.00     0.006 C 
BRANCH  20  21
ATOM     21  C   UNL     1      -8.771   2.862   0.142  1.00  0.00     0.053 C 
BRANCH  21  22
ATOM     22  C   UNL     1      -7.295   2.776   0.391  1.00  0.00     0.041 C 
ATOM     23  O   UNL     1      -6.732   3.596   1.164  1.00  0.00    -0.550 OA
ATOM     24  O   UNL     1      -6.549   1.766  -0.201  1.00  0.00    -0.550 OA
ENDBRANCH  21  22
ENDBRANCH  20  21
ENDBRANCH  19  20
ENDBRANCH  18  19
ENDBRANCH  17  18
ENDBRANCH  16  17
ENDBRANCH  15  16
ENDBRANCH  14  15
ENDBRANCH  13  14
ENDBRANCH   1  13
TORSDOF 20
ENDMDL
MODEL 4
REMARK VINA RESULT:     3.488      6.943     10.772
REMARK INTER + INTRA:           7.163
REMARK INTER:                   8.183
REMARK INTRA:                  -1.020
REMARK UNBOUND:                -0.403
REMARK SMILES CCCCCCCCCCCCCCCCCCCCCC(=O)[O-]
REMARK SMILES IDX 12 1 11 2 10 3 9 4 8 5 7 6 6 7 5 8 4 9 3 10 2 11 1 12 13 13
REMARK SMILES IDX 14 14 15 15 16 16 17 17 18 18 19 19 20 20 21 21 22 22 23 23
REMARK SMILES IDX 24 24
REMARK H PARENT
REMARK Flexibility Score: inf
ROOT
ATOM      1  C   UNL     1     -15.467   1.637  -0.442  1.00  0.00     0.000 C 
ENDROOT
BRANCH   1   2
ATOM      2  C   UNL     1     -16.475   0.768   0.326  1.00  0.00     0.000 C 
BRANCH   2   3
ATOM      3  C   UNL     1     -16.416  -0.716  -0.081  1.00  0.00     0.000 C 
BRANCH   3   4
ATOM      4  C   UNL     1     -16.711  -1.002  -1.566  1.00  0.00    -0.000 C 
BRANCH   4   5
ATOM      5  C   UNL     1     -16.971  -2.482  -1.911  1.00  0.00    -0.000 C 
BRANCH   5   6
ATOM      6  C   UNL     1     -15.946  -3.120  -2.866  1.00  0.00    -0.000 C 
BRANCH   6   7
ATOM      7  C   UNL     1     -15.181  -4.290  -2.224  1.00  0.00    -0.000 C 
BRANCH   7   8
ATOM      8  C   UNL     1     -13.815  -4.549  -2.884  1.00  0.00    -0.000 C 
BRANCH   8   9
ATOM      9  C   UNL     1     -13.634  -3.936  -4.286  1.00  0.00    -0.000 C 
BRANCH   9  10
ATOM     10  C   UNL     1     -13.884  -4.945  -5.420  1.00  0.00    -0.000 C 
BRANCH  10  11
ATOM     11  C   UNL     1     -14.654  -4.326  -6.598  1.00  0.00    -0.003 C 
ATOM     12  C   UNL     1     -16.168  -4.477  -6.457  1.00  0.00     0.004 C 
ENDBRANCH  10  11
ENDBRANCH   9  10
ENDBRANCH   8   9
ENDBRANCH   7   8
ENDBRANCH   6   7
ENDBRANCH   5   6
ENDBRANCH   4   5
ENDBRANCH   3   4
ENDBRANCH   2   3
ENDBRANCH   1   2
BRANCH   1  13
ATOM     13  C   UNL     1     -14.214   1.970   0.388  1.00  0.00     0.000 C 
BRANCH  13  14
ATOM     14  C   UNL     1     -13.347   3.120  -0.163  1.00  0.00     0.000 C 
BRANCH  14  15
ATOM     15  C   UNL     1     -12.383   3.766   0.852  1.00  0.00     0.000 C 
BRANCH  15  16
ATOM     16  C   UNL     1     -10.931   3.908   0.365  1.00  0.00     0.000 C 
BRANCH  16  17
ATOM     17  C   UNL     1      -9.953   2.999   1.128  1.00  0.00     0.000 C 
BRANCH  17  18
ATOM     18  C   UNL     1      -8.486   3.443   0.985  1.00  0.00     0.000 C 
BRANCH  18  19
ATOM     19  C   UNL     1      -7.665   2.648  -0.048  1.00  0.00     0.000 C 
BRANCH  19  20
ATOM     20  C   UNL     1      -6.369   2.060   0.538  1.00  0.00     0.006 C 
BRANCH  20  21
ATOM     21  C   UNL     1      -5.119   2.765  -0.003  1.00  0.00     0.053 C 
BRANCH  21  22
ATOM     22  C   UNL     1      -4.442   3.580   1.058  1.00  0.00     0.041 C 
ATOM     23  O   UNL     1      -5.114   4.354   1.791  1.00  0.00    -0.550 OA
ATOM     24  O   UNL     1      -3.074   3.456   1.262  1.00  0.00    -0.550 OA
ENDBRANCH  21  22
ENDBRANCH  20  21
ENDBRANCH  19  20
ENDBRANCH  18  19
ENDBRANCH  17  18
ENDBRANCH  16  17
ENDBRANCH  15  16
ENDBRANCH  14  15
ENDBRANCH  13  14
ENDBRANCH   1  13
TORSDOF 20
ENDMDL
MODEL 5
REMARK VINA RESULT:     3.646      7.461     10.883
REMARK INTER + INTRA:           7.505
REMARK INTER:                   8.603
REMARK INTRA:                  -1.098
REMARK UNBOUND:                -0.403
REMARK SMILES CCCCCCCCCCCCCCCCCCCCCC(=O)[O-]
REMARK SMILES IDX 12 1 11 2 10 3 9 4 8 5 7 6 6 7 5 8 4 9 3 10 2 11 1 12 13 13
REMARK SMILES IDX 14 14 15 15 16 16 17 17 18 18 19 19 20 20 21 21 22 22 23 23
REMARK SMILES IDX 24 24
REMARK H PARENT
REMARK Flexibility Score: inf
ROOT
ATOM      1  C   UNL     1     -14.106   2.052   0.338  1.00  0.00     0.000 C 
ENDROOT
BRANCH   1   2
ATOM      2  C   UNL     1     -15.516   1.923  -0.263  1.00  0.00     0.000 C 
BRANCH   2   3
ATOM      3  C   UNL     1     -16.143   0.538  -0.022  1.00  0.00     0.000 C 
BRANCH   3   4
ATOM      4  C   UNL     1     -16.650  -0.183  -1.287  1.00  0.00    -0.000 C 
BRANCH   4   5
ATOM      5  C   UNL     1     -17.061  -1.655  -1.084  1.00  0.00    -0.000 C 
BRANCH   5   6
ATOM      6  C   UNL     1     -16.856  -2.565  -2.309  1.00  0.00    -0.000 C 
BRANCH   6   7
ATOM      7  C   UNL     1     -16.279  -1.813  -3.520  1.00  0.00    -0.000 C 
BRANCH   7   8
ATOM      8  C   UNL     1     -15.645  -2.752  -4.563  1.00  0.00    -0.000 C 
BRANCH   8   9
ATOM      9  C   UNL     1     -14.192  -3.175  -4.272  1.00  0.00    -0.000 C 
BRANCH   9  10
ATOM     10  C   UNL     1     -14.021  -4.700  -4.166  1.00  0.00    -0.000 C 
BRANCH  10  11
ATOM     11  C   UNL     1     -13.338  -5.125  -2.856  1.00  0.00    -0.003 C 
ATOM     12  C   UNL     1     -13.953  -4.459  -1.627  1.00  0.00     0.004 C 
ENDBRANCH  10  11
ENDBRANCH   9  10
ENDBRANCH   8   9
ENDBRANCH   7   8
ENDBRANCH   6   7
ENDBRANCH   5   6
ENDBRANCH   4   5
ENDBRANCH   3   4
ENDBRANCH   2   3
ENDBRANCH   1   2
BRANCH   1  13
ATOM     13  C   UNL     1     -13.397   3.351  -0.082  1.00  0.00     0.000 C 
BRANCH  13  14
ATOM     14  C   UNL     1     -12.211   3.770   0.810  1.00  0.00     0.000 C 
BRANCH  14  15
ATOM     15  C   UNL     1     -10.853   3.139   0.445  1.00  0.00     0.000 C 
BRANCH  15  16
ATOM     16  C   UNL     1      -9.746   4.147   0.089  1.00  0.00     0.000 C 
BRANCH  16  17
ATOM     17  C   UNL     1      -8.454   3.922   0.891  1.00  0.00     0.000 C 
BRANCH  17  18
ATOM     18  C   UNL     1      -7.813   2.549   0.624  1.00  0.00     0.000 C 
BRANCH  18  19
ATOM     19  C   UNL     1      -6.306   2.586   0.308  1.00  0.00     0.000 C 
BRANCH  19  20
ATOM     20  C   UNL     1      -5.625   3.885   0.774  1.00  0.00     0.006 C 
BRANCH  20  21
ATOM     21  C   UNL     1      -4.922   3.716   2.126  1.00  0.00     0.053 C 
BRANCH  21  22
ATOM     22  C   UNL     1      -3.593   3.038   1.977  1.00  0.00     0.041 C 
ATOM     23  O   UNL     1      -3.242   2.141   2.789  1.00  0.00    -0.550 OA
ATOM     24  O   UNL     1      -2.759   3.370   0.917  1.00  0.00    -0.550 OA
ENDBRANCH  21  22
ENDBRANCH  20  21
ENDBRANCH  19  20
ENDBRANCH  18  19
ENDBRANCH  17  18
ENDBRANCH  16  17
ENDBRANCH  15  16
ENDBRANCH  14  15
ENDBRANCH  13  14
ENDBRANCH   1  13
TORSDOF 20
ENDMDL
MODEL 6
REMARK VINA RESULT:     3.654     14.604     16.762
REMARK INTER + INTRA:           7.522
REMARK INTER:                   9.076
REMARK INTRA:                  -1.554
REMARK UNBOUND:                -0.403
REMARK SMILES CCCCCCCCCCCCCCCCCCCCCC(=O)[O-]
REMARK SMILES IDX 12 1 11 2 10 3 9 4 8 5 7 6 6 7 5 8 4 9 3 10 2 11 1 12 13 13
REMARK SMILES IDX 14 14 15 15 16 16 17 17 18 18 19 19 20 20 21 21 22 22 23 23
REMARK SMILES IDX 24 24
REMARK H PARENT
REMARK Flexibility Score: inf
ROOT
ATOM      1  C   UNL     1      -1.596  -0.050   4.210  1.00  0.00     0.000 C 
ENDROOT
BRANCH   1   2
ATOM      2  C   UNL     1      -0.340   0.502   4.904  1.00  0.00     0.000 C 
BRANCH   2   3
ATOM      3  C   UNL     1       0.643   1.164   3.922  1.00  0.00     0.000 C 
BRANCH   3   4
ATOM      4  C   UNL     1       2.126   1.103   4.337  1.00  0.00    -0.000 C 
BRANCH   4   5
ATOM      5  C   UNL     1       2.504   1.972   5.553  1.00  0.00    -0.000 C 
BRANCH   5   6
ATOM      6  C   UNL     1       3.041   1.195   6.769  1.00  0.00    -0.000 C 
BRANCH   6   7
ATOM      7  C   UNL     1       3.124  -0.320   6.519  1.00  0.00    -0.000 C 
BRANCH   7   8
ATOM      8  C   UNL     1       1.856  -1.074   6.960  1.00  0.00    -0.000 C 
BRANCH   8   9
ATOM      9  C   UNL     1       1.577  -2.389   6.208  1.00  0.00    -0.000 C 
BRANCH   9  10
ATOM     10  C   UNL     1       2.721  -2.797   5.265  1.00  0.00    -0.000 C 
BRANCH  10  11
ATOM     11  C   UNL     1       3.122  -4.271   5.431  1.00  0.00    -0.003 C 
ATOM     12  C   UNL     1       2.765  -5.121   4.213  1.00  0.00     0.004 C 
ENDBRANCH  10  11
ENDBRANCH   9  10
ENDBRANCH   8   9
ENDBRANCH   7   8
ENDBRANCH   6   7
ENDBRANCH   5   6
ENDBRANCH   4   5
ENDBRANCH   3   4
ENDBRANCH   2   3
ENDBRANCH   1   2
BRANCH   1  13
ATOM     13  C   UNL     1      -2.864   0.756   4.545  1.00  0.00     0.000 C 
BRANCH  13  14
ATOM     14  C   UNL     1      -3.001   2.103   3.804  1.00  0.00     0.000 C 
BRANCH  14  15
ATOM     15  C   UNL     1      -2.879   2.028   2.269  1.00  0.00     0.000 C 
BRANCH  15  16
ATOM     16  C   UNL     1      -2.943   3.386   1.549  1.00  0.00     0.000 C 
BRANCH  16  17
ATOM     17  C   UNL     1      -3.933   3.391   0.372  1.00  0.00     0.000 C 
BRANCH  17  18
ATOM     18  C   UNL     1      -5.391   3.174   0.813  1.00  0.00     0.000 C 
BRANCH  18  19
ATOM     19  C   UNL     1      -6.141   2.061   0.056  1.00  0.00     0.000 C 
BRANCH  19  20
ATOM     20  C   UNL     1      -7.666   2.263   0.045  1.00  0.00     0.006 C 
BRANCH  20  21
ATOM     21  C   UNL     1      -8.097   3.457   0.906  1.00  0.00     0.053 C 
BRANCH  21  22
ATOM     22  C   UNL     1      -9.531   3.821   0.667  1.00  0.00     0.041 C 
ATOM     23  O   UNL     1     -10.456   3.076   1.088  1.00  0.00    -0.550 OA
ATOM     24  O   UNL     1      -9.848   5.005   0.013  1.00  0.00    -0.550 OA
ENDBRANCH  21  22
ENDBRANCH  20  21
ENDBRANCH  19  20
ENDBRANCH  18  19
ENDBRANCH  17  18
ENDBRANCH  16  17
ENDBRANCH  15  16
ENDBRANCH  14  15
ENDBRANCH  13  14
ENDBRANCH   1  13
TORSDOF 20
ENDMDL
MODEL 7
REMARK VINA RESULT:     3.658      6.371      8.612
REMARK INTER + INTRA:           7.530
REMARK INTER:                   8.344
REMARK INTRA:                  -0.814
REMARK UNBOUND:                -0.403
REMARK SMILES CCCCCCCCCCCCCCCCCCCCCC(=O)[O-]
REMARK SMILES IDX 12 1 11 2 10 3 9 4 8 5 7 6 6 7 5 8 4 9 3 10 2 11 1 12 13 13
REMARK SMILES IDX 14 14 15 15 16 16 17 17 18 18 19 19 20 20 21 21 22 22 23 23
REMARK SMILES IDX 24 24
REMARK H PARENT
REMARK Flexibility Score: inf
ROOT
ATOM      1  C   UNL     1     -13.756   2.147   0.320  1.00  0.00     0.000 C 
ENDROOT
BRANCH   1   2
ATOM      2  C   UNL     1     -13.123   3.513   0.008  1.00  0.00     0.000 C 
BRANCH   2   3
ATOM      3  C   UNL     1     -11.921   3.835   0.915  1.00  0.00     0.000 C 
BRANCH   3   4
ATOM      4  C   UNL     1     -10.644   3.022   0.627  1.00  0.00    -0.000 C 
BRANCH   4   5
ATOM      5  C   UNL     1      -9.391   3.860   0.302  1.00  0.00    -0.000 C 
BRANCH   5   6
ATOM      6  C   UNL     1      -8.118   3.454   1.066  1.00  0.00    -0.000 C 
BRANCH   6   7
ATOM      7  C   UNL     1      -7.350   2.312   0.380  1.00  0.00    -0.000 C 
BRANCH   7   8
ATOM      8  C   UNL     1      -5.844   2.599   0.241  1.00  0.00    -0.000 C 
BRANCH   8   9
ATOM      9  C   UNL     1      -5.288   3.676   1.193  1.00  0.00    -0.000 C 
BRANCH   9  10
ATOM     10  C   UNL     1      -3.899   3.323   1.754  1.00  0.00    -0.000 C 
BRANCH  10  11
ATOM     11  C   UNL     1      -3.889   1.973   2.490  1.00  0.00    -0.003 C 
ATOM     12  C   UNL     1      -3.036   1.999   3.757  1.00  0.00     0.004 C 
ENDBRANCH  10  11
ENDBRANCH   9  10
ENDBRANCH   8   9
ENDBRANCH   7   8
ENDBRANCH   6   7
ENDBRANCH   5   6
ENDBRANCH   4   5
ENDBRANCH   3   4
ENDBRANCH   2   3
ENDBRANCH   1   2
BRANCH   1  13
ATOM     13  C   UNL     1     -15.173   2.002  -0.263  1.00  0.00     0.000 C 
BRANCH  13  14
ATOM     14  C   UNL     1     -15.897   0.686   0.091  1.00  0.00     0.000 C 
BRANCH  14  15
ATOM     15  C   UNL     1     -17.124   0.353  -0.781  1.00  0.00     0.000 C 
BRANCH  15  16
ATOM     16  C   UNL     1     -16.826  -0.521  -2.011  1.00  0.00     0.000 C 
BRANCH  16  17
ATOM     17  C   UNL     1     -16.674  -2.011  -1.662  1.00  0.00     0.000 C 
BRANCH  17  18
ATOM     18  C   UNL     1     -16.891  -2.936  -2.873  1.00  0.00     0.000 C 
BRANCH  18  19
ATOM     19  C   UNL     1     -16.590  -4.424  -2.616  1.00  0.00     0.000 C 
BRANCH  19  20
ATOM     20  C   UNL     1     -15.507  -4.989  -3.553  1.00  0.00     0.006 C 
BRANCH  20  21
ATOM     21  C   UNL     1     -14.318  -4.032  -3.705  1.00  0.00     0.053 C 
BRANCH  21  22
ATOM     22  C   UNL     1     -13.715  -4.113  -5.075  1.00  0.00     0.041 C 
ATOM     23  O   UNL     1     -14.369  -3.730  -6.082  1.00  0.00    -0.550 OA
ATOM     24  O   UNL     1     -12.415  -4.575  -5.236  1.00  0.00    -0.550 OA
ENDBRANCH  21  22
ENDBRANCH  20  21
ENDBRANCH  19  20
ENDBRANCH  18  19
ENDBRANCH  17  18
ENDBRANCH  16  17
ENDBRANCH  15  16
ENDBRANCH  14  15
ENDBRANCH  13  14
ENDBRANCH   1  13
TORSDOF 20
ENDMDL
MODEL 8
REMARK VINA RESULT:     3.805      5.411     10.292
REMARK INTER + INTRA:           7.851
REMARK INTER:                   8.679
REMARK INTRA:                  -0.829
REMARK UNBOUND:                -0.403
REMARK SMILES CCCCCCCCCCCCCCCCCCCCCC(=O)[O-]
REMARK SMILES IDX 12 1 11 2 10 3 9 4 8 5 7 6 6 7 5 8 4 9 3 10 2 11 1 12 13 13
REMARK SMILES IDX 14 14 15 15 16 16 17 17 18 18 19 19 20 20 21 21 22 22 23 23
REMARK SMILES IDX 24 24
REMARK H PARENT
REMARK Flexibility Score: inf
ROOT
ATOM      1  C   UNL     1     -15.945  -0.078  -0.923  1.00  0.00     0.000 C 
ENDROOT
BRANCH   1   2
ATOM      2  C   UNL     1     -16.892  -0.912  -1.801  1.00  0.00     0.000 C 
BRANCH   2   3
ATOM      3  C   UNL     1     -17.043  -2.362  -1.306  1.00  0.00     0.000 C 
BRANCH   3   4
ATOM      4  C   UNL     1     -16.639  -3.449  -2.322  1.00  0.00    -0.000 C 
BRANCH   4   5
ATOM      5  C   UNL     1     -15.198  -3.340  -2.861  1.00  0.00    -0.000 C 
BRANCH   5   6
ATOM      6  C   UNL     1     -14.644  -4.621  -3.508  1.00  0.00    -0.000 C 
BRANCH   6   7
ATOM      7  C   UNL     1     -13.358  -4.374  -4.314  1.00  0.00    -0.000 C 
BRANCH   7   8
ATOM      8  C   UNL     1     -13.566  -4.507  -5.833  1.00  0.00    -0.000 C 
BRANCH   8   9
ATOM      9  C   UNL     1     -15.008  -4.277  -6.323  1.00  0.00    -0.000 C 
BRANCH   9  10
ATOM     10  C   UNL     1     -15.356  -5.101  -7.574  1.00  0.00    -0.000 C 
BRANCH  10  11
ATOM     11  C   UNL     1     -16.849  -5.022  -7.933  1.00  0.00    -0.003 C 
ATOM     12  C   UNL     1     -17.125  -4.079  -9.103  1.00  0.00     0.004 C 
ENDBRANCH  10  11
ENDBRANCH   9  10
ENDBRANCH   8   9
ENDBRANCH   7   8
ENDBRANCH   6   7
ENDBRANCH   5   6
ENDBRANCH   4   5
ENDBRANCH   3   4
ENDBRANCH   2   3
ENDBRANCH   1   2
BRANCH   1  13
ATOM     13  C   UNL     1     -16.580   1.241  -0.450  1.00  0.00     0.000 C 
BRANCH  13  14
ATOM     14  C   UNL     1     -15.646   2.469  -0.483  1.00  0.00     0.000 C 
BRANCH  14  15
ATOM     15  C   UNL     1     -14.230   2.237   0.081  1.00  0.00     0.000 C 
BRANCH  15  16
ATOM     16  C   UNL     1     -13.309   3.469   0.042  1.00  0.00     0.000 C 
BRANCH  16  17
ATOM     17  C   UNL     1     -11.972   3.238   0.765  1.00  0.00     0.000 C 
BRANCH  17  18
ATOM     18  C   UNL     1     -11.053   4.472   0.736  1.00  0.00     0.000 C 
BRANCH  18  19
ATOM     19  C   UNL     1      -9.635   4.214   0.191  1.00  0.00     0.000 C 
BRANCH  19  20
ATOM     20  C   UNL     1      -8.886   3.113   0.962  1.00  0.00     0.006 C 
BRANCH  20  21
ATOM     21  C   UNL     1      -8.389   1.996   0.037  1.00  0.00     0.053 C 
BRANCH  21  22
ATOM     22  C   UNL     1      -6.895   1.872   0.073  1.00  0.00     0.041 C 
ATOM     23  O   UNL     1      -6.341   0.775  -0.202  1.00  0.00    -0.550 OA
ATOM     24  O   UNL     1      -6.113   2.981   0.372  1.00  0.00    -0.550 OA
ENDBRANCH  21  22
ENDBRANCH  20  21
ENDBRANCH  19  20
ENDBRANCH  18  19
ENDBRANCH  17  18
ENDBRANCH  16  17
ENDBRANCH  15  16
ENDBRANCH  14  15
ENDBRANCH  13  14
ENDBRANCH   1  13
TORSDOF 20
ENDMDL
MODEL 9
REMARK VINA RESULT:     3.849      4.539      9.464
REMARK INTER + INTRA:           7.946
REMARK INTER:                   8.845
REMARK INTRA:                  -0.899
REMARK UNBOUND:                -0.403
REMARK SMILES CCCCCCCCCCCCCCCCCCCCCC(=O)[O-]
REMARK SMILES IDX 12 1 11 2 10 3 9 4 8 5 7 6 6 7 5 8 4 9 3 10 2 11 1 12 13 13
REMARK SMILES IDX 14 14 15 15 16 16 17 17 18 18 19 19 20 20 21 21 22 22 23 23
REMARK SMILES IDX 24 24
REMARK H PARENT
REMARK Flexibility Score: inf
ROOT
ATOM      1  C   UNL     1     -16.795  -0.601  -1.944  1.00  0.00     0.000 C 
ENDROOT
BRANCH   1   2
ATOM      2  C   UNL     1     -16.252  -1.533  -3.040  1.00  0.00     0.000 C 
BRANCH   2   3
ATOM      3  C   UNL     1     -17.115  -2.794  -3.232  1.00  0.00     0.000 C 
BRANCH   3   4
ATOM      4  C   UNL     1     -16.424  -4.124  -2.871  1.00  0.00    -0.000 C 
BRANCH   4   5
ATOM      5  C   UNL     1     -16.044  -5.013  -4.072  1.00  0.00    -0.000 C 
BRANCH   5   6
ATOM      6  C   UNL     1     -16.806  -4.712  -5.374  1.00  0.00    -0.000 C 
BRANCH   6   7
ATOM      7  C   UNL     1     -15.872  -4.354  -6.543  1.00  0.00    -0.000 C 
BRANCH   7   8
ATOM      8  C   UNL     1     -14.546  -3.723  -6.081  1.00  0.00    -0.000 C 
BRANCH   8   9
ATOM      9  C   UNL     1     -13.291  -4.588  -6.308  1.00  0.00    -0.000 C 
BRANCH   9  10
ATOM     10  C   UNL     1     -12.685  -5.123  -4.999  1.00  0.00    -0.000 C 
BRANCH  10  11
ATOM     11  C   UNL     1     -12.965  -4.200  -3.802  1.00  0.00    -0.003 C 
ATOM     12  C   UNL     1     -12.798  -4.908  -2.458  1.00  0.00     0.004 C 
ENDBRANCH  10  11
ENDBRANCH   9  10
ENDBRANCH   8   9
ENDBRANCH   7   8
ENDBRANCH   6   7
ENDBRANCH   5   6
ENDBRANCH   4   5
ENDBRANCH   3   4
ENDBRANCH   2   3
ENDBRANCH   1   2
BRANCH   1  13
ATOM     13  C   UNL     1     -16.128  -0.838  -0.578  1.00  0.00     0.000 C 
BRANCH  13  14
ATOM     14  C   UNL     1     -17.059  -0.684   0.643  1.00  0.00     0.000 C 
BRANCH  14  15
ATOM     15  C   UNL     1     -16.557   0.277   1.740  1.00  0.00     0.000 C 
BRANCH  15  16
ATOM     16  C   UNL     1     -15.193   0.929   1.453  1.00  0.00     0.000 C 
BRANCH  16  17
ATOM     17  C   UNL     1     -15.222   1.862   0.231  1.00  0.00     0.000 C 
BRANCH  17  18
ATOM     18  C   UNL     1     -14.009   2.807   0.169  1.00  0.00     0.000 C 
BRANCH  18  19
ATOM     19  C   UNL     1     -12.737   2.278   0.859  1.00  0.00     0.000 C 
BRANCH  19  20
ATOM     20  C   UNL     1     -11.537   3.229   0.718  1.00  0.00     0.006 C 
BRANCH  20  21
ATOM     21  C   UNL     1     -10.206   2.528   1.016  1.00  0.00     0.053 C 
BRANCH  21  22
ATOM     22  C   UNL     1      -9.033   3.397   0.671  1.00  0.00     0.041 C 
ATOM     23  O   UNL     1      -7.905   2.883   0.446  1.00  0.00    -0.550 OA
ATOM     24  O   UNL     1      -9.197   4.772   0.558  1.00  0.00    -0.550 OA
ENDBRANCH  21  22
ENDBRANCH  20  21
ENDBRANCH  19  20
ENDBRANCH  18  19
ENDBRANCH  17  18
ENDBRANCH  16  17
ENDBRANCH  15  16
ENDBRANCH  14  15
ENDBRANCH  13  14
ENDBRANCH   1  13
TORSDOF 20
ENDMDL
