MODEL 1
REMARK VINA RESULT:    -7.418      0.000      0.000
REMARK INTER + INTRA:          -8.988
REMARK INTER:                  -8.719
REMARK INTRA:                  -0.269
REMARK UNBOUND:                -0.269
REMARK SMILES O=c1c(O)c(-c2ccc(O)cc2)oc2cc(O)cc(O)c12
REMARK SMILES IDX 5 1 3 2 2 3 1 4 21 5 19 6 18 7 16 8 15 9 14 10 13 11 6 12
REMARK SMILES IDX 7 13 8 14 9 15 12 16 11 17 10 18 4 20 20 22 17 24
REMARK H PARENT 10 19 4 21 20 23 17 25
REMARK Flexibility Score: inf
ROOT
ATOM      1  C   UNL     1     140.580 -18.083  78.748  1.00  0.00     0.180 A 
ATOM      2  C   UNL     1     139.210 -17.871  78.513  1.00  0.00     0.208 A 
ATOM      3  C   UNL     1     138.588 -16.745  79.078  1.00  0.00     0.238 A 
ATOM      4  O   UNL     1     137.375 -16.531  78.820  1.00  0.00    -0.285 OA
ATOM      5  C   UNL     1     139.340 -15.856  79.884  1.00  0.00     0.111 A 
ATOM      6  C   UNL     1     138.804 -14.707  80.539  1.00  0.00     0.134 A 
ATOM      7  C   UNL     1     139.667 -13.826  81.203  1.00  0.00     0.093 A 
ATOM      8  C   UNL     1     141.036 -14.087  81.291  1.00  0.00     0.123 A 
ATOM      9  C   UNL     1     141.559 -15.238  80.705  1.00  0.00     0.094 A 
ATOM     10  C   UNL     1     140.730 -16.117  80.004  1.00  0.00     0.146 A 
ATOM     11  O   UNL     1     141.272 -17.196  79.453  1.00  0.00    -0.452 OA
ENDROOT
BRANCH   1  12
ATOM     12  C   UNL     1     141.299 -19.260  78.207  1.00  0.00     0.021 A 
ATOM     13  C   UNL     1     141.190 -20.526  78.811  1.00  0.00     0.016 A 
ATOM     14  C   UNL     1     141.898 -21.617  78.297  1.00  0.00     0.047 A 
ATOM     15  C   UNL     1     142.732 -21.453  77.183  1.00  0.00     0.115 A 
ATOM     16  C   UNL     1     142.153 -19.100  77.103  1.00  0.00     0.016 A 
ATOM     17  C   UNL     1     142.858 -20.194  76.591  1.00  0.00     0.047 A 
BRANCH  15  18
ATOM     18  O   UNL     1     143.439 -22.534  76.661  1.00  0.00    -0.508 OA
ATOM     19  H   UNL     1     144.162 -22.405  75.962  1.00  0.00     0.293 HD
ENDBRANCH  15  18
ENDBRANCH   1  12
BRANCH   2  20
ATOM     20  O   UNL     1     138.492 -18.749  77.697  1.00  0.00    -0.502 OA
ATOM     21  H   UNL     1     138.065 -19.597  78.053  1.00  0.00     0.293 HD
ENDBRANCH   2  20
BRANCH   6  22
ATOM     22  O   UNL     1     137.441 -14.402  80.590  1.00  0.00    -0.507 OA
ATOM     23  H   UNL     1     137.060 -13.468  80.594  1.00  0.00     0.293 HD
ENDBRANCH   6  22
BRANCH   8  24
ATOM     24  O   UNL     1     141.885 -13.214  81.967  1.00  0.00    -0.508 OA
ATOM     25  H   UNL     1     142.172 -13.386  82.924  1.00  0.00     0.293 HD
ENDBRANCH   8  24
TORSDOF 5
ENDMDL
MODEL 2
REMARK VINA RESULT:    -6.856      0.561      0.561
REMARK INTER + INTRA:          -8.327
REMARK INTER:                  -8.081
REMARK INTRA:                  -0.246
REMARK UNBOUND:                -0.269
REMARK SMILES O=c1c(O)c(-c2ccc(O)cc2)oc2cc(O)cc(O)c12
REMARK SMILES IDX 5 1 3 2 2 3 1 4 21 5 19 6 18 7 16 8 15 9 14 10 13 11 6 12
REMARK SMILES IDX 7 13 8 14 9 15 12 16 11 17 10 18 4 20 20 22 17 24
REMARK H PARENT 10 19 4 21 20 23 17 25
REMARK Flexibility Score: inf
ROOT
ATOM      1  C   UNL     1     140.832 -18.448  78.577  1.00  0.00     0.180 A 
ATOM      2  C   UNL     1     139.462 -18.352  78.281  1.00  0.00     0.208 A 
ATOM      3  C   UNL     1     138.733 -17.256  78.772  1.00  0.00     0.238 A 
ATOM      4  O   UNL     1     137.519 -17.147  78.458  1.00  0.00    -0.285 OA
ATOM      5  C   UNL     1     139.381 -16.280  79.566  1.00  0.00     0.111 A 
ATOM      6  C   UNL     1     138.733 -15.150  80.150  1.00  0.00     0.134 A 
ATOM      7  C   UNL     1     139.498 -14.179  80.808  1.00  0.00     0.093 A 
ATOM      8  C   UNL     1     140.879 -14.330  80.960  1.00  0.00     0.123 A 
ATOM      9  C   UNL     1     141.511 -15.459  80.445  1.00  0.00     0.094 A 
ATOM     10  C   UNL     1     140.781 -16.427  79.752  1.00  0.00     0.146 A 
ATOM     11  O   UNL     1     141.425 -17.483  79.269  1.00  0.00    -0.452 OA
ENDROOT
BRANCH   1  12
ATOM     12  C   UNL     1     141.660 -19.587  78.116  1.00  0.00     0.021 A 
ATOM     13  C   UNL     1     141.568 -20.853  78.723  1.00  0.00     0.016 A 
ATOM     14  C   UNL     1     142.378 -21.906  78.287  1.00  0.00     0.047 A 
ATOM     15  C   UNL     1     143.297 -21.704  77.249  1.00  0.00     0.115 A 
ATOM     16  C   UNL     1     142.599 -19.388  77.091  1.00  0.00     0.016 A 
ATOM     17  C   UNL     1     143.406 -20.443  76.656  1.00  0.00     0.047 A 
BRANCH  15  18
ATOM     18  O   UNL     1     144.107 -22.746  76.805  1.00  0.00    -0.508 OA
ATOM     19  H   UNL     1     144.226 -22.940  75.816  1.00  0.00     0.293 HD
ENDBRANCH  15  18
ENDBRANCH   1  12
BRANCH   2  20
ATOM     20  O   UNL     1     138.847 -19.316  77.477  1.00  0.00    -0.502 OA
ATOM     21  H   UNL     1     139.308 -20.179  77.213  1.00  0.00     0.293 HD
ENDBRANCH   2  20
BRANCH   6  22
ATOM     22  O   UNL     1     137.350 -14.950  80.136  1.00  0.00    -0.507 OA
ATOM     23  H   UNL     1     136.662 -15.689  80.137  1.00  0.00     0.293 HD
ENDBRANCH   6  22
BRANCH   8  24
ATOM     24  O   UNL     1     141.629 -13.367  81.629  1.00  0.00    -0.508 OA
ATOM     25  H   UNL     1     141.189 -12.591  82.111  1.00  0.00     0.293 HD
ENDBRANCH   8  24
TORSDOF 5
ENDMDL
MODEL 3
REMARK VINA RESULT:    -6.647      4.733      9.902
REMARK INTER + INTRA:          -8.082
REMARK INTER:                  -8.337
REMARK INTRA:                   0.256
REMARK UNBOUND:                -0.269
REMARK SMILES O=c1c(O)c(-c2ccc(O)cc2)oc2cc(O)cc(O)c12
REMARK SMILES IDX 5 1 3 2 2 3 1 4 21 5 19 6 18 7 16 8 15 9 14 10 13 11 6 12
REMARK SMILES IDX 7 13 8 14 9 15 12 16 11 17 10 18 4 20 20 22 17 24
REMARK H PARENT 10 19 4 21 20 23 17 25
REMARK Flexibility Score: inf
ROOT
ATOM      1  C   UNL     1     145.498 -21.944  76.919  1.00  0.00     0.180 A 
ATOM      2  C   UNL     1     146.215 -22.663  77.890  1.00  0.00     0.208 A 
ATOM      3  C   UNL     1     147.501 -23.135  77.579  1.00  0.00     0.238 A 
ATOM      4  O   UNL     1     148.159 -23.731  78.471  1.00  0.00    -0.285 OA
ATOM      5  C   UNL     1     148.045 -22.895  76.294  1.00  0.00     0.111 A 
ATOM      6  C   UNL     1     149.322 -23.361  75.856  1.00  0.00     0.134 A 
ATOM      7  C   UNL     1     149.814 -22.953  74.610  1.00  0.00     0.093 A 
ATOM      8  C   UNL     1     149.050 -22.150  73.760  1.00  0.00     0.123 A 
ATOM      9  C   UNL     1     147.779 -21.740  74.155  1.00  0.00     0.094 A 
ATOM     10  C   UNL     1     147.274 -22.100  75.406  1.00  0.00     0.146 A 
ATOM     11  O   UNL     1     146.062 -21.678  75.747  1.00  0.00    -0.452 OA
ENDROOT
BRANCH   1  12
ATOM     12  C   UNL     1     144.128 -21.437  77.165  1.00  0.00     0.021 A 
ATOM     13  C   UNL     1     143.233 -22.121  78.009  1.00  0.00     0.016 A 
ATOM     14  C   UNL     1     141.937 -21.636  78.207  1.00  0.00     0.047 A 
ATOM     15  C   UNL     1     141.515 -20.470  77.555  1.00  0.00     0.115 A 
ATOM     16  C   UNL     1     143.689 -20.280  76.500  1.00  0.00     0.016 A 
ATOM     17  C   UNL     1     142.393 -19.797  76.701  1.00  0.00     0.047 A 
BRANCH  15  18
ATOM     18  O   UNL     1     140.227 -19.977  77.747  1.00  0.00    -0.508 OA
ATOM     19  H   UNL     1     139.800 -19.338  77.085  1.00  0.00     0.293 HD
ENDBRANCH  15  18
ENDBRANCH   1  12
BRANCH   2  20
ATOM     20  O   UNL     1     145.666 -22.870  79.159  1.00  0.00    -0.502 OA
ATOM     21  H   UNL     1     144.666 -22.895  79.323  1.00  0.00     0.293 HD
ENDBRANCH   2  20
BRANCH   6  22
ATOM     22  O   UNL     1     150.125 -24.240  76.587  1.00  0.00    -0.507 OA
ATOM     23  H   UNL     1     150.215 -24.235  77.593  1.00  0.00     0.293 HD
ENDBRANCH   6  22
BRANCH   8  24
ATOM     24  O   UNL     1     149.542 -21.763  72.516  1.00  0.00    -0.508 OA
ATOM     25  H   UNL     1     148.926 -21.611  71.725  1.00  0.00     0.293 HD
ENDBRANCH   8  24
TORSDOF 5
ENDMDL
MODEL 4
REMARK VINA RESULT:    -5.000      4.703     10.102
REMARK INTER + INTRA:          -6.146
REMARK INTER:                  -6.652
REMARK INTRA:                   0.506
REMARK UNBOUND:                -0.269
REMARK SMILES O=c1c(O)c(-c2ccc(O)cc2)oc2cc(O)cc(O)c12
REMARK SMILES IDX 5 1 3 2 2 3 1 4 21 5 19 6 18 7 16 8 15 9 14 10 13 11 6 12
REMARK SMILES IDX 7 13 8 14 9 15 12 16 11 17 10 18 4 20 20 22 17 24
REMARK H PARENT 10 19 4 21 20 23 17 25
REMARK Flexibility Score: inf
ROOT
ATOM      1  C   UNL     1     145.478 -22.352  76.955  1.00  0.00     0.180 A 
ATOM      2  C   UNL     1     146.223 -22.102  75.790  1.00  0.00     0.208 A 
ATOM      3  C   UNL     1     147.443 -22.774  75.604  1.00  0.00     0.238 A 
ATOM      4  O   UNL     1     148.079 -22.588  74.534  1.00  0.00    -0.285 OA
ATOM      5  C   UNL     1     147.908 -23.674  76.594  1.00  0.00     0.111 A 
ATOM      6  C   UNL     1     149.148 -24.378  76.529  1.00  0.00     0.134 A 
ATOM      7  C   UNL     1     149.446 -25.342  77.501  1.00  0.00     0.093 A 
ATOM      8  C   UNL     1     148.579 -25.579  78.570  1.00  0.00     0.123 A 
ATOM      9  C   UNL     1     147.395 -24.853  78.674  1.00  0.00     0.094 A 
ATOM     10  C   UNL     1     147.052 -23.912  77.700  1.00  0.00     0.146 A 
ATOM     11  O   UNL     1     145.908 -23.250  77.832  1.00  0.00    -0.452 OA
ENDROOT
BRANCH   1  12
ATOM     12  C   UNL     1     144.196 -21.664  77.232  1.00  0.00     0.021 A 
ATOM     13  C   UNL     1     143.287 -22.161  78.185  1.00  0.00     0.016 A 
ATOM     14  C   UNL     1     142.072 -21.507  78.412  1.00  0.00     0.047 A 
ATOM     15  C   UNL     1     141.745 -20.357  77.682  1.00  0.00     0.115 A 
ATOM     16  C   UNL     1     143.850 -20.522  76.490  1.00  0.00     0.016 A 
ATOM     17  C   UNL     1     142.635 -19.869  76.721  1.00  0.00     0.047 A 
BRANCH  15  18
ATOM     18  O   UNL     1     140.539 -19.696  77.902  1.00  0.00    -0.508 OA
ATOM     19  H   UNL     1     139.982 -19.872  78.730  1.00  0.00     0.293 HD
ENDBRANCH  15  18
ENDBRANCH   1  12
BRANCH   2  20
ATOM     20  O   UNL     1     145.735 -21.227  74.816  1.00  0.00    -0.502 OA
ATOM     21  H   UNL     1     144.744 -21.061  74.681  1.00  0.00     0.293 HD
ENDBRANCH   2  20
BRANCH   6  22
ATOM     22  O   UNL     1     150.125 -24.152  75.556  1.00  0.00    -0.507 OA
ATOM     23  H   UNL     1     151.090 -23.932  75.750  1.00  0.00     0.293 HD
ENDBRANCH   6  22
BRANCH   8  24
ATOM     24  O   UNL     1     148.891 -26.527  79.541  1.00  0.00    -0.508 OA
ATOM     25  H   UNL     1     149.605 -26.357  80.240  1.00  0.00     0.293 HD
ENDBRANCH   8  24
TORSDOF 5
ENDMDL
