MODEL 1
REMARK VINA RESULT:    -3.827      0.000      0.000
REMARK INTER + INTRA:          -8.070
REMARK INTER:                  -6.512
REMARK INTRA:                  -1.558
REMARK UNBOUND:                -1.558
REMARK SMILES CCCCCCCCCCCCCC(=O)[O-]
REMARK SMILES IDX 8 1 9 2 10 3 11 4 12 5 13 6 14 7 15 8 16 9 7 10 6 11 5 12
REMARK SMILES IDX 4 13 3 14 2 15 1 16
REMARK H PARENT
REMARK Flexibility Score: inf
ROOT
ATOM      1  C   UNL     1      27.422 -19.619  26.081  1.00  0.00     0.000 C 
ENDROOT
BRANCH   1   2
ATOM      2  C   UNL     1      28.837 -19.536  26.676  1.00  0.00     0.000 C 
BRANCH   2   3
ATOM      3  C   UNL     1      29.722 -18.510  25.947  1.00  0.00     0.000 C 
BRANCH   3   4
ATOM      4  C   UNL     1      29.039 -17.142  25.795  1.00  0.00     0.000 C 
BRANCH   4   5
ATOM      5  C   UNL     1      29.479 -16.398  24.521  1.00  0.00     0.006 C 
BRANCH   5   6
ATOM      6  C   UNL     1      28.361 -15.515  23.952  1.00  0.00     0.053 C 
BRANCH   6   7
ATOM      7  C   UNL     1      28.278 -15.611  22.459  1.00  0.00     0.041 C 
ATOM      8  O   UNL     1      28.805 -16.584  21.858  1.00  0.00    -0.550 OA
ATOM      9  O   UNL     1      27.646 -14.612  21.731  1.00  0.00    -0.550 OA
ENDBRANCH   6   7
ENDBRANCH   5   6
ENDBRANCH   4   5
ENDBRANCH   3   4
ENDBRANCH   2   3
ENDBRANCH   1   2
BRANCH   1  10
ATOM     10  C   UNL     1      27.017 -21.057  25.710  1.00  0.00     0.000 C 
BRANCH  10  11
ATOM     11  C   UNL     1      27.963 -22.116  26.307  1.00  0.00    -0.000 C 
BRANCH  11  12
ATOM     12  C   UNL     1      28.595 -23.072  25.278  1.00  0.00    -0.000 C 
BRANCH  12  13
ATOM     13  C   UNL     1      29.501 -22.351  24.269  1.00  0.00    -0.000 C 
BRANCH  13  14
ATOM     14  C   UNL     1      29.005 -22.575  22.831  1.00  0.00    -0.000 C 
BRANCH  14  15
ATOM     15  C   UNL     1      28.459 -21.290  22.189  1.00  0.00    -0.003 C 
ATOM     16  C   UNL     1      29.208 -20.038  22.644  1.00  0.00     0.004 C 
ENDBRANCH  14  15
ENDBRANCH  13  14
ENDBRANCH  12  13
ENDBRANCH  11  12
ENDBRANCH  10  11
ENDBRANCH   1  10
TORSDOF 12
ENDMDL
MODEL 2
REMARK VINA RESULT:    -3.798      3.616      4.678
REMARK INTER + INTRA:          -8.020
REMARK INTER:                  -6.556
REMARK INTRA:                  -1.464
REMARK UNBOUND:                -1.558
REMARK SMILES CCCCCCCCCCCCCC(=O)[O-]
REMARK SMILES IDX 8 1 9 2 10 3 11 4 12 5 13 6 14 7 15 8 16 9 7 10 6 11 5 12
REMARK SMILES IDX 4 13 3 14 2 15 1 16
REMARK H PARENT
REMARK Flexibility Score: inf
ROOT
ATOM      1  C   UNL     1      27.604 -22.113  26.339  1.00  0.00     0.000 C 
ENDROOT
BRANCH   1   2
ATOM      2  C   UNL     1      27.080 -20.882  25.583  1.00  0.00     0.000 C 
BRANCH   2   3
ATOM      3  C   UNL     1      27.489 -19.560  26.255  1.00  0.00     0.000 C 
BRANCH   3   4
ATOM      4  C   UNL     1      28.928 -19.144  25.911  1.00  0.00     0.000 C 
BRANCH   4   5
ATOM      5  C   UNL     1      29.705 -18.631  27.137  1.00  0.00     0.006 C 
BRANCH   5   6
ATOM      6  C   UNL     1      30.634 -19.704  27.723  1.00  0.00     0.053 C 
BRANCH   6   7
ATOM      7  C   UNL     1      29.996 -20.431  28.867  1.00  0.00     0.041 C 
ATOM      8  O   UNL     1      29.906 -21.687  28.847  1.00  0.00    -0.550 OA
ATOM      9  O   UNL     1      29.473 -19.720  29.939  1.00  0.00    -0.550 OA
ENDBRANCH   6   7
ENDBRANCH   5   6
ENDBRANCH   4   5
ENDBRANCH   3   4
ENDBRANCH   2   3
ENDBRANCH   1   2
BRANCH   1  10
ATOM     10  C   UNL     1      28.231 -23.162  25.404  1.00  0.00     0.000 C 
BRANCH  10  11
ATOM     11  C   UNL     1      29.282 -22.561  24.452  1.00  0.00    -0.000 C 
BRANCH  11  12
ATOM     12  C   UNL     1      28.973 -22.735  22.954  1.00  0.00    -0.000 C 
BRANCH  12  13
ATOM     13  C   UNL     1      28.594 -21.417  22.264  1.00  0.00    -0.000 C 
BRANCH  13  14
ATOM     14  C   UNL     1      29.846 -20.687  21.752  1.00  0.00    -0.000 C 
BRANCH  14  15
ATOM     15  C   UNL     1      30.198 -19.455  22.600  1.00  0.00    -0.003 C 
ATOM     16  C   UNL     1      29.510 -18.182  22.108  1.00  0.00     0.004 C 
ENDBRANCH  14  15
ENDBRANCH  13  14
ENDBRANCH  12  13
ENDBRANCH  11  12
ENDBRANCH  10  11
ENDBRANCH   1  10
TORSDOF 12
ENDMDL
MODEL 3
REMARK VINA RESULT:    -3.788      1.410      3.221
REMARK INTER + INTRA:          -8.003
REMARK INTER:                  -6.639
REMARK INTRA:                  -1.364
REMARK UNBOUND:                -1.558
REMARK SMILES CCCCCCCCCCCCCC(=O)[O-]
REMARK SMILES IDX 8 1 9 2 10 3 11 4 12 5 13 6 14 7 15 8 16 9 7 10 6 11 5 12
REMARK SMILES IDX 4 13 3 14 2 15 1 16
REMARK H PARENT
REMARK Flexibility Score: inf
ROOT
ATOM      1  C   UNL     1      28.733 -22.160  22.800  1.00  0.00     0.000 C 
ENDROOT
BRANCH   1   2
ATOM      2  C   UNL     1      29.735 -21.009  22.622  1.00  0.00     0.000 C 
BRANCH   2   3
ATOM      3  C   UNL     1      29.049 -19.683  22.249  1.00  0.00     0.000 C 
BRANCH   3   4
ATOM      4  C   UNL     1      30.032 -18.502  22.204  1.00  0.00     0.000 C 
BRANCH   4   5
ATOM      5  C   UNL     1      29.354 -17.156  22.518  1.00  0.00     0.006 C 
BRANCH   5   6
ATOM      6  C   UNL     1      28.488 -16.660  21.352  1.00  0.00     0.053 C 
BRANCH   6   7
ATOM      7  C   UNL     1      28.414 -15.164  21.308  1.00  0.00     0.041 C 
ATOM      8  O   UNL     1      29.101 -14.521  20.472  1.00  0.00    -0.550 OA
ATOM      9  O   UNL     1      27.610 -14.480  22.210  1.00  0.00    -0.550 OA
ENDBRANCH   6   7
ENDBRANCH   5   6
ENDBRANCH   4   5
ENDBRANCH   3   4
ENDBRANCH   2   3
ENDBRANCH   1   2
BRANCH   1  10
ATOM     10  C   UNL     1      29.406 -23.472  23.239  1.00  0.00     0.000 C 
BRANCH  10  11
ATOM     11  C   UNL     1      28.927 -23.956  24.621  1.00  0.00    -0.000 C 
BRANCH  11  12
ATOM     12  C   UNL     1      28.018 -22.968  25.374  1.00  0.00    -0.000 C 
BRANCH  12  13
ATOM     13  C   UNL     1      28.648 -22.445  26.673  1.00  0.00    -0.000 C 
BRANCH  13  14
ATOM     14  C   UNL     1      29.143 -21.000  26.499  1.00  0.00    -0.000 C 
BRANCH  14  15
ATOM     15  C   UNL     1      28.099 -20.096  25.826  1.00  0.00    -0.003 C 
ATOM     16  C   UNL     1      28.456 -18.613  25.917  1.00  0.00     0.004 C 
ENDBRANCH  14  15
ENDBRANCH  13  14
ENDBRANCH  12  13
ENDBRANCH  11  12
ENDBRANCH  10  11
ENDBRANCH   1  10
TORSDOF 12
ENDMDL
MODEL 4
REMARK VINA RESULT:    -3.775      3.688      5.385
REMARK INTER + INTRA:          -7.981
REMARK INTER:                  -6.174
REMARK INTRA:                  -1.806
REMARK UNBOUND:                -1.558
REMARK SMILES CCCCCCCCCCCCCC(=O)[O-]
REMARK SMILES IDX 8 1 9 2 10 3 11 4 12 5 13 6 14 7 15 8 16 9 7 10 6 11 5 12
REMARK SMILES IDX 4 13 3 14 2 15 1 16
REMARK H PARENT
REMARK Flexibility Score: inf
ROOT
ATOM      1  C   UNL     1      29.488 -23.743  24.493  1.00  0.00     0.000 C 
ENDROOT
BRANCH   1   2
ATOM      2  C   UNL     1      28.024 -23.573  24.927  1.00  0.00     0.000 C 
BRANCH   2   3
ATOM      3  C   UNL     1      27.881 -22.714  26.195  1.00  0.00     0.000 C 
BRANCH   3   4
ATOM      4  C   UNL     1      27.424 -21.279  25.887  1.00  0.00     0.000 C 
BRANCH   4   5
ATOM      5  C   UNL     1      28.398 -20.218  26.431  1.00  0.00     0.006 C 
BRANCH   5   6
ATOM      6  C   UNL     1      29.676 -20.847  27.004  1.00  0.00     0.053 C 
BRANCH   6   7
ATOM      7  C   UNL     1      29.764 -20.674  28.490  1.00  0.00     0.041 C 
ATOM      8  O   UNL     1      30.183 -21.616  29.213  1.00  0.00    -0.550 OA
ATOM      9  O   UNL     1      29.357 -19.484  29.078  1.00  0.00    -0.550 OA
ENDBRANCH   6   7
ENDBRANCH   5   6
ENDBRANCH   4   5
ENDBRANCH   3   4
ENDBRANCH   2   3
ENDBRANCH   1   2
BRANCH   1  10
ATOM     10  C   UNL     1      29.947 -22.653  23.509  1.00  0.00     0.000 C 
BRANCH  10  11
ATOM     11  C   UNL     1      28.828 -22.207  22.548  1.00  0.00    -0.000 C 
BRANCH  11  12
ATOM     12  C   UNL     1      28.623 -20.684  22.457  1.00  0.00    -0.000 C 
BRANCH  12  13
ATOM     13  C   UNL     1      29.822 -19.885  22.989  1.00  0.00    -0.000 C 
BRANCH  13  14
ATOM     14  C   UNL     1      30.580 -19.205  21.838  1.00  0.00    -0.000 C 
BRANCH  14  15
ATOM     15  C   UNL     1      31.950 -19.848  21.573  1.00  0.00    -0.003 C 
ATOM     16  C   UNL     1      31.881 -20.987  20.556  1.00  0.00     0.004 C 
ENDBRANCH  14  15
ENDBRANCH  13  14
ENDBRANCH  12  13
ENDBRANCH  11  12
ENDBRANCH  10  11
ENDBRANCH   1  10
TORSDOF 12
ENDMDL
MODEL 5
REMARK VINA RESULT:    -3.766      2.254      3.797
REMARK INTER + INTRA:          -7.966
REMARK INTER:                  -6.306
REMARK INTRA:                  -1.660
REMARK UNBOUND:                -1.558
REMARK SMILES CCCCCCCCCCCCCC(=O)[O-]
REMARK SMILES IDX 8 1 9 2 10 3 11 4 12 5 13 6 14 7 15 8 16 9 7 10 6 11 5 12
REMARK SMILES IDX 4 13 3 14 2 15 1 16
REMARK H PARENT
REMARK Flexibility Score: inf
ROOT
ATOM      1  C   UNL     1      28.450 -23.069  25.423  1.00  0.00     0.000 C 
ENDROOT
BRANCH   1   2
ATOM      2  C   UNL     1      27.688 -22.105  26.345  1.00  0.00     0.000 C 
BRANCH   2   3
ATOM      3  C   UNL     1      27.154 -20.871  25.596  1.00  0.00     0.000 C 
BRANCH   3   4
ATOM      4  C   UNL     1      27.537 -19.551  26.284  1.00  0.00     0.000 C 
BRANCH   4   5
ATOM      5  C   UNL     1      28.811 -19.677  27.139  1.00  0.00     0.006 C 
BRANCH   5   6
ATOM      6  C   UNL     1      29.726 -18.453  26.995  1.00  0.00     0.053 C 
BRANCH   6   7
ATOM      7  C   UNL     1      30.448 -18.447  25.682  1.00  0.00     0.041 C 
ATOM      8  O   UNL     1      31.291 -19.345  25.419  1.00  0.00    -0.550 OA
ATOM      9  O   UNL     1      30.211 -17.435  24.762  1.00  0.00    -0.550 OA
ENDBRANCH   6   7
ENDBRANCH   5   6
ENDBRANCH   4   5
ENDBRANCH   3   4
ENDBRANCH   2   3
ENDBRANCH   1   2
BRANCH   1  10
ATOM     10  C   UNL     1      29.372 -22.340  24.431  1.00  0.00     0.000 C 
BRANCH  10  11
ATOM     11  C   UNL     1      29.035 -22.652  22.961  1.00  0.00    -0.000 C 
BRANCH  11  12
ATOM     12  C   UNL     1      28.610 -21.434  22.122  1.00  0.00    -0.000 C 
BRANCH  12  13
ATOM     13  C   UNL     1      29.142 -20.106  22.681  1.00  0.00    -0.000 C 
BRANCH  13  14
ATOM     14  C   UNL     1      30.177 -19.485  21.729  1.00  0.00    -0.000 C 
BRANCH  14  15
ATOM     15  C   UNL     1      31.562 -20.136  21.858  1.00  0.00    -0.003 C 
ATOM     16  C   UNL     1      31.966 -20.920  20.610  1.00  0.00     0.004 C 
ENDBRANCH  14  15
ENDBRANCH  13  14
ENDBRANCH  12  13
ENDBRANCH  11  12
ENDBRANCH  10  11
ENDBRANCH   1  10
TORSDOF 12
ENDMDL
MODEL 6
REMARK VINA RESULT:    -3.682      7.314     11.885
REMARK INTER + INTRA:          -7.823
REMARK INTER:                  -6.533
REMARK INTRA:                  -1.290
REMARK UNBOUND:                -1.558
REMARK SMILES CCCCCCCCCCCCCC(=O)[O-]
REMARK SMILES IDX 8 1 9 2 10 3 11 4 12 5 13 6 14 7 15 8 16 9 7 10 6 11 5 12
REMARK SMILES IDX 4 13 3 14 2 15 1 16
REMARK H PARENT
REMARK Flexibility Score: inf
ROOT
ATOM      1  C   UNL     1      33.292 -10.446  19.513  1.00  0.00     0.000 C 
ENDROOT
BRANCH   1   2
ATOM      2  C   UNL     1      31.786 -10.461  19.820  1.00  0.00     0.000 C 
BRANCH   2   3
ATOM      3  C   UNL     1      31.367 -11.688  20.649  1.00  0.00     0.000 C 
BRANCH   3   4
ATOM      4  C   UNL     1      31.177 -12.946  19.787  1.00  0.00     0.000 C 
BRANCH   4   5
ATOM      5  C   UNL     1      29.853 -13.673  20.084  1.00  0.00     0.006 C 
BRANCH   5   6
ATOM      6  C   UNL     1      29.321 -13.354  21.488  1.00  0.00     0.053 C 
BRANCH   6   7
ATOM      7  C   UNL     1      28.094 -14.150  21.814  1.00  0.00     0.041 C 
ATOM      8  O   UNL     1      27.261 -13.714  22.652  1.00  0.00    -0.550 OA
ATOM      9  O   UNL     1      27.885 -15.385  21.215  1.00  0.00    -0.550 OA
ENDBRANCH   6   7
ENDBRANCH   5   6
ENDBRANCH   4   5
ENDBRANCH   3   4
ENDBRANCH   2   3
ENDBRANCH   1   2
BRANCH   1  10
ATOM     10  C   UNL     1      33.600 -10.008  18.070  1.00  0.00     0.000 C 
BRANCH  10  11
ATOM     11  C   UNL     1      32.335  -9.626  17.280  1.00  0.00    -0.000 C 
BRANCH  11  12
ATOM     12  C   UNL     1      32.247  -8.142  16.876  1.00  0.00    -0.000 C 
BRANCH  12  13
ATOM     13  C   UNL     1      31.350  -7.319  17.812  1.00  0.00    -0.000 C 
BRANCH  13  14
ATOM     14  C   UNL     1      32.163  -6.235  18.536  1.00  0.00    -0.000 C 
BRANCH  14  15
ATOM     15  C   UNL     1      32.761  -6.731  19.861  1.00  0.00    -0.003 C 
ATOM     16  C   UNL     1      31.707  -6.912  20.954  1.00  0.00     0.004 C 
ENDBRANCH  14  15
ENDBRANCH  13  14
ENDBRANCH  12  13
ENDBRANCH  11  12
ENDBRANCH  10  11
ENDBRANCH   1  10
TORSDOF 12
ENDMDL
MODEL 7
REMARK VINA RESULT:    -3.651      3.132      5.413
REMARK INTER + INTRA:          -7.769
REMARK INTER:                  -6.168
REMARK INTRA:                  -1.602
REMARK UNBOUND:                -1.558
REMARK SMILES CCCCCCCCCCCCCC(=O)[O-]
REMARK SMILES IDX 8 1 9 2 10 3 11 4 12 5 13 6 14 7 15 8 16 9 7 10 6 11 5 12
REMARK SMILES IDX 4 13 3 14 2 15 1 16
REMARK H PARENT
REMARK Flexibility Score: inf
ROOT
ATOM      1  C   UNL     1      28.622 -21.329  23.567  1.00  0.00     0.000 C 
ENDROOT
BRANCH   1   2
ATOM      2  C   UNL     1      29.101 -22.790  23.552  1.00  0.00     0.000 C 
BRANCH   2   3
ATOM      3  C   UNL     1      28.707 -23.552  24.829  1.00  0.00     0.000 C 
BRANCH   3   4
ATOM      4  C   UNL     1      27.917 -22.679  25.817  1.00  0.00     0.000 C 
BRANCH   4   5
ATOM      5  C   UNL     1      28.678 -22.434  27.132  1.00  0.00     0.006 C 
BRANCH   5   6
ATOM      6  C   UNL     1      29.643 -21.244  27.028  1.00  0.00     0.053 C 
BRANCH   6   7
ATOM      7  C   UNL     1      29.011 -19.970  27.500  1.00  0.00     0.041 C 
ATOM      8  O   UNL     1      28.220 -19.340  26.749  1.00  0.00    -0.550 OA
ATOM      9  O   UNL     1      29.318 -19.464  28.756  1.00  0.00    -0.550 OA
ENDBRANCH   6   7
ENDBRANCH   5   6
ENDBRANCH   4   5
ENDBRANCH   3   4
ENDBRANCH   2   3
ENDBRANCH   1   2
BRANCH   1  10
ATOM     10  C   UNL     1      28.699 -20.664  22.182  1.00  0.00     0.000 C 
BRANCH  10  11
ATOM     11  C   UNL     1      29.491 -19.344  22.196  1.00  0.00    -0.000 C 
BRANCH  11  12
ATOM     12  C   UNL     1      30.975 -19.475  21.809  1.00  0.00    -0.000 C 
BRANCH  12  13
ATOM     13  C   UNL     1      31.299 -20.808  21.119  1.00  0.00    -0.000 C 
BRANCH  13  14
ATOM     14  C   UNL     1      32.292 -21.630  21.954  1.00  0.00    -0.000 C 
BRANCH  14  15
ATOM     15  C   UNL     1      32.744 -20.896  23.226  1.00  0.00    -0.003 C 
ATOM     16  C   UNL     1      32.528 -21.721  24.494  1.00  0.00     0.004 C 
ENDBRANCH  14  15
ENDBRANCH  13  14
ENDBRANCH  12  13
ENDBRANCH  11  12
ENDBRANCH  10  11
ENDBRANCH   1  10
TORSDOF 12
ENDMDL
MODEL 8
REMARK VINA RESULT:    -3.644      6.768     11.285
REMARK INTER + INTRA:          -7.758
REMARK INTER:                  -6.727
REMARK INTRA:                  -1.030
REMARK UNBOUND:                -1.558
REMARK SMILES CCCCCCCCCCCCCC(=O)[O-]
REMARK SMILES IDX 8 1 9 2 10 3 11 4 12 5 13 6 14 7 15 8 16 9 7 10 6 11 5 12
REMARK SMILES IDX 4 13 3 14 2 15 1 16
REMARK H PARENT
REMARK Flexibility Score: inf
ROOT
ATOM      1  C   UNL     1      32.021 -10.602  19.813  1.00  0.00     0.000 C 
ENDROOT
BRANCH   1   2
ATOM      2  C   UNL     1      31.087 -11.626  20.476  1.00  0.00     0.000 C 
BRANCH   2   3
ATOM      3  C   UNL     1      31.141 -13.002  19.789  1.00  0.00     0.000 C 
BRANCH   3   4
ATOM      4  C   UNL     1      29.865 -13.827  20.021  1.00  0.00     0.000 C 
BRANCH   4   5
ATOM      5  C   UNL     1      29.150 -13.456  21.333  1.00  0.00     0.006 C 
BRANCH   5   6
ATOM      6  C   UNL     1      27.863 -14.267  21.539  1.00  0.00     0.053 C 
BRANCH   6   7
ATOM      7  C   UNL     1      28.135 -15.739  21.600  1.00  0.00     0.041 C 
ATOM      8  O   UNL     1      28.768 -16.226  22.573  1.00  0.00    -0.550 OA
ATOM      9  O   UNL     1      27.714 -16.569  20.569  1.00  0.00    -0.550 OA
ENDBRANCH   6   7
ENDBRANCH   5   6
ENDBRANCH   4   5
ENDBRANCH   3   4
ENDBRANCH   2   3
ENDBRANCH   1   2
BRANCH   1  10
ATOM     10  C   UNL     1      32.509  -9.521  20.793  1.00  0.00     0.000 C 
BRANCH  10  11
ATOM     11  C   UNL     1      31.354  -8.720  21.423  1.00  0.00    -0.000 C 
BRANCH  11  12
ATOM     12  C   UNL     1      31.054  -7.373  20.742  1.00  0.00    -0.000 C 
BRANCH  12  13
ATOM     13  C   UNL     1      32.313  -6.682  20.198  1.00  0.00    -0.000 C 
BRANCH  13  14
ATOM     14  C   UNL     1      32.145  -6.327  18.713  1.00  0.00    -0.000 C 
BRANCH  14  15
ATOM     15  C   UNL     1      31.340  -7.383  17.940  1.00  0.00    -0.003 C 
ATOM     16  C   UNL     1      32.161  -8.071  16.850  1.00  0.00     0.004 C 
ENDBRANCH  14  15
ENDBRANCH  13  14
ENDBRANCH  12  13
ENDBRANCH  11  12
ENDBRANCH  10  11
ENDBRANCH   1  10
TORSDOF 12
ENDMDL
MODEL 9
REMARK VINA RESULT:    -3.595     10.989     13.555
REMARK INTER + INTRA:          -7.676
REMARK INTER:                  -5.758
REMARK INTRA:                  -1.917
REMARK UNBOUND:                -1.558
REMARK SMILES CCCCCCCCCCCCCC(=O)[O-]
REMARK SMILES IDX 8 1 9 2 10 3 11 4 12 5 13 6 14 7 15 8 16 9 7 10 6 11 5 12
REMARK SMILES IDX 4 13 3 14 2 15 1 16
REMARK H PARENT
REMARK Flexibility Score: inf
ROOT
ATOM      1  C   UNL     1      33.011  -9.718  18.381  1.00  0.00     0.000 C 
ENDROOT
BRANCH   1   2
ATOM      2  C   UNL     1      32.083 -10.507  19.318  1.00  0.00     0.000 C 
BRANCH   2   3
ATOM      3  C   UNL     1      31.977  -9.870  20.715  1.00  0.00     0.000 C 
BRANCH   3   4
ATOM      4  C   UNL     1      32.470  -8.414  20.739  1.00  0.00     0.000 C 
BRANCH   4   5
ATOM      5  C   UNL     1      31.343  -7.412  21.048  1.00  0.00     0.006 C 
BRANCH   5   6
ATOM      6  C   UNL     1      30.186  -8.064  21.817  1.00  0.00     0.053 C 
BRANCH   6   7
ATOM      7  C   UNL     1      30.185  -7.670  23.263  1.00  0.00     0.041 C 
ATOM      8  O   UNL     1      29.562  -8.364  24.108  1.00  0.00    -0.550 OA
ATOM      9  O   UNL     1      30.848  -6.520  23.672  1.00  0.00    -0.550 OA
ENDBRANCH   6   7
ENDBRANCH   5   6
ENDBRANCH   4   5
ENDBRANCH   3   4
ENDBRANCH   2   3
ENDBRANCH   1   2
BRANCH   1  10
ATOM     10  C   UNL     1      32.492  -9.672  16.933  1.00  0.00     0.000 C 
BRANCH  10  11
ATOM     11  C   UNL     1      32.261  -8.235  16.427  1.00  0.00    -0.000 C 
BRANCH  11  12
ATOM     12  C   UNL     1      31.490  -7.323  17.398  1.00  0.00    -0.000 C 
BRANCH  12  13
ATOM     13  C   UNL     1      32.233  -6.015  17.708  1.00  0.00    -0.000 C 
BRANCH  13  14
ATOM     14  C   UNL     1      33.735  -6.155  17.415  1.00  0.00    -0.000 C 
BRANCH  14  15
ATOM     15  C   UNL     1      34.593  -6.090  18.688  1.00  0.00    -0.003 C 
ATOM     16  C   UNL     1      35.632  -7.208  18.759  1.00  0.00     0.004 C 
ENDBRANCH  14  15
ENDBRANCH  13  14
ENDBRANCH  12  13
ENDBRANCH  11  12
ENDBRANCH  10  11
ENDBRANCH   1  10
TORSDOF 12
ENDMDL
