MODEL 1
REMARK VINA RESULT:    -3.805      0.000      0.000
REMARK INTER + INTRA:          -8.441
REMARK INTER:                  -6.474
REMARK INTRA:                  -1.967
REMARK UNBOUND:                -1.967
REMARK SMILES CCCCCCCCCCCCCC(=O)[O-]
REMARK SMILES IDX 8 1 9 2 10 3 11 4 12 5 13 6 14 7 15 8 16 9 7 10 6 11 5 12
REMARK SMILES IDX 4 13 3 14 2 15 1 16
REMARK H PARENT
REMARK Flexibility Score: inf
ROOT
ATOM      1  C   UNL     1    -107.625 -27.610 -59.374  1.00  0.00     0.000 C 
ENDROOT
BRANCH   1   2
ATOM      2  C   UNL     1    -106.592 -28.688 -59.763  1.00  0.00     0.000 C 
BRANCH   2   3
ATOM      3  C   UNL     1    -105.291 -28.688 -58.936  1.00  0.00     0.000 C 
BRANCH   3   4
ATOM      4  C   UNL     1    -104.115 -28.013 -59.657  1.00  0.00     0.000 C 
BRANCH   4   5
ATOM      5  C   UNL     1    -103.284 -27.167 -58.681  1.00  0.00     0.006 C 
BRANCH   5   6
ATOM      6  C   UNL     1    -104.148 -26.178 -57.889  1.00  0.00     0.053 C 
BRANCH   6   7
ATOM      7  C   UNL     1    -103.647 -24.772 -58.024  1.00  0.00     0.041 C 
ATOM      8  O   UNL     1    -103.285 -24.332 -59.147  1.00  0.00    -0.550 OA
ATOM      9  O   UNL     1    -103.613 -23.937 -56.914  1.00  0.00    -0.550 OA
ENDBRANCH   6   7
ENDBRANCH   5   6
ENDBRANCH   4   5
ENDBRANCH   3   4
ENDBRANCH   2   3
ENDBRANCH   1   2
BRANCH   1  10
ATOM     10  C   UNL     1    -107.854 -26.510 -60.436  1.00  0.00     0.000 C 
BRANCH  10  11
ATOM     11  C   UNL     1    -106.712 -25.478 -60.526  1.00  0.00    -0.000 C 
BRANCH  11  12
ATOM     12  C   UNL     1    -106.255 -25.128 -61.954  1.00  0.00    -0.000 C 
BRANCH  12  13
ATOM     13  C   UNL     1    -105.352 -26.179 -62.625  1.00  0.00    -0.000 C 
BRANCH  13  14
ATOM     14  C   UNL     1    -106.091 -27.012 -63.686  1.00  0.00    -0.000 C 
BRANCH  14  15
ATOM     15  C   UNL     1    -106.161 -28.502 -63.318  1.00  0.00    -0.003 C 
ATOM     16  C   UNL     1    -107.593 -29.039 -63.306  1.00  0.00     0.004 C 
ENDBRANCH  14  15
ENDBRANCH  13  14
ENDBRANCH  12  13
ENDBRANCH  11  12
ENDBRANCH  10  11
ENDBRANCH   1  10
TORSDOF 12
ENDMDL
MODEL 2
REMARK VINA RESULT:    -3.759     15.805     17.902
REMARK INTER + INTRA:          -8.362
REMARK INTER:                  -6.483
REMARK INTRA:                  -1.879
REMARK UNBOUND:                -1.967
REMARK SMILES CCCCCCCCCCCCCC(=O)[O-]
REMARK SMILES IDX 8 1 9 2 10 3 11 4 12 5 13 6 14 7 15 8 16 9 7 10 6 11 5 12
REMARK SMILES IDX 4 13 3 14 2 15 1 16
REMARK H PARENT
REMARK Flexibility Score: inf
ROOT
ATOM      1  C   UNL     1    -110.608 -43.359 -65.740  1.00  0.00     0.000 C 
ENDROOT
BRANCH   1   2
ATOM      2  C   UNL     1    -111.189 -42.947 -64.372  1.00  0.00     0.000 C 
BRANCH   2   3
ATOM      3  C   UNL     1    -112.725 -43.011 -64.256  1.00  0.00     0.000 C 
BRANCH   3   4
ATOM      4  C   UNL     1    -113.382 -41.626 -64.154  1.00  0.00     0.000 C 
BRANCH   4   5
ATOM      5  C   UNL     1    -113.705 -41.066 -65.547  1.00  0.00     0.006 C 
BRANCH   5   6
ATOM      6  C   UNL     1    -114.328 -42.123 -66.467  1.00  0.00     0.053 C 
BRANCH   6   7
ATOM      7  C   UNL     1    -113.629 -42.188 -67.791  1.00  0.00     0.041 C 
ATOM      8  O   UNL     1    -113.503 -43.288 -68.389  1.00  0.00    -0.550 OA
ATOM      9  O   UNL     1    -113.145 -41.026 -68.379  1.00  0.00    -0.550 OA
ENDBRANCH   6   7
ENDBRANCH   5   6
ENDBRANCH   4   5
ENDBRANCH   3   4
ENDBRANCH   2   3
ENDBRANCH   1   2
BRANCH   1  10
ATOM     10  C   UNL     1    -110.032 -42.197 -66.583  1.00  0.00     0.000 C 
BRANCH  10  11
ATOM     11  C   UNL     1    -110.070 -40.830 -65.873  1.00  0.00    -0.000 C 
BRANCH  11  12
ATOM     12  C   UNL     1    -108.752 -40.402 -65.203  1.00  0.00    -0.000 C 
BRANCH  12  13
ATOM     13  C   UNL     1    -107.516 -41.226 -65.611  1.00  0.00    -0.000 C 
BRANCH  13  14
ATOM     14  C   UNL     1    -106.819 -41.891 -64.412  1.00  0.00    -0.000 C 
BRANCH  14  15
ATOM     15  C   UNL     1    -107.693 -41.889 -63.150  1.00  0.00    -0.003 C 
ATOM     16  C   UNL     1    -107.976 -43.298 -62.626  1.00  0.00     0.004 C 
ENDBRANCH  14  15
ENDBRANCH  13  14
ENDBRANCH  12  13
ENDBRANCH  11  12
ENDBRANCH  10  11
ENDBRANCH   1  10
TORSDOF 12
ENDMDL
MODEL 3
REMARK VINA RESULT:    -3.690      2.906      5.515
REMARK INTER + INTRA:          -8.245
REMARK INTER:                  -6.331
REMARK INTRA:                  -1.914
REMARK UNBOUND:                -1.967
REMARK SMILES CCCCCCCCCCCCCC(=O)[O-]
REMARK SMILES IDX 8 1 9 2 10 3 11 4 12 5 13 6 14 7 15 8 16 9 7 10 6 11 5 12
REMARK SMILES IDX 4 13 3 14 2 15 1 16
REMARK H PARENT
REMARK Flexibility Score: inf
ROOT
ATOM      1  C   UNL     1    -107.511 -27.400 -59.334  1.00  0.00     0.000 C 
ENDROOT
BRANCH   1   2
ATOM      2  C   UNL     1    -107.030 -25.944 -59.504  1.00  0.00     0.000 C 
BRANCH   2   3
ATOM      3  C   UNL     1    -107.012 -25.416 -60.953  1.00  0.00     0.000 C 
BRANCH   3   4
ATOM      4  C   UNL     1    -105.642 -24.869 -61.381  1.00  0.00     0.000 C 
BRANCH   4   5
ATOM      5  C   UNL     1    -105.046 -25.710 -62.519  1.00  0.00     0.006 C 
BRANCH   5   6
ATOM      6  C   UNL     1    -106.105 -26.565 -63.226  1.00  0.00     0.053 C 
BRANCH   6   7
ATOM      7  C   UNL     1    -106.495 -25.983 -64.551  1.00  0.00     0.041 C 
ATOM      8  O   UNL     1    -106.272 -26.619 -65.614  1.00  0.00    -0.550 OA
ATOM      9  O   UNL     1    -107.137 -24.752 -64.607  1.00  0.00    -0.550 OA
ENDBRANCH   6   7
ENDBRANCH   5   6
ENDBRANCH   4   5
ENDBRANCH   3   4
ENDBRANCH   2   3
ENDBRANCH   1   2
BRANCH   1  10
ATOM     10  C   UNL     1    -106.659 -28.461 -60.068  1.00  0.00     0.000 C 
BRANCH  10  11
ATOM     11  C   UNL     1    -105.374 -28.861 -59.317  1.00  0.00    -0.000 C 
BRANCH  11  12
ATOM     12  C   UNL     1    -104.065 -28.326 -59.927  1.00  0.00    -0.000 C 
BRANCH  12  13
ATOM     13  C   UNL     1    -103.117 -27.634 -58.930  1.00  0.00    -0.000 C 
BRANCH  13  14
ATOM     14  C   UNL     1    -103.332 -26.112 -58.857  1.00  0.00    -0.000 C 
BRANCH  14  15
ATOM     15  C   UNL     1    -104.045 -25.681 -57.567  1.00  0.00    -0.003 C 
ATOM     16  C   UNL     1    -103.715 -24.244 -57.163  1.00  0.00     0.004 C 
ENDBRANCH  14  15
ENDBRANCH  13  14
ENDBRANCH  12  13
ENDBRANCH  11  12
ENDBRANCH  10  11
ENDBRANCH   1  10
TORSDOF 12
ENDMDL
MODEL 4
REMARK VINA RESULT:    -3.674     16.254     17.864
REMARK INTER + INTRA:          -8.218
REMARK INTER:                  -6.500
REMARK INTRA:                  -1.719
REMARK UNBOUND:                -1.967
REMARK SMILES CCCCCCCCCCCCCC(=O)[O-]
REMARK SMILES IDX 8 1 9 2 10 3 11 4 12 5 13 6 14 7 15 8 16 9 7 10 6 11 5 12
REMARK SMILES IDX 4 13 3 14 2 15 1 16
REMARK H PARENT
REMARK Flexibility Score: inf
ROOT
ATOM      1  C   UNL     1    -113.715 -41.273 -65.493  1.00  0.00     0.000 C 
ENDROOT
BRANCH   1   2
ATOM      2  C   UNL     1    -112.982 -42.287 -64.591  1.00  0.00     0.000 C 
BRANCH   2   3
ATOM      3  C   UNL     1    -111.553 -42.659 -65.035  1.00  0.00     0.000 C 
BRANCH   3   4
ATOM      4  C   UNL     1    -110.787 -41.481 -65.657  1.00  0.00     0.000 C 
BRANCH   4   5
ATOM      5  C   UNL     1    -109.292 -41.556 -65.313  1.00  0.00     0.006 C 
BRANCH   5   6
ATOM      6  C   UNL     1    -108.911 -42.892 -64.665  1.00  0.00     0.053 C 
BRANCH   6   7
ATOM      7  C   UNL     1    -108.218 -42.694 -63.350  1.00  0.00     0.041 C 
ATOM      8  O   UNL     1    -108.272 -43.586 -62.464  1.00  0.00    -0.550 OA
ATOM      9  O   UNL     1    -107.485 -41.537 -63.119  1.00  0.00    -0.550 OA
ENDBRANCH   6   7
ENDBRANCH   5   6
ENDBRANCH   4   5
ENDBRANCH   3   4
ENDBRANCH   2   3
ENDBRANCH   1   2
BRANCH   1  10
ATOM     10  C   UNL     1    -114.502 -41.893 -66.670  1.00  0.00     0.000 C 
BRANCH  10  11
ATOM     11  C   UNL     1    -113.702 -41.976 -67.985  1.00  0.00    -0.000 C 
BRANCH  11  12
ATOM     12  C   UNL     1    -113.334 -43.400 -68.440  1.00  0.00    -0.000 C 
BRANCH  12  13
ATOM     13  C   UNL     1    -112.095 -43.492 -69.351  1.00  0.00    -0.000 C 
BRANCH  13  14
ATOM     14  C   UNL     1    -110.802 -43.787 -68.572  1.00  0.00    -0.000 C 
BRANCH  14  15
ATOM     15  C   UNL     1    -109.651 -42.852 -68.973  1.00  0.00    -0.003 C 
ATOM     16  C   UNL     1    -110.130 -41.444 -69.326  1.00  0.00     0.004 C 
ENDBRANCH  14  15
ENDBRANCH  13  14
ENDBRANCH  12  13
ENDBRANCH  11  12
ENDBRANCH  10  11
ENDBRANCH   1  10
TORSDOF 12
ENDMDL
MODEL 5
REMARK VINA RESULT:    -3.663     14.704     17.337
REMARK INTER + INTRA:          -8.200
REMARK INTER:                  -6.435
REMARK INTRA:                  -1.764
REMARK UNBOUND:                -1.967
REMARK SMILES CCCCCCCCCCCCCC(=O)[O-]
REMARK SMILES IDX 8 1 9 2 10 3 11 4 12 5 13 6 14 7 15 8 16 9 7 10 6 11 5 12
REMARK SMILES IDX 4 13 3 14 2 15 1 16
REMARK H PARENT
REMARK Flexibility Score: inf
ROOT
ATOM      1  C   UNL     1    -112.605 -43.036 -64.318  1.00  0.00     0.000 C 
ENDROOT
BRANCH   1   2
ATOM      2  C   UNL     1    -111.088 -42.891 -64.562  1.00  0.00     0.000 C 
BRANCH   2   3
ATOM      3  C   UNL     1    -110.616 -43.184 -66.000  1.00  0.00     0.000 C 
BRANCH   3   4
ATOM      4  C   UNL     1    -110.002 -41.961 -66.698  1.00  0.00     0.000 C 
BRANCH   4   5
ATOM      5  C   UNL     1    -110.062 -40.724 -65.790  1.00  0.00     0.006 C 
BRANCH   5   6
ATOM      6  C   UNL     1    -108.770 -39.901 -65.843  1.00  0.00     0.053 C 
BRANCH   6   7
ATOM      7  C   UNL     1    -107.933 -40.100 -64.616  1.00  0.00     0.041 C 
ATOM      8  O   UNL     1    -107.280 -39.140 -64.130  1.00  0.00    -0.550 OA
ATOM      9  O   UNL     1    -107.902 -41.340 -63.990  1.00  0.00    -0.550 OA
ENDBRANCH   6   7
ENDBRANCH   5   6
ENDBRANCH   4   5
ENDBRANCH   3   4
ENDBRANCH   2   3
ENDBRANCH   1   2
BRANCH   1  10
ATOM     10  C   UNL     1    -113.387 -41.705 -64.248  1.00  0.00     0.000 C 
BRANCH  10  11
ATOM     11  C   UNL     1    -113.796 -41.145 -65.624  1.00  0.00    -0.000 C 
BRANCH  11  12
ATOM     12  C   UNL     1    -114.169 -42.205 -66.678  1.00  0.00    -0.000 C 
BRANCH  12  13
ATOM     13  C   UNL     1    -113.459 -42.049 -68.036  1.00  0.00    -0.000 C 
BRANCH  13  14
ATOM     14  C   UNL     1    -113.479 -43.340 -68.872  1.00  0.00    -0.000 C 
BRANCH  14  15
ATOM     15  C   UNL     1    -112.068 -43.820 -69.244  1.00  0.00    -0.003 C 
ATOM     16  C   UNL     1    -111.376 -42.896 -70.246  1.00  0.00     0.004 C 
ENDBRANCH  14  15
ENDBRANCH  13  14
ENDBRANCH  12  13
ENDBRANCH  11  12
ENDBRANCH  10  11
ENDBRANCH   1  10
TORSDOF 12
ENDMDL
MODEL 6
REMARK VINA RESULT:    -3.648     14.959     17.043
REMARK INTER + INTRA:          -8.175
REMARK INTER:                  -6.419
REMARK INTRA:                  -1.756
REMARK UNBOUND:                -1.967
REMARK SMILES CCCCCCCCCCCCCC(=O)[O-]
REMARK SMILES IDX 8 1 9 2 10 3 11 4 12 5 13 6 14 7 15 8 16 9 7 10 6 11 5 12
REMARK SMILES IDX 4 13 3 14 2 15 1 16
REMARK H PARENT
REMARK Flexibility Score: inf
ROOT
ATOM      1  C   UNL     1    -110.366 -43.560 -65.427  1.00  0.00     0.000 C 
ENDROOT
BRANCH   1   2
ATOM      2  C   UNL     1    -109.259 -42.628 -65.963  1.00  0.00     0.000 C 
BRANCH   2   3
ATOM      3  C   UNL     1    -109.552 -41.118 -65.854  1.00  0.00     0.000 C 
BRANCH   3   4
ATOM      4  C   UNL     1    -108.504 -40.356 -65.029  1.00  0.00     0.000 C 
BRANCH   4   5
ATOM      5  C   UNL     1    -107.557 -41.329 -64.311  1.00  0.00     0.006 C 
BRANCH   5   6
ATOM      6  C   UNL     1    -107.405 -40.998 -62.822  1.00  0.00     0.053 C 
BRANCH   6   7
ATOM      7  C   UNL     1    -107.499 -42.226 -61.968  1.00  0.00     0.041 C 
ATOM      8  O   UNL     1    -108.164 -43.221 -62.358  1.00  0.00    -0.550 OA
ATOM      9  O   UNL     1    -106.822 -42.283 -60.756  1.00  0.00    -0.550 OA
ENDBRANCH   6   7
ENDBRANCH   5   6
ENDBRANCH   4   5
ENDBRANCH   3   4
ENDBRANCH   2   3
ENDBRANCH   1   2
BRANCH   1  10
ATOM     10  C   UNL     1    -111.142 -43.017 -64.205  1.00  0.00     0.000 C 
BRANCH  10  11
ATOM     11  C   UNL     1    -112.660 -42.889 -64.434  1.00  0.00    -0.000 C 
BRANCH  11  12
ATOM     12  C   UNL     1    -113.156 -41.469 -64.763  1.00  0.00    -0.000 C 
BRANCH  12  13
ATOM     13  C   UNL     1    -113.422 -41.202 -66.257  1.00  0.00    -0.000 C 
BRANCH  13  14
ATOM     14  C   UNL     1    -114.182 -42.349 -66.943  1.00  0.00    -0.000 C 
BRANCH  14  15
ATOM     15  C   UNL     1    -113.337 -43.055 -68.013  1.00  0.00    -0.003 C 
ATOM     16  C   UNL     1    -112.132 -42.225 -68.455  1.00  0.00     0.004 C 
ENDBRANCH  14  15
ENDBRANCH  13  14
ENDBRANCH  12  13
ENDBRANCH  11  12
ENDBRANCH  10  11
ENDBRANCH   1  10
TORSDOF 12
ENDMDL
MODEL 7
REMARK VINA RESULT:    -3.621     15.820     17.436
REMARK INTER + INTRA:          -8.129
REMARK INTER:                  -6.298
REMARK INTRA:                  -1.831
REMARK UNBOUND:                -1.967
REMARK SMILES CCCCCCCCCCCCCC(=O)[O-]
REMARK SMILES IDX 8 1 9 2 10 3 11 4 12 5 13 6 14 7 15 8 16 9 7 10 6 11 5 12
REMARK SMILES IDX 4 13 3 14 2 15 1 16
REMARK H PARENT
REMARK Flexibility Score: inf
ROOT
ATOM      1  C   UNL     1    -111.640 -40.545 -66.136  1.00  0.00     0.000 C 
ENDROOT
BRANCH   1   2
ATOM      2  C   UNL     1    -110.240 -41.061 -65.743  1.00  0.00     0.000 C 
BRANCH   2   3
ATOM      3  C   UNL     1    -109.842 -42.424 -66.346  1.00  0.00     0.000 C 
BRANCH   3   4
ATOM      4  C   UNL     1    -110.034 -43.596 -65.372  1.00  0.00     0.000 C 
BRANCH   4   5
ATOM      5  C   UNL     1    -109.707 -43.173 -63.932  1.00  0.00     0.006 C 
BRANCH   5   6
ATOM      6  C   UNL     1    -108.209 -43.279 -63.621  1.00  0.00     0.053 C 
BRANCH   6   7
ATOM      7  C   UNL     1    -107.731 -42.124 -62.795  1.00  0.00     0.041 C 
ATOM      8  O   UNL     1    -107.422 -42.293 -61.586  1.00  0.00    -0.550 OA
ATOM      9  O   UNL     1    -107.594 -40.867 -63.370  1.00  0.00    -0.550 OA
ENDBRANCH   6   7
ENDBRANCH   5   6
ENDBRANCH   4   5
ENDBRANCH   3   4
ENDBRANCH   2   3
ENDBRANCH   1   2
BRANCH   1  10
ATOM     10  C   UNL     1    -112.799 -41.058 -65.251  1.00  0.00     0.000 C 
BRANCH  10  11
ATOM     11  C   UNL     1    -113.996 -41.614 -66.046  1.00  0.00    -0.000 C 
BRANCH  11  12
ATOM     12  C   UNL     1    -113.724 -42.924 -66.808  1.00  0.00    -0.000 C 
BRANCH  12  13
ATOM     13  C   UNL     1    -113.740 -42.799 -68.343  1.00  0.00    -0.000 C 
BRANCH  13  14
ATOM     14  C   UNL     1    -112.393 -43.169 -68.987  1.00  0.00    -0.000 C 
BRANCH  14  15
ATOM     15  C   UNL     1    -111.678 -41.951 -69.590  1.00  0.00    -0.003 C 
ATOM     16  C   UNL     1    -112.593 -40.732 -69.717  1.00  0.00     0.004 C 
ENDBRANCH  14  15
ENDBRANCH  13  14
ENDBRANCH  12  13
ENDBRANCH  11  12
ENDBRANCH  10  11
ENDBRANCH   1  10
TORSDOF 12
ENDMDL
MODEL 8
REMARK VINA RESULT:    -3.584     16.706     18.727
REMARK INTER + INTRA:          -8.065
REMARK INTER:                  -6.134
REMARK INTRA:                  -1.932
REMARK UNBOUND:                -1.967
REMARK SMILES CCCCCCCCCCCCCC(=O)[O-]
REMARK SMILES IDX 8 1 9 2 10 3 11 4 12 5 13 6 14 7 15 8 16 9 7 10 6 11 5 12
REMARK SMILES IDX 4 13 3 14 2 15 1 16
REMARK H PARENT
REMARK Flexibility Score: inf
ROOT
ATOM      1  C   UNL     1    -113.024 -41.118 -65.286  1.00  0.00     0.000 C 
ENDROOT
BRANCH   1   2
ATOM      2  C   UNL     1    -113.474 -41.128 -66.762  1.00  0.00     0.000 C 
BRANCH   2   3
ATOM      3  C   UNL     1    -114.140 -42.432 -67.245  1.00  0.00     0.000 C 
BRANCH   3   4
ATOM      4  C   UNL     1    -113.574 -42.944 -68.578  1.00  0.00     0.000 C 
BRANCH   4   5
ATOM      5  C   UNL     1    -112.054 -42.735 -68.645  1.00  0.00     0.006 C 
BRANCH   5   6
ATOM      6  C   UNL     1    -111.315 -43.994 -69.114  1.00  0.00     0.053 C 
BRANCH   6   7
ATOM      7  C   UNL     1    -109.876 -43.709 -69.424  1.00  0.00     0.041 C 
ATOM      8  O   UNL     1    -108.971 -44.076 -68.630  1.00  0.00    -0.550 OA
ATOM      9  O   UNL     1    -109.534 -43.068 -70.608  1.00  0.00    -0.550 OA
ENDBRANCH   6   7
ENDBRANCH   5   6
ENDBRANCH   4   5
ENDBRANCH   3   4
ENDBRANCH   2   3
ENDBRANCH   1   2
BRANCH   1  10
ATOM     10  C   UNL     1    -112.981 -42.507 -64.607  1.00  0.00     0.000 C 
BRANCH  10  11
ATOM     11  C   UNL     1    -111.564 -42.968 -64.215  1.00  0.00    -0.000 C 
BRANCH  11  12
ATOM     12  C   UNL     1    -110.636 -43.311 -65.394  1.00  0.00    -0.000 C 
BRANCH  12  13
ATOM     13  C   UNL     1    -109.189 -42.801 -65.253  1.00  0.00    -0.000 C 
BRANCH  13  14
ATOM     14  C   UNL     1    -109.079 -41.272 -65.370  1.00  0.00    -0.000 C 
BRANCH  14  15
ATOM     15  C   UNL     1    -109.680 -40.739 -66.679  1.00  0.00    -0.003 C 
ATOM     16  C   UNL     1    -108.630 -40.546 -67.774  1.00  0.00     0.004 C 
ENDBRANCH  14  15
ENDBRANCH  13  14
ENDBRANCH  12  13
ENDBRANCH  11  12
ENDBRANCH  10  11
ENDBRANCH   1  10
TORSDOF 12
ENDMDL
MODEL 9
REMARK VINA RESULT:    -3.578     16.560     18.422
REMARK INTER + INTRA:          -8.055
REMARK INTER:                  -6.345
REMARK INTRA:                  -1.710
REMARK UNBOUND:                -1.967
REMARK SMILES CCCCCCCCCCCCCC(=O)[O-]
REMARK SMILES IDX 8 1 9 2 10 3 11 4 12 5 13 6 14 7 15 8 16 9 7 10 6 11 5 12
REMARK SMILES IDX 4 13 3 14 2 15 1 16
REMARK H PARENT
REMARK Flexibility Score: inf
ROOT
ATOM      1  C   UNL     1    -113.759 -41.120 -65.540  1.00  0.00     0.000 C 
ENDROOT
BRANCH   1   2
ATOM      2  C   UNL     1    -114.374 -42.254 -66.385  1.00  0.00     0.000 C 
BRANCH   2   3
ATOM      3  C   UNL     1    -114.166 -42.136 -67.908  1.00  0.00     0.000 C 
BRANCH   3   4
ATOM      4  C   UNL     1    -113.160 -43.155 -68.463  1.00  0.00     0.000 C 
BRANCH   4   5
ATOM      5  C   UNL     1    -111.920 -42.450 -69.032  1.00  0.00     0.006 C 
BRANCH   5   6
ATOM      6  C   UNL     1    -112.074 -40.924 -69.041  1.00  0.00     0.053 C 
BRANCH   6   7
ATOM      7  C   UNL     1    -111.936 -40.361 -70.424  1.00  0.00     0.041 C 
ATOM      8  O   UNL     1    -110.938 -39.655 -70.725  1.00  0.00    -0.550 OA
ATOM      9  O   UNL     1    -112.894 -40.645 -71.388  1.00  0.00    -0.550 OA
ENDBRANCH   6   7
ENDBRANCH   5   6
ENDBRANCH   4   5
ENDBRANCH   3   4
ENDBRANCH   2   3
ENDBRANCH   1   2
BRANCH   1  10
ATOM     10  C   UNL     1    -112.231 -41.218 -65.326  1.00  0.00     0.000 C 
BRANCH  10  11
ATOM     11  C   UNL     1    -111.736 -42.638 -64.989  1.00  0.00    -0.000 C 
BRANCH  11  12
ATOM     12  C   UNL     1    -110.466 -43.085 -65.737  1.00  0.00    -0.000 C 
BRANCH  12  13
ATOM     13  C   UNL     1    -109.435 -41.970 -65.992  1.00  0.00    -0.000 C 
BRANCH  13  14
ATOM     14  C   UNL     1    -108.510 -41.724 -64.788  1.00  0.00    -0.000 C 
BRANCH  14  15
ATOM     15  C   UNL     1    -108.048 -43.031 -64.127  1.00  0.00    -0.003 C 
ATOM     16  C   UNL     1    -108.312 -43.055 -62.621  1.00  0.00     0.004 C 
ENDBRANCH  14  15
ENDBRANCH  13  14
ENDBRANCH  12  13
ENDBRANCH  11  12
ENDBRANCH  10  11
ENDBRANCH   1  10
TORSDOF 12
ENDMDL
