MODEL 1
REMARK VINA RESULT:    -3.672      0.000      0.000
REMARK INTER + INTRA:          -7.249
REMARK INTER:                  -5.818
REMARK INTRA:                  -1.430
REMARK UNBOUND:                -1.430
REMARK SMILES CCCCCCCCCCCC(=O)[O-]
REMARK SMILES IDX 7 1 8 2 9 3 10 4 11 5 12 6 13 7 14 8 6 9 5 10 4 11 3 12 2 13
REMARK SMILES IDX 1 14
REMARK H PARENT
REMARK Flexibility Score: inf
ROOT
ATOM      1  C   UNL     1     -21.289 -11.690  -5.874  1.00  0.00     0.000 C 
ENDROOT
BRANCH   1   2
ATOM      2  C   UNL     1     -22.107 -11.380  -4.610  1.00  0.00     0.000 C 
BRANCH   2   3
ATOM      3  C   UNL     1     -21.635 -10.105  -3.896  1.00  0.00     0.000 C 
BRANCH   3   4
ATOM      4  C   UNL     1     -22.754  -9.057  -3.849  1.00  0.00     0.006 C 
BRANCH   4   5
ATOM      5  C   UNL     1     -24.078  -9.643  -4.347  1.00  0.00     0.053 C 
BRANCH   5   6
ATOM      6  C   UNL     1     -24.740  -8.703  -5.305  1.00  0.00     0.041 C 
ATOM      7  O   UNL     1     -24.631  -8.883  -6.546  1.00  0.00    -0.550 OA
ATOM      8  O   UNL     1     -25.436  -7.600  -4.828  1.00  0.00    -0.550 OA
ENDBRANCH   5   6
ENDBRANCH   4   5
ENDBRANCH   3   4
ENDBRANCH   2   3
ENDBRANCH   1   2
BRANCH   1   9
ATOM      9  C   UNL     1     -21.690 -10.806  -7.067  1.00  0.00     0.000 C 
BRANCH   9  10
ATOM     10  C   UNL     1     -20.511  -9.995  -7.635  1.00  0.00    -0.000 C 
BRANCH  10  11
ATOM     11  C   UNL     1     -20.195  -8.686  -6.889  1.00  0.00    -0.000 C 
BRANCH  11  12
ATOM     12  C   UNL     1     -18.883  -8.751  -6.093  1.00  0.00    -0.000 C 
BRANCH  12  13
ATOM     13  C   UNL     1     -18.041  -9.958  -6.522  1.00  0.00    -0.003 C 
ATOM     14  C   UNL     1     -17.662 -10.821  -5.322  1.00  0.00     0.004 C 
ENDBRANCH  12  13
ENDBRANCH  11  12
ENDBRANCH  10  11
ENDBRANCH   9  10
ENDBRANCH   1   9
TORSDOF 10
ENDMDL
MODEL 2
REMARK VINA RESULT:    -3.595      1.918      3.568
REMARK INTER + INTRA:          -7.126
REMARK INTER:                  -5.718
REMARK INTRA:                  -1.408
REMARK UNBOUND:                -1.430
REMARK SMILES CCCCCCCCCCCC(=O)[O-]
REMARK SMILES IDX 7 1 8 2 9 3 10 4 11 5 12 6 13 7 14 8 6 9 5 10 4 11 3 12 2 13
REMARK SMILES IDX 1 14
REMARK H PARENT
REMARK Flexibility Score: inf
ROOT
ATOM      1  C   UNL     1     -22.856  -8.927  -4.052  1.00  0.00     0.000 C 
ENDROOT
BRANCH   1   2
ATOM      2  C   UNL     1     -24.181  -9.540  -4.533  1.00  0.00     0.000 C 
BRANCH   2   3
ATOM      3  C   UNL     1     -24.571  -9.077  -5.945  1.00  0.00     0.000 C 
BRANCH   3   4
ATOM      4  C   UNL     1     -24.347  -7.569  -6.109  1.00  0.00     0.006 C 
BRANCH   4   5
ATOM      5  C   UNL     1     -25.668  -6.842  -6.379  1.00  0.00     0.053 C 
BRANCH   5   6
ATOM      6  C   UNL     1     -26.190  -6.222  -5.121  1.00  0.00     0.041 C 
ATOM      7  O   UNL     1     -27.293  -5.614  -5.126  1.00  0.00    -0.550 OA
ATOM      8  O   UNL     1     -25.438  -6.274  -3.955  1.00  0.00    -0.550 OA
ENDBRANCH   5   6
ENDBRANCH   4   5
ENDBRANCH   3   4
ENDBRANCH   2   3
ENDBRANCH   1   2
BRANCH   1   9
ATOM      9  C   UNL     1     -21.820  -9.994  -3.661  1.00  0.00     0.000 C 
BRANCH   9  10
ATOM     10  C   UNL     1     -20.856 -10.343  -4.810  1.00  0.00    -0.000 C 
BRANCH  10  11
ATOM     11  C   UNL     1     -21.272 -11.548  -5.672  1.00  0.00    -0.000 C 
BRANCH  11  12
ATOM     12  C   UNL     1     -21.711 -11.150  -7.089  1.00  0.00    -0.000 C 
BRANCH  12  13
ATOM     13  C   UNL     1     -21.115  -9.794  -7.486  1.00  0.00    -0.003 C 
ATOM     14  C   UNL     1     -21.951  -9.121  -8.571  1.00  0.00     0.004 C 
ENDBRANCH  12  13
ENDBRANCH  11  12
ENDBRANCH  10  11
ENDBRANCH   9  10
ENDBRANCH   1   9
TORSDOF 10
ENDMDL
MODEL 3
REMARK VINA RESULT:    -3.556      3.095      5.237
REMARK INTER + INTRA:          -7.065
REMARK INTER:                  -5.627
REMARK INTRA:                  -1.437
REMARK UNBOUND:                -1.430
REMARK SMILES CCCCCCCCCCCC(=O)[O-]
REMARK SMILES IDX 7 1 8 2 9 3 10 4 11 5 12 6 13 7 14 8 6 9 5 10 4 11 3 12 2 13
REMARK SMILES IDX 1 14
REMARK H PARENT
REMARK Flexibility Score: inf
ROOT
ATOM      1  C   UNL     1     -22.338  -9.790  -8.249  1.00  0.00     0.000 C 
ENDROOT
BRANCH   1   2
ATOM      2  C   UNL     1     -21.107 -10.351  -7.519  1.00  0.00     0.000 C 
BRANCH   2   3
ATOM      3  C   UNL     1     -21.474 -11.390  -6.449  1.00  0.00     0.000 C 
BRANCH   3   4
ATOM      4  C   UNL     1     -20.880 -11.008  -5.088  1.00  0.00     0.006 C 
BRANCH   4   5
ATOM      5  C   UNL     1     -19.938  -9.807  -5.215  1.00  0.00     0.053 C 
BRANCH   5   6
ATOM      6  C   UNL     1     -18.536 -10.204  -4.875  1.00  0.00     0.041 C 
ATOM      7  O   UNL     1     -18.157 -11.393  -5.039  1.00  0.00    -0.550 OA
ATOM      8  O   UNL     1     -17.662  -9.271  -4.331  1.00  0.00    -0.550 OA
ENDBRANCH   5   6
ENDBRANCH   4   5
ENDBRANCH   3   4
ENDBRANCH   2   3
ENDBRANCH   1   2
BRANCH   1   9
ATOM      9  C   UNL     1     -22.551  -8.291  -7.978  1.00  0.00     0.000 C 
BRANCH   9  10
ATOM     10  C   UNL     1     -23.163  -8.012  -6.593  1.00  0.00    -0.000 C 
BRANCH  10  11
ATOM     11  C   UNL     1     -24.450  -8.795  -6.276  1.00  0.00    -0.000 C 
BRANCH  11  12
ATOM     12  C   UNL     1     -24.371  -9.570  -4.953  1.00  0.00    -0.000 C 
BRANCH  12  13
ATOM     13  C   UNL     1     -23.665  -8.740  -3.873  1.00  0.00    -0.003 C 
ATOM     14  C   UNL     1     -24.659  -7.877  -3.103  1.00  0.00     0.004 C 
ENDBRANCH  12  13
ENDBRANCH  11  12
ENDBRANCH  10  11
ENDBRANCH   9  10
ENDBRANCH   1   9
TORSDOF 10
ENDMDL
MODEL 4
REMARK VINA RESULT:    -3.531      2.941      6.214
REMARK INTER + INTRA:          -7.025
REMARK INTER:                  -5.740
REMARK INTRA:                  -1.285
REMARK UNBOUND:                -1.430
REMARK SMILES CCCCCCCCCCCC(=O)[O-]
REMARK SMILES IDX 7 1 8 2 9 3 10 4 11 5 12 6 13 7 14 8 6 9 5 10 4 11 3 12 2 13
REMARK SMILES IDX 1 14
REMARK H PARENT
REMARK Flexibility Score: inf
ROOT
ATOM      1  C   UNL     1     -23.608  -7.863  -4.551  1.00  0.00     0.000 C 
ENDROOT
BRANCH   1   2
ATOM      2  C   UNL     1     -24.390  -9.087  -5.057  1.00  0.00     0.000 C 
BRANCH   2   3
ATOM      3  C   UNL     1     -24.414  -9.184  -6.589  1.00  0.00     0.000 C 
BRANCH   3   4
ATOM      4  C   UNL     1     -23.100  -8.671  -7.192  1.00  0.00     0.006 C 
BRANCH   4   5
ATOM      5  C   UNL     1     -22.469  -9.722  -8.110  1.00  0.00     0.053 C 
BRANCH   5   6
ATOM      6  C   UNL     1     -21.376 -10.452  -7.396  1.00  0.00     0.041 C 
ATOM      7  O   UNL     1     -21.654 -11.395  -6.609  1.00  0.00    -0.550 OA
ATOM      8  O   UNL     1     -20.054 -10.061  -7.561  1.00  0.00    -0.550 OA
ENDBRANCH   5   6
ENDBRANCH   4   5
ENDBRANCH   3   4
ENDBRANCH   2   3
ENDBRANCH   1   2
BRANCH   1   9
ATOM      9  C   UNL     1     -24.485  -6.900  -3.733  1.00  0.00     0.000 C 
BRANCH   9  10
ATOM     10  C   UNL     1     -25.991  -7.102  -3.983  1.00  0.00    -0.000 C 
BRANCH  10  11
ATOM     11  C   UNL     1     -26.770  -5.827  -4.354  1.00  0.00    -0.000 C 
BRANCH  11  12
ATOM     12  C   UNL     1     -26.233  -5.141  -5.618  1.00  0.00    -0.000 C 
BRANCH  12  13
ATOM     13  C   UNL     1     -26.363  -6.061  -6.838  1.00  0.00    -0.003 C 
ATOM     14  C   UNL     1     -25.349  -5.693  -7.917  1.00  0.00     0.004 C 
ENDBRANCH  12  13
ENDBRANCH  11  12
ENDBRANCH  10  11
ENDBRANCH   9  10
ENDBRANCH   1   9
TORSDOF 10
ENDMDL
MODEL 5
REMARK VINA RESULT:    -3.523      1.345      2.677
REMARK INTER + INTRA:          -7.014
REMARK INTER:                  -5.630
REMARK INTRA:                  -1.384
REMARK UNBOUND:                -1.430
REMARK SMILES CCCCCCCCCCCC(=O)[O-]
REMARK SMILES IDX 7 1 8 2 9 3 10 4 11 5 12 6 13 7 14 8 6 9 5 10 4 11 3 12 2 13
REMARK SMILES IDX 1 14
REMARK H PARENT
REMARK Flexibility Score: inf
ROOT
ATOM      1  C   UNL     1     -20.732 -10.251  -4.640  1.00  0.00     0.000 C 
ENDROOT
BRANCH   1   2
ATOM      2  C   UNL     1     -20.988 -11.381  -5.650  1.00  0.00     0.000 C 
BRANCH   2   3
ATOM      3  C   UNL     1     -21.875 -10.939  -6.823  1.00  0.00     0.000 C 
BRANCH   3   4
ATOM      4  C   UNL     1     -22.358  -9.496  -6.632  1.00  0.00     0.006 C 
BRANCH   4   5
ATOM      5  C   UNL     1     -23.885  -9.412  -6.712  1.00  0.00     0.053 C 
BRANCH   5   6
ATOM      6  C   UNL     1     -24.463  -9.083  -5.372  1.00  0.00     0.041 C 
ATOM      7  O   UNL     1     -25.172  -8.053  -5.223  1.00  0.00    -0.550 OA
ATOM      8  O   UNL     1     -24.179  -9.887  -4.276  1.00  0.00    -0.550 OA
ENDBRANCH   5   6
ENDBRANCH   4   5
ENDBRANCH   3   4
ENDBRANCH   2   3
ENDBRANCH   1   2
BRANCH   1   9
ATOM      9  C   UNL     1     -19.250 -10.139  -4.243  1.00  0.00     0.000 C 
BRANCH   9  10
ATOM     10  C   UNL     1     -18.334 -11.049  -5.083  1.00  0.00    -0.000 C 
BRANCH  10  11
ATOM     11  C   UNL     1     -17.398 -10.313  -6.060  1.00  0.00    -0.000 C 
BRANCH  11  12
ATOM     12  C   UNL     1     -18.121  -9.807  -7.317  1.00  0.00    -0.000 C 
BRANCH  12  13
ATOM     13  C   UNL     1     -17.994  -8.284  -7.446  1.00  0.00    -0.003 C 
ATOM     14  C   UNL     1     -19.299  -7.588  -7.071  1.00  0.00     0.004 C 
ENDBRANCH  12  13
ENDBRANCH  11  12
ENDBRANCH  10  11
ENDBRANCH   9  10
ENDBRANCH   1   9
TORSDOF 10
ENDMDL
MODEL 6
REMARK VINA RESULT:    -3.516      2.813      6.070
REMARK INTER + INTRA:          -7.002
REMARK INTER:                  -6.010
REMARK INTRA:                  -0.992
REMARK UNBOUND:                -1.430
REMARK SMILES CCCCCCCCCCCC(=O)[O-]
REMARK SMILES IDX 7 1 8 2 9 3 10 4 11 5 12 6 13 7 14 8 6 9 5 10 4 11 3 12 2 13
REMARK SMILES IDX 1 14
REMARK H PARENT
REMARK Flexibility Score: inf
ROOT
ATOM      1  C   UNL     1     -24.503  -9.190  -6.341  1.00  0.00     0.000 C 
ENDROOT
BRANCH   1   2
ATOM      2  C   UNL     1     -23.190  -8.733  -6.999  1.00  0.00     0.000 C 
BRANCH   2   3
ATOM      3  C   UNL     1     -22.616  -9.779  -7.966  1.00  0.00     0.000 C 
BRANCH   3   4
ATOM      4  C   UNL     1     -21.254 -10.288  -7.478  1.00  0.00     0.006 C 
BRANCH   4   5
ATOM      5  C   UNL     1     -21.419 -11.291  -6.332  1.00  0.00     0.053 C 
BRANCH   5   6
ATOM      6  C   UNL     1     -20.572 -10.895  -5.164  1.00  0.00     0.041 C 
ATOM      7  O   UNL     1     -21.107 -10.441  -4.119  1.00  0.00    -0.550 OA
ATOM      8  O   UNL     1     -19.189 -10.982  -5.247  1.00  0.00    -0.550 OA
ENDBRANCH   5   6
ENDBRANCH   4   5
ENDBRANCH   3   4
ENDBRANCH   2   3
ENDBRANCH   1   2
BRANCH   1   9
ATOM      9  C   UNL     1     -24.378  -9.335  -4.816  1.00  0.00     0.000 C 
BRANCH   9  10
ATOM     10  C   UNL     1     -24.352  -7.979  -4.085  1.00  0.00    -0.000 C 
BRANCH  10  11
ATOM     11  C   UNL     1     -25.734  -7.380  -3.766  1.00  0.00    -0.000 C 
BRANCH  11  12
ATOM     12  C   UNL     1     -25.893  -5.937  -4.267  1.00  0.00    -0.000 C 
BRANCH  12  13
ATOM     13  C   UNL     1     -26.892  -5.867  -5.428  1.00  0.00    -0.003 C 
ATOM     14  C   UNL     1     -26.178  -5.932  -6.775  1.00  0.00     0.004 C 
ENDBRANCH  12  13
ENDBRANCH  11  12
ENDBRANCH  10  11
ENDBRANCH   9  10
ENDBRANCH   1   9
TORSDOF 10
ENDMDL
MODEL 7
REMARK VINA RESULT:    -3.501      2.429      5.552
REMARK INTER + INTRA:          -6.978
REMARK INTER:                  -5.963
REMARK INTRA:                  -1.015
REMARK UNBOUND:                -1.430
REMARK SMILES CCCCCCCCCCCC(=O)[O-]
REMARK SMILES IDX 7 1 8 2 9 3 10 4 11 5 12 6 13 7 14 8 6 9 5 10 4 11 3 12 2 13
REMARK SMILES IDX 1 14
REMARK H PARENT
REMARK Flexibility Score: inf
ROOT
ATOM      1  C   UNL     1     -23.933  -9.148  -4.320  1.00  0.00     0.000 C 
ENDROOT
BRANCH   1   2
ATOM      2  C   UNL     1     -22.951 -10.324  -4.194  1.00  0.00     0.000 C 
BRANCH   2   3
ATOM      3  C   UNL     1     -21.499  -9.919  -4.488  1.00  0.00     0.000 C 
BRANCH   3   4
ATOM      4  C   UNL     1     -20.824 -10.934  -5.418  1.00  0.00     0.006 C 
BRANCH   4   5
ATOM      5  C   UNL     1     -21.675 -11.189  -6.665  1.00  0.00     0.053 C 
BRANCH   5   6
ATOM      6  C   UNL     1     -21.425 -10.134  -7.695  1.00  0.00     0.041 C 
ATOM      7  O   UNL     1     -22.340  -9.794  -8.490  1.00  0.00    -0.550 OA
ATOM      8  O   UNL     1     -20.166  -9.559  -7.810  1.00  0.00    -0.550 OA
ENDBRANCH   5   6
ENDBRANCH   4   5
ENDBRANCH   3   4
ENDBRANCH   2   3
ENDBRANCH   1   2
BRANCH   1   9
ATOM      9  C   UNL     1     -24.547  -9.040  -5.725  1.00  0.00     0.000 C 
BRANCH   9  10
ATOM     10  C   UNL     1     -24.341  -7.654  -6.365  1.00  0.00    -0.000 C 
BRANCH  10  11
ATOM     11  C   UNL     1     -25.630  -6.937  -6.803  1.00  0.00    -0.000 C 
BRANCH  11  12
ATOM     12  C   UNL     1     -25.853  -5.604  -6.073  1.00  0.00    -0.000 C 
BRANCH  12  13
ATOM     13  C   UNL     1     -26.807  -5.782  -4.886  1.00  0.00    -0.003 C 
ATOM     14  C   UNL     1     -26.041  -5.841  -3.568  1.00  0.00     0.004 C 
ENDBRANCH  12  13
ENDBRANCH  11  12
ENDBRANCH  10  11
ENDBRANCH   9  10
ENDBRANCH   1   9
TORSDOF 10
ENDMDL
MODEL 8
REMARK VINA RESULT:    -3.495      9.480     11.543
REMARK INTER + INTRA:          -6.969
REMARK INTER:                  -5.680
REMARK INTRA:                  -1.288
REMARK UNBOUND:                -1.430
REMARK SMILES CCCCCCCCCCCC(=O)[O-]
REMARK SMILES IDX 7 1 8 2 9 3 10 4 11 5 12 6 13 7 14 8 6 9 5 10 4 11 3 12 2 13
REMARK SMILES IDX 1 14
REMARK H PARENT
REMARK Flexibility Score: inf
ROOT
ATOM      1  C   UNL     1     -29.494  -5.629 -11.327  1.00  0.00     0.000 C 
ENDROOT
BRANCH   1   2
ATOM      2  C   UNL     1     -28.453  -4.911 -12.202  1.00  0.00     0.000 C 
BRANCH   2   3
ATOM      3  C   UNL     1     -27.009  -5.241 -11.797  1.00  0.00     0.000 C 
BRANCH   3   4
ATOM      4  C   UNL     1     -26.116  -5.401 -13.033  1.00  0.00     0.006 C 
BRANCH   4   5
ATOM      5  C   UNL     1     -25.641  -6.849 -13.185  1.00  0.00     0.053 C 
BRANCH   5   6
ATOM      6  C   UNL     1     -25.903  -7.343 -14.573  1.00  0.00     0.041 C 
ATOM      7  O   UNL     1     -25.144  -8.202 -15.093  1.00  0.00    -0.550 OA
ATOM      8  O   UNL     1     -26.958  -6.819 -15.309  1.00  0.00    -0.550 OA
ENDBRANCH   5   6
ENDBRANCH   4   5
ENDBRANCH   3   4
ENDBRANCH   2   3
ENDBRANCH   1   2
BRANCH   1   9
ATOM      9  C   UNL     1     -28.928  -6.887 -10.649  1.00  0.00     0.000 C 
BRANCH   9  10
ATOM     10  C   UNL     1     -29.390  -8.192 -11.324  1.00  0.00    -0.000 C 
BRANCH  10  11
ATOM     11  C   UNL     1     -28.976  -8.350 -12.798  1.00  0.00    -0.000 C 
BRANCH  11  12
ATOM     12  C   UNL     1     -30.176  -8.468 -13.750  1.00  0.00    -0.000 C 
BRANCH  12  13
ATOM     13  C   UNL     1     -30.446  -7.136 -14.459  1.00  0.00    -0.003 C 
ATOM     14  C   UNL     1     -31.941  -6.839 -14.522  1.00  0.00     0.004 C 
ENDBRANCH  12  13
ENDBRANCH  11  12
ENDBRANCH  10  11
ENDBRANCH   9  10
ENDBRANCH   1   9
TORSDOF 10
ENDMDL
MODEL 9
REMARK VINA RESULT:    -3.473      2.740      5.745
REMARK INTER + INTRA:          -6.933
REMARK INTER:                  -5.526
REMARK INTRA:                  -1.407
REMARK UNBOUND:                -1.430
REMARK SMILES CCCCCCCCCCCC(=O)[O-]
REMARK SMILES IDX 7 1 8 2 9 3 10 4 11 5 12 6 13 7 14 8 6 9 5 10 4 11 3 12 2 13
REMARK SMILES IDX 1 14
REMARK H PARENT
REMARK Flexibility Score: inf
ROOT
ATOM      1  C   UNL     1     -23.678  -7.550  -6.528  1.00  0.00     0.000 C 
ENDROOT
BRANCH   1   2
ATOM      2  C   UNL     1     -24.491  -8.855  -6.556  1.00  0.00     0.000 C 
BRANCH   2   3
ATOM      3  C   UNL     1     -24.414  -9.630  -5.232  1.00  0.00     0.000 C 
BRANCH   3   4
ATOM      4  C   UNL     1     -23.109  -9.319  -4.489  1.00  0.00     0.006 C 
BRANCH   4   5
ATOM      5  C   UNL     1     -22.239 -10.572  -4.358  1.00  0.00     0.053 C 
BRANCH   5   6
ATOM      6  C   UNL     1     -21.346 -10.716  -5.550  1.00  0.00     0.041 C 
ATOM      7  O   UNL     1     -20.543  -9.796  -5.854  1.00  0.00    -0.550 OA
ATOM      8  O   UNL     1     -21.434 -11.846  -6.353  1.00  0.00    -0.550 OA
ENDBRANCH   5   6
ENDBRANCH   4   5
ENDBRANCH   3   4
ENDBRANCH   2   3
ENDBRANCH   1   2
BRANCH   1   9
ATOM      9  C   UNL     1     -24.478  -6.346  -7.054  1.00  0.00     0.000 C 
BRANCH   9  10
ATOM     10  C   UNL     1     -25.984  -6.447  -6.749  1.00  0.00    -0.000 C 
BRANCH  10  11
ATOM     11  C   UNL     1     -26.451  -5.686  -5.494  1.00  0.00    -0.000 C 
BRANCH  11  12
ATOM     12  C   UNL     1     -26.440  -6.553  -4.227  1.00  0.00    -0.000 C 
BRANCH  12  13
ATOM     13  C   UNL     1     -25.240  -6.208  -3.337  1.00  0.00    -0.003 C 
ATOM     14  C   UNL     1     -25.010  -7.283  -2.279  1.00  0.00     0.004 C 
ENDBRANCH  12  13
ENDBRANCH  11  12
ENDBRANCH  10  11
ENDBRANCH   9  10
ENDBRANCH   1   9
TORSDOF 10
ENDMDL
