MODEL 1
REMARK VINA RESULT:    -4.538      0.000      0.000
REMARK INTER + INTRA:          -5.341
REMARK INTER:                  -5.201
REMARK INTRA:                  -0.140
REMARK UNBOUND:                -0.140
REMARK SMILES O=C([O-])C=Cc1ccc(O)cc1
REMARK SMILES IDX 6 1 7 2 12 3 8 4 11 5 9 6 5 7 4 8 2 9 1 10 3 11 10 12
REMARK H PARENT 10 13
REMARK Flexibility Score: inf
ROOT
ATOM      1  C   UNL     1      13.842  37.040  49.824  1.00  0.00    -0.025 A 
ATOM      2  C   UNL     1      14.542  36.983  48.601  1.00  0.00     0.012 A 
ATOM      3  C   UNL     1      14.520  37.486  50.972  1.00  0.00     0.012 A 
ATOM      4  C   UNL     1      15.892  37.342  48.541  1.00  0.00     0.047 A 
ATOM      5  C   UNL     1      15.870  37.843  50.907  1.00  0.00     0.047 A 
ATOM      6  C   UNL     1      16.560  37.769  49.692  1.00  0.00     0.115 A 
ENDROOT
BRANCH   1   7
ATOM      7  C   UNL     1      12.406  36.683  49.940  1.00  0.00     0.010 C 
ATOM      8  C   UNL     1      11.665  36.236  48.917  1.00  0.00     0.025 C 
BRANCH   8   9
ATOM      9  C   UNL     1      10.246  35.882  49.083  1.00  0.00     0.064 C 
ATOM     10  O   UNL     1       9.371  36.785  49.034  1.00  0.00    -0.545 OA
ATOM     11  O   UNL     1       9.855  34.565  49.295  1.00  0.00    -0.545 OA
ENDBRANCH   8   9
ENDBRANCH   1   7
BRANCH   6  12
ATOM     12  O   UNL     1      17.906  38.122  49.616  1.00  0.00    -0.508 OA
ATOM     13  H   UNL     1      18.533  37.679  48.956  1.00  0.00     0.293 HD
ENDBRANCH   6  12
TORSDOF 3
ENDMDL
MODEL 2
REMARK VINA RESULT:    -4.526      0.153      1.683
REMARK INTER + INTRA:          -5.328
REMARK INTER:                  -5.177
REMARK INTRA:                  -0.151
REMARK UNBOUND:                -0.140
REMARK SMILES O=C([O-])C=Cc1ccc(O)cc1
REMARK SMILES IDX 6 1 7 2 12 3 8 4 11 5 9 6 5 7 4 8 2 9 1 10 3 11 10 12
REMARK H PARENT 10 13
REMARK Flexibility Score: inf
ROOT
ATOM      1  C   UNL     1      13.916  37.029  49.912  1.00  0.00    -0.025 A 
ATOM      2  C   UNL     1      14.694  37.423  51.020  1.00  0.00     0.012 A 
ATOM      3  C   UNL     1      14.518  36.987  48.642  1.00  0.00     0.012 A 
ATOM      4  C   UNL     1      16.034  37.786  50.851  1.00  0.00     0.047 A 
ATOM      5  C   UNL     1      15.857  37.353  48.478  1.00  0.00     0.047 A 
ATOM      6  C   UNL     1      16.618  37.756  49.582  1.00  0.00     0.115 A 
ENDROOT
BRANCH   1   7
ATOM      7  C   UNL     1      12.495  36.621  50.038  1.00  0.00     0.010 C 
ATOM      8  C   UNL     1      11.729  36.261  48.999  1.00  0.00     0.025 C 
BRANCH   8   9
ATOM      9  C   UNL     1      10.326  35.852  49.173  1.00  0.00     0.064 C 
ATOM     10  O   UNL     1      10.059  34.658  49.467  1.00  0.00    -0.545 OA
ATOM     11  O   UNL     1       9.287  36.763  49.015  1.00  0.00    -0.545 OA
ENDBRANCH   8   9
ENDBRANCH   1   7
BRANCH   6  12
ATOM     12  O   UNL     1      17.953  38.123  49.429  1.00  0.00    -0.508 OA
ATOM     13  H   UNL     1      18.283  39.044  49.693  1.00  0.00     0.293 HD
ENDBRANCH   6  12
TORSDOF 3
ENDMDL
MODEL 3
REMARK VINA RESULT:    -4.506      3.120      3.778
REMARK INTER + INTRA:          -5.305
REMARK INTER:                  -5.167
REMARK INTRA:                  -0.139
REMARK UNBOUND:                -0.140
REMARK SMILES O=C([O-])C=Cc1ccc(O)cc1
REMARK SMILES IDX 6 1 7 2 12 3 8 4 11 5 9 6 5 7 4 8 2 9 1 10 3 11 10 12
REMARK H PARENT 10 13
REMARK Flexibility Score: inf
ROOT
ATOM      1  C   UNL     1      14.691  37.178  48.240  1.00  0.00    -0.025 A 
ATOM      2  C   UNL     1      15.996  37.710  48.307  1.00  0.00     0.012 A 
ATOM      3  C   UNL     1      13.977  36.985  49.436  1.00  0.00     0.012 A 
ATOM      4  C   UNL     1      16.572  38.018  49.544  1.00  0.00     0.047 A 
ATOM      5  C   UNL     1      14.558  37.292  50.669  1.00  0.00     0.047 A 
ATOM      6  C   UNL     1      15.858  37.806  50.726  1.00  0.00     0.115 A 
ENDROOT
BRANCH   1   7
ATOM      7  C   UNL     1      14.028  36.847  46.955  1.00  0.00     0.010 C 
ATOM      8  C   UNL     1      14.166  37.574  45.838  1.00  0.00     0.025 C 
BRANCH   8   9
ATOM      9  C   UNL     1      13.497  37.201  44.581  1.00  0.00     0.064 C 
ATOM     10  O   UNL     1      14.186  37.002  43.546  1.00  0.00    -0.545 OA
ATOM     11  O   UNL     1      12.115  37.066  44.515  1.00  0.00    -0.545 OA
ENDBRANCH   8   9
ENDBRANCH   1   7
BRANCH   6  12
ATOM     12  O   UNL     1      16.448  38.115  51.951  1.00  0.00    -0.508 OA
ATOM     13  H   UNL     1      15.899  38.186  52.799  1.00  0.00     0.293 HD
ENDBRANCH   6  12
TORSDOF 3
ENDMDL
MODEL 4
REMARK VINA RESULT:    -4.487      3.134      3.901
REMARK INTER + INTRA:          -5.283
REMARK INTER:                  -5.138
REMARK INTRA:                  -0.145
REMARK UNBOUND:                -0.140
REMARK SMILES O=C([O-])C=Cc1ccc(O)cc1
REMARK SMILES IDX 6 1 7 2 12 3 8 4 11 5 9 6 5 7 4 8 2 9 1 10 3 11 10 12
REMARK H PARENT 10 13
REMARK Flexibility Score: inf
ROOT
ATOM      1  C   UNL     1      14.583  37.157  48.289  1.00  0.00    -0.025 A 
ATOM      2  C   UNL     1      13.887  36.982  49.503  1.00  0.00     0.012 A 
ATOM      3  C   UNL     1      15.907  37.629  48.331  1.00  0.00     0.012 A 
ATOM      4  C   UNL     1      14.497  37.295  50.721  1.00  0.00     0.047 A 
ATOM      5  C   UNL     1      16.513  37.942  49.551  1.00  0.00     0.047 A 
ATOM      6  C   UNL     1      15.808  37.778  50.749  1.00  0.00     0.115 A 
ENDROOT
BRANCH   1   7
ATOM      7  C   UNL     1      13.987  36.829  46.971  1.00  0.00     0.010 C 
ATOM      8  C   UNL     1      14.167  37.568  45.868  1.00  0.00     0.025 C 
BRANCH   8   9
ATOM      9  C   UNL     1      13.565  37.196  44.577  1.00  0.00     0.064 C 
ATOM     10  O   UNL     1      12.313  37.125  44.473  1.00  0.00    -0.545 OA
ATOM     11  O   UNL     1      14.358  36.919  43.469  1.00  0.00    -0.545 OA
ENDBRANCH   8   9
ENDBRANCH   1   7
BRANCH   6  12
ATOM     12  O   UNL     1      16.402  38.087  51.971  1.00  0.00    -0.508 OA
ATOM     13  H   UNL     1      16.606  37.371  52.657  1.00  0.00     0.293 HD
ENDBRANCH   6  12
TORSDOF 3
ENDMDL
MODEL 5
REMARK VINA RESULT:    -4.192      2.084      2.606
REMARK INTER + INTRA:          -4.945
REMARK INTER:                  -4.793
REMARK INTRA:                  -0.151
REMARK UNBOUND:                -0.140
REMARK SMILES O=C([O-])C=Cc1ccc(O)cc1
REMARK SMILES IDX 6 1 7 2 12 3 8 4 11 5 9 6 5 7 4 8 2 9 1 10 3 11 10 12
REMARK H PARENT 10 13
REMARK Flexibility Score: inf
ROOT
ATOM      1  C   UNL     1      14.422  37.008  48.391  1.00  0.00    -0.025 A 
ATOM      2  C   UNL     1      15.770  37.408  48.281  1.00  0.00     0.012 A 
ATOM      3  C   UNL     1      13.818  37.006  49.661  1.00  0.00     0.012 A 
ATOM      4  C   UNL     1      16.495  37.772  49.420  1.00  0.00     0.047 A 
ATOM      5  C   UNL     1      14.548  37.369  50.796  1.00  0.00     0.047 A 
ATOM      6  C   UNL     1      15.889  37.751  50.679  1.00  0.00     0.115 A 
ENDROOT
BRANCH   1   7
ATOM      7  C   UNL     1      13.603  36.625  47.215  1.00  0.00     0.010 C 
ATOM      8  C   UNL     1      12.321  36.245  47.292  1.00  0.00     0.025 C 
BRANCH   8   9
ATOM      9  C   UNL     1      11.543  35.885  46.095  1.00  0.00     0.064 C 
ATOM     10  O   UNL     1      11.726  34.766  45.550  1.00  0.00    -0.545 OA
ATOM     11  O   UNL     1      10.611  36.762  45.554  1.00  0.00    -0.545 OA
ENDBRANCH   8   9
ENDBRANCH   1   7
BRANCH   6  12
ATOM     12  O   UNL     1      16.626  38.114  51.804  1.00  0.00    -0.508 OA
ATOM     13  H   UNL     1      16.467  38.994  52.280  1.00  0.00     0.293 HD
ENDBRANCH   6  12
TORSDOF 3
ENDMDL
MODEL 6
REMARK VINA RESULT:    -4.096      1.208      5.714
REMARK INTER + INTRA:          -4.835
REMARK INTER:                  -4.694
REMARK INTRA:                  -0.141
REMARK UNBOUND:                -0.140
REMARK SMILES O=C([O-])C=Cc1ccc(O)cc1
REMARK SMILES IDX 6 1 7 2 12 3 8 4 11 5 9 6 5 7 4 8 2 9 1 10 3 11 10 12
REMARK H PARENT 10 13
REMARK Flexibility Score: inf
ROOT
ATOM      1  C   UNL     1      14.059  36.914  49.275  1.00  0.00    -0.025 A 
ATOM      2  C   UNL     1      13.422  36.468  48.098  1.00  0.00     0.012 A 
ATOM      3  C   UNL     1      13.309  36.993  50.462  1.00  0.00     0.012 A 
ATOM      4  C   UNL     1      12.064  36.133  48.112  1.00  0.00     0.047 A 
ATOM      5  C   UNL     1      11.952  36.659  50.470  1.00  0.00     0.047 A 
ATOM      6  C   UNL     1      11.325  36.231  49.294  1.00  0.00     0.115 A 
ENDROOT
BRANCH   1   7
ATOM      7  C   UNL     1      15.499  37.269  49.319  1.00  0.00     0.010 C 
ATOM      8  C   UNL     1      16.465  36.527  48.762  1.00  0.00     0.025 C 
BRANCH   8   9
ATOM      9  C   UNL     1      17.881  36.925  48.820  1.00  0.00     0.064 C 
ATOM     10  O   UNL     1      18.180  38.124  49.056  1.00  0.00    -0.545 OA
ATOM     11  O   UNL     1      18.897  35.998  48.616  1.00  0.00    -0.545 OA
ENDBRANCH   8   9
ENDBRANCH   1   7
BRANCH   6  12
ATOM     12  O   UNL     1       9.973  35.896  49.291  1.00  0.00    -0.508 OA
ATOM     13  H   UNL     1       9.257  36.587  49.103  1.00  0.00     0.293 HD
ENDBRANCH   6  12
TORSDOF 3
ENDMDL
MODEL 7
REMARK VINA RESULT:    -3.877      9.113     10.244
REMARK INTER + INTRA:          -4.584
REMARK INTER:                  -4.439
REMARK INTRA:                  -0.145
REMARK UNBOUND:                -0.140
REMARK SMILES O=C([O-])C=Cc1ccc(O)cc1
REMARK SMILES IDX 6 1 7 2 12 3 8 4 11 5 9 6 5 7 4 8 2 9 1 10 3 11 10 12
REMARK H PARENT 10 13
REMARK Flexibility Score: inf
ROOT
ATOM      1  C   UNL     1      13.394  32.542  57.170  1.00  0.00    -0.025 A 
ATOM      2  C   UNL     1      12.002  32.619  56.960  1.00  0.00     0.012 A 
ATOM      3  C   UNL     1      14.251  33.213  56.280  1.00  0.00     0.012 A 
ATOM      4  C   UNL     1      11.488  33.330  55.871  1.00  0.00     0.047 A 
ATOM      5  C   UNL     1      13.733  33.922  55.192  1.00  0.00     0.047 A 
ATOM      6  C   UNL     1      12.351  33.980  54.984  1.00  0.00     0.115 A 
ENDROOT
BRANCH   1   7
ATOM      7  C   UNL     1      13.991  31.812  58.316  1.00  0.00     0.010 C 
ATOM      8  C   UNL     1      13.293  31.409  59.386  1.00  0.00     0.025 C 
BRANCH   8   9
ATOM      9  C   UNL     1      13.925  30.676  60.495  1.00  0.00     0.064 C 
ATOM     10  O   UNL     1      15.145  30.375  60.425  1.00  0.00    -0.545 OA
ATOM     11  O   UNL     1      13.196  30.307  61.620  1.00  0.00    -0.545 OA
ENDBRANCH   8   9
ENDBRANCH   1   7
BRANCH   6  12
ATOM     12  O   UNL     1      11.824  34.683  53.902  1.00  0.00    -0.508 OA
ATOM     13  H   UNL     1      12.419  35.193  53.261  1.00  0.00     0.293 HD
ENDBRANCH   6  12
TORSDOF 3
ENDMDL
MODEL 8
REMARK VINA RESULT:    -3.810     13.732     14.687
REMARK INTER + INTRA:          -4.507
REMARK INTER:                  -4.365
REMARK INTRA:                  -0.142
REMARK UNBOUND:                -0.140
REMARK SMILES O=C([O-])C=Cc1ccc(O)cc1
REMARK SMILES IDX 6 1 7 2 12 3 8 4 11 5 9 6 5 7 4 8 2 9 1 10 3 11 10 12
REMARK H PARENT 10 13
REMARK Flexibility Score: inf
ROOT
ATOM      1  C   UNL     1      18.226  30.981  62.351  1.00  0.00    -0.025 A 
ATOM      2  C   UNL     1      19.344  30.607  63.125  1.00  0.00     0.012 A 
ATOM      3  C   UNL     1      18.433  31.728  61.178  1.00  0.00     0.012 A 
ATOM      4  C   UNL     1      20.632  30.994  62.741  1.00  0.00     0.047 A 
ATOM      5  C   UNL     1      19.722  32.114  60.800  1.00  0.00     0.047 A 
ATOM      6  C   UNL     1      20.824  31.751  61.582  1.00  0.00     0.115 A 
ENDROOT
BRANCH   1   7
ATOM      7  C   UNL     1      16.840  30.585  62.706  1.00  0.00     0.010 C 
ATOM      8  C   UNL     1      16.001  29.973  61.860  1.00  0.00     0.025 C 
BRANCH   8   9
ATOM      9  C   UNL     1      14.638  29.588  62.260  1.00  0.00     0.064 C 
ATOM     10  O   UNL     1      14.475  28.686  63.122  1.00  0.00    -0.545 OA
ATOM     11  O   UNL     1      13.524  30.202  61.698  1.00  0.00    -0.545 OA
ENDBRANCH   8   9
ENDBRANCH   1   7
BRANCH   6  12
ATOM     12  O   UNL     1      22.113  32.131  61.214  1.00  0.00    -0.508 OA
ATOM     13  H   UNL     1      22.277  32.906  60.583  1.00  0.00     0.293 HD
ENDBRANCH   6  12
TORSDOF 3
ENDMDL
