MODEL 1
REMARK VINA RESULT:    -7.799      0.000      0.000
REMARK INTER + INTRA:          -9.481
REMARK INTER:                  -9.167
REMARK INTRA:                  -0.314
REMARK UNBOUND:                -0.314
REMARK SMILES O=c1cc(-c2ccc(O)c(O)c2)oc2cc(O)cc(O)c12
REMARK SMILES IDX 4 1 3 2 2 3 1 4 21 5 19 6 18 7 16 8 15 9 14 10 13 11 5 12
REMARK SMILES IDX 6 13 7 14 8 15 12 16 10 17 9 18 11 20 20 22 17 24
REMARK H PARENT 9 19 11 21 20 23 17 25
REMARK Flexibility Score: inf
ROOT
ATOM      1  C   UNL     1     168.998 145.453 153.564  1.00  0.00     0.138 A 
ATOM      2  C   UNL     1     169.962 145.431 152.546  1.00  0.00     0.100 A 
ATOM      3  C   UNL     1     169.642 145.929 151.282  1.00  0.00     0.197 A 
ATOM      4  O   UNL     1     170.506 145.838 150.372  1.00  0.00    -0.289 OA
ATOM      5  C   UNL     1     168.359 146.478 151.046  1.00  0.00     0.107 A 
ATOM      6  C   UNL     1     167.935 147.050 149.810  1.00  0.00     0.134 A 
ATOM      7  C   UNL     1     166.604 147.458 149.658  1.00  0.00     0.093 A 
ATOM      8  C   UNL     1     165.699 147.370 150.715  1.00  0.00     0.123 A 
ATOM      9  C   UNL     1     166.117 146.862 151.946  1.00  0.00     0.094 A 
ATOM     10  C   UNL     1     167.429 146.415 152.118  1.00  0.00     0.146 A 
ATOM     11  O   UNL     1     167.784 145.925 153.301  1.00  0.00    -0.456 OA
ENDROOT
BRANCH   1  12
ATOM     12  C   UNL     1     169.286 144.939 154.927  1.00  0.00     0.021 A 
ATOM     13  C   UNL     1     170.620 144.758 155.331  1.00  0.00     0.016 A 
ATOM     14  C   UNL     1     170.916 144.270 156.606  1.00  0.00     0.051 A 
ATOM     15  C   UNL     1     169.888 143.944 157.496  1.00  0.00     0.157 A 
ATOM     16  C   UNL     1     168.252 144.598 155.822  1.00  0.00     0.062 A 
ATOM     17  C   UNL     1     168.550 144.105 157.102  1.00  0.00     0.158 A 
BRANCH  15  18
ATOM     18  O   UNL     1     170.215 143.461 158.762  1.00  0.00    -0.504 OA
ATOM     19  H   UNL     1     170.665 144.042 159.459  1.00  0.00     0.293 HD
ENDBRANCH  15  18
BRANCH  17  20
ATOM     20  O   UNL     1     167.520 143.772 157.981  1.00  0.00    -0.504 OA
ATOM     21  H   UNL     1     167.653 143.789 158.986  1.00  0.00     0.293 HD
ENDBRANCH  17  20
ENDBRANCH   1  12
BRANCH   6  22
ATOM     22  O   UNL     1     168.780 147.263 148.716  1.00  0.00    -0.507 OA
ATOM     23  H   UNL     1     169.465 146.603 148.380  1.00  0.00     0.293 HD
ENDBRANCH   6  22
BRANCH   8  24
ATOM     24  O   UNL     1     164.386 147.799 150.533  1.00  0.00    -0.508 OA
ATOM     25  H   UNL     1     163.929 148.404 151.205  1.00  0.00     0.293 HD
ENDBRANCH   8  24
TORSDOF 5
ENDMDL
MODEL 2
REMARK VINA RESULT:    -7.515      3.716      6.932
REMARK INTER + INTRA:          -9.146
REMARK INTER:                  -8.828
REMARK INTRA:                  -0.318
REMARK UNBOUND:                -0.314
REMARK SMILES O=c1cc(-c2ccc(O)c(O)c2)oc2cc(O)cc(O)c12
REMARK SMILES IDX 4 1 3 2 2 3 1 4 21 5 19 6 18 7 16 8 15 9 14 10 13 11 5 12
REMARK SMILES IDX 6 13 7 14 8 15 12 16 10 17 9 18 11 20 20 22 17 24
REMARK H PARENT 9 19 11 21 20 23 17 25
REMARK Flexibility Score: inf
ROOT
ATOM      1  C   UNL     1     170.289 144.591 150.107  1.00  0.00     0.138 A 
ATOM      2  C   UNL     1     170.787 144.620 148.797  1.00  0.00     0.100 A 
ATOM      3  C   UNL     1     171.908 143.856 148.468  1.00  0.00     0.197 A 
ATOM      4  O   UNL     1     172.370 143.950 147.301  1.00  0.00    -0.289 OA
ATOM      5  C   UNL     1     172.514 143.036 149.450  1.00  0.00     0.107 A 
ATOM      6  C   UNL     1     173.635 142.185 149.219  1.00  0.00     0.134 A 
ATOM      7  C   UNL     1     174.221 141.507 150.295  1.00  0.00     0.093 A 
ATOM      8  C   UNL     1     173.691 141.603 151.581  1.00  0.00     0.123 A 
ATOM      9  C   UNL     1     172.561 142.390 151.809  1.00  0.00     0.094 A 
ATOM     10  C   UNL     1     171.974 143.106 150.762  1.00  0.00     0.146 A 
ATOM     11  O   UNL     1     170.909 143.855 151.023  1.00  0.00    -0.456 OA
ENDROOT
BRANCH   1  12
ATOM     12  C   UNL     1     169.099 145.382 150.510  1.00  0.00     0.021 A 
ATOM     13  C   UNL     1     168.471 146.216 149.570  1.00  0.00     0.016 A 
ATOM     14  C   UNL     1     167.353 146.975 149.927  1.00  0.00     0.051 A 
ATOM     15  C   UNL     1     166.850 146.923 151.229  1.00  0.00     0.157 A 
ATOM     16  C   UNL     1     168.596 145.342 151.826  1.00  0.00     0.062 A 
ATOM     17  C   UNL     1     167.475 146.106 152.185  1.00  0.00     0.158 A 
BRANCH  15  18
ATOM     18  O   UNL     1     165.732 147.691 151.555  1.00  0.00    -0.504 OA
ATOM     19  H   UNL     1     165.757 148.394 152.284  1.00  0.00     0.293 HD
ENDBRANCH  15  18
BRANCH  17  20
ATOM     20  O   UNL     1     166.983 146.058 153.489  1.00  0.00    -0.504 OA
ATOM     21  H   UNL     1     167.227 145.304 154.121  1.00  0.00     0.293 HD
ENDBRANCH  17  20
ENDBRANCH   1  12
BRANCH   6  22
ATOM     22  O   UNL     1     174.192 141.951 147.958  1.00  0.00    -0.507 OA
ATOM     23  H   UNL     1     173.743 142.167 147.081  1.00  0.00     0.293 HD
ENDBRANCH   6  22
BRANCH   8  24
ATOM     24  O   UNL     1     174.291 140.903 152.625  1.00  0.00    -0.508 OA
ATOM     25  H   UNL     1     173.973 139.979 152.896  1.00  0.00     0.293 HD
ENDBRANCH   8  24
TORSDOF 5
ENDMDL
MODEL 3
REMARK VINA RESULT:    -7.439      1.302      2.855
REMARK INTER + INTRA:          -9.057
REMARK INTER:                  -8.766
REMARK INTRA:                  -0.291
REMARK UNBOUND:                -0.314
REMARK SMILES O=c1cc(-c2ccc(O)c(O)c2)oc2cc(O)cc(O)c12
REMARK SMILES IDX 4 1 3 2 2 3 1 4 21 5 19 6 18 7 16 8 15 9 14 10 13 11 5 12
REMARK SMILES IDX 6 13 7 14 8 15 12 16 10 17 9 18 11 20 20 22 17 24
REMARK H PARENT 9 19 11 21 20 23 17 25
REMARK Flexibility Score: inf
ROOT
ATOM      1  C   UNL     1     168.936 145.221 153.856  1.00  0.00     0.138 A 
ATOM      2  C   UNL     1     167.685 145.775 153.555  1.00  0.00     0.100 A 
ATOM      3  C   UNL     1     167.417 146.212 152.256  1.00  0.00     0.197 A 
ATOM      4  O   UNL     1     166.308 146.762 152.031  1.00  0.00    -0.289 OA
ATOM      5  C   UNL     1     168.400 146.065 151.248  1.00  0.00     0.107 A 
ATOM      6  C   UNL     1     168.225 146.439 149.882  1.00  0.00     0.134 A 
ATOM      7  C   UNL     1     169.308 146.354 148.999  1.00  0.00     0.093 A 
ATOM      8  C   UNL     1     170.541 145.854 149.417  1.00  0.00     0.123 A 
ATOM      9  C   UNL     1     170.709 145.436 150.738  1.00  0.00     0.094 A 
ATOM     10  C   UNL     1     169.657 145.540 151.652  1.00  0.00     0.146 A 
ATOM     11  O   UNL     1     169.860 145.144 152.903  1.00  0.00    -0.456 OA
ENDROOT
BRANCH   1  12
ATOM     12  C   UNL     1     169.273 144.738 155.218  1.00  0.00     0.021 A 
ATOM     13  C   UNL     1     170.620 144.666 155.614  1.00  0.00     0.016 A 
ATOM     14  C   UNL     1     170.963 144.208 156.889  1.00  0.00     0.051 A 
ATOM     15  C   UNL     1     169.971 143.805 157.787  1.00  0.00     0.157 A 
ATOM     16  C   UNL     1     168.276 144.319 156.122  1.00  0.00     0.062 A 
ATOM     17  C   UNL     1     168.621 143.858 157.402  1.00  0.00     0.158 A 
BRANCH  15  18
ATOM     18  O   UNL     1     170.344 143.355 159.052  1.00  0.00    -0.504 OA
ATOM     19  H   UNL     1     169.854 142.603 159.521  1.00  0.00     0.293 HD
ENDBRANCH  15  18
BRANCH  17  20
ATOM     20  O   UNL     1     167.627 143.447 158.290  1.00  0.00    -0.504 OA
ATOM     21  H   UNL     1     167.828 143.269 159.267  1.00  0.00     0.293 HD
ENDBRANCH  17  20
ENDBRANCH   1  12
BRANCH   6  22
ATOM     22  O   UNL     1     167.011 146.870 149.340  1.00  0.00    -0.507 OA
ATOM     23  H   UNL     1     166.846 147.041 148.359  1.00  0.00     0.293 HD
ENDBRANCH   6  22
BRANCH   8  24
ATOM     24  O   UNL     1     171.592 145.770 148.507  1.00  0.00    -0.508 OA
ATOM     25  H   UNL     1     171.559 145.136 147.716  1.00  0.00     0.293 HD
ENDBRANCH   8  24
TORSDOF 5
ENDMDL
MODEL 4
REMARK VINA RESULT:    -7.397      2.352      6.653
REMARK INTER + INTRA:          -9.008
REMARK INTER:                  -8.726
REMARK INTRA:                  -0.283
REMARK UNBOUND:                -0.314
REMARK SMILES O=c1cc(-c2ccc(O)c(O)c2)oc2cc(O)cc(O)c12
REMARK SMILES IDX 4 1 3 2 2 3 1 4 21 5 19 6 18 7 16 8 15 9 14 10 13 11 5 12
REMARK SMILES IDX 6 13 7 14 8 15 12 16 10 17 9 18 11 20 20 22 17 24
REMARK H PARENT 9 19 11 21 20 23 17 25
REMARK Flexibility Score: inf
ROOT
ATOM      1  C   UNL     1     168.872 146.071 152.497  1.00  0.00     0.138 A 
ATOM      2  C   UNL     1     169.738 145.079 152.018  1.00  0.00     0.100 A 
ATOM      3  C   UNL     1     170.797 144.642 152.816  1.00  0.00     0.197 A 
ATOM      4  O   UNL     1     171.594 143.796 152.335  1.00  0.00    -0.289 OA
ATOM      5  C   UNL     1     170.970 145.183 154.113  1.00  0.00     0.107 A 
ATOM      6  C   UNL     1     171.989 144.785 155.029  1.00  0.00     0.134 A 
ATOM      7  C   UNL     1     172.133 145.472 156.241  1.00  0.00     0.093 A 
ATOM      8  C   UNL     1     171.260 146.500 156.594  1.00  0.00     0.123 A 
ATOM      9  C   UNL     1     170.226 146.861 155.729  1.00  0.00     0.094 A 
ATOM     10  C   UNL     1     170.077 146.218 154.498  1.00  0.00     0.146 A 
ATOM     11  O   UNL     1     169.089 146.600 153.697  1.00  0.00    -0.456 OA
ENDROOT
BRANCH   1  12
ATOM     12  C   UNL     1     167.729 146.570 151.692  1.00  0.00     0.021 A 
ATOM     13  C   UNL     1     167.960 147.066 150.397  1.00  0.00     0.016 A 
ATOM     14  C   UNL     1     166.902 147.547 149.621  1.00  0.00     0.051 A 
ATOM     15  C   UNL     1     165.599 147.552 150.126  1.00  0.00     0.157 A 
ATOM     16  C   UNL     1     166.416 146.588 152.202  1.00  0.00     0.062 A 
ATOM     17  C   UNL     1     165.354 147.074 151.424  1.00  0.00     0.158 A 
BRANCH  15  18
ATOM     18  O   UNL     1     164.564 148.037 149.328  1.00  0.00    -0.504 OA
ATOM     19  H   UNL     1     164.732 148.676 148.560  1.00  0.00     0.293 HD
ENDBRANCH  15  18
BRANCH  17  20
ATOM     20  O   UNL     1     164.058 147.086 151.938  1.00  0.00    -0.504 OA
ATOM     21  H   UNL     1     163.492 146.245 151.973  1.00  0.00     0.293 HD
ENDBRANCH  17  20
ENDBRANCH   1  12
BRANCH   6  22
ATOM     22  O   UNL     1     172.861 143.715 154.812  1.00  0.00    -0.507 OA
ATOM     23  H   UNL     1     172.580 142.793 154.515  1.00  0.00     0.293 HD
ENDBRANCH   6  22
BRANCH   8  24
ATOM     24  O   UNL     1     171.425 147.152 157.815  1.00  0.00    -0.508 OA
ATOM     25  H   UNL     1     171.033 148.072 157.982  1.00  0.00     0.293 HD
ENDBRANCH   8  24
TORSDOF 5
ENDMDL
MODEL 5
REMARK VINA RESULT:    -7.322      1.657      6.943
REMARK INTER + INTRA:          -8.920
REMARK INTER:                  -8.626
REMARK INTRA:                  -0.294
REMARK UNBOUND:                -0.314
REMARK SMILES O=c1cc(-c2ccc(O)c(O)c2)oc2cc(O)cc(O)c12
REMARK SMILES IDX 4 1 3 2 2 3 1 4 21 5 19 6 18 7 16 8 15 9 14 10 13 11 5 12
REMARK SMILES IDX 6 13 7 14 8 15 12 16 10 17 9 18 11 20 20 22 17 24
REMARK H PARENT 9 19 11 21 20 23 17 25
REMARK Flexibility Score: inf
ROOT
ATOM      1  C   UNL     1     168.814 145.774 154.024  1.00  0.00     0.138 A 
ATOM      2  C   UNL     1     170.036 146.341 154.408  1.00  0.00     0.100 A 
ATOM      3  C   UNL     1     170.666 145.903 155.574  1.00  0.00     0.197 A 
ATOM      4  O   UNL     1     171.730 146.475 155.926  1.00  0.00    -0.289 OA
ATOM      5  C   UNL     1     170.080 144.869 156.344  1.00  0.00     0.107 A 
ATOM      6  C   UNL     1     170.650 144.315 157.528  1.00  0.00     0.134 A 
ATOM      7  C   UNL     1     169.924 143.376 158.270  1.00  0.00     0.093 A 
ATOM      8  C   UNL     1     168.675 142.927 157.839  1.00  0.00     0.123 A 
ATOM      9  C   UNL     1     168.131 143.422 156.653  1.00  0.00     0.094 A 
ATOM     10  C   UNL     1     168.817 144.386 155.909  1.00  0.00     0.146 A 
ATOM     11  O   UNL     1     168.259 144.843 154.793  1.00  0.00    -0.456 OA
ENDROOT
BRANCH   1  12
ATOM     12  C   UNL     1     168.103 146.200 152.793  1.00  0.00     0.021 A 
ATOM     13  C   UNL     1     168.831 146.389 151.605  1.00  0.00     0.016 A 
ATOM     14  C   UNL     1     168.186 146.796 150.434  1.00  0.00     0.051 A 
ATOM     15  C   UNL     1     166.809 147.033 150.430  1.00  0.00     0.157 A 
ATOM     16  C   UNL     1     166.717 146.452 152.788  1.00  0.00     0.062 A 
ATOM     17  C   UNL     1     166.070 146.863 151.612  1.00  0.00     0.158 A 
BRANCH  15  18
ATOM     18  O   UNL     1     166.194 147.436 149.246  1.00  0.00    -0.504 OA
ATOM     19  H   UNL     1     166.079 148.414 149.005  1.00  0.00     0.293 HD
ENDBRANCH  15  18
BRANCH  17  20
ATOM     20  O   UNL     1     164.697 147.107 151.617  1.00  0.00    -0.504 OA
ATOM     21  H   UNL     1     164.264 147.722 150.937  1.00  0.00     0.293 HD
ENDBRANCH  17  20
ENDBRANCH   1  12
BRANCH   6  22
ATOM     22  O   UNL     1     171.927 144.631 158.002  1.00  0.00    -0.507 OA
ATOM     23  H   UNL     1     172.785 144.468 157.497  1.00  0.00     0.293 HD
ENDBRANCH   6  22
BRANCH   8  24
ATOM     24  O   UNL     1     167.988 141.981 158.595  1.00  0.00    -0.508 OA
ATOM     25  H   UNL     1     168.392 141.075 158.805  1.00  0.00     0.293 HD
ENDBRANCH   8  24
TORSDOF 5
ENDMDL
MODEL 6
REMARK VINA RESULT:    -7.189      2.384      7.308
REMARK INTER + INTRA:          -8.764
REMARK INTER:                  -8.498
REMARK INTRA:                  -0.266
REMARK UNBOUND:                -0.314
REMARK SMILES O=c1cc(-c2ccc(O)c(O)c2)oc2cc(O)cc(O)c12
REMARK SMILES IDX 4 1 3 2 2 3 1 4 21 5 19 6 18 7 16 8 15 9 14 10 13 11 5 12
REMARK SMILES IDX 6 13 7 14 8 15 12 16 10 17 9 18 11 20 20 22 17 24
REMARK H PARENT 9 19 11 21 20 23 17 25
REMARK Flexibility Score: inf
ROOT
ATOM      1  C   UNL     1     169.525 145.425 151.418  1.00  0.00     0.138 A 
ATOM      2  C   UNL     1     168.244 145.779 151.863  1.00  0.00     0.100 A 
ATOM      3  C   UNL     1     168.014 145.970 153.226  1.00  0.00     0.197 A 
ATOM      4  O   UNL     1     166.841 146.226 153.601  1.00  0.00    -0.289 OA
ATOM      5  C   UNL     1     169.082 145.834 154.145  1.00  0.00     0.107 A 
ATOM      6  C   UNL     1     168.975 146.043 155.552  1.00  0.00     0.134 A 
ATOM      7  C   UNL     1     170.072 145.766 156.377  1.00  0.00     0.093 A 
ATOM      8  C   UNL     1     171.288 145.345 155.841  1.00  0.00     0.123 A 
ATOM      9  C   UNL     1     171.421 145.189 154.460  1.00  0.00     0.094 A 
ATOM     10  C   UNL     1     170.335 145.425 153.614  1.00  0.00     0.146 A 
ATOM     11  O   UNL     1     170.497 145.251 152.307  1.00  0.00    -0.456 OA
ENDROOT
BRANCH   1  12
ATOM     12  C   UNL     1     169.825 145.212 149.980  1.00  0.00     0.021 A 
ATOM     13  C   UNL     1     170.126 143.918 149.520  1.00  0.00     0.016 A 
ATOM     14  C   UNL     1     170.418 143.693 148.172  1.00  0.00     0.051 A 
ATOM     15  C   UNL     1     170.426 144.754 147.263  1.00  0.00     0.157 A 
ATOM     16  C   UNL     1     169.845 146.281 149.062  1.00  0.00     0.062 A 
ATOM     17  C   UNL     1     170.141 146.055 147.710  1.00  0.00     0.158 A 
BRANCH  15  18
ATOM     18  O   UNL     1     170.719 144.498 145.925  1.00  0.00    -0.504 OA
ATOM     19  H   UNL     1     171.661 144.296 145.610  1.00  0.00     0.293 HD
ENDBRANCH  15  18
BRANCH  17  20
ATOM     20  O   UNL     1     170.157 147.120 146.809  1.00  0.00    -0.504 OA
ATOM     21  H   UNL     1     170.913 147.796 146.799  1.00  0.00     0.293 HD
ENDBRANCH  17  20
ENDBRANCH   1  12
BRANCH   6  22
ATOM     22  O   UNL     1     167.831 146.543 156.183  1.00  0.00    -0.507 OA
ATOM     23  H   UNL     1     167.137 147.126 155.740  1.00  0.00     0.293 HD
ENDBRANCH   6  22
BRANCH   8  24
ATOM     24  O   UNL     1     172.363 145.094 156.691  1.00  0.00    -0.508 OA
ATOM     25  H   UNL     1     173.070 144.404 156.461  1.00  0.00     0.293 HD
ENDBRANCH   8  24
TORSDOF 5
ENDMDL
MODEL 7
REMARK VINA RESULT:    -7.128      1.845      6.991
REMARK INTER + INTRA:          -8.692
REMARK INTER:                  -8.399
REMARK INTRA:                  -0.293
REMARK UNBOUND:                -0.314
REMARK SMILES O=c1cc(-c2ccc(O)c(O)c2)oc2cc(O)cc(O)c12
REMARK SMILES IDX 4 1 3 2 2 3 1 4 21 5 19 6 18 7 16 8 15 9 14 10 13 11 5 12
REMARK SMILES IDX 6 13 7 14 8 15 12 16 10 17 9 18 11 20 20 22 17 24
REMARK H PARENT 9 19 11 21 20 23 17 25
REMARK Flexibility Score: inf
ROOT
ATOM      1  C   UNL     1     168.268 146.009 152.515  1.00  0.00     0.138 A 
ATOM      2  C   UNL     1     168.062 146.093 153.899  1.00  0.00     0.100 A 
ATOM      3  C   UNL     1     169.018 145.571 154.772  1.00  0.00     0.197 A 
ATOM      4  O   UNL     1     168.777 145.604 156.007  1.00  0.00    -0.289 OA
ATOM      5  C   UNL     1     170.200 144.989 154.255  1.00  0.00     0.107 A 
ATOM      6  C   UNL     1     171.261 144.460 155.049  1.00  0.00     0.134 A 
ATOM      7  C   UNL     1     172.330 143.804 154.427  1.00  0.00     0.093 A 
ATOM      8  C   UNL     1     172.405 143.710 153.037  1.00  0.00     0.123 A 
ATOM      9  C   UNL     1     171.401 144.270 152.248  1.00  0.00     0.094 A 
ATOM     10  C   UNL     1     170.304 144.901 152.841  1.00  0.00     0.146 A 
ATOM     11  O   UNL     1     169.361 145.410 152.055  1.00  0.00    -0.456 OA
ENDROOT
BRANCH   1  12
ATOM     12  C   UNL     1     167.286 146.550 151.542  1.00  0.00     0.021 A 
ATOM     13  C   UNL     1     167.680 146.769 150.211  1.00  0.00     0.016 A 
ATOM     14  C   UNL     1     166.776 147.283 149.278  1.00  0.00     0.051 A 
ATOM     15  C   UNL     1     165.469 147.598 149.657  1.00  0.00     0.157 A 
ATOM     16  C   UNL     1     165.971 146.880 151.924  1.00  0.00     0.062 A 
ATOM     17  C   UNL     1     165.064 147.398 150.987  1.00  0.00     0.158 A 
BRANCH  15  18
ATOM     18  O   UNL     1     164.590 148.107 148.703  1.00  0.00    -0.504 OA
ATOM     19  H   UNL     1     163.655 147.736 148.581  1.00  0.00     0.293 HD
ENDBRANCH  15  18
BRANCH  17  20
ATOM     20  O   UNL     1     163.763 147.720 151.375  1.00  0.00    -0.504 OA
ATOM     21  H   UNL     1     162.990 147.084 151.220  1.00  0.00     0.293 HD
ENDBRANCH  17  20
ENDBRANCH   1  12
BRANCH   6  22
ATOM     22  O   UNL     1     171.327 144.575 156.441  1.00  0.00    -0.507 OA
ATOM     23  H   UNL     1     171.342 145.448 156.947  1.00  0.00     0.293 HD
ENDBRANCH   6  22
BRANCH   8  24
ATOM     24  O   UNL     1     173.491 143.063 152.451  1.00  0.00    -0.508 OA
ATOM     25  H   UNL     1     173.544 142.051 152.406  1.00  0.00     0.293 HD
ENDBRANCH   8  24
TORSDOF 5
ENDMDL
MODEL 8
REMARK VINA RESULT:    -7.051      3.088      6.987
REMARK INTER + INTRA:          -8.601
REMARK INTER:                  -8.318
REMARK INTRA:                  -0.283
REMARK UNBOUND:                -0.314
REMARK SMILES O=c1cc(-c2ccc(O)c(O)c2)oc2cc(O)cc(O)c12
REMARK SMILES IDX 4 1 3 2 2 3 1 4 21 5 19 6 18 7 16 8 15 9 14 10 13 11 5 12
REMARK SMILES IDX 6 13 7 14 8 15 12 16 10 17 9 18 11 20 20 22 17 24
REMARK H PARENT 9 19 11 21 20 23 17 25
REMARK Flexibility Score: inf
ROOT
ATOM      1  C   UNL     1     169.796 145.157 151.589  1.00  0.00     0.138 A 
ATOM      2  C   UNL     1     170.264 145.313 152.901  1.00  0.00     0.100 A 
ATOM      3  C   UNL     1     171.396 144.612 153.318  1.00  0.00     0.197 A 
ATOM      4  O   UNL     1     171.755 144.724 154.519  1.00  0.00    -0.289 OA
ATOM      5  C   UNL     1     172.080 143.773 152.406  1.00  0.00     0.107 A 
ATOM      6  C   UNL     1     173.267 143.042 152.709  1.00  0.00     0.134 A 
ATOM      7  C   UNL     1     173.791 142.153 151.761  1.00  0.00     0.093 A 
ATOM      8  C   UNL     1     173.206 142.015 150.503  1.00  0.00     0.123 A 
ATOM      9  C   UNL     1     172.076 142.766 150.177  1.00  0.00     0.094 A 
ATOM     10  C   UNL     1     171.510 143.635 151.113  1.00  0.00     0.146 A 
ATOM     11  O   UNL     1     170.426 144.322 150.769  1.00  0.00    -0.456 OA
ENDROOT
BRANCH   1  12
ATOM     12  C   UNL     1     168.599 145.880 151.092  1.00  0.00     0.021 A 
ATOM     13  C   UNL     1     168.568 146.336 149.763  1.00  0.00     0.016 A 
ATOM     14  C   UNL     1     167.455 147.025 149.273  1.00  0.00     0.051 A 
ATOM     15  C   UNL     1     166.359 147.279 150.101  1.00  0.00     0.157 A 
ATOM     16  C   UNL     1     167.497 146.149 151.928  1.00  0.00     0.062 A 
ATOM     17  C   UNL     1     166.380 146.842 151.436  1.00  0.00     0.158 A 
BRANCH  15  18
ATOM     18  O   UNL     1     165.263 147.966 149.583  1.00  0.00    -0.504 OA
ATOM     19  H   UNL     1     164.707 148.596 150.150  1.00  0.00     0.293 HD
ENDBRANCH  15  18
BRANCH  17  20
ATOM     20  O   UNL     1     165.293 147.102 152.271  1.00  0.00    -0.504 OA
ATOM     21  H   UNL     1     165.169 146.610 153.148  1.00  0.00     0.293 HD
ENDBRANCH  17  20
ENDBRANCH   1  12
BRANCH   6  22
ATOM     22  O   UNL     1     173.981 143.169 153.904  1.00  0.00    -0.507 OA
ATOM     23  H   UNL     1     174.806 142.640 154.142  1.00  0.00     0.293 HD
ENDBRANCH   6  22
BRANCH   8  24
ATOM     24  O   UNL     1     173.763 141.133 149.580  1.00  0.00    -0.508 OA
ATOM     25  H   UNL     1     173.902 141.397 148.611  1.00  0.00     0.293 HD
ENDBRANCH   8  24
TORSDOF 5
ENDMDL
MODEL 9
REMARK VINA RESULT:    -6.982      2.716      6.773
REMARK INTER + INTRA:          -8.520
REMARK INTER:                  -8.215
REMARK INTRA:                  -0.305
REMARK UNBOUND:                -0.314
REMARK SMILES O=c1cc(-c2ccc(O)c(O)c2)oc2cc(O)cc(O)c12
REMARK SMILES IDX 4 1 3 2 2 3 1 4 21 5 19 6 18 7 16 8 15 9 14 10 13 11 5 12
REMARK SMILES IDX 6 13 7 14 8 15 12 16 10 17 9 18 11 20 20 22 17 24
REMARK H PARENT 9 19 11 21 20 23 17 25
REMARK Flexibility Score: inf
ROOT
ATOM      1  C   UNL     1     169.754 145.165 151.273  1.00  0.00     0.138 A 
ATOM      2  C   UNL     1     170.460 144.434 150.309  1.00  0.00     0.100 A 
ATOM      3  C   UNL     1     171.613 143.738 150.677  1.00  0.00     0.197 A 
ATOM      4  O   UNL     1     172.261 143.142 149.778  1.00  0.00    -0.289 OA
ATOM      5  C   UNL     1     172.042 143.752 152.026  1.00  0.00     0.107 A 
ATOM      6  C   UNL     1     173.178 143.048 152.524  1.00  0.00     0.134 A 
ATOM      7  C   UNL     1     173.574 143.229 153.855  1.00  0.00     0.093 A 
ATOM      8  C   UNL     1     172.841 144.040 154.720  1.00  0.00     0.123 A 
ATOM      9  C   UNL     1     171.696 144.691 154.258  1.00  0.00     0.094 A 
ATOM     10  C   UNL     1     171.295 144.558 152.926  1.00  0.00     0.146 A 
ATOM     11  O   UNL     1     170.208 145.205 152.522  1.00  0.00    -0.456 OA
ENDROOT
BRANCH   1  12
ATOM     12  C   UNL     1     168.521 145.921 150.937  1.00  0.00     0.021 A 
ATOM     13  C   UNL     1     168.377 146.473 149.653  1.00  0.00     0.016 A 
ATOM     14  C   UNL     1     167.229 147.194 149.314  1.00  0.00     0.051 A 
ATOM     15  C   UNL     1     166.211 147.385 150.251  1.00  0.00     0.157 A 
ATOM     16  C   UNL     1     167.498 146.126 151.884  1.00  0.00     0.062 A 
ATOM     17  C   UNL     1     166.346 146.852 151.543  1.00  0.00     0.158 A 
BRANCH  15  18
ATOM     18  O   UNL     1     165.077 148.107 149.883  1.00  0.00    -0.504 OA
ATOM     19  H   UNL     1     164.206 148.039 150.396  1.00  0.00     0.293 HD
ENDBRANCH  15  18
BRANCH  17  20
ATOM     20  O   UNL     1     165.338 147.049 152.488  1.00  0.00    -0.504 OA
ATOM     21  H   UNL     1     164.621 147.753 152.359  1.00  0.00     0.293 HD
ENDBRANCH  17  20
ENDBRANCH   1  12
BRANCH   6  22
ATOM     22  O   UNL     1     173.932 142.145 151.768  1.00  0.00    -0.507 OA
ATOM     23  H   UNL     1     174.406 141.336 152.140  1.00  0.00     0.293 HD
ENDBRANCH   6  22
BRANCH   8  24
ATOM     24  O   UNL     1     173.255 144.185 156.043  1.00  0.00    -0.508 OA
ATOM     25  H   UNL     1     173.255 143.402 156.687  1.00  0.00     0.293 HD
ENDBRANCH   8  24
TORSDOF 5
ENDMDL
