MODEL 1
REMARK VINA RESULT:    -0.318      0.000      0.000
REMARK INTER + INTRA:          -2.120
REMARK INTER:                  -0.838
REMARK INTRA:                  -1.282
REMARK UNBOUND:                -1.282
REMARK SMILES CCCCCCCCCCCCCCCCCCCCCCCCCCCCCC(=O)[O-]
REMARK SMILES IDX 16 1 17 2 18 3 19 4 20 5 21 6 22 7 23 8 24 9 25 10 26 11
REMARK SMILES IDX 27 12 28 13 29 14 30 15 31 16 32 17 15 18 14 19 13 20 12 21
REMARK SMILES IDX 11 22 10 23 9 24 8 25 7 26 6 27 5 28 4 29 3 30 2 31 1 32
REMARK H PARENT
REMARK Flexibility Score: inf
ROOT
ATOM      1  C   UNL     1      15.291  40.636   6.605  1.00  0.00     0.000 C 
ENDROOT
BRANCH   1   2
ATOM      2  C   UNL     1      14.500  41.928   6.306  1.00  0.00     0.000 C 
BRANCH   2   3
ATOM      3  C   UNL     1      14.630  42.420   4.852  1.00  0.00     0.000 C 
BRANCH   3   4
ATOM      4  C   UNL     1      13.298  42.449   4.075  1.00  0.00     0.000 C 
BRANCH   4   5
ATOM      5  C   UNL     1      13.452  41.976   2.621  1.00  0.00     0.000 C 
BRANCH   5   6
ATOM      6  C   UNL     1      13.051  43.086   1.641  1.00  0.00     0.000 C 
BRANCH   6   7
ATOM      7  C   UNL     1      14.222  44.018   1.280  1.00  0.00     0.000 C 
BRANCH   7   8
ATOM      8  C   UNL     1      15.603  43.561   1.794  1.00  0.00     0.000 C 
BRANCH   8   9
ATOM      9  C   UNL     1      16.771  44.506   1.450  1.00  0.00     0.000 C 
BRANCH   9  10
ATOM     10  C   UNL     1      16.616  45.281   0.125  1.00  0.00     0.000 C 
BRANCH  10  11
ATOM     11  C   UNL     1      16.266  46.772   0.284  1.00  0.00     0.000 C 
BRANCH  11  12
ATOM     12  C   UNL     1      16.148  47.503  -1.063  1.00  0.00     0.000 C 
BRANCH  12  13
ATOM     13  C   UNL     1      14.708  47.444  -1.594  1.00  0.00     0.006 C 
BRANCH  13  14
ATOM     14  C   UNL     1      14.161  46.009  -1.636  1.00  0.00     0.053 C 
BRANCH  14  15
ATOM     15  C   UNL     1      12.828  45.893  -0.961  1.00  0.00     0.041 C 
ATOM     16  O   UNL     1      12.447  46.776  -0.149  1.00  0.00    -0.550 OA
ATOM     17  O   UNL     1      12.007  44.805  -1.229  1.00  0.00    -0.550 OA
ENDBRANCH  14  15
ENDBRANCH  13  14
ENDBRANCH  12  13
ENDBRANCH  11  12
ENDBRANCH  10  11
ENDBRANCH   9  10
ENDBRANCH   8   9
ENDBRANCH   7   8
ENDBRANCH   6   7
ENDBRANCH   5   6
ENDBRANCH   4   5
ENDBRANCH   3   4
ENDBRANCH   2   3
ENDBRANCH   1   2
BRANCH   1  18
ATOM     18  C   UNL     1      16.736  40.894   7.075  1.00  0.00     0.000 C 
BRANCH  18  19
ATOM     19  C   UNL     1      16.804  41.244   8.572  1.00  0.00     0.000 C 
BRANCH  19  20
ATOM     20  C   UNL     1      16.622  42.749   8.841  1.00  0.00     0.000 C 
BRANCH  20  21
ATOM     21  C   UNL     1      16.103  43.101  10.247  1.00  0.00     0.000 C 
BRANCH  21  22
ATOM     22  C   UNL     1      16.756  42.317  11.402  1.00  0.00     0.000 C 
BRANCH  22  23
ATOM     23  C   UNL     1      16.342  42.810  12.806  1.00  0.00     0.000 C 
BRANCH  23  24
ATOM     24  C   UNL     1      16.942  41.953  13.933  1.00  0.00    -0.000 C 
BRANCH  24  25
ATOM     25  C   UNL     1      16.572  40.466  13.811  1.00  0.00    -0.000 C 
BRANCH  25  26
ATOM     26  C   UNL     1      15.051  40.236  13.760  1.00  0.00    -0.000 C 
BRANCH  26  27
ATOM     27  C   UNL     1      14.660  38.789  14.093  1.00  0.00    -0.000 C 
BRANCH  27  28
ATOM     28  C   UNL     1      14.752  37.852  12.875  1.00  0.00    -0.000 C 
BRANCH  28  29
ATOM     29  C   UNL     1      14.654  38.621  11.541  1.00  0.00    -0.000 C 
BRANCH  29  30
ATOM     30  C   UNL     1      14.360  37.717  10.332  1.00  0.00    -0.000 C 
BRANCH  30  31
ATOM     31  C   UNL     1      14.531  38.441   8.989  1.00  0.00    -0.003 C 
ATOM     32  C   UNL     1      13.454  38.013   7.993  1.00  0.00     0.004 C 
ENDBRANCH  30  31
ENDBRANCH  29  30
ENDBRANCH  28  29
ENDBRANCH  27  28
ENDBRANCH  26  27
ENDBRANCH  25  26
ENDBRANCH  24  25
ENDBRANCH  23  24
ENDBRANCH  22  23
ENDBRANCH  21  22
ENDBRANCH  20  21
ENDBRANCH  19  20
ENDBRANCH  18  19
ENDBRANCH   1  18
TORSDOF 28
ENDMDL
MODEL 2
REMARK VINA RESULT:    -0.229      1.347      2.035
REMARK INTER + INTRA:          -1.885
REMARK INTER:                  -0.022
REMARK INTRA:                  -1.863
REMARK UNBOUND:                -1.282
REMARK SMILES CCCCCCCCCCCCCCCCCCCCCCCCCCCCCC(=O)[O-]
REMARK SMILES IDX 16 1 17 2 18 3 19 4 20 5 21 6 22 7 23 8 24 9 25 10 26 11
REMARK SMILES IDX 27 12 28 13 29 14 30 15 31 16 32 17 15 18 14 19 13 20 12 21
REMARK SMILES IDX 11 22 10 23 9 24 8 25 7 26 6 27 5 28 4 29 3 30 2 31 1 32
REMARK H PARENT
REMARK Flexibility Score: inf
ROOT
ATOM      1  C   UNL     1      16.088  41.196   6.878  1.00  0.00     0.000 C 
ENDROOT
BRANCH   1   2
ATOM      2  C   UNL     1      16.012  42.366   5.874  1.00  0.00     0.000 C 
BRANCH   2   3
ATOM      3  C   UNL     1      17.125  42.349   4.808  1.00  0.00     0.000 C 
BRANCH   3   4
ATOM      4  C   UNL     1      16.989  43.451   3.738  1.00  0.00     0.000 C 
BRANCH   4   5
ATOM      5  C   UNL     1      15.572  43.533   3.150  1.00  0.00     0.000 C 
BRANCH   5   6
ATOM      6  C   UNL     1      15.611  44.010   1.692  1.00  0.00     0.000 C 
BRANCH   6   7
ATOM      7  C   UNL     1      16.914  44.748   1.339  1.00  0.00     0.000 C 
BRANCH   7   8
ATOM      8  C   UNL     1      16.959  45.350  -0.080  1.00  0.00     0.000 C 
BRANCH   8   9
ATOM      9  C   UNL     1      16.922  46.890  -0.136  1.00  0.00     0.000 C 
BRANCH   9  10
ATOM     10  C   UNL     1      16.803  47.490  -1.553  1.00  0.00     0.000 C 
BRANCH  10  11
ATOM     11  C   UNL     1      15.409  47.365  -2.195  1.00  0.00     0.000 C 
BRANCH  11  12
ATOM     12  C   UNL     1      14.608  46.170  -1.654  1.00  0.00     0.000 C 
BRANCH  12  13
ATOM     13  C   UNL     1      13.504  46.639  -0.694  1.00  0.00     0.006 C 
BRANCH  13  14
ATOM     14  C   UNL     1      13.006  45.507   0.217  1.00  0.00     0.053 C 
BRANCH  14  15
ATOM     15  C   UNL     1      12.365  44.397  -0.559  1.00  0.00     0.041 C 
ATOM     16  O   UNL     1      12.934  43.278  -0.656  1.00  0.00    -0.550 OA
ATOM     17  O   UNL     1      11.139  44.600  -1.178  1.00  0.00    -0.550 OA
ENDBRANCH  14  15
ENDBRANCH  13  14
ENDBRANCH  12  13
ENDBRANCH  11  12
ENDBRANCH  10  11
ENDBRANCH   9  10
ENDBRANCH   8   9
ENDBRANCH   7   8
ENDBRANCH   6   7
ENDBRANCH   5   6
ENDBRANCH   4   5
ENDBRANCH   3   4
ENDBRANCH   2   3
ENDBRANCH   1   2
BRANCH   1  18
ATOM     18  C   UNL     1      17.097  41.429   8.019  1.00  0.00     0.000 C 
BRANCH  18  19
ATOM     19  C   UNL     1      16.418  41.434   9.401  1.00  0.00     0.000 C 
BRANCH  19  20
ATOM     20  C   UNL     1      16.178  42.856   9.941  1.00  0.00     0.000 C 
BRANCH  20  21
ATOM     21  C   UNL     1      16.744  43.122  11.348  1.00  0.00     0.000 C 
BRANCH  21  22
ATOM     22  C   UNL     1      15.700  43.516  12.411  1.00  0.00     0.000 C 
BRANCH  22  23
ATOM     23  C   UNL     1      16.207  43.388  13.864  1.00  0.00     0.000 C 
BRANCH  23  24
ATOM     24  C   UNL     1      17.053  42.123  14.085  1.00  0.00    -0.000 C 
BRANCH  24  25
ATOM     25  C   UNL     1      16.217  40.834  14.041  1.00  0.00    -0.000 C 
BRANCH  25  26
ATOM     26  C   UNL     1      16.654  39.884  12.911  1.00  0.00    -0.000 C 
BRANCH  26  27
ATOM     27  C   UNL     1      16.750  38.422  13.372  1.00  0.00    -0.000 C 
BRANCH  27  28
ATOM     28  C   UNL     1      16.407  37.421  12.254  1.00  0.00    -0.000 C 
BRANCH  28  29
ATOM     29  C   UNL     1      14.973  37.617  11.717  1.00  0.00    -0.000 C 
BRANCH  29  30
ATOM     30  C   UNL     1      14.859  37.447  10.193  1.00  0.00    -0.000 C 
BRANCH  30  31
ATOM     31  C   UNL     1      13.905  38.462   9.548  1.00  0.00    -0.003 C 
ATOM     32  C   UNL     1      14.039  38.452   8.027  1.00  0.00     0.004 C 
ENDBRANCH  30  31
ENDBRANCH  29  30
ENDBRANCH  28  29
ENDBRANCH  27  28
ENDBRANCH  26  27
ENDBRANCH  25  26
ENDBRANCH  24  25
ENDBRANCH  23  24
ENDBRANCH  22  23
ENDBRANCH  21  22
ENDBRANCH  20  21
ENDBRANCH  19  20
ENDBRANCH  18  19
ENDBRANCH   1  18
TORSDOF 28
ENDMDL
MODEL 3
REMARK VINA RESULT:    -0.182      0.991      1.927
REMARK INTER + INTRA:          -1.761
REMARK INTER:                   0.630
REMARK INTRA:                  -2.390
REMARK UNBOUND:                -1.282
REMARK SMILES CCCCCCCCCCCCCCCCCCCCCCCCCCCCCC(=O)[O-]
REMARK SMILES IDX 16 1 17 2 18 3 19 4 20 5 21 6 22 7 23 8 24 9 25 10 26 11
REMARK SMILES IDX 27 12 28 13 29 14 30 15 31 16 32 17 15 18 14 19 13 20 12 21
REMARK SMILES IDX 11 22 10 23 9 24 8 25 7 26 6 27 5 28 4 29 3 30 2 31 1 32
REMARK H PARENT
REMARK Flexibility Score: inf
ROOT
ATOM      1  C   UNL     1      14.310  40.922   5.863  1.00  0.00     0.000 C 
ENDROOT
BRANCH   1   2
ATOM      2  C   UNL     1      14.478  42.264   5.119  1.00  0.00     0.000 C 
BRANCH   2   3
ATOM      3  C   UNL     1      13.496  42.458   3.947  1.00  0.00     0.000 C 
BRANCH   3   4
ATOM      4  C   UNL     1      14.140  43.053   2.678  1.00  0.00     0.000 C 
BRANCH   4   5
ATOM      5  C   UNL     1      15.657  43.250   2.821  1.00  0.00     0.000 C 
BRANCH   5   6
ATOM      6  C   UNL     1      16.109  44.541   2.125  1.00  0.00     0.000 C 
BRANCH   6   7
ATOM      7  C   UNL     1      16.888  44.278   0.824  1.00  0.00     0.000 C 
BRANCH   7   8
ATOM      8  C   UNL     1      17.090  45.513  -0.078  1.00  0.00     0.000 C 
BRANCH   8   9
ATOM      9  C   UNL     1      16.682  46.856   0.557  1.00  0.00     0.000 C 
BRANCH   9  10
ATOM     10  C   UNL     1      16.293  47.962  -0.447  1.00  0.00     0.000 C 
BRANCH  10  11
ATOM     11  C   UNL     1      15.855  47.455  -1.833  1.00  0.00     0.000 C 
BRANCH  11  12
ATOM     12  C   UNL     1      14.901  46.252  -1.753  1.00  0.00     0.000 C 
BRANCH  12  13
ATOM     13  C   UNL     1      13.617  46.619  -0.995  1.00  0.00     0.006 C 
BRANCH  13  14
ATOM     14  C   UNL     1      13.205  45.534   0.011  1.00  0.00     0.053 C 
BRANCH  14  15
ATOM     15  C   UNL     1      12.301  44.508  -0.603  1.00  0.00     0.041 C 
ATOM     16  O   UNL     1      12.532  43.281  -0.445  1.00  0.00    -0.550 OA
ATOM     17  O   UNL     1      11.203  44.911  -1.351  1.00  0.00    -0.550 OA
ENDBRANCH  14  15
ENDBRANCH  13  14
ENDBRANCH  12  13
ENDBRANCH  11  12
ENDBRANCH  10  11
ENDBRANCH   9  10
ENDBRANCH   8   9
ENDBRANCH   7   8
ENDBRANCH   6   7
ENDBRANCH   5   6
ENDBRANCH   4   5
ENDBRANCH   3   4
ENDBRANCH   2   3
ENDBRANCH   1   2
BRANCH   1  18
ATOM     18  C   UNL     1      15.138  40.830   7.159  1.00  0.00     0.000 C 
BRANCH  18  19
ATOM     19  C   UNL     1      16.529  41.470   7.005  1.00  0.00     0.000 C 
BRANCH  19  20
ATOM     20  C   UNL     1      17.124  41.930   8.349  1.00  0.00     0.000 C 
BRANCH  20  21
ATOM     21  C   UNL     1      16.305  43.003   9.090  1.00  0.00     0.000 C 
BRANCH  21  22
ATOM     22  C   UNL     1      16.830  43.377  10.490  1.00  0.00     0.000 C 
BRANCH  22  23
ATOM     23  C   UNL     1      16.554  42.306  11.569  1.00  0.00     0.000 C 
BRANCH  23  24
ATOM     24  C   UNL     1      16.378  42.912  12.971  1.00  0.00    -0.000 C 
BRANCH  24  25
ATOM     25  C   UNL     1      16.841  41.966  14.091  1.00  0.00    -0.000 C 
BRANCH  25  26
ATOM     26  C   UNL     1      16.865  40.492  13.648  1.00  0.00    -0.000 C 
BRANCH  26  27
ATOM     27  C   UNL     1      15.508  39.797  13.836  1.00  0.00    -0.000 C 
BRANCH  27  28
ATOM     28  C   UNL     1      15.357  38.541  12.959  1.00  0.00    -0.000 C 
BRANCH  28  29
ATOM     29  C   UNL     1      16.321  38.552  11.754  1.00  0.00    -0.000 C 
BRANCH  29  30
ATOM     30  C   UNL     1      15.636  38.906  10.423  1.00  0.00    -0.000 C 
BRANCH  30  31
ATOM     31  C   UNL     1      14.154  38.506  10.389  1.00  0.00    -0.003 C 
ATOM     32  C   UNL     1      13.805  37.802   9.080  1.00  0.00     0.004 C 
ENDBRANCH  30  31
ENDBRANCH  29  30
ENDBRANCH  28  29
ENDBRANCH  27  28
ENDBRANCH  26  27
ENDBRANCH  25  26
ENDBRANCH  24  25
ENDBRANCH  23  24
ENDBRANCH  22  23
ENDBRANCH  21  22
ENDBRANCH  20  21
ENDBRANCH  19  20
ENDBRANCH  18  19
ENDBRANCH   1  18
TORSDOF 28
ENDMDL
MODEL 4
REMARK VINA RESULT:    -0.086      2.030      4.924
REMARK INTER + INTRA:          -1.509
REMARK INTER:                   0.561
REMARK INTRA:                  -2.070
REMARK UNBOUND:                -1.282
REMARK SMILES CCCCCCCCCCCCCCCCCCCCCCCCCCCCCC(=O)[O-]
REMARK SMILES IDX 16 1 17 2 18 3 19 4 20 5 21 6 22 7 23 8 24 9 25 10 26 11
REMARK SMILES IDX 27 12 28 13 29 14 30 15 31 16 32 17 15 18 14 19 13 20 12 21
REMARK SMILES IDX 11 22 10 23 9 24 8 25 7 26 6 27 5 28 4 29 3 30 2 31 1 32
REMARK H PARENT
REMARK Flexibility Score: inf
ROOT
ATOM      1  C   UNL     1      17.073  43.450   4.395  1.00  0.00     0.000 C 
ENDROOT
BRANCH   1   2
ATOM      2  C   UNL     1      16.638  43.456   2.914  1.00  0.00     0.000 C 
BRANCH   2   3
ATOM      3  C   UNL     1      17.114  44.692   2.126  1.00  0.00     0.000 C 
BRANCH   3   4
ATOM      4  C   UNL     1      16.324  44.954   0.828  1.00  0.00     0.000 C 
BRANCH   4   5
ATOM      5  C   UNL     1      17.124  45.773  -0.197  1.00  0.00     0.000 C 
BRANCH   5   6
ATOM      6  C   UNL     1      16.503  47.162  -0.393  1.00  0.00     0.000 C 
BRANCH   6   7
ATOM      7  C   UNL     1      15.711  47.283  -1.708  1.00  0.00     0.000 C 
BRANCH   7   8
ATOM      8  C   UNL     1      14.184  47.419  -1.541  1.00  0.00     0.000 C 
BRANCH   8   9
ATOM      9  C   UNL     1      13.590  46.660  -0.338  1.00  0.00     0.000 C 
BRANCH   9  10
ATOM     10  C   UNL     1      12.513  45.613  -0.694  1.00  0.00     0.000 C 
BRANCH  10  11
ATOM     11  C   UNL     1      13.018  44.160  -0.758  1.00  0.00     0.000 C 
BRANCH  11  12
ATOM     12  C   UNL     1      12.360  43.254   0.294  1.00  0.00     0.000 C 
BRANCH  12  13
ATOM     13  C   UNL     1      13.304  43.019   1.483  1.00  0.00     0.006 C 
BRANCH  13  14
ATOM     14  C   UNL     1      13.094  41.641   2.129  1.00  0.00     0.053 C 
BRANCH  14  15
ATOM     15  C   UNL     1      12.815  41.742   3.598  1.00  0.00     0.041 C 
ATOM     16  O   UNL     1      11.856  41.104   4.108  1.00  0.00    -0.550 OA
ATOM     17  O   UNL     1      13.614  42.543   4.402  1.00  0.00    -0.550 OA
ENDBRANCH  14  15
ENDBRANCH  13  14
ENDBRANCH  12  13
ENDBRANCH  11  12
ENDBRANCH  10  11
ENDBRANCH   9  10
ENDBRANCH   8   9
ENDBRANCH   7   8
ENDBRANCH   6   7
ENDBRANCH   5   6
ENDBRANCH   4   5
ENDBRANCH   3   4
ENDBRANCH   2   3
ENDBRANCH   1   2
BRANCH   1  18
ATOM     18  C   UNL     1      17.070  42.047   5.031  1.00  0.00     0.000 C 
BRANCH  18  19
ATOM     19  C   UNL     1      17.109  42.108   6.569  1.00  0.00     0.000 C 
BRANCH  19  20
ATOM     20  C   UNL     1      15.727  42.387   7.188  1.00  0.00     0.000 C 
BRANCH  20  21
ATOM     21  C   UNL     1      15.421  41.602   8.477  1.00  0.00     0.000 C 
BRANCH  21  22
ATOM     22  C   UNL     1      15.952  40.155   8.505  1.00  0.00     0.000 C 
BRANCH  22  23
ATOM     23  C   UNL     1      15.653  39.404   9.821  1.00  0.00     0.000 C 
BRANCH  23  24
ATOM     24  C   UNL     1      14.643  38.260   9.632  1.00  0.00    -0.000 C 
BRANCH  24  25
ATOM     25  C   UNL     1      14.821  37.133  10.662  1.00  0.00    -0.000 C 
BRANCH  25  26
ATOM     26  C   UNL     1      14.802  37.649  12.112  1.00  0.00    -0.000 C 
BRANCH  26  27
ATOM     27  C   UNL     1      16.212  37.898  12.669  1.00  0.00    -0.000 C 
BRANCH  27  28
ATOM     28  C   UNL     1      16.230  38.944  13.798  1.00  0.00    -0.000 C 
BRANCH  28  29
ATOM     29  C   UNL     1      16.758  40.312  13.317  1.00  0.00    -0.000 C 
BRANCH  29  30
ATOM     30  C   UNL     1      16.079  41.509  14.004  1.00  0.00    -0.000 C 
BRANCH  30  31
ATOM     31  C   UNL     1      16.223  42.814  13.210  1.00  0.00    -0.003 C 
ATOM     32  C   UNL     1      16.063  44.031  14.119  1.00  0.00     0.004 C 
ENDBRANCH  30  31
ENDBRANCH  29  30
ENDBRANCH  28  29
ENDBRANCH  27  28
ENDBRANCH  26  27
ENDBRANCH  25  26
ENDBRANCH  24  25
ENDBRANCH  23  24
ENDBRANCH  22  23
ENDBRANCH  21  22
ENDBRANCH  20  21
ENDBRANCH  19  20
ENDBRANCH  18  19
ENDBRANCH   1  18
TORSDOF 28
ENDMDL
MODEL 5
REMARK VINA RESULT:    -0.014      2.327      4.502
REMARK INTER + INTRA:          -1.317
REMARK INTER:                   0.259
REMARK INTRA:                  -1.576
REMARK UNBOUND:                -1.282
REMARK SMILES CCCCCCCCCCCCCCCCCCCCCCCCCCCCCC(=O)[O-]
REMARK SMILES IDX 16 1 17 2 18 3 19 4 20 5 21 6 22 7 23 8 24 9 25 10 26 11
REMARK SMILES IDX 27 12 28 13 29 14 30 15 31 16 32 17 15 18 14 19 13 20 12 21
REMARK SMILES IDX 11 22 10 23 9 24 8 25 7 26 6 27 5 28 4 29 3 30 2 31 1 32
REMARK H PARENT
REMARK Flexibility Score: inf
ROOT
ATOM      1  C   UNL     1      14.435  38.760   7.590  1.00  0.00     0.000 C 
ENDROOT
BRANCH   1   2
ATOM      2  C   UNL     1      14.586  40.269   7.300  1.00  0.00     0.000 C 
BRANCH   2   3
ATOM      3  C   UNL     1      16.020  40.802   7.486  1.00  0.00     0.000 C 
BRANCH   3   4
ATOM      4  C   UNL     1      16.244  42.217   6.915  1.00  0.00     0.000 C 
BRANCH   4   5
ATOM      5  C   UNL     1      15.856  42.325   5.432  1.00  0.00     0.000 C 
BRANCH   5   6
ATOM      6  C   UNL     1      17.100  42.502   4.552  1.00  0.00     0.000 C 
BRANCH   6   7
ATOM      7  C   UNL     1      17.125  43.853   3.814  1.00  0.00     0.000 C 
BRANCH   7   8
ATOM      8  C   UNL     1      16.152  43.964   2.623  1.00  0.00     0.000 C 
BRANCH   8   9
ATOM      9  C   UNL     1      16.820  44.237   1.261  1.00  0.00     0.000 C 
BRANCH   9  10
ATOM     10  C   UNL     1      16.847  45.720   0.832  1.00  0.00     0.000 C 
BRANCH  10  11
ATOM     11  C   UNL     1      15.475  46.313   0.461  1.00  0.00     0.000 C 
BRANCH  11  12
ATOM     12  C   UNL     1      15.170  46.214  -1.042  1.00  0.00     0.000 C 
BRANCH  12  13
ATOM     13  C   UNL     1      13.656  46.223  -1.296  1.00  0.00     0.006 C 
BRANCH  13  14
ATOM     14  C   UNL     1      12.900  45.280  -0.347  1.00  0.00     0.053 C 
BRANCH  14  15
ATOM     15  C   UNL     1      11.968  44.366  -1.082  1.00  0.00     0.041 C 
ATOM     16  O   UNL     1      11.059  44.839  -1.814  1.00  0.00    -0.550 OA
ATOM     17  O   UNL     1      12.103  42.990  -0.958  1.00  0.00    -0.550 OA
ENDBRANCH  14  15
ENDBRANCH  13  14
ENDBRANCH  12  13
ENDBRANCH  11  12
ENDBRANCH  10  11
ENDBRANCH   9  10
ENDBRANCH   8   9
ENDBRANCH   7   8
ENDBRANCH   6   7
ENDBRANCH   5   6
ENDBRANCH   4   5
ENDBRANCH   3   4
ENDBRANCH   2   3
ENDBRANCH   1   2
BRANCH   1  18
ATOM     18  C   UNL     1      14.916  38.352   8.996  1.00  0.00     0.000 C 
BRANCH  18  19
ATOM     19  C   UNL     1      13.777  38.388  10.031  1.00  0.00     0.000 C 
BRANCH  19  20
ATOM     20  C   UNL     1      14.215  37.872  11.414  1.00  0.00     0.000 C 
BRANCH  20  21
ATOM     21  C   UNL     1      15.695  38.114  11.760  1.00  0.00     0.000 C 
BRANCH  21  22
ATOM     22  C   UNL     1      16.086  39.589  11.973  1.00  0.00     0.000 C 
BRANCH  22  23
ATOM     23  C   UNL     1      16.832  39.854  13.300  1.00  0.00     0.000 C 
BRANCH  23  24
ATOM     24  C   UNL     1      16.314  41.105  14.029  1.00  0.00    -0.000 C 
BRANCH  24  25
ATOM     25  C   UNL     1      17.024  42.392  13.579  1.00  0.00    -0.000 C 
BRANCH  25  26
ATOM     26  C   UNL     1      16.223  43.661  13.921  1.00  0.00    -0.000 C 
BRANCH  26  27
ATOM     27  C   UNL     1      14.883  43.734  13.175  1.00  0.00    -0.000 C 
BRANCH  27  28
ATOM     28  C   UNL     1      13.681  43.895  14.124  1.00  0.00    -0.000 C 
BRANCH  28  29
ATOM     29  C   UNL     1      12.924  45.218  13.885  1.00  0.00    -0.000 C 
BRANCH  29  30
ATOM     30  C   UNL     1      12.717  45.547  12.397  1.00  0.00    -0.000 C 
BRANCH  30  31
ATOM     31  C   UNL     1      12.296  47.004  12.160  1.00  0.00    -0.003 C 
ATOM     32  C   UNL     1      11.780  47.644  13.447  1.00  0.00     0.004 C 
ENDBRANCH  30  31
ENDBRANCH  29  30
ENDBRANCH  28  29
ENDBRANCH  27  28
ENDBRANCH  26  27
ENDBRANCH  25  26
ENDBRANCH  24  25
ENDBRANCH  23  24
ENDBRANCH  22  23
ENDBRANCH  21  22
ENDBRANCH  20  21
ENDBRANCH  19  20
ENDBRANCH  18  19
ENDBRANCH   1  18
TORSDOF 28
ENDMDL
MODEL 6
REMARK VINA RESULT:     0.069      1.948      3.771
REMARK INTER + INTRA:          -1.099
REMARK INTER:                   1.180
REMARK INTRA:                  -2.278
REMARK UNBOUND:                -1.282
REMARK SMILES CCCCCCCCCCCCCCCCCCCCCCCCCCCCCC(=O)[O-]
REMARK SMILES IDX 16 1 17 2 18 3 19 4 20 5 21 6 22 7 23 8 24 9 25 10 26 11
REMARK SMILES IDX 27 12 28 13 29 14 30 15 31 16 32 17 15 18 14 19 13 20 12 21
REMARK SMILES IDX 11 22 10 23 9 24 8 25 7 26 6 27 5 28 4 29 3 30 2 31 1 32
REMARK H PARENT
REMARK Flexibility Score: inf
ROOT
ATOM      1  C   UNL     1      16.198  42.875   4.360  1.00  0.00     0.000 C 
ENDROOT
BRANCH   1   2
ATOM      2  C   UNL     1      17.125  43.805   3.547  1.00  0.00     0.000 C 
BRANCH   2   3
ATOM      3  C   UNL     1      16.437  44.481   2.346  1.00  0.00     0.000 C 
BRANCH   3   4
ATOM      4  C   UNL     1      16.882  43.933   0.975  1.00  0.00     0.000 C 
BRANCH   4   5
ATOM      5  C   UNL     1      16.773  44.980  -0.144  1.00  0.00     0.000 C 
BRANCH   5   6
ATOM      6  C   UNL     1      16.930  46.399   0.417  1.00  0.00     0.000 C 
BRANCH   6   7
ATOM      7  C   UNL     1      16.687  47.491  -0.640  1.00  0.00     0.000 C 
BRANCH   7   8
ATOM      8  C   UNL     1      15.300  47.452  -1.314  1.00  0.00     0.000 C 
BRANCH   8   9
ATOM      9  C   UNL     1      14.138  47.039  -0.389  1.00  0.00     0.000 C 
BRANCH   9  10
ATOM     10  C   UNL     1      13.291  45.853  -0.895  1.00  0.00     0.000 C 
BRANCH  10  11
ATOM     11  C   UNL     1      12.868  44.847   0.191  1.00  0.00     0.000 C 
BRANCH  11  12
ATOM     12  C   UNL     1      12.844  43.397  -0.316  1.00  0.00     0.000 C 
BRANCH  12  13
ATOM     13  C   UNL     1      12.638  42.413   0.845  1.00  0.00     0.006 C 
BRANCH  13  14
ATOM     14  C   UNL     1      13.371  42.856   2.121  1.00  0.00     0.053 C 
BRANCH  14  15
ATOM     15  C   UNL     1      12.870  42.140   3.338  1.00  0.00     0.041 C 
ATOM     16  O   UNL     1      13.291  42.458   4.482  1.00  0.00    -0.550 OA
ATOM     17  O   UNL     1      11.938  41.119   3.208  1.00  0.00    -0.550 OA
ENDBRANCH  14  15
ENDBRANCH  13  14
ENDBRANCH  12  13
ENDBRANCH  11  12
ENDBRANCH  10  11
ENDBRANCH   9  10
ENDBRANCH   8   9
ENDBRANCH   7   8
ENDBRANCH   6   7
ENDBRANCH   5   6
ENDBRANCH   4   5
ENDBRANCH   3   4
ENDBRANCH   2   3
ENDBRANCH   1   2
BRANCH   1  18
ATOM     18  C   UNL     1      16.874  42.267   5.603  1.00  0.00     0.000 C 
BRANCH  18  19
ATOM     19  C   UNL     1      16.079  42.548   6.892  1.00  0.00     0.000 C 
BRANCH  19  20
ATOM     20  C   UNL     1      16.913  42.320   8.166  1.00  0.00     0.000 C 
BRANCH  20  21
ATOM     21  C   UNL     1      16.106  41.872   9.399  1.00  0.00     0.000 C 
BRANCH  21  22
ATOM     22  C   UNL     1      16.678  42.324  10.757  1.00  0.00     0.000 C 
BRANCH  22  23
ATOM     23  C   UNL     1      17.022  41.159  11.711  1.00  0.00     0.000 C 
BRANCH  23  24
ATOM     24  C   UNL     1      16.049  41.062  12.898  1.00  0.00    -0.000 C 
BRANCH  24  25
ATOM     25  C   UNL     1      15.413  39.669  13.032  1.00  0.00    -0.000 C 
BRANCH  25  26
ATOM     26  C   UNL     1      16.456  38.538  13.017  1.00  0.00    -0.000 C 
BRANCH  26  27
ATOM     27  C   UNL     1      15.829  37.157  12.772  1.00  0.00    -0.000 C 
BRANCH  27  28
ATOM     28  C   UNL     1      15.618  36.856  11.277  1.00  0.00    -0.000 C 
BRANCH  28  29
ATOM     29  C   UNL     1      14.519  37.742  10.654  1.00  0.00    -0.000 C 
BRANCH  29  30
ATOM     30  C   UNL     1      15.036  38.674   9.546  1.00  0.00    -0.000 C 
BRANCH  30  31
ATOM     31  C   UNL     1      14.149  38.664   8.293  1.00  0.00    -0.003 C 
ATOM     32  C   UNL     1      14.953  39.026   7.047  1.00  0.00     0.004 C 
ENDBRANCH  30  31
ENDBRANCH  29  30
ENDBRANCH  28  29
ENDBRANCH  27  28
ENDBRANCH  26  27
ENDBRANCH  25  26
ENDBRANCH  24  25
ENDBRANCH  23  24
ENDBRANCH  22  23
ENDBRANCH  21  22
ENDBRANCH  20  21
ENDBRANCH  19  20
ENDBRANCH  18  19
ENDBRANCH   1  18
TORSDOF 28
ENDMDL
MODEL 7
REMARK VINA RESULT:     0.148      3.630     12.402
REMARK INTER + INTRA:          -0.892
REMARK INTER:                   0.074
REMARK INTRA:                  -0.966
REMARK UNBOUND:                -1.282
REMARK SMILES CCCCCCCCCCCCCCCCCCCCCCCCCCCCCC(=O)[O-]
REMARK SMILES IDX 16 1 17 2 18 3 19 4 20 5 21 6 22 7 23 8 24 9 25 10 26 11
REMARK SMILES IDX 27 12 28 13 29 14 30 15 31 16 32 17 15 18 14 19 13 20 12 21
REMARK SMILES IDX 11 22 10 23 9 24 8 25 7 26 6 27 5 28 4 29 3 30 2 31 1 32
REMARK H PARENT
REMARK Flexibility Score: inf
ROOT
ATOM      1  C   UNL     1      12.760  42.190   3.304  1.00  0.00     0.000 C 
ENDROOT
BRANCH   1   2
ATOM      2  C   UNL     1      13.587  41.330   4.284  1.00  0.00     0.000 C 
BRANCH   2   3
ATOM      3  C   UNL     1      14.151  42.115   5.484  1.00  0.00     0.000 C 
BRANCH   3   4
ATOM      4  C   UNL     1      15.130  41.307   6.360  1.00  0.00     0.000 C 
BRANCH   4   5
ATOM      5  C   UNL     1      15.518  42.048   7.650  1.00  0.00     0.000 C 
BRANCH   5   6
ATOM      6  C   UNL     1      16.961  41.722   8.055  1.00  0.00     0.000 C 
BRANCH   6   7
ATOM      7  C   UNL     1      17.044  40.833   9.310  1.00  0.00     0.000 C 
BRANCH   7   8
ATOM      8  C   UNL     1      16.526  41.486  10.608  1.00  0.00     0.000 C 
BRANCH   8   9
ATOM      9  C   UNL     1      17.052  40.853  11.910  1.00  0.00     0.000 C 
BRANCH   9  10
ATOM     10  C   UNL     1      16.351  41.332  13.199  1.00  0.00     0.000 C 
BRANCH  10  11
ATOM     11  C   UNL     1      15.348  40.332  13.802  1.00  0.00     0.000 C 
BRANCH  11  12
ATOM     12  C   UNL     1      15.826  38.875  13.705  1.00  0.00     0.000 C 
BRANCH  12  13
ATOM     13  C   UNL     1      14.654  37.932  13.396  1.00  0.00     0.006 C 
BRANCH  13  14
ATOM     14  C   UNL     1      13.878  38.360  12.141  1.00  0.00     0.053 C 
BRANCH  14  15
ATOM     15  C   UNL     1      14.587  37.974  10.878  1.00  0.00     0.041 C 
ATOM     16  O   UNL     1      15.434  37.042  10.884  1.00  0.00    -0.550 OA
ATOM     17  O   UNL     1      14.311  38.646   9.695  1.00  0.00    -0.550 OA
ENDBRANCH  14  15
ENDBRANCH  13  14
ENDBRANCH  12  13
ENDBRANCH  11  12
ENDBRANCH  10  11
ENDBRANCH   9  10
ENDBRANCH   8   9
ENDBRANCH   7   8
ENDBRANCH   6   7
ENDBRANCH   5   6
ENDBRANCH   4   5
ENDBRANCH   3   4
ENDBRANCH   2   3
ENDBRANCH   1   2
BRANCH   1  18
ATOM     18  C   UNL     1      13.500  42.508   1.990  1.00  0.00     0.000 C 
BRANCH  18  19
ATOM     19  C   UNL     1      14.277  43.835   2.070  1.00  0.00     0.000 C 
BRANCH  19  20
ATOM     20  C   UNL     1      15.186  44.065   0.848  1.00  0.00     0.000 C 
BRANCH  20  21
ATOM     21  C   UNL     1      16.662  44.351   1.180  1.00  0.00     0.000 C 
BRANCH  21  22
ATOM     22  C   UNL     1      17.125  45.798   0.917  1.00  0.00     0.000 C 
BRANCH  22  23
ATOM     23  C   UNL     1      15.972  46.776   0.600  1.00  0.00     0.000 C 
BRANCH  23  24
ATOM     24  C   UNL     1      16.471  48.100  -0.003  1.00  0.00    -0.000 C 
BRANCH  24  25
ATOM     25  C   UNL     1      16.966  47.945  -1.450  1.00  0.00    -0.000 C 
BRANCH  25  26
ATOM     26  C   UNL     1      15.878  47.403  -2.393  1.00  0.00    -0.000 C 
BRANCH  26  27
ATOM     27  C   UNL     1      14.467  47.515  -1.795  1.00  0.00    -0.000 C 
BRANCH  27  28
ATOM     28  C   UNL     1      13.912  46.159  -1.323  1.00  0.00    -0.000 C 
BRANCH  28  29
ATOM     29  C   UNL     1      12.751  46.323  -0.319  1.00  0.00    -0.000 C 
BRANCH  29  30
ATOM     30  C   UNL     1      11.914  45.045  -0.134  1.00  0.00    -0.000 C 
BRANCH  30  31
ATOM     31  C   UNL     1      11.675  44.292  -1.450  1.00  0.00    -0.003 C 
ATOM     32  C   UNL     1      10.377  44.747  -2.115  1.00  0.00     0.004 C 
ENDBRANCH  30  31
ENDBRANCH  29  30
ENDBRANCH  28  29
ENDBRANCH  27  28
ENDBRANCH  26  27
ENDBRANCH  25  26
ENDBRANCH  24  25
ENDBRANCH  23  24
ENDBRANCH  22  23
ENDBRANCH  21  22
ENDBRANCH  20  21
ENDBRANCH  19  20
ENDBRANCH  18  19
ENDBRANCH   1  18
TORSDOF 28
ENDMDL
MODEL 8
REMARK VINA RESULT:     0.178      1.562      3.999
REMARK INTER + INTRA:          -0.812
REMARK INTER:                   1.275
REMARK INTRA:                  -2.087
REMARK UNBOUND:                -1.282
REMARK SMILES CCCCCCCCCCCCCCCCCCCCCCCCCCCCCC(=O)[O-]
REMARK SMILES IDX 16 1 17 2 18 3 19 4 20 5 21 6 22 7 23 8 24 9 25 10 26 11
REMARK SMILES IDX 27 12 28 13 29 14 30 15 31 16 32 17 15 18 14 19 13 20 12 21
REMARK SMILES IDX 11 22 10 23 9 24 8 25 7 26 6 27 5 28 4 29 3 30 2 31 1 32
REMARK H PARENT
REMARK Flexibility Score: inf
ROOT
ATOM      1  C   UNL     1      15.329  42.439   6.043  1.00  0.00     0.000 C 
ENDROOT
BRANCH   1   2
ATOM      2  C   UNL     1      16.415  42.485   4.947  1.00  0.00     0.000 C 
BRANCH   2   3
ATOM      3  C   UNL     1      15.988  43.238   3.673  1.00  0.00     0.000 C 
BRANCH   3   4
ATOM      4  C   UNL     1      17.112  44.074   3.028  1.00  0.00     0.000 C 
BRANCH   4   5
ATOM      5  C   UNL     1      17.121  43.970   1.495  1.00  0.00     0.000 C 
BRANCH   5   6
ATOM      6  C   UNL     1      17.104  45.362   0.852  1.00  0.00     0.000 C 
BRANCH   6   7
ATOM      7  C   UNL     1      16.950  45.313  -0.679  1.00  0.00     0.000 C 
BRANCH   7   8
ATOM      8  C   UNL     1      17.024  46.681  -1.388  1.00  0.00     0.000 C 
BRANCH   8   9
ATOM      9  C   UNL     1      16.144  47.784  -0.768  1.00  0.00     0.000 C 
BRANCH   9  10
ATOM     10  C   UNL     1      14.681  47.806  -1.259  1.00  0.00     0.000 C 
BRANCH  10  11
ATOM     11  C   UNL     1      13.723  46.881  -0.485  1.00  0.00     0.000 C 
BRANCH  11  12
ATOM     12  C   UNL     1      13.059  45.826  -1.383  1.00  0.00     0.000 C 
BRANCH  12  13
ATOM     13  C   UNL     1      12.465  44.685  -0.543  1.00  0.00     0.006 C 
BRANCH  13  14
ATOM     14  C   UNL     1      13.401  44.254   0.597  1.00  0.00     0.053 C 
BRANCH  14  15
ATOM     15  C   UNL     1      13.081  42.881   1.103  1.00  0.00     0.041 C 
ATOM     16  O   UNL     1      12.424  42.077   0.389  1.00  0.00    -0.550 OA
ATOM     17  O   UNL     1      13.508  42.489   2.364  1.00  0.00    -0.550 OA
ENDBRANCH  14  15
ENDBRANCH  13  14
ENDBRANCH  12  13
ENDBRANCH  11  12
ENDBRANCH  10  11
ENDBRANCH   9  10
ENDBRANCH   8   9
ENDBRANCH   7   8
ENDBRANCH   6   7
ENDBRANCH   5   6
ENDBRANCH   4   5
ENDBRANCH   3   4
ENDBRANCH   2   3
ENDBRANCH   1   2
BRANCH   1  18
ATOM     18  C   UNL     1      15.895  42.233   7.461  1.00  0.00     0.000 C 
BRANCH  18  19
ATOM     19  C   UNL     1      17.092  41.265   7.474  1.00  0.00     0.000 C 
BRANCH  19  20
ATOM     20  C   UNL     1      16.665  39.793   7.628  1.00  0.00     0.000 C 
BRANCH  20  21
ATOM     21  C   UNL     1      15.193  39.503   7.281  1.00  0.00     0.000 C 
BRANCH  21  22
ATOM     22  C   UNL     1      14.274  39.242   8.490  1.00  0.00     0.000 C 
BRANCH  22  23
ATOM     23  C   UNL     1      15.025  38.793   9.762  1.00  0.00     0.000 C 
BRANCH  23  24
ATOM     24  C   UNL     1      14.335  37.615  10.471  1.00  0.00    -0.000 C 
BRANCH  24  25
ATOM     25  C   UNL     1      15.146  37.080  11.662  1.00  0.00    -0.000 C 
BRANCH  25  26
ATOM     26  C   UNL     1      16.241  38.059  12.120  1.00  0.00    -0.000 C 
BRANCH  26  27
ATOM     27  C   UNL     1      15.880  38.781  13.427  1.00  0.00    -0.000 C 
BRANCH  27  28
ATOM     28  C   UNL     1      17.076  39.528  14.044  1.00  0.00    -0.000 C 
BRANCH  28  29
ATOM     29  C   UNL     1      17.041  41.040  13.737  1.00  0.00    -0.000 C 
BRANCH  29  30
ATOM     30  C   UNL     1      15.800  41.475  12.940  1.00  0.00    -0.000 C 
BRANCH  30  31
ATOM     31  C   UNL     1      15.945  42.874  12.325  1.00  0.00    -0.003 C 
ATOM     32  C   UNL     1      16.641  42.809  10.968  1.00  0.00     0.004 C 
ENDBRANCH  30  31
ENDBRANCH  29  30
ENDBRANCH  28  29
ENDBRANCH  27  28
ENDBRANCH  26  27
ENDBRANCH  25  26
ENDBRANCH  24  25
ENDBRANCH  23  24
ENDBRANCH  22  23
ENDBRANCH  21  22
ENDBRANCH  20  21
ENDBRANCH  19  20
ENDBRANCH  18  19
ENDBRANCH   1  18
TORSDOF 28
ENDMDL
MODEL 9
REMARK VINA RESULT:     0.254      4.243     12.928
REMARK INTER + INTRA:          -0.613
REMARK INTER:                   0.215
REMARK INTRA:                  -0.828
REMARK UNBOUND:                -1.282
REMARK SMILES CCCCCCCCCCCCCCCCCCCCCCCCCCCCCC(=O)[O-]
REMARK SMILES IDX 16 1 17 2 18 3 19 4 20 5 21 6 22 7 23 8 24 9 25 10 26 11
REMARK SMILES IDX 27 12 28 13 29 14 30 15 31 16 32 17 15 18 14 19 13 20 12 21
REMARK SMILES IDX 11 22 10 23 9 24 8 25 7 26 6 27 5 28 4 29 3 30 2 31 1 32
REMARK H PARENT
REMARK Flexibility Score: inf
ROOT
ATOM      1  C   UNL     1      14.592  42.865   4.335  1.00  0.00     0.000 C 
ENDROOT
BRANCH   1   2
ATOM      2  C   UNL     1      14.102  41.767   5.303  1.00  0.00     0.000 C 
BRANCH   2   3
ATOM      3  C   UNL     1      14.886  41.704   6.628  1.00  0.00     0.000 C 
BRANCH   3   4
ATOM      4  C   UNL     1      16.418  41.720   6.456  1.00  0.00     0.000 C 
BRANCH   4   5
ATOM      5  C   UNL     1      17.088  40.450   7.004  1.00  0.00     0.000 C 
BRANCH   5   6
ATOM      6  C   UNL     1      17.124  40.470   8.538  1.00  0.00     0.000 C 
BRANCH   6   7
ATOM      7  C   UNL     1      16.036  39.586   9.173  1.00  0.00     0.000 C 
BRANCH   7   8
ATOM      8  C   UNL     1      16.277  39.212  10.650  1.00  0.00     0.000 C 
BRANCH   8   9
ATOM      9  C   UNL     1      17.116  37.938  10.871  1.00  0.00     0.000 C 
BRANCH   9  10
ATOM     10  C   UNL     1      16.308  36.688  11.280  1.00  0.00     0.000 C 
BRANCH  10  11
ATOM     11  C   UNL     1      17.045  35.720  12.224  1.00  0.00     0.000 C 
BRANCH  11  12
ATOM     12  C   UNL     1      16.419  35.664  13.626  1.00  0.00     0.000 C 
BRANCH  12  13
ATOM     13  C   UNL     1      16.030  37.069  14.110  1.00  0.00     0.006 C 
BRANCH  13  14
ATOM     14  C   UNL     1      14.508  37.278  14.125  1.00  0.00     0.053 C 
BRANCH  14  15
ATOM     15  C   UNL     1      14.099  38.505  13.368  1.00  0.00     0.041 C 
ATOM     16  O   UNL     1      13.226  38.434  12.464  1.00  0.00    -0.550 OA
ATOM     17  O   UNL     1      14.684  39.730  13.664  1.00  0.00    -0.550 OA
ENDBRANCH  14  15
ENDBRANCH  13  14
ENDBRANCH  12  13
ENDBRANCH  11  12
ENDBRANCH  10  11
ENDBRANCH   9  10
ENDBRANCH   8   9
ENDBRANCH   7   8
ENDBRANCH   6   7
ENDBRANCH   5   6
ENDBRANCH   4   5
ENDBRANCH   3   4
ENDBRANCH   2   3
ENDBRANCH   1   2
BRANCH   1  18
ATOM     18  C   UNL     1      13.750  42.972   3.050  1.00  0.00     0.000 C 
BRANCH  18  19
ATOM     19  C   UNL     1      14.622  43.208   1.803  1.00  0.00     0.000 C 
BRANCH  19  20
ATOM     20  C   UNL     1      15.586  44.398   1.968  1.00  0.00     0.000 C 
BRANCH  20  21
ATOM     21  C   UNL     1      16.916  44.268   1.203  1.00  0.00     0.000 C 
BRANCH  21  22
ATOM     22  C   UNL     1      17.124  45.294   0.072  1.00  0.00     0.000 C 
BRANCH  22  23
ATOM     23  C   UNL     1      16.996  46.764   0.529  1.00  0.00     0.000 C 
BRANCH  23  24
ATOM     24  C   UNL     1      17.057  47.755  -0.645  1.00  0.00    -0.000 C 
BRANCH  24  25
ATOM     25  C   UNL     1      16.765  47.090  -2.000  1.00  0.00    -0.000 C 
BRANCH  25  26
ATOM     26  C   UNL     1      15.582  47.743  -2.736  1.00  0.00    -0.000 C 
BRANCH  26  27
ATOM     27  C   UNL     1      14.360  47.949  -1.828  1.00  0.00    -0.000 C 
BRANCH  27  28
ATOM     28  C   UNL     1      14.215  46.843  -0.767  1.00  0.00    -0.000 C 
BRANCH  28  29
ATOM     29  C   UNL     1      12.834  46.156  -0.827  1.00  0.00    -0.000 C 
BRANCH  29  30
ATOM     30  C   UNL     1      12.812  44.763  -0.175  1.00  0.00    -0.000 C 
BRANCH  30  31
ATOM     31  C   UNL     1      11.674  43.876  -0.698  1.00  0.00    -0.003 C 
ATOM     32  C   UNL     1      10.989  44.515  -1.904  1.00  0.00     0.004 C 
ENDBRANCH  30  31
ENDBRANCH  29  30
ENDBRANCH  28  29
ENDBRANCH  27  28
ENDBRANCH  26  27
ENDBRANCH  25  26
ENDBRANCH  24  25
ENDBRANCH  23  24
ENDBRANCH  22  23
ENDBRANCH  21  22
ENDBRANCH  20  21
ENDBRANCH  19  20
ENDBRANCH  18  19
ENDBRANCH   1  18
TORSDOF 28
ENDMDL
