MODEL 1
REMARK VINA RESULT:    -7.661      0.000      0.000
REMARK INTER + INTRA:          -9.372
REMARK INTER:                  -9.228
REMARK INTRA:                  -0.143
REMARK UNBOUND:                -0.143
REMARK SMILES O=c1c(O)c(-c2ccc(O)c(O)c2)oc2cc(O)cc(O)c12
REMARK SMILES IDX 5 1 3 2 2 3 1 4 22 5 20 6 19 7 17 8 16 9 15 10 14 11 6 12
REMARK SMILES IDX 7 13 8 14 9 15 13 16 11 17 10 18 12 20 4 22 21 24 18 26
REMARK H PARENT 10 19 12 21 4 23 21 25 18 27
REMARK Flexibility Score: inf
ROOT
ATOM      1  C   UNL     1      21.392  -6.502 -28.305  1.00  0.00     0.180 A 
ATOM      2  C   UNL     1      22.757  -6.834 -28.303  1.00  0.00     0.208 A 
ATOM      3  C   UNL     1      23.680  -5.916 -27.774  1.00  0.00     0.238 A 
ATOM      4  O   UNL     1      24.906  -6.195 -27.825  1.00  0.00    -0.285 OA
ATOM      5  C   UNL     1      23.225  -4.687 -27.239  1.00  0.00     0.111 A 
ATOM      6  C   UNL     1      24.066  -3.702 -26.642  1.00  0.00     0.134 A 
ATOM      7  C   UNL     1      23.522  -2.467 -26.264  1.00  0.00     0.093 A 
ATOM      8  C   UNL     1      22.158  -2.209 -26.402  1.00  0.00     0.123 A 
ATOM      9  C   UNL     1      21.317  -3.187 -26.929  1.00  0.00     0.094 A 
ATOM     10  C   UNL     1      21.835  -4.414 -27.349  1.00  0.00     0.146 A 
ATOM     11  O   UNL     1      21.002  -5.315 -27.856  1.00  0.00    -0.452 OA
ENDROOT
BRANCH   1  12
ATOM     12  C   UNL     1      20.357  -7.427 -28.822  1.00  0.00     0.025 A 
ATOM     13  C   UNL     1      20.335  -7.821 -30.170  1.00  0.00     0.016 A 
ATOM     14  C   UNL     1      19.363  -8.713 -30.631  1.00  0.00     0.051 A 
ATOM     15  C   UNL     1      18.409  -9.237 -29.749  1.00  0.00     0.157 A 
ATOM     16  C   UNL     1      19.410  -7.970 -27.936  1.00  0.00     0.062 A 
ATOM     17  C   UNL     1      18.435  -8.864 -28.394  1.00  0.00     0.158 A 
BRANCH  15  18
ATOM     18  O   UNL     1      17.440 -10.125 -30.212  1.00  0.00    -0.504 OA
ATOM     19  H   UNL     1      16.466  -9.855 -30.287  1.00  0.00     0.293 HD
ENDBRANCH  15  18
BRANCH  17  20
ATOM     20  O   UNL     1      17.503  -9.371 -27.490  1.00  0.00    -0.504 OA
ATOM     21  H   UNL     1      17.546 -10.325 -27.151  1.00  0.00     0.293 HD
ENDBRANCH  17  20
ENDBRANCH   1  12
BRANCH   2  22
ATOM     22  O   UNL     1      23.188  -8.042 -28.857  1.00  0.00    -0.502 OA
ATOM     23  H   UNL     1      23.723  -8.087 -29.716  1.00  0.00     0.293 HD
ENDBRANCH   2  22
BRANCH   6  24
ATOM     24  O   UNL     1      25.425  -3.894 -26.374  1.00  0.00    -0.507 OA
ATOM     25  H   UNL     1      26.054  -4.427 -26.954  1.00  0.00     0.293 HD
ENDBRANCH   6  24
BRANCH   8  26
ATOM     26  O   UNL     1      21.623  -0.983 -26.009  1.00  0.00    -0.508 OA
ATOM     27  H   UNL     1      21.939  -0.112 -26.418  1.00  0.00     0.293 HD
ENDBRANCH   8  26
TORSDOF 6
ENDMDL
MODEL 2
REMARK VINA RESULT:    -7.637      3.911      5.568
REMARK INTER + INTRA:          -9.343
REMARK INTER:                  -9.037
REMARK INTRA:                  -0.306
REMARK UNBOUND:                -0.143
REMARK SMILES O=c1c(O)c(-c2ccc(O)c(O)c2)oc2cc(O)cc(O)c12
REMARK SMILES IDX 5 1 3 2 2 3 1 4 22 5 20 6 19 7 17 8 16 9 15 10 14 11 6 12
REMARK SMILES IDX 7 13 8 14 9 15 13 16 11 17 10 18 12 20 4 22 21 24 18 26
REMARK H PARENT 10 19 12 21 4 23 21 25 18 27
REMARK Flexibility Score: inf
ROOT
ATOM      1  C   UNL     1      24.450  -4.277 -26.744  1.00  0.00     0.180 A 
ATOM      2  C   UNL     1      23.203  -3.694 -26.461  1.00  0.00     0.208 A 
ATOM      3  C   UNL     1      23.109  -2.294 -26.377  1.00  0.00     0.238 A 
ATOM      4  O   UNL     1      22.002  -1.781 -26.070  1.00  0.00    -0.285 OA
ATOM      5  C   UNL     1      24.258  -1.497 -26.595  1.00  0.00     0.111 A 
ATOM      6  C   UNL     1      24.269  -0.070 -26.575  1.00  0.00     0.134 A 
ATOM      7  C   UNL     1      25.489   0.612 -26.673  1.00  0.00     0.093 A 
ATOM      8  C   UNL     1      26.688  -0.079 -26.857  1.00  0.00     0.123 A 
ATOM      9  C   UNL     1      26.680  -1.470 -26.938  1.00  0.00     0.094 A 
ATOM     10  C   UNL     1      25.484  -2.180 -26.807  1.00  0.00     0.146 A 
ATOM     11  O   UNL     1      25.522  -3.505 -26.878  1.00  0.00    -0.452 OA
ENDROOT
BRANCH   1  12
ATOM     12  C   UNL     1      24.623  -5.742 -26.873  1.00  0.00     0.025 A 
ATOM     13  C   UNL     1      24.258  -6.422 -28.047  1.00  0.00     0.016 A 
ATOM     14  C   UNL     1      24.452  -7.802 -28.154  1.00  0.00     0.051 A 
ATOM     15  C   UNL     1      25.028  -8.519 -27.098  1.00  0.00     0.157 A 
ATOM     16  C   UNL     1      25.220  -6.462 -25.824  1.00  0.00     0.062 A 
ATOM     17  C   UNL     1      25.416  -7.844 -25.928  1.00  0.00     0.158 A 
BRANCH  15  18
ATOM     18  O   UNL     1      25.220  -9.895 -27.208  1.00  0.00    -0.504 OA
ATOM     19  H   UNL     1      25.989 -10.362 -26.742  1.00  0.00     0.293 HD
ENDBRANCH  15  18
BRANCH  17  20
ATOM     20  O   UNL     1      25.998  -8.528 -24.862  1.00  0.00    -0.504 OA
ATOM     21  H   UNL     1      25.550  -9.325 -24.425  1.00  0.00     0.293 HD
ENDBRANCH  17  20
ENDBRANCH   1  12
BRANCH   2  22
ATOM     22  O   UNL     1      22.087  -4.501 -26.227  1.00  0.00    -0.502 OA
ATOM     23  H   UNL     1      21.862  -4.867 -25.310  1.00  0.00     0.293 HD
ENDBRANCH   2  22
BRANCH   6  24
ATOM     24  O   UNL     1      23.118   0.719 -26.489  1.00  0.00    -0.507 OA
ATOM     25  H   UNL     1      23.069   1.614 -26.027  1.00  0.00     0.293 HD
ENDBRANCH   6  24
BRANCH   8  26
ATOM     26  O   UNL     1      27.895   0.609 -26.971  1.00  0.00    -0.508 OA
ATOM     27  H   UNL     1      28.634   0.497 -26.287  1.00  0.00     0.293 HD
ENDBRANCH   8  26
TORSDOF 6
ENDMDL
MODEL 3
REMARK VINA RESULT:    -7.571      1.565      7.172
REMARK INTER + INTRA:          -9.264
REMARK INTER:                  -9.268
REMARK INTRA:                   0.004
REMARK UNBOUND:                -0.143
REMARK SMILES O=c1c(O)c(-c2ccc(O)c(O)c2)oc2cc(O)cc(O)c12
REMARK SMILES IDX 5 1 3 2 2 3 1 4 22 5 20 6 19 7 17 8 16 9 15 10 14 11 6 12
REMARK SMILES IDX 7 13 8 14 9 15 13 16 11 17 10 18 12 20 4 22 21 24 18 26
REMARK H PARENT 10 19 12 21 4 23 21 25 18 27
REMARK Flexibility Score: inf
ROOT
ATOM      1  C   UNL     1      20.737  -6.415 -28.095  1.00  0.00     0.180 A 
ATOM      2  C   UNL     1      19.520  -6.832 -27.530  1.00  0.00     0.208 A 
ATOM      3  C   UNL     1      18.771  -7.825 -28.183  1.00  0.00     0.238 A 
ATOM      4  O   UNL     1      17.656  -8.155 -27.702  1.00  0.00    -0.285 OA
ATOM      5  C   UNL     1      19.255  -8.397 -29.384  1.00  0.00     0.111 A 
ATOM      6  C   UNL     1      18.599  -9.437 -30.109  1.00  0.00     0.134 A 
ATOM      7  C   UNL     1      19.103  -9.836 -31.353  1.00  0.00     0.093 A 
ATOM      8  C   UNL     1      20.276  -9.279 -31.866  1.00  0.00     0.123 A 
ATOM      9  C   UNL     1      20.957  -8.306 -31.139  1.00  0.00     0.094 A 
ATOM     10  C   UNL     1      20.460  -7.861 -29.912  1.00  0.00     0.146 A 
ATOM     11  O   UNL     1      21.133  -6.924 -29.256  1.00  0.00    -0.452 OA
ENDROOT
BRANCH   1  12
ATOM     12  C   UNL     1      21.595  -5.393 -27.452  1.00  0.00     0.025 A 
ATOM     13  C   UNL     1      22.962  -5.623 -27.223  1.00  0.00     0.016 A 
ATOM     14  C   UNL     1      23.757  -4.635 -26.636  1.00  0.00     0.051 A 
ATOM     15  C   UNL     1      23.203  -3.398 -26.284  1.00  0.00     0.157 A 
ATOM     16  C   UNL     1      21.048  -4.143 -27.116  1.00  0.00     0.062 A 
ATOM     17  C   UNL     1      21.841  -3.151 -26.528  1.00  0.00     0.158 A 
BRANCH  15  18
ATOM     18  O   UNL     1      23.998  -2.415 -25.697  1.00  0.00    -0.504 OA
ATOM     19  H   UNL     1      24.610  -1.828 -26.252  1.00  0.00     0.293 HD
ENDBRANCH  15  18
BRANCH  17  20
ATOM     20  O   UNL     1      21.260  -1.928 -26.195  1.00  0.00    -0.504 OA
ATOM     21  H   UNL     1      20.394  -1.868 -25.673  1.00  0.00     0.293 HD
ENDBRANCH  17  20
ENDBRANCH   1  12
BRANCH   2  22
ATOM     22  O   UNL     1      19.050  -6.238 -26.356  1.00  0.00    -0.502 OA
ATOM     23  H   UNL     1      18.962  -6.748 -25.485  1.00  0.00     0.293 HD
ENDBRANCH   2  22
BRANCH   6  24
ATOM     24  O   UNL     1      17.474 -10.123 -29.642  1.00  0.00    -0.507 OA
ATOM     25  H   UNL     1      17.503 -10.929 -29.036  1.00  0.00     0.293 HD
ENDBRANCH   6  24
BRANCH   8  26
ATOM     26  O   UNL     1      20.780  -9.694 -33.098  1.00  0.00    -0.508 OA
ATOM     27  H   UNL     1      20.259 -10.320 -33.700  1.00  0.00     0.293 HD
ENDBRANCH   8  26
TORSDOF 6
ENDMDL
MODEL 4
REMARK VINA RESULT:    -7.350      2.115      7.248
REMARK INTER + INTRA:          -8.997
REMARK INTER:                  -9.100
REMARK INTRA:                   0.103
REMARK UNBOUND:                -0.143
REMARK SMILES O=c1c(O)c(-c2ccc(O)c(O)c2)oc2cc(O)cc(O)c12
REMARK SMILES IDX 5 1 3 2 2 3 1 4 22 5 20 6 19 7 17 8 16 9 15 10 14 11 6 12
REMARK SMILES IDX 7 13 8 14 9 15 13 16 11 17 10 18 12 20 4 22 21 24 18 26
REMARK H PARENT 10 19 12 21 4 23 21 25 18 27
REMARK Flexibility Score: inf
ROOT
ATOM      1  C   UNL     1      23.993  -3.609 -27.190  1.00  0.00     0.180 A 
ATOM      2  C   UNL     1      24.912  -4.646 -26.955  1.00  0.00     0.208 A 
ATOM      3  C   UNL     1      24.569  -5.957 -27.325  1.00  0.00     0.238 A 
ATOM      4  O   UNL     1      25.373  -6.889 -27.063  1.00  0.00    -0.285 OA
ATOM      5  C   UNL     1      23.319  -6.212 -27.939  1.00  0.00     0.111 A 
ATOM      6  C   UNL     1      22.884  -7.493 -28.391  1.00  0.00     0.134 A 
ATOM      7  C   UNL     1      21.575  -7.651 -28.864  1.00  0.00     0.093 A 
ATOM      8  C   UNL     1      20.709  -6.561 -28.963  1.00  0.00     0.123 A 
ATOM      9  C   UNL     1      21.144  -5.294 -28.581  1.00  0.00     0.094 A 
ATOM     10  C   UNL     1      22.431  -5.111 -28.071  1.00  0.00     0.146 A 
ATOM     11  O   UNL     1      22.802  -3.890 -27.707  1.00  0.00    -0.452 OA
ENDROOT
BRANCH   1  12
ATOM     12  C   UNL     1      24.293  -2.199 -26.851  1.00  0.00     0.025 A 
ATOM     13  C   UNL     1      25.561  -1.643 -27.086  1.00  0.00     0.016 A 
ATOM     14  C   UNL     1      25.814  -0.303 -26.780  1.00  0.00     0.051 A 
ATOM     15  C   UNL     1      24.801   0.504 -26.248  1.00  0.00     0.157 A 
ATOM     16  C   UNL     1      23.273  -1.380 -26.336  1.00  0.00     0.062 A 
ATOM     17  C   UNL     1      23.523  -0.037 -26.028  1.00  0.00     0.158 A 
BRANCH  15  18
ATOM     18  O   UNL     1      25.057   1.840 -25.942  1.00  0.00    -0.504 OA
ATOM     19  H   UNL     1      25.482   2.110 -25.063  1.00  0.00     0.293 HD
ENDBRANCH  15  18
BRANCH  17  20
ATOM     20  O   UNL     1      22.491   0.741 -25.506  1.00  0.00    -0.504 OA
ATOM     21  H   UNL     1      22.366   1.713 -25.765  1.00  0.00     0.293 HD
ENDBRANCH  17  20
ENDBRANCH   1  12
BRANCH   2  22
ATOM     22  O   UNL     1      26.131  -4.376 -26.328  1.00  0.00    -0.502 OA
ATOM     23  H   UNL     1      26.753  -5.109 -26.009  1.00  0.00     0.293 HD
ENDBRANCH   2  22
BRANCH   6  24
ATOM     24  O   UNL     1      23.700  -8.629 -28.421  1.00  0.00    -0.507 OA
ATOM     25  H   UNL     1      23.892  -9.175 -29.246  1.00  0.00     0.293 HD
ENDBRANCH   6  24
BRANCH   8  26
ATOM     26  O   UNL     1      19.413  -6.723 -29.451  1.00  0.00    -0.508 OA
ATOM     27  H   UNL     1      19.046  -7.639 -29.682  1.00  0.00     0.293 HD
ENDBRANCH   8  26
TORSDOF 6
ENDMDL
MODEL 5
REMARK VINA RESULT:    -7.271      1.688      7.123
REMARK INTER + INTRA:          -8.902
REMARK INTER:                  -8.583
REMARK INTRA:                  -0.320
REMARK UNBOUND:                -0.143
REMARK SMILES O=c1c(O)c(-c2ccc(O)c(O)c2)oc2cc(O)cc(O)c12
REMARK SMILES IDX 5 1 3 2 2 3 1 4 22 5 20 6 19 7 17 8 16 9 15 10 14 11 6 12
REMARK SMILES IDX 7 13 8 14 9 15 13 16 11 17 10 18 12 20 4 22 21 24 18 26
REMARK H PARENT 10 19 12 21 4 23 21 25 18 27
REMARK Flexibility Score: inf
ROOT
ATOM      1  C   UNL     1      21.684  -5.442 -27.961  1.00  0.00     0.180 A 
ATOM      2  C   UNL     1      20.634  -5.438 -27.027  1.00  0.00     0.208 A 
ATOM      3  C   UNL     1      19.574  -6.345 -27.190  1.00  0.00     0.238 A 
ATOM      4  O   UNL     1      18.611  -6.300 -26.382  1.00  0.00    -0.285 OA
ATOM      5  C   UNL     1      19.586  -7.255 -28.275  1.00  0.00     0.111 A 
ATOM      6  C   UNL     1      18.585  -8.244 -28.514  1.00  0.00     0.134 A 
ATOM      7  C   UNL     1      18.632  -9.002 -29.690  1.00  0.00     0.093 A 
ATOM      8  C   UNL     1      19.678  -8.853 -30.602  1.00  0.00     0.123 A 
ATOM      9  C   UNL     1      20.692  -7.932 -30.349  1.00  0.00     0.094 A 
ATOM     10  C   UNL     1      20.654  -7.136 -29.203  1.00  0.00     0.146 A 
ATOM     11  O   UNL     1      21.634  -6.262 -29.004  1.00  0.00    -0.452 OA
ENDROOT
BRANCH   1  12
ATOM     12  C   UNL     1      22.848  -4.533 -27.842  1.00  0.00     0.025 A 
ATOM     13  C   UNL     1      22.818  -3.232 -28.373  1.00  0.00     0.016 A 
ATOM     14  C   UNL     1      23.919  -2.384 -28.228  1.00  0.00     0.051 A 
ATOM     15  C   UNL     1      25.060  -2.817 -27.540  1.00  0.00     0.157 A 
ATOM     16  C   UNL     1      23.986  -4.956 -27.135  1.00  0.00     0.062 A 
ATOM     17  C   UNL     1      25.091  -4.109 -26.988  1.00  0.00     0.158 A 
BRANCH  15  18
ATOM     18  O   UNL     1      26.157  -1.969 -27.399  1.00  0.00    -0.504 OA
ATOM     19  H   UNL     1      26.240  -1.337 -26.612  1.00  0.00     0.293 HD
ENDBRANCH  15  18
BRANCH  17  20
ATOM     20  O   UNL     1      26.208  -4.568 -26.293  1.00  0.00    -0.504 OA
ATOM     21  H   UNL     1      26.957  -5.074 -26.750  1.00  0.00     0.293 HD
ENDBRANCH  17  20
ENDBRANCH   1  12
BRANCH   2  22
ATOM     22  O   UNL     1      20.632  -4.516 -25.977  1.00  0.00    -0.502 OA
ATOM     23  H   UNL     1      20.202  -3.602 -26.056  1.00  0.00     0.293 HD
ENDBRANCH   2  22
BRANCH   6  24
ATOM     24  O   UNL     1      17.549  -8.537 -27.622  1.00  0.00    -0.507 OA
ATOM     25  H   UNL     1      16.674  -8.966 -27.881  1.00  0.00     0.293 HD
ENDBRANCH   6  24
BRANCH   8  26
ATOM     26  O   UNL     1      19.725  -9.624 -31.763  1.00  0.00    -0.508 OA
ATOM     27  H   UNL     1      20.351 -10.416 -31.848  1.00  0.00     0.293 HD
ENDBRANCH   8  26
TORSDOF 6
ENDMDL
MODEL 6
REMARK VINA RESULT:    -7.211      3.460      5.272
REMARK INTER + INTRA:          -8.831
REMARK INTER:                  -8.625
REMARK INTRA:                  -0.206
REMARK UNBOUND:                -0.143
REMARK SMILES O=c1c(O)c(-c2ccc(O)c(O)c2)oc2cc(O)cc(O)c12
REMARK SMILES IDX 5 1 3 2 2 3 1 4 22 5 20 6 19 7 17 8 16 9 15 10 14 11 6 12
REMARK SMILES IDX 7 13 8 14 9 15 13 16 11 17 10 18 12 20 4 22 21 24 18 26
REMARK H PARENT 10 19 12 21 4 23 21 25 18 27
REMARK Flexibility Score: inf
ROOT
ATOM      1  C   UNL     1      24.375  -4.505 -26.768  1.00  0.00     0.180 A 
ATOM      2  C   UNL     1      23.128  -3.932 -26.465  1.00  0.00     0.208 A 
ATOM      3  C   UNL     1      23.035  -2.536 -26.334  1.00  0.00     0.238 A 
ATOM      4  O   UNL     1      21.928  -2.032 -26.009  1.00  0.00    -0.285 OA
ATOM      5  C   UNL     1      24.184  -1.732 -26.525  1.00  0.00     0.111 A 
ATOM      6  C   UNL     1      24.197  -0.306 -26.456  1.00  0.00     0.134 A 
ATOM      7  C   UNL     1      25.416   0.378 -26.532  1.00  0.00     0.093 A 
ATOM      8  C   UNL     1      26.615  -0.308 -26.739  1.00  0.00     0.123 A 
ATOM      9  C   UNL     1      26.606  -1.695 -26.867  1.00  0.00     0.094 A 
ATOM     10  C   UNL     1      25.411  -2.408 -26.760  1.00  0.00     0.146 A 
ATOM     11  O   UNL     1      25.447  -3.730 -26.876  1.00  0.00    -0.452 OA
ENDROOT
BRANCH   1  12
ATOM     12  C   UNL     1      24.548  -5.966 -26.946  1.00  0.00     0.025 A 
ATOM     13  C   UNL     1      25.237  -6.742 -25.999  1.00  0.00     0.016 A 
ATOM     14  C   UNL     1      25.368  -8.122 -26.176  1.00  0.00     0.051 A 
ATOM     15  C   UNL     1      24.799  -8.749 -27.292  1.00  0.00     0.157 A 
ATOM     16  C   UNL     1      23.961  -6.601 -28.053  1.00  0.00     0.062 A 
ATOM     17  C   UNL     1      24.090  -7.984 -28.234  1.00  0.00     0.158 A 
BRANCH  15  18
ATOM     18  O   UNL     1      24.932 -10.125 -27.467  1.00  0.00    -0.504 OA
ATOM     19  H   UNL     1      25.456 -10.512 -28.243  1.00  0.00     0.293 HD
ENDBRANCH  15  18
BRANCH  17  20
ATOM     20  O   UNL     1      23.507  -8.578 -29.352  1.00  0.00    -0.504 OA
ATOM     21  H   UNL     1      23.338  -9.575 -29.405  1.00  0.00     0.293 HD
ENDBRANCH  17  20
ENDBRANCH   1  12
BRANCH   2  22
ATOM     22  O   UNL     1      22.012  -4.745 -26.259  1.00  0.00    -0.502 OA
ATOM     23  H   UNL     1      21.063  -4.396 -26.328  1.00  0.00     0.293 HD
ENDBRANCH   2  22
BRANCH   6  24
ATOM     24  O   UNL     1      23.046   0.479 -26.344  1.00  0.00    -0.507 OA
ATOM     25  H   UNL     1      22.349   0.376 -25.622  1.00  0.00     0.293 HD
ENDBRANCH   6  24
BRANCH   8  26
ATOM     26  O   UNL     1      27.822   0.383 -26.830  1.00  0.00    -0.508 OA
ATOM     27  H   UNL     1      27.894   1.360 -26.574  1.00  0.00     0.293 HD
ENDBRANCH   8  26
TORSDOF 6
ENDMDL
MODEL 7
REMARK VINA RESULT:    -7.202      4.083      9.039
REMARK INTER + INTRA:          -8.819
REMARK INTER:                  -9.034
REMARK INTRA:                   0.216
REMARK UNBOUND:                -0.143
REMARK SMILES O=c1c(O)c(-c2ccc(O)c(O)c2)oc2cc(O)cc(O)c12
REMARK SMILES IDX 5 1 3 2 2 3 1 4 22 5 20 6 19 7 17 8 16 9 15 10 14 11 6 12
REMARK SMILES IDX 7 13 8 14 9 15 13 16 11 17 10 18 12 20 4 22 21 24 18 26
REMARK H PARENT 10 19 12 21 4 23 21 25 18 27
REMARK Flexibility Score: inf
ROOT
ATOM      1  C   UNL     1      23.723   0.458 -26.472  1.00  0.00     0.180 A 
ATOM      2  C   UNL     1      25.004  -0.092 -26.647  1.00  0.00     0.208 A 
ATOM      3  C   UNL     1      25.142  -1.488 -26.715  1.00  0.00     0.238 A 
ATOM      4  O   UNL     1      26.298  -1.976 -26.818  1.00  0.00    -0.285 OA
ATOM      5  C   UNL     1      23.997  -2.315 -26.623  1.00  0.00     0.111 A 
ATOM      6  C   UNL     1      24.015  -3.739 -26.720  1.00  0.00     0.134 A 
ATOM      7  C   UNL     1      22.839  -4.462 -26.484  1.00  0.00     0.093 A 
ATOM      8  C   UNL     1      21.633  -3.809 -26.220  1.00  0.00     0.123 A 
ATOM      9  C   UNL     1      21.593  -2.417 -26.183  1.00  0.00     0.094 A 
ATOM     10  C   UNL     1      22.756  -1.670 -26.378  1.00  0.00     0.146 A 
ATOM     11  O   UNL     1      22.676  -0.346 -26.323  1.00  0.00    -0.452 OA
ENDROOT
BRANCH   1  12
ATOM     12  C   UNL     1      23.494   1.921 -26.416  1.00  0.00     0.025 A 
ATOM     13  C   UNL     1      24.298   2.815 -27.141  1.00  0.00     0.016 A 
ATOM     14  C   UNL     1      24.049   4.190 -27.091  1.00  0.00     0.051 A 
ATOM     15  C   UNL     1      22.984   4.688 -26.330  1.00  0.00     0.157 A 
ATOM     16  C   UNL     1      22.414   2.423 -25.670  1.00  0.00     0.062 A 
ATOM     17  C   UNL     1      22.162   3.799 -25.618  1.00  0.00     0.158 A 
BRANCH  15  18
ATOM     18  O   UNL     1      22.739   6.059 -26.281  1.00  0.00    -0.504 OA
ATOM     19  H   UNL     1      23.279   6.674 -25.683  1.00  0.00     0.293 HD
ENDBRANCH  15  18
BRANCH  17  20
ATOM     20  O   UNL     1      21.090   4.263 -24.855  1.00  0.00    -0.504 OA
ATOM     21  H   UNL     1      20.251   3.713 -24.716  1.00  0.00     0.293 HD
ENDBRANCH  17  20
ENDBRANCH   1  12
BRANCH   2  22
ATOM     22  O   UNL     1      26.123   0.742 -26.713  1.00  0.00    -0.502 OA
ATOM     23  H   UNL     1      27.056   0.387 -26.887  1.00  0.00     0.293 HD
ENDBRANCH   2  22
BRANCH   6  24
ATOM     24  O   UNL     1      25.146  -4.483 -27.069  1.00  0.00    -0.507 OA
ATOM     25  H   UNL     1      26.023  -4.462 -26.571  1.00  0.00     0.293 HD
ENDBRANCH   6  24
BRANCH   8  26
ATOM     26  O   UNL     1      20.464  -4.537 -26.003  1.00  0.00    -0.508 OA
ATOM     27  H   UNL     1      20.432  -5.301 -25.338  1.00  0.00     0.293 HD
ENDBRANCH   8  26
TORSDOF 6
ENDMDL
MODEL 8
REMARK VINA RESULT:    -7.186      3.855      7.640
REMARK INTER + INTRA:          -8.800
REMARK INTER:                  -8.476
REMARK INTRA:                  -0.324
REMARK UNBOUND:                -0.143
REMARK SMILES O=c1c(O)c(-c2ccc(O)c(O)c2)oc2cc(O)cc(O)c12
REMARK SMILES IDX 5 1 3 2 2 3 1 4 22 5 20 6 19 7 17 8 16 9 15 10 14 11 6 12
REMARK SMILES IDX 7 13 8 14 9 15 13 16 11 17 10 18 12 20 4 22 21 24 18 26
REMARK H PARENT 10 19 12 21 4 23 21 25 18 27
REMARK Flexibility Score: inf
ROOT
ATOM      1  C   UNL     1      24.735  -3.626 -27.320  1.00  0.00     0.180 A 
ATOM      2  C   UNL     1      24.361  -4.012 -28.619  1.00  0.00     0.208 A 
ATOM      3  C   UNL     1      24.262  -5.380 -28.920  1.00  0.00     0.238 A 
ATOM      4  O   UNL     1      23.980  -5.720 -30.099  1.00  0.00    -0.285 OA
ATOM      5  C   UNL     1      24.522  -6.344 -27.916  1.00  0.00     0.111 A 
ATOM      6  C   UNL     1      24.413  -7.755 -28.099  1.00  0.00     0.134 A 
ATOM      7  C   UNL     1      24.821  -8.618 -27.074  1.00  0.00     0.093 A 
ATOM      8  C   UNL     1      25.272  -8.119 -25.850  1.00  0.00     0.123 A 
ATOM      9  C   UNL     1      25.325  -6.743 -25.640  1.00  0.00     0.094 A 
ATOM     10  C   UNL     1      24.960  -5.857 -26.656  1.00  0.00     0.146 A 
ATOM     11  O   UNL     1      25.036  -4.554 -26.419  1.00  0.00    -0.452 OA
ENDROOT
BRANCH   1  12
ATOM     12  C   UNL     1      24.837  -2.203 -26.919  1.00  0.00     0.025 A 
ATOM     13  C   UNL     1      26.038  -1.489 -27.056  1.00  0.00     0.016 A 
ATOM     14  C   UNL     1      26.105  -0.141 -26.693  1.00  0.00     0.051 A 
ATOM     15  C   UNL     1      24.969   0.516 -26.203  1.00  0.00     0.157 A 
ATOM     16  C   UNL     1      23.694  -1.535 -26.447  1.00  0.00     0.062 A 
ATOM     17  C   UNL     1      23.757  -0.185 -26.083  1.00  0.00     0.158 A 
BRANCH  15  18
ATOM     18  O   UNL     1      25.038   1.860 -25.841  1.00  0.00    -0.504 OA
ATOM     19  H   UNL     1      25.880   2.259 -25.442  1.00  0.00     0.293 HD
ENDBRANCH  15  18
BRANCH  17  20
ATOM     20  O   UNL     1      22.607   0.441 -25.605  1.00  0.00    -0.504 OA
ATOM     21  H   UNL     1      22.483   0.665 -24.625  1.00  0.00     0.293 HD
ENDBRANCH  17  20
ENDBRANCH   1  12
BRANCH   2  22
ATOM     22  O   UNL     1      24.131  -3.045 -29.600  1.00  0.00    -0.502 OA
ATOM     23  H   UNL     1      24.620  -2.157 -29.615  1.00  0.00     0.293 HD
ENDBRANCH   2  22
BRANCH   6  24
ATOM     24  O   UNL     1      23.889  -8.355 -29.249  1.00  0.00    -0.507 OA
ATOM     25  H   UNL     1      23.453  -7.856 -30.008  1.00  0.00     0.293 HD
ENDBRANCH   6  24
BRANCH   8  26
ATOM     26  O   UNL     1      25.660  -8.985 -24.830  1.00  0.00    -0.508 OA
ATOM     27  H   UNL     1      26.582  -9.405 -24.814  1.00  0.00     0.293 HD
ENDBRANCH   8  26
TORSDOF 6
ENDMDL
MODEL 9
REMARK VINA RESULT:    -7.031      2.825      7.637
REMARK INTER + INTRA:          -8.612
REMARK INTER:                  -8.278
REMARK INTRA:                  -0.335
REMARK UNBOUND:                -0.143
REMARK SMILES O=c1c(O)c(-c2ccc(O)c(O)c2)oc2cc(O)cc(O)c12
REMARK SMILES IDX 5 1 3 2 2 3 1 4 22 5 20 6 19 7 17 8 16 9 15 10 14 11 6 12
REMARK SMILES IDX 7 13 8 14 9 15 13 16 11 17 10 18 12 20 4 22 21 24 18 26
REMARK H PARENT 10 19 12 21 4 23 21 25 18 27
REMARK Flexibility Score: inf
ROOT
ATOM      1  C   UNL     1      23.465  -2.361 -28.088  1.00  0.00     0.180 A 
ATOM      2  C   UNL     1      24.157  -3.164 -29.011  1.00  0.00     0.208 A 
ATOM      3  C   UNL     1      23.677  -4.456 -29.284  1.00  0.00     0.238 A 
ATOM      4  O   UNL     1      24.332  -5.190 -30.069  1.00  0.00    -0.285 OA
ATOM      5  C   UNL     1      22.504  -4.922 -28.644  1.00  0.00     0.111 A 
ATOM      6  C   UNL     1      21.906  -6.196 -28.876  1.00  0.00     0.134 A 
ATOM      7  C   UNL     1      20.820  -6.603 -28.090  1.00  0.00     0.093 A 
ATOM      8  C   UNL     1      20.269  -5.754 -27.128  1.00  0.00     0.123 A 
ATOM      9  C   UNL     1      20.808  -4.484 -26.936  1.00  0.00     0.094 A 
ATOM     10  C   UNL     1      21.914  -4.064 -27.678  1.00  0.00     0.146 A 
ATOM     11  O   UNL     1      22.405  -2.851 -27.456  1.00  0.00    -0.452 OA
ENDROOT
BRANCH   1  12
ATOM     12  C   UNL     1      23.894  -0.980 -27.767  1.00  0.00     0.025 A 
ATOM     13  C   UNL     1      23.440   0.119 -28.514  1.00  0.00     0.016 A 
ATOM     14  C   UNL     1      23.840   1.416 -28.178  1.00  0.00     0.051 A 
ATOM     15  C   UNL     1      24.686   1.633 -27.083  1.00  0.00     0.157 A 
ATOM     16  C   UNL     1      24.727  -0.756 -26.658  1.00  0.00     0.062 A 
ATOM     17  C   UNL     1      25.130   0.541 -26.318  1.00  0.00     0.158 A 
BRANCH  15  18
ATOM     18  O   UNL     1      25.085   2.927 -26.752  1.00  0.00    -0.504 OA
ATOM     19  H   UNL     1      24.960   3.297 -25.817  1.00  0.00     0.293 HD
ENDBRANCH  15  18
BRANCH  17  20
ATOM     20  O   UNL     1      25.968   0.724 -25.219  1.00  0.00    -0.504 OA
ATOM     21  H   UNL     1      25.670   1.230 -24.394  1.00  0.00     0.293 HD
ENDBRANCH  17  20
ENDBRANCH   1  12
BRANCH   2  22
ATOM     22  O   UNL     1      25.326  -2.693 -29.613  1.00  0.00    -0.502 OA
ATOM     23  H   UNL     1      26.220  -3.158 -29.506  1.00  0.00     0.293 HD
ENDBRANCH   2  22
BRANCH   6  24
ATOM     24  O   UNL     1      22.320  -7.083 -29.875  1.00  0.00    -0.507 OA
ATOM     25  H   UNL     1      23.103  -6.927 -30.491  1.00  0.00     0.293 HD
ENDBRANCH   6  24
BRANCH   8  26
ATOM     26  O   UNL     1      19.178  -6.160 -26.362  1.00  0.00    -0.508 OA
ATOM     27  H   UNL     1      18.821  -7.107 -26.409  1.00  0.00     0.293 HD
ENDBRANCH   8  26
TORSDOF 6
ENDMDL
