MODEL 1
REMARK VINA RESULT:    -4.906      0.000      0.000
REMARK INTER + INTRA:         -10.335
REMARK INTER:                  -8.921
REMARK INTRA:                  -1.414
REMARK UNBOUND:                -1.414
REMARK SMILES CCCCCCCCCCCCCCCC(=O)[O-]
REMARK SMILES IDX 9 1 10 2 11 3 12 4 13 5 14 6 15 7 16 8 17 9 18 10 8 11 7 12
REMARK SMILES IDX 6 13 5 14 4 15 3 16 2 17 1 18
REMARK H PARENT
REMARK Flexibility Score: inf
ROOT
ATOM      1  C   UNL     1      10.405 -15.818  12.500  1.00  0.00     0.000 C 
ENDROOT
BRANCH   1   2
ATOM      2  C   UNL     1      10.886 -15.665  11.047  1.00  0.00     0.000 C 
BRANCH   2   3
ATOM      3  C   UNL     1      11.706 -16.873  10.567  1.00  0.00     0.000 C 
BRANCH   3   4
ATOM      4  C   UNL     1      13.040 -16.461   9.920  1.00  0.00     0.000 C 
BRANCH   4   5
ATOM      5  C   UNL     1      14.235 -16.628  10.872  1.00  0.00     0.000 C 
BRANCH   5   6
ATOM      6  C   UNL     1      13.885 -17.459  12.119  1.00  0.00     0.006 C 
BRANCH   6   7
ATOM      7  C   UNL     1      14.771 -17.102  13.320  1.00  0.00     0.053 C 
BRANCH   7   8
ATOM      8  C   UNL     1      14.282 -17.741  14.583  1.00  0.00     0.041 C 
ATOM      9  O   UNL     1      13.131 -18.251  14.631  1.00  0.00    -0.550 OA
ATOM     10  O   UNL     1      15.084 -17.745  15.718  1.00  0.00    -0.550 OA
ENDBRANCH   7   8
ENDBRANCH   6   7
ENDBRANCH   5   6
ENDBRANCH   4   5
ENDBRANCH   3   4
ENDBRANCH   2   3
ENDBRANCH   1   2
BRANCH   1  11
ATOM     11  C   UNL     1      11.487 -15.437  13.524  1.00  0.00     0.000 C 
BRANCH  11  12
ATOM     12  C   UNL     1      10.956 -15.419  14.966  1.00  0.00    -0.000 C 
BRANCH  12  13
ATOM     13  C   UNL     1      11.768 -14.455  15.838  1.00  0.00    -0.000 C 
BRANCH  13  14
ATOM     14  C   UNL     1      12.881 -13.782  15.026  1.00  0.00    -0.000 C 
BRANCH  14  15
ATOM     15  C   UNL     1      12.834 -12.255  15.188  1.00  0.00    -0.000 C 
BRANCH  15  16
ATOM     16  C   UNL     1      11.415 -11.732  15.459  1.00  0.00    -0.000 C 
BRANCH  16  17
ATOM     17  C   UNL     1      11.272 -10.231  15.163  1.00  0.00    -0.003 C 
ATOM     18  C   UNL     1      12.629  -9.535  15.186  1.00  0.00     0.004 C 
ENDBRANCH  16  17
ENDBRANCH  15  16
ENDBRANCH  14  15
ENDBRANCH  13  14
ENDBRANCH  12  13
ENDBRANCH  11  12
ENDBRANCH   1  11
TORSDOF 14
ENDMDL
MODEL 2
REMARK VINA RESULT:    -4.693      3.398      6.940
REMARK INTER + INTRA:          -9.947
REMARK INTER:                  -8.808
REMARK INTRA:                  -1.139
REMARK UNBOUND:                -1.414
REMARK SMILES CCCCCCCCCCCCCCCC(=O)[O-]
REMARK SMILES IDX 9 1 10 2 11 3 12 4 13 5 14 6 15 7 16 8 17 9 18 10 8 11 7 12
REMARK SMILES IDX 6 13 5 14 4 15 3 16 2 17 1 18
REMARK H PARENT
REMARK Flexibility Score: inf
ROOT
ATOM      1  C   UNL     1      11.741 -13.397  16.662  1.00  0.00     0.000 C 
ENDROOT
BRANCH   1   2
ATOM      2  C   UNL     1      11.346 -12.382  15.576  1.00  0.00     0.000 C 
BRANCH   2   3
ATOM      3  C   UNL     1      12.528 -11.508  15.128  1.00  0.00     0.000 C 
BRANCH   3   4
ATOM      4  C   UNL     1      12.206 -10.004  15.189  1.00  0.00     0.000 C 
BRANCH   4   5
ATOM      5  C   UNL     1      13.459  -9.124  15.049  1.00  0.00     0.000 C 
BRANCH   5   6
ATOM      6  C   UNL     1      14.621  -9.858  14.357  1.00  0.00     0.006 C 
BRANCH   6   7
ATOM      7  C   UNL     1      15.470  -8.913  13.496  1.00  0.00     0.053 C 
BRANCH   7   8
ATOM      8  C   UNL     1      16.896  -9.364  13.413  1.00  0.00     0.041 C 
ATOM      9  O   UNL     1      17.645  -8.930  12.497  1.00  0.00    -0.550 OA
ATOM     10  O   UNL     1      17.389 -10.287  14.326  1.00  0.00    -0.550 OA
ENDBRANCH   7   8
ENDBRANCH   6   7
ENDBRANCH   5   6
ENDBRANCH   4   5
ENDBRANCH   3   4
ENDBRANCH   2   3
ENDBRANCH   1   2
BRANCH   1  11
ATOM     11  C   UNL     1      12.110 -14.772  16.081  1.00  0.00     0.000 C 
BRANCH  11  12
ATOM     12  C   UNL     1      10.944 -15.425  15.324  1.00  0.00    -0.000 C 
BRANCH  12  13
ATOM     13  C   UNL     1      11.290 -15.614  13.842  1.00  0.00    -0.000 C 
BRANCH  13  14
ATOM     14  C   UNL     1      12.807 -15.712  13.638  1.00  0.00    -0.000 C 
BRANCH  14  15
ATOM     15  C   UNL     1      13.230 -17.157  13.338  1.00  0.00    -0.000 C 
BRANCH  15  16
ATOM     16  C   UNL     1      13.396 -18.003  14.609  1.00  0.00    -0.000 C 
BRANCH  16  17
ATOM     17  C   UNL     1      14.633 -17.604  15.427  1.00  0.00    -0.003 C 
ATOM     18  C   UNL     1      15.886 -17.587  14.556  1.00  0.00     0.004 C 
ENDBRANCH  16  17
ENDBRANCH  15  16
ENDBRANCH  14  15
ENDBRANCH  13  14
ENDBRANCH  12  13
ENDBRANCH  11  12
ENDBRANCH   1  11
TORSDOF 14
ENDMDL
MODEL 3
REMARK VINA RESULT:    -4.621      2.864      6.620
REMARK INTER + INTRA:          -9.816
REMARK INTER:                  -8.649
REMARK INTRA:                  -1.167
REMARK UNBOUND:                -1.414
REMARK SMILES CCCCCCCCCCCCCCCC(=O)[O-]
REMARK SMILES IDX 9 1 10 2 11 3 12 4 13 5 14 6 15 7 16 8 17 9 18 10 8 11 7 12
REMARK SMILES IDX 6 13 5 14 4 15 3 16 2 17 1 18
REMARK H PARENT
REMARK Flexibility Score: inf
ROOT
ATOM      1  C   UNL     1      15.302 -17.697  14.516  1.00  0.00     0.000 C 
ENDROOT
BRANCH   1   2
ATOM      2  C   UNL     1      13.914 -17.748  15.179  1.00  0.00     0.000 C 
BRANCH   2   3
ATOM      3  C   UNL     1      13.581 -16.460  15.947  1.00  0.00     0.000 C 
BRANCH   3   4
ATOM      4  C   UNL     1      12.424 -15.674  15.307  1.00  0.00     0.000 C 
BRANCH   4   5
ATOM      5  C   UNL     1      11.498 -15.028  16.351  1.00  0.00     0.000 C 
BRANCH   5   6
ATOM      6  C   UNL     1      11.628 -13.496  16.387  1.00  0.00     0.006 C 
BRANCH   6   7
ATOM      7  C   UNL     1      12.038 -12.917  15.027  1.00  0.00     0.053 C 
BRANCH   7   8
ATOM      8  C   UNL     1      12.344 -11.453  15.113  1.00  0.00     0.041 C 
ATOM      9  O   UNL     1      13.505 -11.033  14.861  1.00  0.00    -0.550 OA
ATOM     10  O   UNL     1      11.357 -10.556  15.500  1.00  0.00    -0.550 OA
ENDBRANCH   7   8
ENDBRANCH   6   7
ENDBRANCH   5   6
ENDBRANCH   4   5
ENDBRANCH   3   4
ENDBRANCH   2   3
ENDBRANCH   1   2
BRANCH   1  11
ATOM     11  C   UNL     1      15.257 -17.109  13.096  1.00  0.00     0.000 C 
BRANCH  11  12
ATOM     12  C   UNL     1      13.948 -17.433  12.363  1.00  0.00    -0.000 C 
BRANCH  12  13
ATOM     13  C   UNL     1      13.320 -16.164  11.773  1.00  0.00    -0.000 C 
BRANCH  13  14
ATOM     14  C   UNL     1      11.793 -16.289  11.696  1.00  0.00    -0.000 C 
BRANCH  14  15
ATOM     15  C   UNL     1      11.283 -15.935  10.291  1.00  0.00    -0.000 C 
BRANCH  15  16
ATOM     16  C   UNL     1      11.815 -16.888   9.210  1.00  0.00    -0.000 C 
BRANCH  16  17
ATOM     17  C   UNL     1      10.691 -17.547   8.397  1.00  0.00    -0.003 C 
ATOM     18  C   UNL     1       9.858 -16.501   7.663  1.00  0.00     0.004 C 
ENDBRANCH  16  17
ENDBRANCH  15  16
ENDBRANCH  14  15
ENDBRANCH  13  14
ENDBRANCH  12  13
ENDBRANCH  11  12
ENDBRANCH   1  11
TORSDOF 14
ENDMDL
MODEL 4
REMARK VINA RESULT:    -4.617      4.642      8.310
REMARK INTER + INTRA:          -9.809
REMARK INTER:                  -8.620
REMARK INTRA:                  -1.189
REMARK UNBOUND:                -1.414
REMARK SMILES CCCCCCCCCCCCCCCC(=O)[O-]
REMARK SMILES IDX 9 1 10 2 11 3 12 4 13 5 14 6 15 7 16 8 17 9 18 10 8 11 7 12
REMARK SMILES IDX 6 13 5 14 4 15 3 16 2 17 1 18
REMARK H PARENT
REMARK Flexibility Score: inf
ROOT
ATOM      1  C   UNL     1      10.796 -17.532   8.367  1.00  0.00     0.000 C 
ENDROOT
BRANCH   1   2
ATOM      2  C   UNL     1      11.227 -16.091   8.690  1.00  0.00     0.000 C 
BRANCH   2   3
ATOM      3  C   UNL     1      11.661 -15.919  10.154  1.00  0.00     0.000 C 
BRANCH   3   4
ATOM      4  C   UNL     1      10.501 -15.483  11.066  1.00  0.00     0.000 C 
BRANCH   4   5
ATOM      5  C   UNL     1      10.710 -15.902  12.530  1.00  0.00     0.000 C 
BRANCH   5   6
ATOM      6  C   UNL     1      12.160 -16.325  12.822  1.00  0.00     0.006 C 
BRANCH   6   7
ATOM      7  C   UNL     1      12.678 -15.741  14.142  1.00  0.00     0.053 C 
BRANCH   7   8
ATOM      8  C   UNL     1      13.229 -16.802  15.044  1.00  0.00     0.041 C 
ATOM      9  O   UNL     1      13.689 -16.494  16.176  1.00  0.00    -0.550 OA
ATOM     10  O   UNL     1      13.264 -18.125  14.624  1.00  0.00    -0.550 OA
ENDBRANCH   7   8
ENDBRANCH   6   7
ENDBRANCH   5   6
ENDBRANCH   4   5
ENDBRANCH   3   4
ENDBRANCH   2   3
ENDBRANCH   1   2
BRANCH   1  11
ATOM     11  C   UNL     1       9.853 -17.610   7.155  1.00  0.00     0.000 C 
BRANCH  11  12
ATOM     12  C   UNL     1       8.756 -16.535   7.189  1.00  0.00    -0.000 C 
BRANCH  12  13
ATOM     13  C   UNL     1       8.802 -15.664   5.928  1.00  0.00    -0.000 C 
BRANCH  13  14
ATOM     14  C   UNL     1       9.348 -16.454   4.732  1.00  0.00    -0.000 C 
BRANCH  14  15
ATOM     15  C   UNL     1       8.265 -16.650   3.661  1.00  0.00    -0.000 C 
BRANCH  15  16
ATOM     16  C   UNL     1       7.924 -18.130   3.427  1.00  0.00    -0.000 C 
BRANCH  16  17
ATOM     17  C   UNL     1       6.522 -18.501   3.934  1.00  0.00    -0.003 C 
ATOM     18  C   UNL     1       6.601 -19.297   5.233  1.00  0.00     0.004 C 
ENDBRANCH  16  17
ENDBRANCH  15  16
ENDBRANCH  14  15
ENDBRANCH  13  14
ENDBRANCH  12  13
ENDBRANCH  11  12
ENDBRANCH   1  11
TORSDOF 14
ENDMDL
MODEL 5
REMARK VINA RESULT:    -4.590      2.452      6.186
REMARK INTER + INTRA:          -9.761
REMARK INTER:                  -7.824
REMARK INTRA:                  -1.937
REMARK UNBOUND:                -1.414
REMARK SMILES CCCCCCCCCCCCCCCC(=O)[O-]
REMARK SMILES IDX 9 1 10 2 11 3 12 4 13 5 14 6 15 7 16 8 17 9 18 10 8 11 7 12
REMARK SMILES IDX 6 13 5 14 4 15 3 16 2 17 1 18
REMARK H PARENT
REMARK Flexibility Score: inf
ROOT
ATOM      1  C   UNL     1      15.915 -15.924  13.975  1.00  0.00     0.000 C 
ENDROOT
BRANCH   1   2
ATOM      2  C   UNL     1      15.758 -17.391  14.411  1.00  0.00     0.000 C 
BRANCH   2   3
ATOM      3  C   UNL     1      14.626 -17.584  15.432  1.00  0.00     0.000 C 
BRANCH   3   4
ATOM      4  C   UNL     1      13.333 -18.112  14.786  1.00  0.00     0.000 C 
BRANCH   4   5
ATOM      5  C   UNL     1      12.391 -16.983  14.339  1.00  0.00     0.000 C 
BRANCH   5   6
ATOM      6  C   UNL     1      12.415 -15.780  15.298  1.00  0.00     0.006 C 
BRANCH   6   7
ATOM      7  C   UNL     1      12.003 -14.476  14.602  1.00  0.00     0.053 C 
BRANCH   7   8
ATOM      8  C   UNL     1      11.751 -13.374  15.585  1.00  0.00     0.041 C 
ATOM      9  O   UNL     1      11.546 -12.199  15.179  1.00  0.00    -0.550 OA
ATOM     10  O   UNL     1      11.774 -13.637  16.948  1.00  0.00    -0.550 OA
ENDBRANCH   7   8
ENDBRANCH   6   7
ENDBRANCH   5   6
ENDBRANCH   4   5
ENDBRANCH   3   4
ENDBRANCH   2   3
ENDBRANCH   1   2
BRANCH   1  11
ATOM     11  C   UNL     1      15.423 -15.678  12.539  1.00  0.00     0.000 C 
BRANCH  11  12
ATOM     12  C   UNL     1      15.406 -16.960  11.693  1.00  0.00    -0.000 C 
BRANCH  12  13
ATOM     13  C   UNL     1      13.977 -17.314  11.263  1.00  0.00    -0.000 C 
BRANCH  13  14
ATOM     14  C   UNL     1      13.289 -16.115  10.598  1.00  0.00    -0.000 C 
BRANCH  14  15
ATOM     15  C   UNL     1      11.763 -16.199  10.757  1.00  0.00    -0.000 C 
BRANCH  15  16
ATOM     16  C   UNL     1      11.021 -16.074   9.418  1.00  0.00    -0.000 C 
BRANCH  16  17
ATOM     17  C   UNL     1      11.385 -17.195   8.433  1.00  0.00    -0.003 C 
ATOM     18  C   UNL     1      10.993 -18.561   8.986  1.00  0.00     0.004 C 
ENDBRANCH  16  17
ENDBRANCH  15  16
ENDBRANCH  14  15
ENDBRANCH  13  14
ENDBRANCH  12  13
ENDBRANCH  11  12
ENDBRANCH   1  11
TORSDOF 14
ENDMDL
MODEL 6
REMARK VINA RESULT:    -4.553      2.198      4.376
REMARK INTER + INTRA:          -9.694
REMARK INTER:                  -7.756
REMARK INTRA:                  -1.938
REMARK UNBOUND:                -1.414
REMARK SMILES CCCCCCCCCCCCCCCC(=O)[O-]
REMARK SMILES IDX 9 1 10 2 11 3 12 4 13 5 14 6 15 7 16 8 17 9 18 10 8 11 7 12
REMARK SMILES IDX 6 13 5 14 4 15 3 16 2 17 1 18
REMARK H PARENT
REMARK Flexibility Score: inf
ROOT
ATOM      1  C   UNL     1      12.943 -17.223  10.915  1.00  0.00     0.000 C 
ENDROOT
BRANCH   1   2
ATOM      2  C   UNL     1      11.937 -16.279  10.233  1.00  0.00     0.000 C 
BRANCH   2   3
ATOM      3  C   UNL     1      10.875 -15.746  11.207  1.00  0.00     0.000 C 
BRANCH   3   4
ATOM      4  C   UNL     1      11.078 -16.264  12.642  1.00  0.00     0.000 C 
BRANCH   4   5
ATOM      5  C   UNL     1      11.352 -15.133  13.646  1.00  0.00     0.000 C 
BRANCH   5   6
ATOM      6  C   UNL     1      11.217 -15.596  15.108  1.00  0.00     0.006 C 
BRANCH   6   7
ATOM      7  C   UNL     1      11.578 -14.485  16.102  1.00  0.00     0.053 C 
BRANCH   7   8
ATOM      8  C   UNL     1      12.435 -14.993  17.220  1.00  0.00     0.041 C 
ATOM      9  O   UNL     1      13.274 -15.910  17.009  1.00  0.00    -0.550 OA
ATOM     10  O   UNL     1      12.287 -14.478  18.502  1.00  0.00    -0.550 OA
ENDBRANCH   7   8
ENDBRANCH   6   7
ENDBRANCH   5   6
ENDBRANCH   4   5
ENDBRANCH   3   4
ENDBRANCH   2   3
ENDBRANCH   1   2
BRANCH   1  11
ATOM     11  C   UNL     1      14.403 -16.862  10.596  1.00  0.00     0.000 C 
BRANCH  11  12
ATOM     12  C   UNL     1      15.330 -17.021  11.811  1.00  0.00    -0.000 C 
BRANCH  12  13
ATOM     13  C   UNL     1      14.542 -17.471  13.047  1.00  0.00    -0.000 C 
BRANCH  13  14
ATOM     14  C   UNL     1      15.229 -17.007  14.338  1.00  0.00    -0.000 C 
BRANCH  14  15
ATOM     15  C   UNL     1      15.917 -15.649  14.137  1.00  0.00    -0.000 C 
BRANCH  15  16
ATOM     16  C   UNL     1      14.966 -14.464  14.362  1.00  0.00    -0.000 C 
BRANCH  16  17
ATOM     17  C   UNL     1      15.433 -13.187  13.646  1.00  0.00    -0.003 C 
ATOM     18  C   UNL     1      16.860 -13.339  13.127  1.00  0.00     0.004 C 
ENDBRANCH  16  17
ENDBRANCH  15  16
ENDBRANCH  14  15
ENDBRANCH  13  14
ENDBRANCH  12  13
ENDBRANCH  11  12
ENDBRANCH   1  11
TORSDOF 14
ENDMDL
MODEL 7
REMARK VINA RESULT:    -4.549      2.696      5.418
REMARK INTER + INTRA:          -9.686
REMARK INTER:                  -7.367
REMARK INTRA:                  -2.319
REMARK UNBOUND:                -1.414
REMARK SMILES CCCCCCCCCCCCCCCC(=O)[O-]
REMARK SMILES IDX 9 1 10 2 11 3 12 4 13 5 14 6 15 7 16 8 17 9 18 10 8 11 7 12
REMARK SMILES IDX 6 13 5 14 4 15 3 16 2 17 1 18
REMARK H PARENT
REMARK Flexibility Score: inf
ROOT
ATOM      1  C   UNL     1      12.378 -17.193  11.251  1.00  0.00     0.000 C 
ENDROOT
BRANCH   1   2
ATOM      2  C   UNL     1      11.543 -15.931  10.970  1.00  0.00     0.000 C 
BRANCH   2   3
ATOM      3  C   UNL     1      10.709 -15.494  12.184  1.00  0.00     0.000 C 
BRANCH   3   4
ATOM      4  C   UNL     1      10.945 -16.389  13.414  1.00  0.00     0.000 C 
BRANCH   4   5
ATOM      5  C   UNL     1      11.295 -15.581  14.674  1.00  0.00     0.000 C 
BRANCH   5   6
ATOM      6  C   UNL     1      11.639 -14.115  14.359  1.00  0.00     0.006 C 
BRANCH   6   7
ATOM      7  C   UNL     1      11.489 -13.209  15.588  1.00  0.00     0.053 C 
BRANCH   7   8
ATOM      8  C   UNL     1      11.974 -11.818  15.319  1.00  0.00     0.041 C 
ATOM      9  O   UNL     1      11.185 -10.841  15.422  1.00  0.00    -0.550 OA
ATOM     10  O   UNL     1      13.288 -11.602  14.923  1.00  0.00    -0.550 OA
ENDBRANCH   7   8
ENDBRANCH   6   7
ENDBRANCH   5   6
ENDBRANCH   4   5
ENDBRANCH   3   4
ENDBRANCH   2   3
ENDBRANCH   1   2
BRANCH   1  11
ATOM     11  C   UNL     1      13.879 -16.978  10.999  1.00  0.00     0.000 C 
BRANCH  11  12
ATOM     12  C   UNL     1      14.277 -15.494  11.034  1.00  0.00    -0.000 C 
BRANCH  12  13
ATOM     13  C   UNL     1      15.470 -15.269  11.971  1.00  0.00    -0.000 C 
BRANCH  13  14
ATOM     14  C   UNL     1      15.080 -14.379  13.157  1.00  0.00    -0.000 C 
BRANCH  14  15
ATOM     15  C   UNL     1      15.196 -15.147  14.482  1.00  0.00    -0.000 C 
BRANCH  15  16
ATOM     16  C   UNL     1      15.670 -16.595  14.288  1.00  0.00    -0.000 C 
BRANCH  16  17
ATOM     17  C   UNL     1      14.989 -17.576  15.255  1.00  0.00    -0.003 C 
ATOM     18  C   UNL     1      13.715 -18.152  14.644  1.00  0.00     0.004 C 
ENDBRANCH  16  17
ENDBRANCH  15  16
ENDBRANCH  14  15
ENDBRANCH  13  14
ENDBRANCH  12  13
ENDBRANCH  11  12
ENDBRANCH   1  11
TORSDOF 14
ENDMDL
MODEL 8
REMARK VINA RESULT:    -4.547      2.663      6.226
REMARK INTER + INTRA:          -9.683
REMARK INTER:                  -8.234
REMARK INTRA:                  -1.448
REMARK UNBOUND:                -1.414
REMARK SMILES CCCCCCCCCCCCCCCC(=O)[O-]
REMARK SMILES IDX 9 1 10 2 11 3 12 4 13 5 14 6 15 7 16 8 17 9 18 10 8 11 7 12
REMARK SMILES IDX 6 13 5 14 4 15 3 16 2 17 1 18
REMARK H PARENT
REMARK Flexibility Score: inf
ROOT
ATOM      1  C   UNL     1      13.975 -17.479  12.170  1.00  0.00     0.000 C 
ENDROOT
BRANCH   1   2
ATOM      2  C   UNL     1      15.434 -17.269  12.610  1.00  0.00     0.000 C 
BRANCH   2   3
ATOM      3  C   UNL     1      15.555 -16.918  14.101  1.00  0.00     0.000 C 
BRANCH   3   4
ATOM      4  C   UNL     1      14.753 -17.876  15.000  1.00  0.00     0.000 C 
BRANCH   4   5
ATOM      5  C   UNL     1      13.685 -17.150  15.833  1.00  0.00     0.000 C 
BRANCH   5   6
ATOM      6  C   UNL     1      13.448 -15.706  15.361  1.00  0.00     0.006 C 
BRANCH   6   7
ATOM      7  C   UNL     1      11.974 -15.295  15.471  1.00  0.00     0.053 C 
BRANCH   7   8
ATOM      8  C   UNL     1      11.756 -14.275  16.545  1.00  0.00     0.041 C 
ATOM      9  O   UNL     1      11.351 -13.119  16.249  1.00  0.00    -0.550 OA
ATOM     10  O   UNL     1      12.030 -14.588  17.870  1.00  0.00    -0.550 OA
ENDBRANCH   7   8
ENDBRANCH   6   7
ENDBRANCH   5   6
ENDBRANCH   4   5
ENDBRANCH   3   4
ENDBRANCH   2   3
ENDBRANCH   1   2
BRANCH   1  11
ATOM     11  C   UNL     1      13.317 -16.185  11.665  1.00  0.00     0.000 C 
BRANCH  11  12
ATOM     12  C   UNL     1      11.793 -16.185  11.850  1.00  0.00    -0.000 C 
BRANCH  12  13
ATOM     13  C   UNL     1      11.078 -15.937  10.517  1.00  0.00    -0.000 C 
BRANCH  13  14
ATOM     14  C   UNL     1      12.061 -15.443   9.448  1.00  0.00    -0.000 C 
BRANCH  14  15
ATOM     15  C   UNL     1      11.658 -15.949   8.055  1.00  0.00    -0.000 C 
BRANCH  15  16
ATOM     16  C   UNL     1      10.512 -16.970   8.104  1.00  0.00    -0.000 C 
BRANCH  16  17
ATOM     17  C   UNL     1       9.263 -16.492   7.347  1.00  0.00    -0.003 C 
ATOM     18  C   UNL     1       9.645 -15.674   6.117  1.00  0.00     0.004 C 
ENDBRANCH  16  17
ENDBRANCH  15  16
ENDBRANCH  14  15
ENDBRANCH  13  14
ENDBRANCH  12  13
ENDBRANCH  11  12
ENDBRANCH   1  11
TORSDOF 14
ENDMDL
MODEL 9
REMARK VINA RESULT:    -4.529      4.205      6.215
REMARK INTER + INTRA:          -9.650
REMARK INTER:                  -8.225
REMARK INTRA:                  -1.425
REMARK UNBOUND:                -1.414
REMARK SMILES CCCCCCCCCCCCCCCC(=O)[O-]
REMARK SMILES IDX 9 1 10 2 11 3 12 4 13 5 14 6 15 7 16 8 17 9 18 10 8 11 7 12
REMARK SMILES IDX 6 13 5 14 4 15 3 16 2 17 1 18
REMARK H PARENT
REMARK Flexibility Score: inf
ROOT
ATOM      1  C   UNL     1      13.625 -17.381  11.917  1.00  0.00     0.000 C 
ENDROOT
BRANCH   1   2
ATOM      2  C   UNL     1      12.969 -16.185  11.205  1.00  0.00     0.000 C 
BRANCH   2   3
ATOM      3  C   UNL     1      11.666 -16.569  10.488  1.00  0.00     0.000 C 
BRANCH   3   4
ATOM      4  C   UNL     1      11.853 -17.746   9.514  1.00  0.00     0.000 C 
BRANCH   4   5
ATOM      5  C   UNL     1      10.662 -17.918   8.558  1.00  0.00     0.000 C 
BRANCH   5   6
ATOM      6  C   UNL     1      10.523 -16.747   7.570  1.00  0.00     0.006 C 
BRANCH   6   7
ATOM      7  C   UNL     1       9.072 -16.540   7.118  1.00  0.00     0.053 C 
BRANCH   7   8
ATOM      8  C   UNL     1       8.990 -15.738   5.856  1.00  0.00     0.041 C 
ATOM      9  O   UNL     1       9.546 -14.610   5.784  1.00  0.00    -0.550 OA
ATOM     10  O   UNL     1       8.273 -16.221   4.768  1.00  0.00    -0.550 OA
ENDBRANCH   7   8
ENDBRANCH   6   7
ENDBRANCH   5   6
ENDBRANCH   4   5
ENDBRANCH   3   4
ENDBRANCH   2   3
ENDBRANCH   1   2
BRANCH   1  11
ATOM     11  C   UNL     1      15.116 -17.149  12.210  1.00  0.00     0.000 C 
BRANCH  11  12
ATOM     12  C   UNL     1      15.501 -17.526  13.648  1.00  0.00    -0.000 C 
BRANCH  12  13
ATOM     13  C   UNL     1      14.253 -17.762  14.507  1.00  0.00    -0.000 C 
BRANCH  13  14
ATOM     14  C   UNL     1      14.415 -17.139  15.899  1.00  0.00    -0.000 C 
BRANCH  14  15
ATOM     15  C   UNL     1      13.310 -16.108  16.172  1.00  0.00    -0.000 C 
BRANCH  15  16
ATOM     16  C   UNL     1      13.222 -15.030  15.081  1.00  0.00    -0.000 C 
BRANCH  16  17
ATOM     17  C   UNL     1      11.779 -14.577  14.813  1.00  0.00    -0.003 C 
ATOM     18  C   UNL     1      10.953 -15.706  14.203  1.00  0.00     0.004 C 
ENDBRANCH  16  17
ENDBRANCH  15  16
ENDBRANCH  14  15
ENDBRANCH  13  14
ENDBRANCH  12  13
ENDBRANCH  11  12
ENDBRANCH   1  11
TORSDOF 14
ENDMDL
