MODEL 1
REMARK VINA RESULT:    -3.353      0.000      0.000
REMARK INTER + INTRA:         -10.588
REMARK INTER:                  -7.273
REMARK INTRA:                  -3.315
REMARK UNBOUND:                -3.315
REMARK SMILES CCCCCCCCCCCCCCCCCCCCCC(=O)[O-]
REMARK SMILES IDX 12 1 11 2 10 3 9 4 8 5 7 6 6 7 5 8 4 9 3 10 2 11 1 12 13 13
REMARK SMILES IDX 14 14 15 15 16 16 17 17 18 18 19 19 20 20 21 21 22 22 23 23
REMARK SMILES IDX 24 24
REMARK H PARENT
REMARK Flexibility Score: inf
ROOT
ATOM      1  C   UNL     1      57.733  29.793  51.891  1.00  0.00     0.000 C 
ENDROOT
BRANCH   1   2
ATOM      2  C   UNL     1      56.344  30.035  52.506  1.00  0.00     0.000 C 
BRANCH   2   3
ATOM      3  C   UNL     1      55.203  29.763  51.512  1.00  0.00     0.000 C 
BRANCH   3   4
ATOM      4  C   UNL     1      53.885  29.392  52.214  1.00  0.00    -0.000 C 
BRANCH   4   5
ATOM      5  C   UNL     1      52.903  28.674  51.275  1.00  0.00    -0.000 C 
BRANCH   5   6
ATOM      6  C   UNL     1      53.536  28.317  49.920  1.00  0.00    -0.000 C 
BRANCH   6   7
ATOM      7  C   UNL     1      53.149  26.909  49.431  1.00  0.00    -0.000 C 
BRANCH   7   8
ATOM      8  C   UNL     1      54.338  25.968  49.166  1.00  0.00    -0.000 C 
BRANCH   8   9
ATOM      9  C   UNL     1      55.571  26.308  50.023  1.00  0.00    -0.000 C 
BRANCH   9  10
ATOM     10  C   UNL     1      55.586  25.555  51.361  1.00  0.00    -0.000 C 
BRANCH  10  11
ATOM     11  C   UNL     1      56.090  26.426  52.522  1.00  0.00    -0.003 C 
ATOM     12  C   UNL     1      57.466  25.966  52.996  1.00  0.00     0.004 C 
ENDBRANCH  10  11
ENDBRANCH   9  10
ENDBRANCH   8   9
ENDBRANCH   7   8
ENDBRANCH   6   7
ENDBRANCH   5   6
ENDBRANCH   4   5
ENDBRANCH   3   4
ENDBRANCH   2   3
ENDBRANCH   1   2
BRANCH   1  13
ATOM     13  C   UNL     1      57.644  29.151  50.489  1.00  0.00     0.000 C 
BRANCH  13  14
ATOM     14  C   UNL     1      58.866  29.443  49.601  1.00  0.00     0.000 C 
BRANCH  14  15
ATOM     15  C   UNL     1      59.621  28.168  49.191  1.00  0.00     0.000 C 
BRANCH  15  16
ATOM     16  C   UNL     1      59.184  26.926  49.988  1.00  0.00     0.000 C 
BRANCH  16  17
ATOM     17  C   UNL     1      60.093  25.693  49.840  1.00  0.00     0.000 C 
BRANCH  17  18
ATOM     18  C   UNL     1      61.033  25.490  51.041  1.00  0.00     0.000 C 
BRANCH  18  19
ATOM     19  C   UNL     1      62.514  25.649  50.661  1.00  0.00     0.000 C 
BRANCH  19  20
ATOM     20  C   UNL     1      62.994  27.109  50.747  1.00  0.00     0.006 C 
BRANCH  20  21
ATOM     21  C   UNL     1      63.322  27.691  49.365  1.00  0.00     0.053 C 
BRANCH  21  22
ATOM     22  C   UNL     1      63.383  29.188  49.395  1.00  0.00     0.041 C 
ATOM     23  O   UNL     1      64.164  29.806  48.622  1.00  0.00    -0.550 OA
ATOM     24  O   UNL     1      62.557  29.902  50.254  1.00  0.00    -0.550 OA
ENDBRANCH  21  22
ENDBRANCH  20  21
ENDBRANCH  19  20
ENDBRANCH  18  19
ENDBRANCH  17  18
ENDBRANCH  16  17
ENDBRANCH  15  16
ENDBRANCH  14  15
ENDBRANCH  13  14
ENDBRANCH   1  13
TORSDOF 20
ENDMDL
MODEL 2
REMARK VINA RESULT:    -3.302      2.982      7.672
REMARK INTER + INTRA:         -10.479
REMARK INTER:                  -6.799
REMARK INTRA:                  -3.680
REMARK UNBOUND:                -3.315
REMARK SMILES CCCCCCCCCCCCCCCCCCCCCC(=O)[O-]
REMARK SMILES IDX 12 1 11 2 10 3 9 4 8 5 7 6 6 7 5 8 4 9 3 10 2 11 1 12 13 13
REMARK SMILES IDX 14 14 15 15 16 16 17 17 18 18 19 19 20 20 21 21 22 22 23 23
REMARK SMILES IDX 24 24
REMARK H PARENT
REMARK Flexibility Score: inf
ROOT
ATOM      1  C   UNL     1      58.916  29.223  49.384  1.00  0.00     0.000 C 
ENDROOT
BRANCH   1   2
ATOM      2  C   UNL     1      59.645  27.873  49.273  1.00  0.00     0.000 C 
BRANCH   2   3
ATOM      3  C   UNL     1      61.144  27.983  49.596  1.00  0.00     0.000 C 
BRANCH   3   4
ATOM      4  C   UNL     1      61.615  26.906  50.588  1.00  0.00    -0.000 C 
BRANCH   4   5
ATOM      5  C   UNL     1      62.257  27.508  51.847  1.00  0.00    -0.000 C 
BRANCH   5   6
ATOM      6  C   UNL     1      61.244  28.268  52.720  1.00  0.00    -0.000 C 
BRANCH   6   7
ATOM      7  C   UNL     1      61.644  29.734  52.963  1.00  0.00    -0.000 C 
BRANCH   7   8
ATOM      8  C   UNL     1      60.836  30.766  52.157  1.00  0.00    -0.000 C 
BRANCH   8   9
ATOM      9  C   UNL     1      61.728  31.791  51.434  1.00  0.00    -0.000 C 
BRANCH   9  10
ATOM     10  C   UNL     1      61.946  31.444  49.954  1.00  0.00    -0.000 C 
BRANCH  10  11
ATOM     11  C   UNL     1      63.432  31.436  49.563  1.00  0.00    -0.003 C 
ATOM     12  C   UNL     1      64.127  30.178  50.073  1.00  0.00     0.004 C 
ENDBRANCH  10  11
ENDBRANCH   9  10
ENDBRANCH   8   9
ENDBRANCH   7   8
ENDBRANCH   6   7
ENDBRANCH   5   6
ENDBRANCH   4   5
ENDBRANCH   3   4
ENDBRANCH   2   3
ENDBRANCH   1   2
BRANCH   1  13
ATOM     13  C   UNL     1      57.695  29.148  50.327  1.00  0.00     0.000 C 
BRANCH  13  14
ATOM     14  C   UNL     1      57.837  28.089  51.434  1.00  0.00     0.000 C 
BRANCH  14  15
ATOM     15  C   UNL     1      56.669  27.091  51.456  1.00  0.00     0.000 C 
BRANCH  15  16
ATOM     16  C   UNL     1      56.452  26.386  50.105  1.00  0.00     0.000 C 
BRANCH  16  17
ATOM     17  C   UNL     1      54.984  26.225  49.672  1.00  0.00     0.000 C 
BRANCH  17  18
ATOM     18  C   UNL     1      54.003  26.998  50.571  1.00  0.00     0.000 C 
BRANCH  18  19
ATOM     19  C   UNL     1      53.427  28.243  49.875  1.00  0.00     0.000 C 
BRANCH  19  20
ATOM     20  C   UNL     1      53.999  29.555  50.441  1.00  0.00     0.006 C 
BRANCH  20  21
ATOM     21  C   UNL     1      54.006  29.568  51.976  1.00  0.00     0.053 C 
BRANCH  21  22
ATOM     22  C   UNL     1      54.701  30.780  52.517  1.00  0.00     0.041 C 
ATOM     23  O   UNL     1      55.866  30.685  52.987  1.00  0.00    -0.550 OA
ATOM     24  O   UNL     1      54.073  32.019  52.478  1.00  0.00    -0.550 OA
ENDBRANCH  21  22
ENDBRANCH  20  21
ENDBRANCH  19  20
ENDBRANCH  18  19
ENDBRANCH  17  18
ENDBRANCH  16  17
ENDBRANCH  15  16
ENDBRANCH  14  15
ENDBRANCH  13  14
ENDBRANCH   1  13
TORSDOF 20
ENDMDL
MODEL 3
REMARK VINA RESULT:    -3.288     10.194     12.263
REMARK INTER + INTRA:         -10.447
REMARK INTER:                  -7.349
REMARK INTRA:                  -3.098
REMARK UNBOUND:                -3.315
REMARK SMILES CCCCCCCCCCCCCCCCCCCCCC(=O)[O-]
REMARK SMILES IDX 12 1 11 2 10 3 9 4 8 5 7 6 6 7 5 8 4 9 3 10 2 11 1 12 13 13
REMARK SMILES IDX 14 14 15 15 16 16 17 17 18 18 19 19 20 20 21 21 22 22 23 23
REMARK SMILES IDX 24 24
REMARK H PARENT
REMARK Flexibility Score: inf
ROOT
ATOM      1  C   UNL     1      61.778  28.468  58.412  1.00  0.00     0.000 C 
ENDROOT
BRANCH   1   2
ATOM      2  C   UNL     1      60.658  27.933  59.322  1.00  0.00     0.000 C 
BRANCH   2   3
ATOM      3  C   UNL     1      60.791  28.422  60.773  1.00  0.00     0.000 C 
BRANCH   3   4
ATOM      4  C   UNL     1      62.205  28.935  61.095  1.00  0.00    -0.000 C 
BRANCH   4   5
ATOM      5  C   UNL     1      62.198  30.370  61.646  1.00  0.00    -0.000 C 
BRANCH   5   6
ATOM      6  C   UNL     1      60.814  31.036  61.538  1.00  0.00    -0.000 C 
BRANCH   6   7
ATOM      7  C   UNL     1      60.804  32.242  60.581  1.00  0.00    -0.000 C 
BRANCH   7   8
ATOM      8  C   UNL     1      62.119  33.041  60.537  1.00  0.00    -0.000 C 
BRANCH   8   9
ATOM      9  C   UNL     1      61.906  34.519  60.165  1.00  0.00    -0.000 C 
BRANCH   9  10
ATOM     10  C   UNL     1      62.829  35.464  60.948  1.00  0.00    -0.000 C 
BRANCH  10  11
ATOM     11  C   UNL     1      64.182  34.819  61.288  1.00  0.00    -0.003 C 
ATOM     12  C   UNL     1      65.283  35.871  61.386  1.00  0.00     0.004 C 
ENDBRANCH  10  11
ENDBRANCH   9  10
ENDBRANCH   8   9
ENDBRANCH   7   8
ENDBRANCH   6   7
ENDBRANCH   5   6
ENDBRANCH   4   5
ENDBRANCH   3   4
ENDBRANCH   2   3
ENDBRANCH   1   2
BRANCH   1  13
ATOM     13  C   UNL     1      61.279  29.588  57.474  1.00  0.00     0.000 C 
BRANCH  13  14
ATOM     14  C   UNL     1      62.025  30.920  57.657  1.00  0.00     0.000 C 
BRANCH  14  15
ATOM     15  C   UNL     1      63.509  30.830  57.263  1.00  0.00     0.000 C 
BRANCH  15  16
ATOM     16  C   UNL     1      64.434  31.599  58.223  1.00  0.00     0.000 C 
BRANCH  16  17
ATOM     17  C   UNL     1      65.049  30.762  59.360  1.00  0.00     0.000 C 
BRANCH  17  18
ATOM     18  C   UNL     1      65.301  29.298  58.960  1.00  0.00     0.000 C 
BRANCH  18  19
ATOM     19  C   UNL     1      65.596  28.402  60.174  1.00  0.00     0.000 C 
BRANCH  19  20
ATOM     20  C   UNL     1      66.891  27.586  60.006  1.00  0.00     0.006 C 
BRANCH  20  21
ATOM     21  C   UNL     1      68.132  28.485  59.911  1.00  0.00     0.053 C 
BRANCH  21  22
ATOM     22  C   UNL     1      68.652  28.857  61.266  1.00  0.00     0.041 C 
ATOM     23  O   UNL     1      68.034  28.495  62.303  1.00  0.00    -0.550 OA
ATOM     24  O   UNL     1      69.833  29.579  61.386  1.00  0.00    -0.550 OA
ENDBRANCH  21  22
ENDBRANCH  20  21
ENDBRANCH  19  20
ENDBRANCH  18  19
ENDBRANCH  17  18
ENDBRANCH  16  17
ENDBRANCH  15  16
ENDBRANCH  14  15
ENDBRANCH  13  14
ENDBRANCH   1  13
TORSDOF 20
ENDMDL
MODEL 4
REMARK VINA RESULT:    -3.226      5.382      7.821
REMARK INTER + INTRA:         -10.313
REMARK INTER:                  -8.563
REMARK INTRA:                  -1.749
REMARK UNBOUND:                -3.315
REMARK SMILES CCCCCCCCCCCCCCCCCCCCCC(=O)[O-]
REMARK SMILES IDX 12 1 11 2 10 3 9 4 8 5 7 6 6 7 5 8 4 9 3 10 2 11 1 12 13 13
REMARK SMILES IDX 14 14 15 15 16 16 17 17 18 18 19 19 20 20 21 21 22 22 23 23
REMARK SMILES IDX 24 24
REMARK H PARENT
REMARK Flexibility Score: inf
ROOT
ATOM      1  C   UNL     1      61.969  24.885  51.374  1.00  0.00     0.000 C 
ENDROOT
BRANCH   1   2
ATOM      2  C   UNL     1      61.987  26.003  50.318  1.00  0.00     0.000 C 
BRANCH   2   3
ATOM      3  C   UNL     1      61.623  27.377  50.905  1.00  0.00     0.000 C 
BRANCH   3   4
ATOM      4  C   UNL     1      60.197  27.817  50.535  1.00  0.00    -0.000 C 
BRANCH   4   5
ATOM      5  C   UNL     1      59.521  26.850  49.550  1.00  0.00    -0.000 C 
BRANCH   5   6
ATOM      6  C   UNL     1      58.231  26.235  50.120  1.00  0.00    -0.000 C 
BRANCH   6   7
ATOM      7  C   UNL     1      57.891  26.757  51.527  1.00  0.00    -0.000 C 
BRANCH   7   8
ATOM      8  C   UNL     1      56.495  27.390  51.661  1.00  0.00    -0.000 C 
BRANCH   8   9
ATOM      9  C   UNL     1      55.968  27.959  50.331  1.00  0.00    -0.000 C 
BRANCH   9  10
ATOM     10  C   UNL     1      54.438  28.092  50.311  1.00  0.00    -0.000 C 
BRANCH  10  11
ATOM     11  C   UNL     1      53.730  26.735  50.175  1.00  0.00    -0.003 C 
ATOM     12  C   UNL     1      54.387  25.879  49.097  1.00  0.00     0.004 C 
ENDBRANCH  10  11
ENDBRANCH   9  10
ENDBRANCH   8   9
ENDBRANCH   7   8
ENDBRANCH   6   7
ENDBRANCH   5   6
ENDBRANCH   4   5
ENDBRANCH   3   4
ENDBRANCH   2   3
ENDBRANCH   1   2
BRANCH   1  13
ATOM     13  C   UNL     1      62.011  23.481  50.734  1.00  0.00     0.000 C 
BRANCH  13  14
ATOM     14  C   UNL     1      60.759  23.146  49.904  1.00  0.00     0.000 C 
BRANCH  14  15
ATOM     15  C   UNL     1      60.856  21.781  49.205  1.00  0.00     0.000 C 
BRANCH  15  16
ATOM     16  C   UNL     1      60.388  20.614  50.094  1.00  0.00     0.000 C 
BRANCH  16  17
ATOM     17  C   UNL     1      59.226  19.778  49.528  1.00  0.00     0.000 C 
BRANCH  17  18
ATOM     18  C   UNL     1      59.512  18.266  49.538  1.00  0.00     0.000 C 
BRANCH  18  19
ATOM     19  C   UNL     1      58.224  17.426  49.540  1.00  0.00     0.000 C 
BRANCH  19  20
ATOM     20  C   UNL     1      57.368  17.657  50.798  1.00  0.00     0.006 C 
BRANCH  20  21
ATOM     21  C   UNL     1      56.110  18.484  50.498  1.00  0.00     0.053 C 
BRANCH  21  22
ATOM     22  C   UNL     1      55.782  19.421  51.619  1.00  0.00     0.041 C 
ATOM     23  O   UNL     1      54.581  19.643  51.929  1.00  0.00    -0.550 OA
ATOM     24  O   UNL     1      56.802  20.028  52.342  1.00  0.00    -0.550 OA
ENDBRANCH  21  22
ENDBRANCH  20  21
ENDBRANCH  19  20
ENDBRANCH  18  19
ENDBRANCH  17  18
ENDBRANCH  16  17
ENDBRANCH  15  16
ENDBRANCH  14  15
ENDBRANCH  13  14
ENDBRANCH   1  13
TORSDOF 20
ENDMDL
MODEL 5
REMARK VINA RESULT:    -3.217     10.422     12.543
REMARK INTER + INTRA:         -10.294
REMARK INTER:                  -7.243
REMARK INTRA:                  -3.051
REMARK UNBOUND:                -3.315
REMARK SMILES CCCCCCCCCCCCCCCCCCCCCC(=O)[O-]
REMARK SMILES IDX 12 1 11 2 10 3 9 4 8 5 7 6 6 7 5 8 4 9 3 10 2 11 1 12 13 13
REMARK SMILES IDX 14 14 15 15 16 16 17 17 18 18 19 19 20 20 21 21 22 22 23 23
REMARK SMILES IDX 24 24
REMARK H PARENT
REMARK Flexibility Score: inf
ROOT
ATOM      1  C   UNL     1      63.750  33.348  59.572  1.00  0.00     0.000 C 
ENDROOT
BRANCH   1   2
ATOM      2  C   UNL     1      64.103  33.570  61.053  1.00  0.00     0.000 C 
BRANCH   2   3
ATOM      3  C   UNL     1      64.469  35.031  61.360  1.00  0.00     0.000 C 
BRANCH   3   4
ATOM      4  C   UNL     1      63.749  36.027  60.435  1.00  0.00    -0.000 C 
BRANCH   4   5
ATOM      5  C   UNL     1      62.529  36.674  61.107  1.00  0.00    -0.000 C 
BRANCH   5   6
ATOM      6  C   UNL     1      61.197  36.174  60.519  1.00  0.00    -0.000 C 
BRANCH   6   7
ATOM      7  C   UNL     1      61.189  36.167  58.980  1.00  0.00    -0.000 C 
BRANCH   7   8
ATOM      8  C   UNL     1      60.164  35.212  58.345  1.00  0.00    -0.000 C 
BRANCH   8   9
ATOM      9  C   UNL     1      60.655  34.606  57.018  1.00  0.00    -0.000 C 
BRANCH   9  10
ATOM     10  C   UNL     1      61.579  35.556  56.241  1.00  0.00    -0.000 C 
BRANCH  10  11
ATOM     11  C   UNL     1      62.471  34.816  55.233  1.00  0.00    -0.003 C 
ATOM     12  C   UNL     1      63.226  33.672  55.904  1.00  0.00     0.004 C 
ENDBRANCH  10  11
ENDBRANCH   9  10
ENDBRANCH   8   9
ENDBRANCH   7   8
ENDBRANCH   6   7
ENDBRANCH   5   6
ENDBRANCH   4   5
ENDBRANCH   3   4
ENDBRANCH   2   3
ENDBRANCH   1   2
BRANCH   1  13
ATOM     13  C   UNL     1      62.538  32.406  59.399  1.00  0.00     0.000 C 
BRANCH  13  14
ATOM     14  C   UNL     1      61.482  32.554  60.508  1.00  0.00     0.000 C 
BRANCH  14  15
ATOM     15  C   UNL     1      60.940  31.201  60.998  1.00  0.00     0.000 C 
BRANCH  15  16
ATOM     16  C   UNL     1      62.015  30.331  61.674  1.00  0.00     0.000 C 
BRANCH  16  17
ATOM     17  C   UNL     1      62.115  28.884  61.159  1.00  0.00     0.000 C 
BRANCH  17  18
ATOM     18  C   UNL     1      63.199  28.702  60.083  1.00  0.00     0.000 C 
BRANCH  18  19
ATOM     19  C   UNL     1      64.558  28.303  60.683  1.00  0.00     0.000 C 
BRANCH  19  20
ATOM     20  C   UNL     1      65.601  29.431  60.585  1.00  0.00     0.006 C 
BRANCH  20  21
ATOM     21  C   UNL     1      66.945  28.929  60.040  1.00  0.00     0.053 C 
BRANCH  21  22
ATOM     22  C   UNL     1      67.668  28.079  61.041  1.00  0.00     0.041 C 
ATOM     23  O   UNL     1      67.891  28.518  62.200  1.00  0.00    -0.550 OA
ATOM     24  O   UNL     1      68.069  26.793  60.703  1.00  0.00    -0.550 OA
ENDBRANCH  21  22
ENDBRANCH  20  21
ENDBRANCH  19  20
ENDBRANCH  18  19
ENDBRANCH  17  18
ENDBRANCH  16  17
ENDBRANCH  15  16
ENDBRANCH  14  15
ENDBRANCH  13  14
ENDBRANCH   1  13
TORSDOF 20
ENDMDL
MODEL 6
REMARK VINA RESULT:    -3.211     10.187     12.389
REMARK INTER + INTRA:         -10.281
REMARK INTER:                  -6.791
REMARK INTRA:                  -3.491
REMARK UNBOUND:                -3.315
REMARK SMILES CCCCCCCCCCCCCCCCCCCCCC(=O)[O-]
REMARK SMILES IDX 12 1 11 2 10 3 9 4 8 5 7 6 6 7 5 8 4 9 3 10 2 11 1 12 13 13
REMARK SMILES IDX 14 14 15 15 16 16 17 17 18 18 19 19 20 20 21 21 22 22 23 23
REMARK SMILES IDX 24 24
REMARK H PARENT
REMARK Flexibility Score: inf
ROOT
ATOM      1  C   UNL     1      61.136  31.875  58.309  1.00  0.00     0.000 C 
ENDROOT
BRANCH   1   2
ATOM      2  C   UNL     1      60.381  33.212  58.393  1.00  0.00     0.000 C 
BRANCH   2   3
ATOM      3  C   UNL     1      61.271  34.417  58.045  1.00  0.00     0.000 C 
BRANCH   3   4
ATOM      4  C   UNL     1      61.227  35.514  59.122  1.00  0.00    -0.000 C 
BRANCH   4   5
ATOM      5  C   UNL     1      61.710  35.010  60.491  1.00  0.00    -0.000 C 
BRANCH   5   6
ATOM      6  C   UNL     1      63.037  35.660  60.923  1.00  0.00    -0.000 C 
BRANCH   6   7
ATOM      7  C   UNL     1      64.226  34.684  60.865  1.00  0.00    -0.000 C 
BRANCH   7   8
ATOM      8  C   UNL     1      63.838  33.196  60.810  1.00  0.00    -0.000 C 
BRANCH   8   9
ATOM      9  C   UNL     1      64.493  32.452  59.633  1.00  0.00    -0.000 C 
BRANCH   9  10
ATOM     10  C   UNL     1      64.734  33.362  58.419  1.00  0.00    -0.000 C 
BRANCH  10  11
ATOM     11  C   UNL     1      64.478  32.645  57.085  1.00  0.00    -0.003 C 
ATOM     12  C   UNL     1      65.562  32.979  56.065  1.00  0.00     0.004 C 
ENDBRANCH  10  11
ENDBRANCH   9  10
ENDBRANCH   8   9
ENDBRANCH   7   8
ENDBRANCH   6   7
ENDBRANCH   5   6
ENDBRANCH   4   5
ENDBRANCH   3   4
ENDBRANCH   2   3
ENDBRANCH   1   2
BRANCH   1  13
ATOM     13  C   UNL     1      60.658  30.870  59.379  1.00  0.00     0.000 C 
BRANCH  13  14
ATOM     14  C   UNL     1      60.703  31.429  60.812  1.00  0.00     0.000 C 
BRANCH  14  15
ATOM     15  C   UNL     1      61.534  30.555  61.765  1.00  0.00     0.000 C 
BRANCH  15  16
ATOM     16  C   UNL     1      62.069  29.275  61.097  1.00  0.00     0.000 C 
BRANCH  16  17
ATOM     17  C   UNL     1      63.603  29.166  61.015  1.00  0.00     0.000 C 
BRANCH  17  18
ATOM     18  C   UNL     1      64.106  28.825  59.602  1.00  0.00     0.000 C 
BRANCH  18  19
ATOM     19  C   UNL     1      65.638  28.704  59.538  1.00  0.00     0.000 C 
BRANCH  19  20
ATOM     20  C   UNL     1      66.245  28.176  60.850  1.00  0.00     0.006 C 
BRANCH  20  21
ATOM     21  C   UNL     1      67.635  27.562  60.638  1.00  0.00     0.053 C 
BRANCH  21  22
ATOM     22  C   UNL     1      68.709  28.607  60.640  1.00  0.00     0.041 C 
ATOM     23  O   UNL     1      69.326  28.883  59.577  1.00  0.00    -0.550 OA
ATOM     24  O   UNL     1      69.008  29.296  61.809  1.00  0.00    -0.550 OA
ENDBRANCH  21  22
ENDBRANCH  20  21
ENDBRANCH  19  20
ENDBRANCH  18  19
ENDBRANCH  17  18
ENDBRANCH  16  17
ENDBRANCH  15  16
ENDBRANCH  14  15
ENDBRANCH  13  14
ENDBRANCH   1  13
TORSDOF 20
ENDMDL
MODEL 7
REMARK VINA RESULT:    -3.207      2.457      4.618
REMARK INTER + INTRA:         -10.273
REMARK INTER:                  -6.502
REMARK INTRA:                  -3.771
REMARK UNBOUND:                -3.315
REMARK SMILES CCCCCCCCCCCCCCCCCCCCCC(=O)[O-]
REMARK SMILES IDX 12 1 11 2 10 3 9 4 8 5 7 6 6 7 5 8 4 9 3 10 2 11 1 12 13 13
REMARK SMILES IDX 14 14 15 15 16 16 17 17 18 18 19 19 20 20 21 21 22 22 23 23
REMARK SMILES IDX 24 24
REMARK H PARENT
REMARK Flexibility Score: inf
ROOT
ATOM      1  C   UNL     1      58.674  25.737  49.896  1.00  0.00     0.000 C 
ENDROOT
BRANCH   1   2
ATOM      2  C   UNL     1      58.342  25.604  51.392  1.00  0.00     0.000 C 
BRANCH   2   3
ATOM      3  C   UNL     1      56.922  26.089  51.727  1.00  0.00     0.000 C 
BRANCH   3   4
ATOM      4  C   UNL     1      56.103  26.429  50.470  1.00  0.00    -0.000 C 
BRANCH   4   5
ATOM      5  C   UNL     1      55.662  27.901  50.437  1.00  0.00    -0.000 C 
BRANCH   5   6
ATOM      6  C   UNL     1      56.711  28.844  51.053  1.00  0.00    -0.000 C 
BRANCH   6   7
ATOM      7  C   UNL     1      57.768  29.308  50.035  1.00  0.00    -0.000 C 
BRANCH   7   8
ATOM      8  C   UNL     1      59.157  29.596  50.633  1.00  0.00    -0.000 C 
BRANCH   8   9
ATOM      9  C   UNL     1      59.219  29.338  52.149  1.00  0.00    -0.000 C 
BRANCH   9  10
ATOM     10  C   UNL     1      60.546  28.701  52.586  1.00  0.00    -0.000 C 
BRANCH  10  11
ATOM     11  C   UNL     1      60.361  27.657  53.699  1.00  0.00    -0.003 C 
ATOM     12  C   UNL     1      58.988  27.788  54.351  1.00  0.00     0.004 C 
ENDBRANCH  10  11
ENDBRANCH   9  10
ENDBRANCH   8   9
ENDBRANCH   7   8
ENDBRANCH   6   7
ENDBRANCH   5   6
ENDBRANCH   4   5
ENDBRANCH   3   4
ENDBRANCH   2   3
ENDBRANCH   1   2
BRANCH   1  13
ATOM     13  C   UNL     1      60.052  26.395  49.664  1.00  0.00     0.000 C 
BRANCH  13  14
ATOM     14  C   UNL     1      61.204  25.684  50.393  1.00  0.00     0.000 C 
BRANCH  14  15
ATOM     15  C   UNL     1      62.525  26.467  50.323  1.00  0.00     0.000 C 
BRANCH  15  16
ATOM     16  C   UNL     1      62.400  27.793  49.552  1.00  0.00     0.000 C 
BRANCH  16  17
ATOM     17  C   UNL     1      63.716  28.354  48.983  1.00  0.00     0.000 C 
BRANCH  17  18
ATOM     18  C   UNL     1      63.936  29.838  49.325  1.00  0.00     0.000 C 
BRANCH  18  19
ATOM     19  C   UNL     1      62.850  30.391  50.262  1.00  0.00     0.000 C 
BRANCH  19  20
ATOM     20  C   UNL     1      62.287  31.741  49.784  1.00  0.00     0.006 C 
BRANCH  20  21
ATOM     21  C   UNL     1      63.371  32.629  49.158  1.00  0.00     0.053 C 
BRANCH  21  22
ATOM     22  C   UNL     1      63.110  34.083  49.408  1.00  0.00     0.041 C 
ATOM     23  O   UNL     1      64.036  34.832  49.819  1.00  0.00    -0.550 OA
ATOM     24  O   UNL     1      61.852  34.618  49.161  1.00  0.00    -0.550 OA
ENDBRANCH  21  22
ENDBRANCH  20  21
ENDBRANCH  19  20
ENDBRANCH  18  19
ENDBRANCH  17  18
ENDBRANCH  16  17
ENDBRANCH  15  16
ENDBRANCH  14  15
ENDBRANCH  13  14
ENDBRANCH   1  13
TORSDOF 20
ENDMDL
MODEL 8
REMARK VINA RESULT:    -3.185     11.273     13.651
REMARK INTER + INTRA:         -10.224
REMARK INTER:                  -7.865
REMARK INTRA:                  -2.359
REMARK UNBOUND:                -3.315
REMARK SMILES CCCCCCCCCCCCCCCCCCCCCC(=O)[O-]
REMARK SMILES IDX 12 1 11 2 10 3 9 4 8 5 7 6 6 7 5 8 4 9 3 10 2 11 1 12 13 13
REMARK SMILES IDX 14 14 15 15 16 16 17 17 18 18 19 19 20 20 21 21 22 22 23 23
REMARK SMILES IDX 24 24
REMARK H PARENT
REMARK Flexibility Score: inf
ROOT
ATOM      1  C   UNL     1      66.642  28.870  60.622  1.00  0.00     0.000 C 
ENDROOT
BRANCH   1   2
ATOM      2  C   UNL     1      65.413  29.788  60.511  1.00  0.00     0.000 C 
BRANCH   2   3
ATOM      3  C   UNL     1      64.740  29.710  59.131  1.00  0.00     0.000 C 
BRANCH   3   4
ATOM      4  C   UNL     1      63.424  28.915  59.160  1.00  0.00    -0.000 C 
BRANCH   4   5
ATOM      5  C   UNL     1      63.096  28.374  60.560  1.00  0.00    -0.000 C 
BRANCH   5   6
ATOM      6  C   UNL     1      61.768  28.923  61.109  1.00  0.00    -0.000 C 
BRANCH   6   7
ATOM      7  C   UNL     1      61.907  30.334  61.709  1.00  0.00    -0.000 C 
BRANCH   7   8
ATOM      8  C   UNL     1      61.019  31.405  61.051  1.00  0.00    -0.000 C 
BRANCH   8   9
ATOM      9  C   UNL     1      61.776  32.253  60.013  1.00  0.00    -0.000 C 
BRANCH   9  10
ATOM     10  C   UNL     1      63.109  32.794  60.551  1.00  0.00    -0.000 C 
BRANCH  10  11
ATOM     11  C   UNL     1      63.167  34.329  60.546  1.00  0.00    -0.003 C 
ATOM     12  C   UNL     1      61.776  34.931  60.371  1.00  0.00     0.004 C 
ENDBRANCH  10  11
ENDBRANCH   9  10
ENDBRANCH   8   9
ENDBRANCH   7   8
ENDBRANCH   6   7
ENDBRANCH   5   6
ENDBRANCH   4   5
ENDBRANCH   3   4
ENDBRANCH   2   3
ENDBRANCH   1   2
BRANCH   1  13
ATOM     13  C   UNL     1      67.401  28.751  59.283  1.00  0.00     0.000 C 
BRANCH  13  14
ATOM     14  C   UNL     1      68.804  29.381  59.314  1.00  0.00     0.000 C 
BRANCH  14  15
ATOM     15  C   UNL     1      69.667  28.854  60.472  1.00  0.00     0.000 C 
BRANCH  15  16
ATOM     16  C   UNL     1      70.379  29.976  61.251  1.00  0.00     0.000 C 
BRANCH  16  17
ATOM     17  C   UNL     1      71.916  29.951  61.187  1.00  0.00     0.000 C 
BRANCH  17  18
ATOM     18  C   UNL     1      72.498  31.038  60.266  1.00  0.00     0.000 C 
BRANCH  18  19
ATOM     19  C   UNL     1      72.400  30.661  58.779  1.00  0.00     0.000 C 
BRANCH  19  20
ATOM     20  C   UNL     1      71.573  31.674  57.966  1.00  0.00     0.006 C 
BRANCH  20  21
ATOM     21  C   UNL     1      71.142  32.880  58.811  1.00  0.00     0.053 C 
BRANCH  21  22
ATOM     22  C   UNL     1      70.912  34.095  57.966  1.00  0.00     0.041 C 
ATOM     23  O   UNL     1      71.717  34.386  57.042  1.00  0.00    -0.550 OA
ATOM     24  O   UNL     1      69.793  34.891  58.180  1.00  0.00    -0.550 OA
ENDBRANCH  21  22
ENDBRANCH  20  21
ENDBRANCH  19  20
ENDBRANCH  18  19
ENDBRANCH  17  18
ENDBRANCH  16  17
ENDBRANCH  15  16
ENDBRANCH  14  15
ENDBRANCH  13  14
ENDBRANCH   1  13
TORSDOF 20
ENDMDL
MODEL 9
REMARK VINA RESULT:    -3.159      9.814     12.417
REMARK INTER + INTRA:         -10.168
REMARK INTER:                  -6.544
REMARK INTRA:                  -3.624
REMARK UNBOUND:                -3.315
REMARK SMILES CCCCCCCCCCCCCCCCCCCCCC(=O)[O-]
REMARK SMILES IDX 12 1 11 2 10 3 9 4 8 5 7 6 6 7 5 8 4 9 3 10 2 11 1 12 13 13
REMARK SMILES IDX 14 14 15 15 16 16 17 17 18 18 19 19 20 20 21 21 22 22 23 23
REMARK SMILES IDX 24 24
REMARK H PARENT
REMARK Flexibility Score: inf
ROOT
ATOM      1  C   UNL     1      60.648  32.281  58.742  1.00  0.00     0.000 C 
ENDROOT
BRANCH   1   2
ATOM      2  C   UNL     1      62.000  32.144  58.020  1.00  0.00     0.000 C 
BRANCH   2   3
ATOM      3  C   UNL     1      62.204  33.219  56.940  1.00  0.00     0.000 C 
BRANCH   3   4
ATOM      4  C   UNL     1      63.628  33.800  56.948  1.00  0.00    -0.000 C 
BRANCH   4   5
ATOM      5  C   UNL     1      63.720  35.118  57.734  1.00  0.00    -0.000 C 
BRANCH   5   6
ATOM      6  C   UNL     1      64.752  35.054  58.873  1.00  0.00    -0.000 C 
BRANCH   6   7
ATOM      7  C   UNL     1      64.388  34.019  59.952  1.00  0.00    -0.000 C 
BRANCH   7   8
ATOM      8  C   UNL     1      63.190  34.405  60.838  1.00  0.00    -0.000 C 
BRANCH   8   9
ATOM      9  C   UNL     1      63.164  35.904  61.187  1.00  0.00    -0.000 C 
BRANCH   9  10
ATOM     10  C   UNL     1      61.824  36.568  60.838  1.00  0.00    -0.000 C 
BRANCH  10  11
ATOM     11  C   UNL     1      60.852  35.604  60.140  1.00  0.00    -0.003 C 
ATOM     12  C   UNL     1      59.785  36.367  59.362  1.00  0.00     0.004 C 
ENDBRANCH  10  11
ENDBRANCH   9  10
ENDBRANCH   8   9
ENDBRANCH   7   8
ENDBRANCH   6   7
ENDBRANCH   5   6
ENDBRANCH   4   5
ENDBRANCH   3   4
ENDBRANCH   2   3
ENDBRANCH   1   2
BRANCH   1  13
ATOM     13  C   UNL     1      60.389  31.109  59.714  1.00  0.00     0.000 C 
BRANCH  13  14
ATOM     14  C   UNL     1      60.827  31.401  61.159  1.00  0.00     0.000 C 
BRANCH  14  15
ATOM     15  C   UNL     1      61.847  30.380  61.690  1.00  0.00     0.000 C 
BRANCH  15  16
ATOM     16  C   UNL     1      63.291  30.689  61.253  1.00  0.00     0.000 C 
BRANCH  16  17
ATOM     17  C   UNL     1      64.141  29.464  60.872  1.00  0.00     0.000 C 
BRANCH  17  18
ATOM     18  C   UNL     1      63.299  28.280  60.366  1.00  0.00     0.000 C 
BRANCH  18  19
ATOM     19  C   UNL     1      62.985  28.383  58.865  1.00  0.00     0.000 C 
BRANCH  19  20
ATOM     20  C   UNL     1      61.556  27.922  58.526  1.00  0.00     0.006 C 
BRANCH  20  21
ATOM     21  C   UNL     1      61.088  26.777  59.435  1.00  0.00     0.053 C 
BRANCH  21  22
ATOM     22  C   UNL     1      59.700  27.011  59.951  1.00  0.00     0.041 C 
ATOM     23  O   UNL     1      59.490  27.894  60.825  1.00  0.00    -0.550 OA
ATOM     24  O   UNL     1      58.636  26.275  59.446  1.00  0.00    -0.550 OA
ENDBRANCH  21  22
ENDBRANCH  20  21
ENDBRANCH  19  20
ENDBRANCH  18  19
ENDBRANCH  17  18
ENDBRANCH  16  17
ENDBRANCH  15  16
ENDBRANCH  14  15
ENDBRANCH  13  14
ENDBRANCH   1  13
TORSDOF 20
ENDMDL
