MODEL 1
REMARK VINA RESULT:    -4.162      0.000      0.000
REMARK INTER + INTRA:         -12.653
REMARK INTER:                  -9.028
REMARK INTRA:                  -3.625
REMARK UNBOUND:                -3.625
REMARK SMILES CCCCCCCCCCCCCCCCCCCCCC(=O)[O-]
REMARK SMILES IDX 12 1 11 2 10 3 9 4 8 5 7 6 6 7 5 8 4 9 3 10 2 11 1 12 13 13
REMARK SMILES IDX 14 14 15 15 16 16 17 17 18 18 19 19 20 20 21 21 22 22 23 23
REMARK SMILES IDX 24 24
REMARK H PARENT
REMARK Flexibility Score: inf
ROOT
ATOM      1  C   UNL     1     -21.149   8.921  14.551  1.00  0.00     0.000 C 
ENDROOT
BRANCH   1   2
ATOM      2  C   UNL     1     -20.346  10.235  14.515  1.00  0.00     0.000 C 
BRANCH   2   3
ATOM      3  C   UNL     1     -18.845  10.092  14.828  1.00  0.00     0.000 C 
BRANCH   3   4
ATOM      4  C   UNL     1     -17.992  11.203  14.198  1.00  0.00    -0.000 C 
BRANCH   4   5
ATOM      5  C   UNL     1     -18.638  12.578  14.411  1.00  0.00    -0.000 C 
BRANCH   5   6
ATOM      6  C   UNL     1     -18.086  13.315  15.643  1.00  0.00    -0.000 C 
BRANCH   6   7
ATOM      7  C   UNL     1     -19.167  13.679  16.682  1.00  0.00    -0.000 C 
BRANCH   7   8
ATOM      8  C   UNL     1     -19.002  12.891  17.994  1.00  0.00    -0.000 C 
BRANCH   8   9
ATOM      9  C   UNL     1     -19.943  11.679  18.077  1.00  0.00    -0.000 C 
BRANCH   9  10
ATOM     10  C   UNL     1     -21.345  11.981  17.520  1.00  0.00    -0.000 C 
BRANCH  10  11
ATOM     11  C   UNL     1     -22.310  10.796  17.682  1.00  0.00    -0.003 C 
ATOM     12  C   UNL     1     -22.786  10.617  19.125  1.00  0.00     0.004 C 
ENDBRANCH  10  11
ENDBRANCH   9  10
ENDBRANCH   8   9
ENDBRANCH   7   8
ENDBRANCH   6   7
ENDBRANCH   5   6
ENDBRANCH   4   5
ENDBRANCH   3   4
ENDBRANCH   2   3
ENDBRANCH   1   2
BRANCH   1  13
ATOM     13  C   UNL     1     -22.653   9.132  14.301  1.00  0.00     0.000 C 
BRANCH  13  14
ATOM     14  C   UNL     1     -23.527   8.254  15.212  1.00  0.00     0.000 C 
BRANCH  14  15
ATOM     15  C   UNL     1     -22.717   7.152  15.917  1.00  0.00     0.000 C 
BRANCH  15  16
ATOM     16  C   UNL     1     -23.191   6.904  17.359  1.00  0.00     0.000 C 
BRANCH  16  17
ATOM     17  C   UNL     1     -22.052   7.022  18.387  1.00  0.00     0.000 C 
BRANCH  17  18
ATOM     18  C   UNL     1     -20.658   6.931  17.731  1.00  0.00     0.000 C 
BRANCH  18  19
ATOM     19  C   UNL     1     -19.795   8.194  17.927  1.00  0.00     0.000 C 
BRANCH  19  20
ATOM     20  C   UNL     1     -18.388   7.937  18.501  1.00  0.00     0.006 C 
BRANCH  20  21
ATOM     21  C   UNL     1     -18.310   6.761  19.486  1.00  0.00     0.053 C 
BRANCH  21  22
ATOM     22  C   UNL     1     -17.014   6.020  19.369  1.00  0.00     0.041 C 
ATOM     23  O   UNL     1     -16.517   5.449  20.376  1.00  0.00    -0.550 OA
ATOM     24  O   UNL     1     -16.335   5.990  18.158  1.00  0.00    -0.550 OA
ENDBRANCH  21  22
ENDBRANCH  20  21
ENDBRANCH  19  20
ENDBRANCH  18  19
ENDBRANCH  17  18
ENDBRANCH  16  17
ENDBRANCH  15  16
ENDBRANCH  14  15
ENDBRANCH  13  14
ENDBRANCH   1  13
TORSDOF 20
ENDMDL
MODEL 2
REMARK VINA RESULT:    -4.091      1.292      3.778
REMARK INTER + INTRA:         -12.498
REMARK INTER:                  -8.826
REMARK INTRA:                  -3.672
REMARK UNBOUND:                -3.625
REMARK SMILES CCCCCCCCCCCCCCCCCCCCCC(=O)[O-]
REMARK SMILES IDX 12 1 11 2 10 3 9 4 8 5 7 6 6 7 5 8 4 9 3 10 2 11 1 12 13 13
REMARK SMILES IDX 14 14 15 15 16 16 17 17 18 18 19 19 20 20 21 21 22 22 23 23
REMARK SMILES IDX 24 24
REMARK H PARENT
REMARK Flexibility Score: inf
ROOT
ATOM      1  C   UNL     1     -20.256  13.390  14.699  1.00  0.00     0.000 C 
ENDROOT
BRANCH   1   2
ATOM      2  C   UNL     1     -19.741  12.458  13.587  1.00  0.00     0.000 C 
BRANCH   2   3
ATOM      3  C   UNL     1     -18.395  11.769  13.881  1.00  0.00     0.000 C 
BRANCH   3   4
ATOM      4  C   UNL     1     -18.540  10.270  14.178  1.00  0.00    -0.000 C 
BRANCH   4   5
ATOM      5  C   UNL     1     -19.852   9.722  13.603  1.00  0.00    -0.000 C 
BRANCH   5   6
ATOM      6  C   UNL     1     -20.414   8.541  14.412  1.00  0.00    -0.000 C 
BRANCH   6   7
ATOM      7  C   UNL     1     -21.855   8.765  14.916  1.00  0.00    -0.000 C 
BRANCH   7   8
ATOM      8  C   UNL     1     -22.177  10.257  15.112  1.00  0.00    -0.000 C 
BRANCH   8   9
ATOM      9  C   UNL     1     -23.311  10.489  16.123  1.00  0.00    -0.000 C 
BRANCH   9  10
ATOM     10  C   UNL     1     -23.129  11.789  16.925  1.00  0.00    -0.000 C 
BRANCH  10  11
ATOM     11  C   UNL     1     -23.579  11.645  18.388  1.00  0.00    -0.003 C 
ATOM     12  C   UNL     1     -22.985  10.411  19.068  1.00  0.00     0.004 C 
ENDBRANCH  10  11
ENDBRANCH   9  10
ENDBRANCH   8   9
ENDBRANCH   7   8
ENDBRANCH   6   7
ENDBRANCH   5   6
ENDBRANCH   4   5
ENDBRANCH   3   4
ENDBRANCH   2   3
ENDBRANCH   1   2
BRANCH   1  13
ATOM     13  C   UNL     1     -19.189  13.698  15.764  1.00  0.00     0.000 C 
BRANCH  13  14
ATOM     14  C   UNL     1     -19.775  13.751  17.184  1.00  0.00     0.000 C 
BRANCH  14  15
ATOM     15  C   UNL     1     -19.285  12.589  18.065  1.00  0.00     0.000 C 
BRANCH  15  16
ATOM     16  C   UNL     1     -19.556  11.214  17.431  1.00  0.00     0.000 C 
BRANCH  16  17
ATOM     17  C   UNL     1     -19.533  10.071  18.461  1.00  0.00     0.000 C 
BRANCH  17  18
ATOM     18  C   UNL     1     -19.032   8.743  17.851  1.00  0.00     0.000 C 
BRANCH  18  19
ATOM     19  C   UNL     1     -20.064   7.599  17.921  1.00  0.00     0.000 C 
BRANCH  19  20
ATOM     20  C   UNL     1     -19.551   6.300  18.572  1.00  0.00     0.006 C 
BRANCH  20  21
ATOM     21  C   UNL     1     -18.537   6.517  19.706  1.00  0.00     0.053 C 
BRANCH  21  22
ATOM     22  C   UNL     1     -17.225   5.853  19.417  1.00  0.00     0.041 C 
ATOM     23  O   UNL     1     -16.463   5.517  20.362  1.00  0.00    -0.550 OA
ATOM     24  O   UNL     1     -16.828   5.640  18.104  1.00  0.00    -0.550 OA
ENDBRANCH  21  22
ENDBRANCH  20  21
ENDBRANCH  19  20
ENDBRANCH  18  19
ENDBRANCH  17  18
ENDBRANCH  16  17
ENDBRANCH  15  16
ENDBRANCH  14  15
ENDBRANCH  13  14
ENDBRANCH   1  13
TORSDOF 20
ENDMDL
MODEL 3
REMARK VINA RESULT:    -4.050      4.622      7.038
REMARK INTER + INTRA:         -12.411
REMARK INTER:                  -8.779
REMARK INTRA:                  -3.632
REMARK UNBOUND:                -3.625
REMARK SMILES CCCCCCCCCCCCCCCCCCCCCC(=O)[O-]
REMARK SMILES IDX 12 1 11 2 10 3 9 4 8 5 7 6 6 7 5 8 4 9 3 10 2 11 1 12 13 13
REMARK SMILES IDX 14 14 15 15 16 16 17 17 18 18 19 19 20 20 21 21 22 22 23 23
REMARK SMILES IDX 24 24
REMARK H PARENT
REMARK Flexibility Score: inf
ROOT
ATOM      1  C   UNL     1     -21.428  12.994  13.076  1.00  0.00     0.000 C 
ENDROOT
BRANCH   1   2
ATOM      2  C   UNL     1     -21.129  11.526  13.432  1.00  0.00     0.000 C 
BRANCH   2   3
ATOM      3  C   UNL     1     -20.232  10.779  12.427  1.00  0.00     0.000 C 
BRANCH   3   4
ATOM      4  C   UNL     1     -18.806  10.552  12.949  1.00  0.00    -0.000 C 
BRANCH   4   5
ATOM      5  C   UNL     1     -18.653  11.087  14.379  1.00  0.00    -0.000 C 
BRANCH   5   6
ATOM      6  C   UNL     1     -17.497  12.091  14.523  1.00  0.00    -0.000 C 
BRANCH   6   7
ATOM      7  C   UNL     1     -17.852  13.324  15.380  1.00  0.00    -0.000 C 
BRANCH   7   8
ATOM      8  C   UNL     1     -19.164  13.131  16.162  1.00  0.00    -0.000 C 
BRANCH   8   9
ATOM      9  C   UNL     1     -18.991  13.364  17.671  1.00  0.00    -0.000 C 
BRANCH   9  10
ATOM     10  C   UNL     1     -19.227  12.087  18.495  1.00  0.00    -0.000 C 
BRANCH  10  11
ATOM     11  C   UNL     1     -20.252  11.146  17.841  1.00  0.00    -0.003 C 
ATOM     12  C   UNL     1     -19.833   9.677  17.915  1.00  0.00     0.004 C 
ENDBRANCH  10  11
ENDBRANCH   9  10
ENDBRANCH   8   9
ENDBRANCH   7   8
ENDBRANCH   6   7
ENDBRANCH   5   6
ENDBRANCH   4   5
ENDBRANCH   3   4
ENDBRANCH   2   3
ENDBRANCH   1   2
BRANCH   1  13
ATOM     13  C   UNL     1     -22.237  13.722  14.165  1.00  0.00     0.000 C 
BRANCH  13  14
ATOM     14  C   UNL     1     -22.991  12.747  15.085  1.00  0.00     0.000 C 
BRANCH  14  15
ATOM     15  C   UNL     1     -23.406  13.399  16.415  1.00  0.00     0.000 C 
BRANCH  15  16
ATOM     16  C   UNL     1     -22.406  14.469  16.884  1.00  0.00     0.000 C 
BRANCH  16  17
ATOM     17  C   UNL     1     -23.094  15.778  17.310  1.00  0.00     0.000 C 
BRANCH  17  18
ATOM     18  C   UNL     1     -22.079  16.882  17.675  1.00  0.00     0.000 C 
BRANCH  18  19
ATOM     19  C   UNL     1     -20.654  16.615  17.151  1.00  0.00     0.000 C 
BRANCH  19  20
ATOM     20  C   UNL     1     -20.273  17.394  15.877  1.00  0.00     0.006 C 
BRANCH  20  21
ATOM     21  C   UNL     1     -19.529  16.560  14.822  1.00  0.00     0.053 C 
BRANCH  21  22
ATOM     22  C   UNL     1     -18.422  17.335  14.176  1.00  0.00     0.041 C 
ATOM     23  O   UNL     1     -17.736  18.145  14.854  1.00  0.00    -0.550 OA
ATOM     24  O   UNL     1     -18.172  17.191  12.818  1.00  0.00    -0.550 OA
ENDBRANCH  21  22
ENDBRANCH  20  21
ENDBRANCH  19  20
ENDBRANCH  18  19
ENDBRANCH  17  18
ENDBRANCH  16  17
ENDBRANCH  15  16
ENDBRANCH  14  15
ENDBRANCH  13  14
ENDBRANCH   1  13
TORSDOF 20
ENDMDL
MODEL 4
REMARK VINA RESULT:    -4.049      1.370      3.993
REMARK INTER + INTRA:         -12.409
REMARK INTER:                  -9.174
REMARK INTRA:                  -3.235
REMARK UNBOUND:                -3.625
REMARK SMILES CCCCCCCCCCCCCCCCCCCCCC(=O)[O-]
REMARK SMILES IDX 12 1 11 2 10 3 9 4 8 5 7 6 6 7 5 8 4 9 3 10 2 11 1 12 13 13
REMARK SMILES IDX 14 14 15 15 16 16 17 17 18 18 19 19 20 20 21 21 22 22 23 23
REMARK SMILES IDX 24 24
REMARK H PARENT
REMARK Flexibility Score: inf
ROOT
ATOM      1  C   UNL     1     -19.648  11.468  18.812  1.00  0.00     0.000 C 
ENDROOT
BRANCH   1   2
ATOM      2  C   UNL     1     -18.760  12.645  18.368  1.00  0.00     0.000 C 
BRANCH   2   3
ATOM      3  C   UNL     1     -19.359  13.536  17.263  1.00  0.00     0.000 C 
BRANCH   3   4
ATOM      4  C   UNL     1     -18.663  13.360  15.907  1.00  0.00    -0.000 C 
BRANCH   4   5
ATOM      5  C   UNL     1     -19.405  12.335  15.039  1.00  0.00    -0.000 C 
BRANCH   5   6
ATOM      6  C   UNL     1     -18.527  11.136  14.644  1.00  0.00    -0.000 C 
BRANCH   6   7
ATOM      7  C   UNL     1     -19.095   9.776  15.101  1.00  0.00    -0.000 C 
BRANCH   7   8
ATOM      8  C   UNL     1     -20.634   9.754  15.087  1.00  0.00    -0.000 C 
BRANCH   8   9
ATOM      9  C   UNL     1     -21.201   8.593  14.256  1.00  0.00    -0.000 C 
BRANCH   9  10
ATOM     10  C   UNL     1     -21.616   9.029  12.839  1.00  0.00    -0.000 C 
BRANCH  10  11
ATOM     11  C   UNL     1     -20.543   8.705  11.787  1.00  0.00    -0.003 C 
ATOM     12  C   UNL     1     -19.977   9.959  11.119  1.00  0.00     0.004 C 
ENDBRANCH  10  11
ENDBRANCH   9  10
ENDBRANCH   8   9
ENDBRANCH   7   8
ENDBRANCH   6   7
ENDBRANCH   5   6
ENDBRANCH   4   5
ENDBRANCH   3   4
ENDBRANCH   2   3
ENDBRANCH   1   2
BRANCH   1  13
ATOM     13  C   UNL     1     -20.963  11.378  18.018  1.00  0.00     0.000 C 
BRANCH  13  14
ATOM     14  C   UNL     1     -22.127  10.844  18.870  1.00  0.00     0.000 C 
BRANCH  14  15
ATOM     15  C   UNL     1     -23.120  10.006  18.046  1.00  0.00     0.000 C 
BRANCH  15  16
ATOM     16  C   UNL     1     -23.320   8.595  18.623  1.00  0.00     0.000 C 
BRANCH  16  17
ATOM     17  C   UNL     1     -22.899   7.487  17.640  1.00  0.00     0.000 C 
BRANCH  17  18
ATOM     18  C   UNL     1     -22.212   6.302  18.353  1.00  0.00     0.000 C 
BRANCH  18  19
ATOM     19  C   UNL     1     -20.929   5.814  17.651  1.00  0.00     0.000 C 
BRANCH  19  20
ATOM     20  C   UNL     1     -19.899   6.916  17.338  1.00  0.00     0.006 C 
BRANCH  20  21
ATOM     21  C   UNL     1     -19.428   7.711  18.565  1.00  0.00     0.053 C 
BRANCH  21  22
ATOM     22  C   UNL     1     -18.071   7.276  19.026  1.00  0.00     0.041 C 
ATOM     23  O   UNL     1     -17.939   6.660  20.117  1.00  0.00    -0.550 OA
ATOM     24  O   UNL     1     -16.948   7.582  18.270  1.00  0.00    -0.550 OA
ENDBRANCH  21  22
ENDBRANCH  20  21
ENDBRANCH  19  20
ENDBRANCH  18  19
ENDBRANCH  17  18
ENDBRANCH  16  17
ENDBRANCH  15  16
ENDBRANCH  14  15
ENDBRANCH  13  14
ENDBRANCH   1  13
TORSDOF 20
ENDMDL
MODEL 5
REMARK VINA RESULT:    -4.045      2.817      5.209
REMARK INTER + INTRA:         -12.398
REMARK INTER:                  -9.740
REMARK INTRA:                  -2.658
REMARK UNBOUND:                -3.625
REMARK SMILES CCCCCCCCCCCCCCCCCCCCCC(=O)[O-]
REMARK SMILES IDX 12 1 11 2 10 3 9 4 8 5 7 6 6 7 5 8 4 9 3 10 2 11 1 12 13 13
REMARK SMILES IDX 14 14 15 15 16 16 17 17 18 18 19 19 20 20 21 21 22 22 23 23
REMARK SMILES IDX 24 24
REMARK H PARENT
REMARK Flexibility Score: inf
ROOT
ATOM      1  C   UNL     1     -20.188   7.862  17.255  1.00  0.00     0.000 C 
ENDROOT
BRANCH   1   2
ATOM      2  C   UNL     1     -21.313   8.897  17.070  1.00  0.00     0.000 C 
BRANCH   2   3
ATOM      3  C   UNL     1     -22.123   9.216  18.340  1.00  0.00     0.000 C 
BRANCH   3   4
ATOM      4  C   UNL     1     -22.116  10.709  18.697  1.00  0.00    -0.000 C 
BRANCH   4   5
ATOM      5  C   UNL     1     -21.033  11.457  17.908  1.00  0.00    -0.000 C 
BRANCH   5   6
ATOM      6  C   UNL     1     -19.808  11.817  18.765  1.00  0.00    -0.000 C 
BRANCH   6   7
ATOM      7  C   UNL     1     -18.830  12.786  18.070  1.00  0.00    -0.000 C 
BRANCH   7   8
ATOM      8  C   UNL     1     -19.563  13.878  17.270  1.00  0.00    -0.000 C 
BRANCH   8   9
ATOM      9  C   UNL     1     -19.113  13.938  15.802  1.00  0.00    -0.000 C 
BRANCH   9  10
ATOM     10  C   UNL     1     -17.804  13.168  15.554  1.00  0.00    -0.000 C 
BRANCH  10  11
ATOM     11  C   UNL     1     -17.958  12.078  14.481  1.00  0.00    -0.003 C 
ATOM     12  C   UNL     1     -18.790  10.889  14.964  1.00  0.00     0.004 C 
ENDBRANCH  10  11
ENDBRANCH   9  10
ENDBRANCH   8   9
ENDBRANCH   7   8
ENDBRANCH   6   7
ENDBRANCH   5   6
ENDBRANCH   4   5
ENDBRANCH   3   4
ENDBRANCH   2   3
ENDBRANCH   1   2
BRANCH   1  13
ATOM     13  C   UNL     1     -18.921   8.463  17.891  1.00  0.00     0.000 C 
BRANCH  13  14
ATOM     14  C   UNL     1     -18.410   7.630  19.078  1.00  0.00     0.000 C 
BRANCH  14  15
ATOM     15  C   UNL     1     -17.033   7.001  18.803  1.00  0.00     0.000 C 
BRANCH  15  16
ATOM     16  C   UNL     1     -16.977   5.513  19.189  1.00  0.00     0.000 C 
BRANCH  16  17
ATOM     17  C   UNL     1     -18.110   5.106  20.148  1.00  0.00     0.000 C 
BRANCH  17  18
ATOM     18  C   UNL     1     -18.976   3.961  19.579  1.00  0.00     0.000 C 
BRANCH  18  19
ATOM     19  C   UNL     1     -20.321   4.432  18.991  1.00  0.00     0.000 C 
BRANCH  19  20
ATOM     20  C   UNL     1     -21.322   4.989  20.021  1.00  0.00     0.006 C 
BRANCH  20  21
ATOM     21  C   UNL     1     -22.567   4.115  20.234  1.00  0.00     0.053 C 
BRANCH  21  22
ATOM     22  C   UNL     1     -23.814   4.937  20.353  1.00  0.00     0.041 C 
ATOM     23  O   UNL     1     -23.966   5.963  19.639  1.00  0.00    -0.550 OA
ATOM     24  O   UNL     1     -24.790   4.591  21.278  1.00  0.00    -0.550 OA
ENDBRANCH  21  22
ENDBRANCH  20  21
ENDBRANCH  19  20
ENDBRANCH  18  19
ENDBRANCH  17  18
ENDBRANCH  16  17
ENDBRANCH  15  16
ENDBRANCH  14  15
ENDBRANCH  13  14
ENDBRANCH   1  13
TORSDOF 20
ENDMDL
MODEL 6
REMARK VINA RESULT:    -4.044      1.277      3.448
REMARK INTER + INTRA:         -12.396
REMARK INTER:                  -8.850
REMARK INTRA:                  -3.546
REMARK UNBOUND:                -3.625
REMARK SMILES CCCCCCCCCCCCCCCCCCCCCC(=O)[O-]
REMARK SMILES IDX 12 1 11 2 10 3 9 4 8 5 7 6 6 7 5 8 4 9 3 10 2 11 1 12 13 13
REMARK SMILES IDX 14 14 15 15 16 16 17 17 18 18 19 19 20 20 21 21 22 22 23 23
REMARK SMILES IDX 24 24
REMARK H PARENT
REMARK Flexibility Score: inf
ROOT
ATOM      1  C   UNL     1     -19.876  11.328  18.842  1.00  0.00     0.000 C 
ENDROOT
BRANCH   1   2
ATOM      2  C   UNL     1     -18.918  12.450  18.403  1.00  0.00     0.000 C 
BRANCH   2   3
ATOM      3  C   UNL     1     -19.184  13.026  17.000  1.00  0.00     0.000 C 
BRANCH   3   4
ATOM      4  C   UNL     1     -19.748  14.454  17.034  1.00  0.00    -0.000 C 
BRANCH   4   5
ATOM      5  C   UNL     1     -20.070  14.950  15.618  1.00  0.00    -0.000 C 
BRANCH   5   6
ATOM      6  C   UNL     1     -20.514  13.820  14.674  1.00  0.00    -0.000 C 
BRANCH   6   7
ATOM      7  C   UNL     1     -21.945  13.311  14.947  1.00  0.00    -0.000 C 
BRANCH   7   8
ATOM      8  C   UNL     1     -22.099  11.812  14.635  1.00  0.00    -0.000 C 
BRANCH   8   9
ATOM      9  C   UNL     1     -20.827  11.202  14.024  1.00  0.00    -0.000 C 
BRANCH   9  10
ATOM     10  C   UNL     1     -20.349   9.953  14.784  1.00  0.00    -0.000 C 
BRANCH  10  11
ATOM     11  C   UNL     1     -18.849  10.006  15.118  1.00  0.00    -0.003 C 
ATOM     12  C   UNL     1     -18.044  10.798  14.087  1.00  0.00     0.004 C 
ENDBRANCH  10  11
ENDBRANCH   9  10
ENDBRANCH   8   9
ENDBRANCH   7   8
ENDBRANCH   6   7
ENDBRANCH   5   6
ENDBRANCH   4   5
ENDBRANCH   3   4
ENDBRANCH   2   3
ENDBRANCH   1   2
BRANCH   1  13
ATOM     13  C   UNL     1     -21.237  11.389  18.126  1.00  0.00     0.000 C 
BRANCH  13  14
ATOM     14  C   UNL     1     -22.234  10.353  18.671  1.00  0.00     0.000 C 
BRANCH  14  15
ATOM     15  C   UNL     1     -22.616   9.297  17.619  1.00  0.00     0.000 C 
BRANCH  15  16
ATOM     16  C   UNL     1     -22.928   7.927  18.246  1.00  0.00     0.000 C 
BRANCH  16  17
ATOM     17  C   UNL     1     -21.919   6.841  17.831  1.00  0.00     0.000 C 
BRANCH  17  18
ATOM     18  C   UNL     1     -20.592   6.945  18.613  1.00  0.00     0.000 C 
BRANCH  18  19
ATOM     19  C   UNL     1     -19.453   7.616  17.819  1.00  0.00     0.000 C 
BRANCH  19  20
ATOM     20  C   UNL     1     -18.342   8.245  18.682  1.00  0.00     0.006 C 
BRANCH  20  21
ATOM     21  C   UNL     1     -16.974   7.558  18.552  1.00  0.00     0.053 C 
BRANCH  21  22
ATOM     22  C   UNL     1     -17.034   6.114  18.947  1.00  0.00     0.041 C 
ATOM     23  O   UNL     1     -17.174   5.793  20.157  1.00  0.00    -0.550 OA
ATOM     24  O   UNL     1     -16.900   5.123  17.984  1.00  0.00    -0.550 OA
ENDBRANCH  21  22
ENDBRANCH  20  21
ENDBRANCH  19  20
ENDBRANCH  18  19
ENDBRANCH  17  18
ENDBRANCH  16  17
ENDBRANCH  15  16
ENDBRANCH  14  15
ENDBRANCH  13  14
ENDBRANCH   1  13
TORSDOF 20
ENDMDL
MODEL 7
REMARK VINA RESULT:    -4.025      1.419      3.671
REMARK INTER + INTRA:         -12.356
REMARK INTER:                  -9.561
REMARK INTRA:                  -2.795
REMARK UNBOUND:                -3.625
REMARK SMILES CCCCCCCCCCCCCCCCCCCCCC(=O)[O-]
REMARK SMILES IDX 12 1 11 2 10 3 9 4 8 5 7 6 6 7 5 8 4 9 3 10 2 11 1 12 13 13
REMARK SMILES IDX 14 14 15 15 16 16 17 17 18 18 19 19 20 20 21 21 22 22 23 23
REMARK SMILES IDX 24 24
REMARK H PARENT
REMARK Flexibility Score: inf
ROOT
ATOM      1  C   UNL     1     -20.337  10.805  18.470  1.00  0.00     0.000 C 
ENDROOT
BRANCH   1   2
ATOM      2  C   UNL     1     -20.576  11.964  17.484  1.00  0.00     0.000 C 
BRANCH   2   3
ATOM      3  C   UNL     1     -19.614  13.158  17.632  1.00  0.00     0.000 C 
BRANCH   3   4
ATOM      4  C   UNL     1     -18.429  13.098  16.658  1.00  0.00    -0.000 C 
BRANCH   4   5
ATOM      5  C   UNL     1     -18.781  13.770  15.324  1.00  0.00    -0.000 C 
BRANCH   5   6
ATOM      6  C   UNL     1     -18.894  12.771  14.161  1.00  0.00    -0.000 C 
BRANCH   6   7
ATOM      7  C   UNL     1     -17.862  11.625  14.226  1.00  0.00    -0.000 C 
BRANCH   7   8
ATOM      8  C   UNL     1     -18.529  10.250  14.405  1.00  0.00    -0.000 C 
BRANCH   8   9
ATOM      9  C   UNL     1     -20.050  10.299  14.187  1.00  0.00    -0.000 C 
BRANCH   9  10
ATOM     10  C   UNL     1     -20.659   8.903  13.967  1.00  0.00    -0.000 C 
BRANCH  10  11
ATOM     11  C   UNL     1     -20.566   8.446  12.502  1.00  0.00    -0.003 C 
ATOM     12  C   UNL     1     -20.556   9.618  11.519  1.00  0.00     0.004 C 
ENDBRANCH  10  11
ENDBRANCH   9  10
ENDBRANCH   8   9
ENDBRANCH   7   8
ENDBRANCH   6   7
ENDBRANCH   5   6
ENDBRANCH   4   5
ENDBRANCH   3   4
ENDBRANCH   2   3
ENDBRANCH   1   2
BRANCH   1  13
ATOM     13  C   UNL     1     -19.357   9.750  17.926  1.00  0.00     0.000 C 
BRANCH  13  14
ATOM     14  C   UNL     1     -19.995   8.354  17.825  1.00  0.00     0.000 C 
BRANCH  14  15
ATOM     15  C   UNL     1     -21.506   8.420  17.545  1.00  0.00     0.000 C 
BRANCH  15  16
ATOM     16  C   UNL     1     -22.298   7.363  18.333  1.00  0.00     0.000 C 
BRANCH  16  17
ATOM     17  C   UNL     1     -21.774   5.934  18.101  1.00  0.00     0.000 C 
BRANCH  17  18
ATOM     18  C   UNL     1     -21.382   5.232  19.420  1.00  0.00     0.000 C 
BRANCH  18  19
ATOM     19  C   UNL     1     -19.929   4.716  19.442  1.00  0.00     0.000 C 
BRANCH  19  20
ATOM     20  C   UNL     1     -18.944   5.583  20.250  1.00  0.00     0.006 C 
BRANCH  20  21
ATOM     21  C   UNL     1     -17.697   6.022  19.467  1.00  0.00     0.053 C 
BRANCH  21  22
ATOM     22  C   UNL     1     -16.513   5.155  19.771  1.00  0.00     0.041 C 
ATOM     23  O   UNL     1     -16.017   5.143  20.928  1.00  0.00    -0.550 OA
ATOM     24  O   UNL     1     -15.935   4.389  18.767  1.00  0.00    -0.550 OA
ENDBRANCH  21  22
ENDBRANCH  20  21
ENDBRANCH  19  20
ENDBRANCH  18  19
ENDBRANCH  17  18
ENDBRANCH  16  17
ENDBRANCH  15  16
ENDBRANCH  14  15
ENDBRANCH  13  14
ENDBRANCH   1  13
TORSDOF 20
ENDMDL
MODEL 8
REMARK VINA RESULT:    -3.991      2.780      4.703
REMARK INTER + INTRA:         -12.282
REMARK INTER:                  -9.163
REMARK INTRA:                  -3.120
REMARK UNBOUND:                -3.625
REMARK SMILES CCCCCCCCCCCCCCCCCCCCCC(=O)[O-]
REMARK SMILES IDX 12 1 11 2 10 3 9 4 8 5 7 6 6 7 5 8 4 9 3 10 2 11 1 12 13 13
REMARK SMILES IDX 14 14 15 15 16 16 17 17 18 18 19 19 20 20 21 21 22 22 23 23
REMARK SMILES IDX 24 24
REMARK H PARENT
REMARK Flexibility Score: inf
ROOT
ATOM      1  C   UNL     1     -21.658   9.444  18.254  1.00  0.00     0.000 C 
ENDROOT
BRANCH   1   2
ATOM      2  C   UNL     1     -21.755  10.553  17.190  1.00  0.00     0.000 C 
BRANCH   2   3
ATOM      3  C   UNL     1     -21.097  11.891  17.577  1.00  0.00     0.000 C 
BRANCH   3   4
ATOM      4  C   UNL     1     -19.596  11.760  17.868  1.00  0.00    -0.000 C 
BRANCH   4   5
ATOM      5  C   UNL     1     -18.930  13.140  17.950  1.00  0.00    -0.000 C 
BRANCH   5   6
ATOM      6  C   UNL     1     -19.135  13.980  16.678  1.00  0.00    -0.000 C 
BRANCH   6   7
ATOM      7  C   UNL     1     -18.350  13.456  15.457  1.00  0.00    -0.000 C 
BRANCH   7   8
ATOM      8  C   UNL     1     -19.153  13.585  14.151  1.00  0.00    -0.000 C 
BRANCH   8   9
ATOM      9  C   UNL     1     -20.275  12.540  14.041  1.00  0.00    -0.000 C 
BRANCH   9  10
ATOM     10  C   UNL     1     -19.890  11.355  13.138  1.00  0.00    -0.000 C 
BRANCH  10  11
ATOM     11  C   UNL     1     -19.876  10.018  13.897  1.00  0.00    -0.003 C 
ATOM     12  C   UNL     1     -18.753   9.942  14.933  1.00  0.00     0.004 C 
ENDBRANCH  10  11
ENDBRANCH   9  10
ENDBRANCH   8   9
ENDBRANCH   7   8
ENDBRANCH   6   7
ENDBRANCH   5   6
ENDBRANCH   4   5
ENDBRANCH   3   4
ENDBRANCH   2   3
ENDBRANCH   1   2
BRANCH   1  13
ATOM     13  C   UNL     1     -21.658   8.030  17.646  1.00  0.00     0.000 C 
BRANCH  13  14
ATOM     14  C   UNL     1     -20.238   7.510  17.369  1.00  0.00     0.000 C 
BRANCH  14  15
ATOM     15  C   UNL     1     -19.180   8.200  18.248  1.00  0.00     0.000 C 
BRANCH  15  16
ATOM     16  C   UNL     1     -18.456   7.215  19.181  1.00  0.00     0.000 C 
BRANCH  16  17
ATOM     17  C   UNL     1     -18.953   5.768  19.017  1.00  0.00     0.000 C 
BRANCH  17  18
ATOM     18  C   UNL     1     -19.445   5.163  20.350  1.00  0.00     0.000 C 
BRANCH  18  19
ATOM     19  C   UNL     1     -20.596   4.151  20.186  1.00  0.00     0.000 C 
BRANCH  19  20
ATOM     20  C   UNL     1     -21.678   4.556  19.166  1.00  0.00     0.006 C 
BRANCH  20  21
ATOM     21  C   UNL     1     -22.935   5.183  19.791  1.00  0.00     0.053 C 
BRANCH  21  22
ATOM     22  C   UNL     1     -23.723   4.184  20.581  1.00  0.00     0.041 C 
ATOM     23  O   UNL     1     -24.016   4.417  21.784  1.00  0.00    -0.550 OA
ATOM     24  O   UNL     1     -24.102   2.981  20.002  1.00  0.00    -0.550 OA
ENDBRANCH  21  22
ENDBRANCH  20  21
ENDBRANCH  19  20
ENDBRANCH  18  19
ENDBRANCH  17  18
ENDBRANCH  16  17
ENDBRANCH  15  16
ENDBRANCH  14  15
ENDBRANCH  13  14
ENDBRANCH   1  13
TORSDOF 20
ENDMDL
MODEL 9
REMARK VINA RESULT:    -3.940      1.749      3.492
REMARK INTER + INTRA:         -12.170
REMARK INTER:                  -8.969
REMARK INTRA:                  -3.202
REMARK UNBOUND:                -3.625
REMARK SMILES CCCCCCCCCCCCCCCCCCCCCC(=O)[O-]
REMARK SMILES IDX 12 1 11 2 10 3 9 4 8 5 7 6 6 7 5 8 4 9 3 10 2 11 1 12 13 13
REMARK SMILES IDX 14 14 15 15 16 16 17 17 18 18 19 19 20 20 21 21 22 22 23 23
REMARK SMILES IDX 24 24
REMARK H PARENT
REMARK Flexibility Score: inf
ROOT
ATOM      1  C   UNL     1     -19.470  10.183  17.432  1.00  0.00     0.000 C 
ENDROOT
BRANCH   1   2
ATOM      2  C   UNL     1     -20.001  10.034  15.994  1.00  0.00     0.000 C 
BRANCH   2   3
ATOM      3  C   UNL     1     -18.918   9.977  14.900  1.00  0.00     0.000 C 
BRANCH   3   4
ATOM      4  C   UNL     1     -18.297  11.348  14.598  1.00  0.00    -0.000 C 
BRANCH   4   5
ATOM      5  C   UNL     1     -19.367  12.343  14.129  1.00  0.00    -0.000 C 
BRANCH   5   6
ATOM      6  C   UNL     1     -19.368  13.648  14.942  1.00  0.00    -0.000 C 
BRANCH   6   7
ATOM      7  C   UNL     1     -18.718  13.511  16.334  1.00  0.00    -0.000 C 
BRANCH   7   8
ATOM      8  C   UNL     1     -19.400  14.403  17.386  1.00  0.00    -0.000 C 
BRANCH   8   9
ATOM      9  C   UNL     1     -20.412  15.380  16.765  1.00  0.00    -0.000 C 
BRANCH   9  10
ATOM     10  C   UNL     1     -20.063  16.851  17.051  1.00  0.00    -0.000 C 
BRANCH  10  11
ATOM     11  C   UNL     1     -19.974  17.693  15.768  1.00  0.00    -0.003 C 
ATOM     12  C   UNL     1     -18.702  17.412  14.967  1.00  0.00     0.004 C 
ENDBRANCH  10  11
ENDBRANCH   9  10
ENDBRANCH   8   9
ENDBRANCH   7   8
ENDBRANCH   6   7
ENDBRANCH   5   6
ENDBRANCH   4   5
ENDBRANCH   3   4
ENDBRANCH   2   3
ENDBRANCH   1   2
BRANCH   1  13
ATOM     13  C   UNL     1     -20.447  10.932  18.356  1.00  0.00     0.000 C 
BRANCH  13  14
ATOM     14  C   UNL     1     -21.709  11.405  17.616  1.00  0.00     0.000 C 
BRANCH  14  15
ATOM     15  C   UNL     1     -22.999  10.835  18.232  1.00  0.00     0.000 C 
BRANCH  15  16
ATOM     16  C   UNL     1     -22.773   9.478  18.918  1.00  0.00     0.000 C 
BRANCH  16  17
ATOM     17  C   UNL     1     -23.221   8.291  18.047  1.00  0.00     0.000 C 
BRANCH  17  18
ATOM     18  C   UNL     1     -22.025   7.481  17.500  1.00  0.00     0.000 C 
BRANCH  18  19
ATOM     19  C   UNL     1     -21.412   6.508  18.527  1.00  0.00     0.000 C 
BRANCH  19  20
ATOM     20  C   UNL     1     -19.897   6.271  18.375  1.00  0.00     0.006 C 
BRANCH  20  21
ATOM     21  C   UNL     1     -19.019   7.226  19.199  1.00  0.00     0.053 C 
BRANCH  21  22
ATOM     22  C   UNL     1     -17.571   6.850  19.133  1.00  0.00     0.041 C 
ATOM     23  O   UNL     1     -17.106   5.981  19.918  1.00  0.00    -0.550 OA
ATOM     24  O   UNL     1     -16.727   7.483  18.231  1.00  0.00    -0.550 OA
ENDBRANCH  21  22
ENDBRANCH  20  21
ENDBRANCH  19  20
ENDBRANCH  18  19
ENDBRANCH  17  18
ENDBRANCH  16  17
ENDBRANCH  15  16
ENDBRANCH  14  15
ENDBRANCH  13  14
ENDBRANCH   1  13
TORSDOF 20
ENDMDL
