MODEL 1
REMARK VINA RESULT:    -4.361      0.000      0.000
REMARK INTER + INTRA:         -16.263
REMARK INTER:                 -10.991
REMARK INTRA:                  -5.272
REMARK UNBOUND:                -5.272
REMARK SMILES CCCCCCCCCCCCCCCCCCCCCCCCCCCC(=O)[O-]
REMARK SMILES IDX 15 1 16 2 17 3 18 4 19 5 20 6 21 7 22 8 23 9 24 10 25 11
REMARK SMILES IDX 26 12 27 13 28 14 29 15 30 16 14 17 13 18 12 19 11 20 10 21
REMARK SMILES IDX 9 22 8 23 7 24 6 25 5 26 4 27 3 28 2 29 1 30
REMARK H PARENT
REMARK Flexibility Score: inf
ROOT
ATOM      1  C   UNL     1      17.468  16.158  29.606  1.00  0.00     0.000 C 
ENDROOT
BRANCH   1   2
ATOM      2  C   UNL     1      17.999  15.291  30.764  1.00  0.00     0.000 C 
BRANCH   2   3
ATOM      3  C   UNL     1      16.977  15.131  31.902  1.00  0.00     0.000 C 
BRANCH   3   4
ATOM      4  C   UNL     1      17.430  15.804  33.208  1.00  0.00     0.000 C 
BRANCH   4   5
ATOM      5  C   UNL     1      18.919  15.565  33.520  1.00  0.00     0.000 C 
BRANCH   5   6
ATOM      6  C   UNL     1      19.659  16.860  33.919  1.00  0.00     0.000 C 
BRANCH   6   7
ATOM      7  C   UNL     1      19.488  18.017  32.918  1.00  0.00     0.000 C 
BRANCH   7   8
ATOM      8  C   UNL     1      19.635  19.400  33.571  1.00  0.00     0.000 C 
BRANCH   8   9
ATOM      9  C   UNL     1      18.437  19.779  34.460  1.00  0.00     0.000 C 
BRANCH   9  10
ATOM     10  C   UNL     1      18.744  19.852  35.968  1.00  0.00     0.000 C 
BRANCH  10  11
ATOM     11  C   UNL     1      18.377  18.566  36.744  1.00  0.00     0.000 C 
BRANCH  11  12
ATOM     12  C   UNL     1      17.036  17.946  36.296  1.00  0.00     0.006 C 
BRANCH  12  13
ATOM     13  C   UNL     1      16.872  16.475  36.715  1.00  0.00     0.053 C 
BRANCH  13  14
ATOM     14  C   UNL     1      15.489  16.172  37.203  1.00  0.00     0.041 C 
ATOM     15  O   UNL     1      15.009  16.799  38.181  1.00  0.00    -0.550 OA
ATOM     16  O   UNL     1      14.743  15.172  36.594  1.00  0.00    -0.550 OA
ENDBRANCH  13  14
ENDBRANCH  12  13
ENDBRANCH  11  12
ENDBRANCH  10  11
ENDBRANCH   9  10
ENDBRANCH   8   9
ENDBRANCH   7   8
ENDBRANCH   6   7
ENDBRANCH   5   6
ENDBRANCH   4   5
ENDBRANCH   3   4
ENDBRANCH   2   3
ENDBRANCH   1   2
BRANCH   1  17
ATOM     17  C   UNL     1      17.604  17.680  29.816  1.00  0.00     0.000 C 
BRANCH  17  18
ATOM     18  C   UNL     1      16.301  18.413  30.193  1.00  0.00     0.000 C 
BRANCH  18  19
ATOM     19  C   UNL     1      16.163  18.755  31.688  1.00  0.00     0.000 C 
BRANCH  19  20
ATOM     20  C   UNL     1      14.708  18.673  32.183  1.00  0.00     0.000 C 
BRANCH  20  21
ATOM     21  C   UNL     1      13.703  18.400  31.049  1.00  0.00     0.000 C 
BRANCH  21  22
ATOM     22  C   UNL     1      12.870  17.115  31.207  1.00  0.00    -0.000 C 
BRANCH  22  23
ATOM     23  C   UNL     1      13.462  15.914  30.450  1.00  0.00    -0.000 C 
BRANCH  23  24
ATOM     24  C   UNL     1      13.165  15.958  28.941  1.00  0.00    -0.000 C 
BRANCH  24  25
ATOM     25  C   UNL     1      14.385  15.737  28.027  1.00  0.00    -0.000 C 
BRANCH  25  26
ATOM     26  C   UNL     1      14.743  16.918  27.100  1.00  0.00    -0.000 C 
BRANCH  26  27
ATOM     27  C   UNL     1      13.781  18.122  27.158  1.00  0.00    -0.000 C 
BRANCH  27  28
ATOM     28  C   UNL     1      14.483  19.495  27.255  1.00  0.00    -0.000 C 
BRANCH  28  29
ATOM     29  C   UNL     1      15.957  19.468  26.817  1.00  0.00    -0.003 C 
ATOM     30  C   UNL     1      16.431  20.799  26.237  1.00  0.00     0.004 C 
ENDBRANCH  28  29
ENDBRANCH  27  28
ENDBRANCH  26  27
ENDBRANCH  25  26
ENDBRANCH  24  25
ENDBRANCH  23  24
ENDBRANCH  22  23
ENDBRANCH  21  22
ENDBRANCH  20  21
ENDBRANCH  19  20
ENDBRANCH  18  19
ENDBRANCH  17  18
ENDBRANCH   1  17
TORSDOF 26
ENDMDL
MODEL 2
REMARK VINA RESULT:    -4.345      1.952      5.080
REMARK INTER + INTRA:         -16.222
REMARK INTER:                 -11.511
REMARK INTRA:                  -4.711
REMARK UNBOUND:                -5.272
REMARK SMILES CCCCCCCCCCCCCCCCCCCCCCCCCCCC(=O)[O-]
REMARK SMILES IDX 15 1 16 2 17 3 18 4 19 5 20 6 21 7 22 8 23 9 24 10 25 11
REMARK SMILES IDX 26 12 27 13 28 14 29 15 30 16 14 17 13 18 12 19 11 20 10 21
REMARK SMILES IDX 9 22 8 23 7 24 6 25 5 26 4 27 3 28 2 29 1 30
REMARK H PARENT
REMARK Flexibility Score: inf
ROOT
ATOM      1  C   UNL     1      17.090  17.179  35.822  1.00  0.00     0.000 C 
ENDROOT
BRANCH   1   2
ATOM      2  C   UNL     1      17.078  18.108  37.051  1.00  0.00     0.000 C 
BRANCH   2   3
ATOM      3  C   UNL     1      17.645  19.504  36.745  1.00  0.00     0.000 C 
BRANCH   3   4
ATOM      4  C   UNL     1      19.163  19.592  36.967  1.00  0.00     0.000 C 
BRANCH   4   5
ATOM      5  C   UNL     1      19.926  20.065  35.715  1.00  0.00     0.000 C 
BRANCH   5   6
ATOM      6  C   UNL     1      18.998  20.292  34.503  1.00  0.00     0.000 C 
BRANCH   6   7
ATOM      7  C   UNL     1      19.465  19.595  33.213  1.00  0.00     0.000 C 
BRANCH   7   8
ATOM      8  C   UNL     1      18.299  19.064  32.364  1.00  0.00     0.000 C 
BRANCH   8   9
ATOM      9  C   UNL     1      16.959  19.047  33.120  1.00  0.00     0.000 C 
BRANCH   9  10
ATOM     10  C   UNL     1      15.869  18.157  32.492  1.00  0.00     0.000 C 
BRANCH  10  11
ATOM     11  C   UNL     1      14.620  18.936  32.019  1.00  0.00     0.000 C 
BRANCH  11  12
ATOM     12  C   UNL     1      13.878  18.247  30.852  1.00  0.00     0.006 C 
BRANCH  12  13
ATOM     13  C   UNL     1      12.871  17.181  31.313  1.00  0.00     0.053 C 
BRANCH  13  14
ATOM     14  C   UNL     1      13.514  15.848  31.539  1.00  0.00     0.041 C 
ATOM     15  O   UNL     1      13.356  15.243  32.630  1.00  0.00    -0.550 OA
ATOM     16  O   UNL     1      14.316  15.289  30.553  1.00  0.00    -0.550 OA
ENDBRANCH  13  14
ENDBRANCH  12  13
ENDBRANCH  11  12
ENDBRANCH  10  11
ENDBRANCH   9  10
ENDBRANCH   8   9
ENDBRANCH   7   8
ENDBRANCH   6   7
ENDBRANCH   5   6
ENDBRANCH   4   5
ENDBRANCH   3   4
ENDBRANCH   2   3
ENDBRANCH   1   2
BRANCH   1  17
ATOM     17  C   UNL     1      18.091  16.009  35.898  1.00  0.00     0.000 C 
BRANCH  17  18
ATOM     18  C   UNL     1      19.487  16.296  35.310  1.00  0.00     0.000 C 
BRANCH  18  19
ATOM     19  C   UNL     1      19.635  15.975  33.811  1.00  0.00     0.000 C 
BRANCH  19  20
ATOM     20  C   UNL     1      18.565  14.992  33.306  1.00  0.00     0.000 C 
BRANCH  20  21
ATOM     21  C   UNL     1      18.240  15.174  31.812  1.00  0.00     0.000 C 
BRANCH  21  22
ATOM     22  C   UNL     1      19.390  15.733  30.954  1.00  0.00    -0.000 C 
BRANCH  22  23
ATOM     23  C   UNL     1      18.902  16.584  29.769  1.00  0.00    -0.000 C 
BRANCH  23  24
ATOM     24  C   UNL     1      17.368  16.652  29.679  1.00  0.00    -0.000 C 
BRANCH  24  25
ATOM     25  C   UNL     1      16.817  17.385  28.441  1.00  0.00    -0.000 C 
BRANCH  25  26
ATOM     26  C   UNL     1      16.783  18.925  28.542  1.00  0.00    -0.000 C 
BRANCH  26  27
ATOM     27  C   UNL     1      17.354  19.682  27.325  1.00  0.00    -0.000 C 
BRANCH  27  28
ATOM     28  C   UNL     1      16.496  20.880  26.860  1.00  0.00    -0.000 C 
BRANCH  28  29
ATOM     29  C   UNL     1      15.058  20.497  26.472  1.00  0.00    -0.003 C 
ATOM     30  C   UNL     1      14.151  21.710  26.277  1.00  0.00     0.004 C 
ENDBRANCH  28  29
ENDBRANCH  27  28
ENDBRANCH  26  27
ENDBRANCH  25  26
ENDBRANCH  24  25
ENDBRANCH  23  24
ENDBRANCH  22  23
ENDBRANCH  21  22
ENDBRANCH  20  21
ENDBRANCH  19  20
ENDBRANCH  18  19
ENDBRANCH  17  18
ENDBRANCH   1  17
TORSDOF 26
ENDMDL
MODEL 3
REMARK VINA RESULT:    -4.261      1.439      2.636
REMARK INTER + INTRA:         -16.010
REMARK INTER:                 -11.849
REMARK INTRA:                  -4.161
REMARK UNBOUND:                -5.272
REMARK SMILES CCCCCCCCCCCCCCCCCCCCCCCCCCCC(=O)[O-]
REMARK SMILES IDX 15 1 16 2 17 3 18 4 19 5 20 6 21 7 22 8 23 9 24 10 25 11
REMARK SMILES IDX 26 12 27 13 28 14 29 15 30 16 14 17 13 18 12 19 11 20 10 21
REMARK SMILES IDX 9 22 8 23 7 24 6 25 5 26 4 27 3 28 2 29 1 30
REMARK H PARENT
REMARK Flexibility Score: inf
ROOT
ATOM      1  C   UNL     1      15.656  18.818  32.675  1.00  0.00     0.000 C 
ENDROOT
BRANCH   1   2
ATOM      2  C   UNL     1      16.775  18.388  31.709  1.00  0.00     0.000 C 
BRANCH   2   3
ATOM      3  C   UNL     1      17.694  17.309  32.307  1.00  0.00     0.000 C 
BRANCH   3   4
ATOM      4  C   UNL     1      19.064  17.861  32.732  1.00  0.00     0.000 C 
BRANCH   4   5
ATOM      5  C   UNL     1      19.139  19.397  32.659  1.00  0.00     0.000 C 
BRANCH   5   6
ATOM      6  C   UNL     1      19.007  20.066  34.044  1.00  0.00     0.000 C 
BRANCH   6   7
ATOM      7  C   UNL     1      20.202  19.817  34.981  1.00  0.00     0.000 C 
BRANCH   7   8
ATOM      8  C   UNL     1      19.795  19.161  36.309  1.00  0.00     0.000 C 
BRANCH   8   9
ATOM      9  C   UNL     1      18.326  19.423  36.688  1.00  0.00     0.000 C 
BRANCH   9  10
ATOM     10  C   UNL     1      17.365  18.250  36.414  1.00  0.00     0.000 C 
BRANCH  10  11
ATOM     11  C   UNL     1      18.079  16.925  36.061  1.00  0.00     0.000 C 
BRANCH  11  12
ATOM     12  C   UNL     1      17.103  15.759  35.791  1.00  0.00     0.006 C 
BRANCH  12  13
ATOM     13  C   UNL     1      16.387  15.255  37.055  1.00  0.00     0.053 C 
BRANCH  13  14
ATOM     14  C   UNL     1      14.919  15.552  37.035  1.00  0.00     0.041 C 
ATOM     15  O   UNL     1      14.457  16.516  37.698  1.00  0.00    -0.550 OA
ATOM     16  O   UNL     1      14.057  14.742  36.308  1.00  0.00    -0.550 OA
ENDBRANCH  13  14
ENDBRANCH  12  13
ENDBRANCH  11  12
ENDBRANCH  10  11
ENDBRANCH   9  10
ENDBRANCH   8   9
ENDBRANCH   7   8
ENDBRANCH   6   7
ENDBRANCH   5   6
ENDBRANCH   4   5
ENDBRANCH   3   4
ENDBRANCH   2   3
ENDBRANCH   1   2
BRANCH   1  17
ATOM     17  C   UNL     1      14.325  19.208  32.000  1.00  0.00     0.000 C 
BRANCH  17  18
ATOM     18  C   UNL     1      13.828  18.237  30.911  1.00  0.00     0.000 C 
BRANCH  18  19
ATOM     19  C   UNL     1      12.877  17.135  31.415  1.00  0.00     0.000 C 
BRANCH  19  20
ATOM     20  C   UNL     1      13.411  15.719  31.140  1.00  0.00     0.000 C 
BRANCH  20  21
ATOM     21  C   UNL     1      14.686  15.716  30.277  1.00  0.00     0.000 C 
BRANCH  21  22
ATOM     22  C   UNL     1      14.553  15.012  28.913  1.00  0.00    -0.000 C 
BRANCH  22  23
ATOM     23  C   UNL     1      13.108  14.605  28.581  1.00  0.00    -0.000 C 
BRANCH  23  24
ATOM     24  C   UNL     1      12.513  15.420  27.420  1.00  0.00    -0.000 C 
BRANCH  24  25
ATOM     25  C   UNL     1      12.550  16.949  27.608  1.00  0.00    -0.000 C 
BRANCH  25  26
ATOM     26  C   UNL     1      12.813  17.769  26.328  1.00  0.00    -0.000 C 
BRANCH  26  27
ATOM     27  C   UNL     1      14.295  17.916  25.926  1.00  0.00    -0.000 C 
BRANCH  27  28
ATOM     28  C   UNL     1      15.279  17.940  27.118  1.00  0.00    -0.000 C 
BRANCH  28  29
ATOM     29  C   UNL     1      15.413  19.322  27.780  1.00  0.00    -0.003 C 
ATOM     30  C   UNL     1      16.858  19.676  28.129  1.00  0.00     0.004 C 
ENDBRANCH  28  29
ENDBRANCH  27  28
ENDBRANCH  26  27
ENDBRANCH  25  26
ENDBRANCH  24  25
ENDBRANCH  23  24
ENDBRANCH  22  23
ENDBRANCH  21  22
ENDBRANCH  20  21
ENDBRANCH  19  20
ENDBRANCH  18  19
ENDBRANCH  17  18
ENDBRANCH   1  17
TORSDOF 26
ENDMDL
MODEL 4
REMARK VINA RESULT:    -4.257      0.991      2.596
REMARK INTER + INTRA:         -16.000
REMARK INTER:                 -11.255
REMARK INTRA:                  -4.745
REMARK UNBOUND:                -5.272
REMARK SMILES CCCCCCCCCCCCCCCCCCCCCCCCCCCC(=O)[O-]
REMARK SMILES IDX 15 1 16 2 17 3 18 4 19 5 20 6 21 7 22 8 23 9 24 10 25 11
REMARK SMILES IDX 26 12 27 13 28 14 29 15 30 16 14 17 13 18 12 19 11 20 10 21
REMARK SMILES IDX 9 22 8 23 7 24 6 25 5 26 4 27 3 28 2 29 1 30
REMARK H PARENT
REMARK Flexibility Score: inf
ROOT
ATOM      1  C   UNL     1      16.118  17.929  32.178  1.00  0.00     0.000 C 
ENDROOT
BRANCH   1   2
ATOM      2  C   UNL     1      16.115  16.564  32.893  1.00  0.00     0.000 C 
BRANCH   2   3
ATOM      3  C   UNL     1      17.186  15.606  32.346  1.00  0.00     0.000 C 
BRANCH   3   4
ATOM      4  C   UNL     1      18.471  15.604  33.190  1.00  0.00     0.000 C 
BRANCH   4   5
ATOM      5  C   UNL     1      19.403  16.786  32.867  1.00  0.00     0.000 C 
BRANCH   5   6
ATOM      6  C   UNL     1      20.138  17.323  34.113  1.00  0.00     0.000 C 
BRANCH   6   7
ATOM      7  C   UNL     1      20.401  18.839  34.085  1.00  0.00     0.000 C 
BRANCH   7   8
ATOM      8  C   UNL     1      19.235  19.637  33.482  1.00  0.00     0.000 C 
BRANCH   8   9
ATOM      9  C   UNL     1      18.128  19.955  34.502  1.00  0.00     0.000 C 
BRANCH   9  10
ATOM     10  C   UNL     1      18.550  19.834  35.979  1.00  0.00     0.000 C 
BRANCH  10  11
ATOM     11  C   UNL     1      17.683  18.851  36.800  1.00  0.00     0.000 C 
BRANCH  11  12
ATOM     12  C   UNL     1      17.156  17.661  35.968  1.00  0.00     0.006 C 
BRANCH  12  13
ATOM     13  C   UNL     1      16.967  16.376  36.790  1.00  0.00     0.053 C 
BRANCH  13  14
ATOM     14  C   UNL     1      15.526  16.093  37.082  1.00  0.00     0.041 C 
ATOM     15  O   UNL     1      14.875  15.298  36.357  1.00  0.00    -0.550 OA
ATOM     16  O   UNL     1      14.894  16.734  38.139  1.00  0.00    -0.550 OA
ENDBRANCH  13  14
ENDBRANCH  12  13
ENDBRANCH  11  12
ENDBRANCH  10  11
ENDBRANCH   9  10
ENDBRANCH   8   9
ENDBRANCH   7   8
ENDBRANCH   6   7
ENDBRANCH   5   6
ENDBRANCH   4   5
ENDBRANCH   3   4
ENDBRANCH   2   3
ENDBRANCH   1   2
BRANCH   1  17
ATOM     17  C   UNL     1      14.785  18.701  32.243  1.00  0.00     0.000 C 
BRANCH  17  18
ATOM     18  C   UNL     1      13.851  18.510  31.032  1.00  0.00     0.000 C 
BRANCH  18  19
ATOM     19  C   UNL     1      12.897  17.305  31.135  1.00  0.00     0.000 C 
BRANCH  19  20
ATOM     20  C   UNL     1      13.389  16.089  30.333  1.00  0.00     0.000 C 
BRANCH  20  21
ATOM     21  C   UNL     1      14.267  16.479  29.129  1.00  0.00     0.000 C 
BRANCH  21  22
ATOM     22  C   UNL     1      15.646  15.795  29.075  1.00  0.00    -0.000 C 
BRANCH  22  23
ATOM     23  C   UNL     1      16.709  16.635  28.347  1.00  0.00    -0.000 C 
BRANCH  23  24
ATOM     24  C   UNL     1      17.339  17.709  29.252  1.00  0.00    -0.000 C 
BRANCH  24  25
ATOM     25  C   UNL     1      17.043  19.164  28.844  1.00  0.00    -0.000 C 
BRANCH  25  26
ATOM     26  C   UNL     1      16.435  19.349  27.437  1.00  0.00    -0.000 C 
BRANCH  26  27
ATOM     27  C   UNL     1      14.905  19.542  27.395  1.00  0.00    -0.000 C 
BRANCH  27  28
ATOM     28  C   UNL     1      14.341  19.855  25.992  1.00  0.00    -0.000 C 
BRANCH  28  29
ATOM     29  C   UNL     1      14.468  18.687  24.999  1.00  0.00    -0.003 C 
ATOM     30  C   UNL     1      13.964  17.363  25.570  1.00  0.00     0.004 C 
ENDBRANCH  28  29
ENDBRANCH  27  28
ENDBRANCH  26  27
ENDBRANCH  25  26
ENDBRANCH  24  25
ENDBRANCH  23  24
ENDBRANCH  22  23
ENDBRANCH  21  22
ENDBRANCH  20  21
ENDBRANCH  19  20
ENDBRANCH  18  19
ENDBRANCH  17  18
ENDBRANCH   1  17
TORSDOF 26
ENDMDL
MODEL 5
REMARK VINA RESULT:    -4.215      1.523      2.743
REMARK INTER + INTRA:         -15.894
REMARK INTER:                 -10.916
REMARK INTRA:                  -4.978
REMARK UNBOUND:                -5.272
REMARK SMILES CCCCCCCCCCCCCCCCCCCCCCCCCCCC(=O)[O-]
REMARK SMILES IDX 15 1 16 2 17 3 18 4 19 5 20 6 21 7 22 8 23 9 24 10 25 11
REMARK SMILES IDX 26 12 27 13 28 14 29 15 30 16 14 17 13 18 12 19 11 20 10 21
REMARK SMILES IDX 9 22 8 23 7 24 6 25 5 26 4 27 3 28 2 29 1 30
REMARK H PARENT
REMARK Flexibility Score: inf
ROOT
ATOM      1  C   UNL     1      16.898  17.975  30.812  1.00  0.00     0.000 C 
ENDROOT
BRANCH   1   2
ATOM      2  C   UNL     1      18.357  17.507  30.657  1.00  0.00     0.000 C 
BRANCH   2   3
ATOM      3  C   UNL     1      18.468  16.008  30.331  1.00  0.00     0.000 C 
BRANCH   3   4
ATOM      4  C   UNL     1      17.299  15.187  30.899  1.00  0.00     0.000 C 
BRANCH   4   5
ATOM      5  C   UNL     1      17.601  14.598  32.290  1.00  0.00     0.000 C 
BRANCH   5   6
ATOM      6  C   UNL     1      16.676  15.164  33.389  1.00  0.00     0.000 C 
BRANCH   6   7
ATOM      7  C   UNL     1      17.423  15.833  34.557  1.00  0.00     0.000 C 
BRANCH   7   8
ATOM      8  C   UNL     1      18.750  16.476  34.127  1.00  0.00     0.000 C 
BRANCH   8   9
ATOM      9  C   UNL     1      19.792  16.525  35.259  1.00  0.00     0.000 C 
BRANCH   9  10
ATOM     10  C   UNL     1      20.662  17.797  35.287  1.00  0.00     0.000 C 
BRANCH  10  11
ATOM     11  C   UNL     1      20.141  18.932  34.375  1.00  0.00     0.000 C 
BRANCH  11  12
ATOM     12  C   UNL     1      19.449  20.072  35.155  1.00  0.00     0.006 C 
BRANCH  12  13
ATOM     13  C   UNL     1      17.964  19.799  35.448  1.00  0.00     0.053 C 
BRANCH  13  14
ATOM     14  C   UNL     1      17.737  19.324  36.850  1.00  0.00     0.041 C 
ATOM     15  O   UNL     1      17.131  18.243  37.064  1.00  0.00    -0.550 OA
ATOM     16  O   UNL     1      18.169  20.093  37.921  1.00  0.00    -0.550 OA
ENDBRANCH  13  14
ENDBRANCH  12  13
ENDBRANCH  11  12
ENDBRANCH  10  11
ENDBRANCH   9  10
ENDBRANCH   8   9
ENDBRANCH   7   8
ENDBRANCH   6   7
ENDBRANCH   5   6
ENDBRANCH   4   5
ENDBRANCH   3   4
ENDBRANCH   2   3
ENDBRANCH   1   2
BRANCH   1  17
ATOM     17  C   UNL     1      16.580  18.689  32.142  1.00  0.00     0.000 C 
BRANCH  17  18
ATOM     18  C   UNL     1      15.096  19.043  32.363  1.00  0.00     0.000 C 
BRANCH  18  19
ATOM     19  C   UNL     1      14.146  18.570  31.247  1.00  0.00     0.000 C 
BRANCH  19  20
ATOM     20  C   UNL     1      12.857  17.935  31.796  1.00  0.00     0.000 C 
BRANCH  20  21
ATOM     21  C   UNL     1      12.565  16.550  31.190  1.00  0.00     0.000 C 
BRANCH  21  22
ATOM     22  C   UNL     1      13.808  15.735  30.788  1.00  0.00    -0.000 C 
BRANCH  22  23
ATOM     23  C   UNL     1      13.722  15.164  29.363  1.00  0.00    -0.000 C 
BRANCH  23  24
ATOM     24  C   UNL     1      14.087  16.200  28.286  1.00  0.00    -0.000 C 
BRANCH  24  25
ATOM     25  C   UNL     1      15.558  16.177  27.827  1.00  0.00    -0.000 C 
BRANCH  25  26
ATOM     26  C   UNL     1      16.019  17.404  27.012  1.00  0.00    -0.000 C 
BRANCH  26  27
ATOM     27  C   UNL     1      15.518  18.769  27.527  1.00  0.00    -0.000 C 
BRANCH  27  28
ATOM     28  C   UNL     1      16.605  19.866  27.583  1.00  0.00    -0.000 C 
BRANCH  28  29
ATOM     29  C   UNL     1      16.329  21.058  26.649  1.00  0.00    -0.003 C 
ATOM     30  C   UNL     1      14.866  21.153  26.222  1.00  0.00     0.004 C 
ENDBRANCH  28  29
ENDBRANCH  27  28
ENDBRANCH  26  27
ENDBRANCH  25  26
ENDBRANCH  24  25
ENDBRANCH  23  24
ENDBRANCH  22  23
ENDBRANCH  21  22
ENDBRANCH  20  21
ENDBRANCH  19  20
ENDBRANCH  18  19
ENDBRANCH  17  18
ENDBRANCH   1  17
TORSDOF 26
ENDMDL
MODEL 6
REMARK VINA RESULT:    -4.212      1.229      3.344
REMARK INTER + INTRA:         -15.886
REMARK INTER:                 -11.090
REMARK INTRA:                  -4.796
REMARK UNBOUND:                -5.272
REMARK SMILES CCCCCCCCCCCCCCCCCCCCCCCCCCCC(=O)[O-]
REMARK SMILES IDX 15 1 16 2 17 3 18 4 19 5 20 6 21 7 22 8 23 9 24 10 25 11
REMARK SMILES IDX 26 12 27 13 28 14 29 15 30 16 14 17 13 18 12 19 11 20 10 21
REMARK SMILES IDX 9 22 8 23 7 24 6 25 5 26 4 27 3 28 2 29 1 30
REMARK H PARENT
REMARK Flexibility Score: inf
ROOT
ATOM      1  C   UNL     1      13.720  18.017  30.443  1.00  0.00     0.000 C 
ENDROOT
BRANCH   1   2
ATOM      2  C   UNL     1      14.778  18.168  31.552  1.00  0.00     0.000 C 
BRANCH   2   3
ATOM      3  C   UNL     1      15.259  16.814  32.100  1.00  0.00     0.000 C 
BRANCH   3   4
ATOM      4  C   UNL     1      16.398  16.956  33.123  1.00  0.00     0.000 C 
BRANCH   4   5
ATOM      5  C   UNL     1      17.754  16.465  32.583  1.00  0.00     0.000 C 
BRANCH   5   6
ATOM      6  C   UNL     1      18.769  17.612  32.391  1.00  0.00     0.000 C 
BRANCH   6   7
ATOM      7  C   UNL     1      18.229  19.001  32.773  1.00  0.00     0.000 C 
BRANCH   7   8
ATOM      8  C   UNL     1      19.267  19.867  33.502  1.00  0.00     0.000 C 
BRANCH   8   9
ATOM      9  C   UNL     1      20.310  19.040  34.274  1.00  0.00     0.000 C 
BRANCH   9  10
ATOM     10  C   UNL     1      19.999  18.832  35.769  1.00  0.00     0.000 C 
BRANCH  10  11
ATOM     11  C   UNL     1      19.397  17.446  36.096  1.00  0.00     0.000 C 
BRANCH  11  12
ATOM     12  C   UNL     1      17.886  17.497  36.412  1.00  0.00     0.006 C 
BRANCH  12  13
ATOM     13  C   UNL     1      17.221  16.111  36.448  1.00  0.00     0.053 C 
BRANCH  13  14
ATOM     14  C   UNL     1      15.827  16.161  36.993  1.00  0.00     0.041 C 
ATOM     15  O   UNL     1      15.539  16.950  37.929  1.00  0.00    -0.550 OA
ATOM     16  O   UNL     1      14.853  15.311  36.487  1.00  0.00    -0.550 OA
ENDBRANCH  13  14
ENDBRANCH  12  13
ENDBRANCH  11  12
ENDBRANCH  10  11
ENDBRANCH   9  10
ENDBRANCH   8   9
ENDBRANCH   7   8
ENDBRANCH   6   7
ENDBRANCH   5   6
ENDBRANCH   4   5
ENDBRANCH   3   4
ENDBRANCH   2   3
ENDBRANCH   1   2
BRANCH   1  17
ATOM     17  C   UNL     1      12.888  16.721  30.506  1.00  0.00     0.000 C 
BRANCH  17  18
ATOM     18  C   UNL     1      12.539  16.092  29.143  1.00  0.00     0.000 C 
BRANCH  18  19
ATOM     19  C   UNL     1      13.266  14.770  28.837  1.00  0.00     0.000 C 
BRANCH  19  20
ATOM     20  C   UNL     1      14.129  14.848  27.566  1.00  0.00     0.000 C 
BRANCH  20  21
ATOM     21  C   UNL     1      15.637  14.720  27.855  1.00  0.00     0.000 C 
BRANCH  21  22
ATOM     22  C   UNL     1      16.212  15.779  28.814  1.00  0.00    -0.000 C 
BRANCH  22  23
ATOM     23  C   UNL     1      16.853  16.971  28.084  1.00  0.00    -0.000 C 
BRANCH  23  24
ATOM     24  C   UNL     1      17.431  18.018  29.052  1.00  0.00    -0.000 C 
BRANCH  24  25
ATOM     25  C   UNL     1      17.048  19.478  28.741  1.00  0.00    -0.000 C 
BRANCH  25  26
ATOM     26  C   UNL     1      17.111  19.879  27.253  1.00  0.00    -0.000 C 
BRANCH  26  27
ATOM     27  C   UNL     1      16.203  21.057  26.844  1.00  0.00    -0.000 C 
BRANCH  27  28
ATOM     28  C   UNL     1      14.968  20.650  26.010  1.00  0.00    -0.000 C 
BRANCH  28  29
ATOM     29  C   UNL     1      14.816  19.130  25.831  1.00  0.00    -0.003 C 
ATOM     30  C   UNL     1      13.647  18.551  26.627  1.00  0.00     0.004 C 
ENDBRANCH  28  29
ENDBRANCH  27  28
ENDBRANCH  26  27
ENDBRANCH  25  26
ENDBRANCH  24  25
ENDBRANCH  23  24
ENDBRANCH  22  23
ENDBRANCH  21  22
ENDBRANCH  20  21
ENDBRANCH  19  20
ENDBRANCH  18  19
ENDBRANCH  17  18
ENDBRANCH   1  17
TORSDOF 26
ENDMDL
MODEL 7
REMARK VINA RESULT:    -4.189      1.350      2.723
REMARK INTER + INTRA:         -15.829
REMARK INTER:                 -11.854
REMARK INTRA:                  -3.975
REMARK UNBOUND:                -5.272
REMARK SMILES CCCCCCCCCCCCCCCCCCCCCCCCCCCC(=O)[O-]
REMARK SMILES IDX 15 1 16 2 17 3 18 4 19 5 20 6 21 7 22 8 23 9 24 10 25 11
REMARK SMILES IDX 26 12 27 13 28 14 29 15 30 16 14 17 13 18 12 19 11 20 10 21
REMARK SMILES IDX 9 22 8 23 7 24 6 25 5 26 4 27 3 28 2 29 1 30
REMARK H PARENT
REMARK Flexibility Score: inf
ROOT
ATOM      1  C   UNL     1      17.590  17.033  31.377  1.00  0.00     0.000 C 
ENDROOT
BRANCH   1   2
ATOM      2  C   UNL     1      18.857  17.719  31.920  1.00  0.00     0.000 C 
BRANCH   2   3
ATOM      3  C   UNL     1      18.637  19.207  32.238  1.00  0.00     0.000 C 
BRANCH   3   4
ATOM      4  C   UNL     1      19.590  19.732  33.324  1.00  0.00     0.000 C 
BRANCH   4   5
ATOM      5  C   UNL     1      18.853  20.216  34.586  1.00  0.00     0.000 C 
BRANCH   5   6
ATOM      6  C   UNL     1      19.800  20.422  35.788  1.00  0.00     0.000 C 
BRANCH   6   7
ATOM      7  C   UNL     1      21.107  19.613  35.705  1.00  0.00     0.000 C 
BRANCH   7   8
ATOM      8  C   UNL     1      21.014  18.253  36.413  1.00  0.00     0.000 C 
BRANCH   8   9
ATOM      9  C   UNL     1      20.912  17.068  35.437  1.00  0.00     0.000 C 
BRANCH   9  10
ATOM     10  C   UNL     1      19.520  16.413  35.352  1.00  0.00     0.000 C 
BRANCH  10  11
ATOM     11  C   UNL     1      18.483  17.019  36.326  1.00  0.00     0.000 C 
BRANCH  11  12
ATOM     12  C   UNL     1      17.026  16.640  35.978  1.00  0.00     0.006 C 
BRANCH  12  13
ATOM     13  C   UNL     1      16.473  15.488  36.834  1.00  0.00     0.053 C 
BRANCH  13  14
ATOM     14  C   UNL     1      14.990  15.577  37.018  1.00  0.00     0.041 C 
ATOM     15  O   UNL     1      14.231  14.730  36.482  1.00  0.00    -0.550 OA
ATOM     16  O   UNL     1      14.444  16.617  37.759  1.00  0.00    -0.550 OA
ENDBRANCH  13  14
ENDBRANCH  12  13
ENDBRANCH  11  12
ENDBRANCH  10  11
ENDBRANCH   9  10
ENDBRANCH   8   9
ENDBRANCH   7   8
ENDBRANCH   6   7
ENDBRANCH   5   6
ENDBRANCH   4   5
ENDBRANCH   3   4
ENDBRANCH   2   3
ENDBRANCH   1   2
BRANCH   1  17
ATOM     17  C   UNL     1      16.613  16.520  32.454  1.00  0.00     0.000 C 
BRANCH  17  18
ATOM     18  C   UNL     1      15.477  17.492  32.832  1.00  0.00     0.000 C 
BRANCH  18  19
ATOM     19  C   UNL     1      15.234  18.626  31.819  1.00  0.00     0.000 C 
BRANCH  19  20
ATOM     20  C   UNL     1      13.946  18.427  31.003  1.00  0.00     0.000 C 
BRANCH  20  21
ATOM     21  C   UNL     1      13.277  17.064  31.260  1.00  0.00     0.000 C 
BRANCH  21  22
ATOM     22  C   UNL     1      13.299  16.087  30.069  1.00  0.00    -0.000 C 
BRANCH  22  23
ATOM     23  C   UNL     1      12.927  16.753  28.734  1.00  0.00    -0.000 C 
BRANCH  23  24
ATOM     24  C   UNL     1      14.132  17.420  28.047  1.00  0.00    -0.000 C 
BRANCH  24  25
ATOM     25  C   UNL     1      15.481  16.708  28.257  1.00  0.00    -0.000 C 
BRANCH  25  26
ATOM     26  C   UNL     1      16.735  17.568  27.994  1.00  0.00    -0.000 C 
BRANCH  26  27
ATOM     27  C   UNL     1      16.595  19.066  28.337  1.00  0.00    -0.000 C 
BRANCH  27  28
ATOM     28  C   UNL     1      17.176  20.021  27.270  1.00  0.00    -0.000 C 
BRANCH  28  29
ATOM     29  C   UNL     1      16.145  21.008  26.697  1.00  0.00    -0.003 C 
ATOM     30  C   UNL     1      14.960  20.311  26.031  1.00  0.00     0.004 C 
ENDBRANCH  28  29
ENDBRANCH  27  28
ENDBRANCH  26  27
ENDBRANCH  25  26
ENDBRANCH  24  25
ENDBRANCH  23  24
ENDBRANCH  22  23
ENDBRANCH  21  22
ENDBRANCH  20  21
ENDBRANCH  19  20
ENDBRANCH  18  19
ENDBRANCH  17  18
ENDBRANCH   1  17
TORSDOF 26
ENDMDL
MODEL 8
REMARK VINA RESULT:    -4.183      3.287      7.446
REMARK INTER + INTRA:         -15.813
REMARK INTER:                 -10.447
REMARK INTRA:                  -5.367
REMARK UNBOUND:                -5.272
REMARK SMILES CCCCCCCCCCCCCCCCCCCCCCCCCCCC(=O)[O-]
REMARK SMILES IDX 15 1 16 2 17 3 18 4 19 5 20 6 21 7 22 8 23 9 24 10 25 11
REMARK SMILES IDX 26 12 27 13 28 14 29 15 30 16 14 17 13 18 12 19 11 20 10 21
REMARK SMILES IDX 9 22 8 23 7 24 6 25 5 26 4 27 3 28 2 29 1 30
REMARK H PARENT
REMARK Flexibility Score: inf
ROOT
ATOM      1  C   UNL     1      17.701  18.777  31.913  1.00  0.00     0.000 C 
ENDROOT
BRANCH   1   2
ATOM      2  C   UNL     1      16.375  18.889  32.689  1.00  0.00     0.000 C 
BRANCH   2   3
ATOM      3  C   UNL     1      15.317  17.884  32.204  1.00  0.00     0.000 C 
BRANCH   3   4
ATOM      4  C   UNL     1      14.079  18.568  31.601  1.00  0.00     0.000 C 
BRANCH   4   5
ATOM      5  C   UNL     1      12.879  17.614  31.456  1.00  0.00     0.000 C 
BRANCH   5   6
ATOM      6  C   UNL     1      13.299  16.130  31.414  1.00  0.00     0.000 C 
BRANCH   6   7
ATOM      7  C   UNL     1      13.623  15.608  30.003  1.00  0.00     0.000 C 
BRANCH   7   8
ATOM      8  C   UNL     1      12.531  15.942  28.976  1.00  0.00     0.000 C 
BRANCH   8   9
ATOM      9  C   UNL     1      12.977  16.984  27.935  1.00  0.00     0.000 C 
BRANCH   9  10
ATOM     10  C   UNL     1      14.087  16.511  26.977  1.00  0.00     0.000 C 
BRANCH  10  11
ATOM     11  C   UNL     1      15.405  17.310  27.104  1.00  0.00     0.000 C 
BRANCH  11  12
ATOM     12  C   UNL     1      15.352  18.405  28.192  1.00  0.00     0.006 C 
BRANCH  12  13
ATOM     13  C   UNL     1      16.669  19.185  28.340  1.00  0.00     0.053 C 
BRANCH  13  14
ATOM     14  C   UNL     1      16.939  20.074  27.166  1.00  0.00     0.041 C 
ATOM     15  O   UNL     1      18.103  20.174  26.699  1.00  0.00    -0.550 OA
ATOM     16  O   UNL     1      15.909  20.818  26.608  1.00  0.00    -0.550 OA
ENDBRANCH  13  14
ENDBRANCH  12  13
ENDBRANCH  11  12
ENDBRANCH  10  11
ENDBRANCH   9  10
ENDBRANCH   8   9
ENDBRANCH   7   8
ENDBRANCH   6   7
ENDBRANCH   5   6
ENDBRANCH   4   5
ENDBRANCH   3   4
ENDBRANCH   2   3
ENDBRANCH   1   2
BRANCH   1  17
ATOM     17  C   UNL     1      18.952  19.235  32.691  1.00  0.00     0.000 C 
BRANCH  17  18
ATOM     18  C   UNL     1      18.674  20.020  33.988  1.00  0.00     0.000 C 
BRANCH  18  19
ATOM     19  C   UNL     1      19.760  19.885  35.070  1.00  0.00     0.000 C 
BRANCH  19  20
ATOM     20  C   UNL     1      19.236  19.225  36.357  1.00  0.00     0.000 C 
BRANCH  20  21
ATOM     21  C   UNL     1      17.812  18.659  36.205  1.00  0.00     0.000 C 
BRANCH  21  22
ATOM     22  C   UNL     1      17.700  17.127  36.312  1.00  0.00    -0.000 C 
BRANCH  22  23
ATOM     23  C   UNL     1      17.574  16.433  34.945  1.00  0.00    -0.000 C 
BRANCH  23  24
ATOM     24  C   UNL     1      18.940  16.077  34.332  1.00  0.00    -0.000 C 
BRANCH  24  25
ATOM     25  C   UNL     1      18.886  15.128  33.120  1.00  0.00    -0.000 C 
BRANCH  25  26
ATOM     26  C   UNL     1      17.495  14.952  32.476  1.00  0.00    -0.000 C 
BRANCH  26  27
ATOM     27  C   UNL     1      17.500  14.521  30.994  1.00  0.00    -0.000 C 
BRANCH  27  28
ATOM     28  C   UNL     1      17.341  15.685  29.991  1.00  0.00    -0.000 C 
BRANCH  28  29
ATOM     29  C   UNL     1      18.678  16.282  29.519  1.00  0.00    -0.003 C 
ATOM     30  C   UNL     1      19.812  15.259  29.502  1.00  0.00     0.004 C 
ENDBRANCH  28  29
ENDBRANCH  27  28
ENDBRANCH  26  27
ENDBRANCH  25  26
ENDBRANCH  24  25
ENDBRANCH  23  24
ENDBRANCH  22  23
ENDBRANCH  21  22
ENDBRANCH  20  21
ENDBRANCH  19  20
ENDBRANCH  18  19
ENDBRANCH  17  18
ENDBRANCH   1  17
TORSDOF 26
ENDMDL
MODEL 9
REMARK VINA RESULT:    -4.138      1.389      3.691
REMARK INTER + INTRA:         -15.699
REMARK INTER:                 -11.061
REMARK INTRA:                  -4.639
REMARK UNBOUND:                -5.272
REMARK SMILES CCCCCCCCCCCCCCCCCCCCCCCCCCCC(=O)[O-]
REMARK SMILES IDX 15 1 16 2 17 3 18 4 19 5 20 6 21 7 22 8 23 9 24 10 25 11
REMARK SMILES IDX 26 12 27 13 28 14 29 15 30 16 14 17 13 18 12 19 11 20 10 21
REMARK SMILES IDX 9 22 8 23 7 24 6 25 5 26 4 27 3 28 2 29 1 30
REMARK H PARENT
REMARK Flexibility Score: inf
ROOT
ATOM      1  C   UNL     1      15.384  18.673  32.327  1.00  0.00     0.000 C 
ENDROOT
BRANCH   1   2
ATOM      2  C   UNL     1      16.154  17.443  32.843  1.00  0.00     0.000 C 
BRANCH   2   3
ATOM      3  C   UNL     1      17.679  17.641  32.810  1.00  0.00     0.000 C 
BRANCH   3   4
ATOM      4  C   UNL     1      18.088  19.039  32.319  1.00  0.00     0.000 C 
BRANCH   4   5
ATOM      5  C   UNL     1      19.258  19.637  33.120  1.00  0.00     0.000 C 
BRANCH   5   6
ATOM      6  C   UNL     1      18.821  20.184  34.496  1.00  0.00     0.000 C 
BRANCH   6   7
ATOM      7  C   UNL     1      19.956  20.264  35.532  1.00  0.00     0.000 C 
BRANCH   7   8
ATOM      8  C   UNL     1      19.960  19.077  36.507  1.00  0.00     0.000 C 
BRANCH   8   9
ATOM      9  C   UNL     1      20.687  17.840  35.951  1.00  0.00     0.000 C 
BRANCH   9  10
ATOM     10  C   UNL     1      19.816  16.574  35.830  1.00  0.00     0.000 C 
BRANCH  10  11
ATOM     11  C   UNL     1      18.315  16.818  36.110  1.00  0.00     0.000 C 
BRANCH  11  12
ATOM     12  C   UNL     1      17.496  15.513  36.222  1.00  0.00     0.006 C 
BRANCH  12  13
ATOM     13  C   UNL     1      15.975  15.741  36.190  1.00  0.00     0.053 C 
BRANCH  13  14
ATOM     14  C   UNL     1      15.381  15.814  37.562  1.00  0.00     0.041 C 
ATOM     15  O   UNL     1      15.154  16.930  38.097  1.00  0.00    -0.550 OA
ATOM     16  O   UNL     1      15.107  14.648  38.263  1.00  0.00    -0.550 OA
ENDBRANCH  13  14
ENDBRANCH  12  13
ENDBRANCH  11  12
ENDBRANCH  10  11
ENDBRANCH   9  10
ENDBRANCH   8   9
ENDBRANCH   7   8
ENDBRANCH   6   7
ENDBRANCH   5   6
ENDBRANCH   4   5
ENDBRANCH   3   4
ENDBRANCH   2   3
ENDBRANCH   1   2
BRANCH   1  17
ATOM     17  C   UNL     1      14.140  18.353  31.474  1.00  0.00     0.000 C 
BRANCH  17  18
ATOM     18  C   UNL     1      13.751  16.863  31.407  1.00  0.00     0.000 C 
BRANCH  18  19
ATOM     19  C   UNL     1      12.915  16.469  30.175  1.00  0.00     0.000 C 
BRANCH  19  20
ATOM     20  C   UNL     1      13.675  15.536  29.216  1.00  0.00     0.000 C 
BRANCH  20  21
ATOM     21  C   UNL     1      13.610  16.002  27.749  1.00  0.00     0.000 C 
BRANCH  21  22
ATOM     22  C   UNL     1      12.817  17.300  27.508  1.00  0.00    -0.000 C 
BRANCH  22  23
ATOM     23  C   UNL     1      13.514  18.261  26.530  1.00  0.00    -0.000 C 
BRANCH  23  24
ATOM     24  C   UNL     1      15.049  18.162  26.593  1.00  0.00    -0.000 C 
BRANCH  24  25
ATOM     25  C   UNL     1      15.718  19.052  27.657  1.00  0.00    -0.000 C 
BRANCH  25  26
ATOM     26  C   UNL     1      16.384  18.300  28.829  1.00  0.00    -0.000 C 
BRANCH  26  27
ATOM     27  C   UNL     1      17.163  17.026  28.442  1.00  0.00    -0.000 C 
BRANCH  27  28
ATOM     28  C   UNL     1      17.363  16.025  29.602  1.00  0.00    -0.000 C 
BRANCH  28  29
ATOM     29  C   UNL     1      18.725  15.311  29.576  1.00  0.00    -0.003 C 
ATOM     30  C   UNL     1      19.831  16.114  30.258  1.00  0.00     0.004 C 
ENDBRANCH  28  29
ENDBRANCH  27  28
ENDBRANCH  26  27
ENDBRANCH  25  26
ENDBRANCH  24  25
ENDBRANCH  23  24
ENDBRANCH  22  23
ENDBRANCH  21  22
ENDBRANCH  20  21
ENDBRANCH  19  20
ENDBRANCH  18  19
ENDBRANCH  17  18
ENDBRANCH   1  17
TORSDOF 26
ENDMDL
