MODEL 1
REMARK VINA RESULT:    -7.056      0.000      0.000
REMARK INTER + INTRA:          -8.609
REMARK INTER:                  -8.294
REMARK INTRA:                  -0.315
REMARK UNBOUND:                -0.315
REMARK SMILES O=c1cc(-c2ccc(O)c(O)c2)oc2cc(O)cc(O)c12
REMARK SMILES IDX 4 1 3 2 2 3 1 4 21 5 19 6 18 7 16 8 15 9 14 10 13 11 5 12
REMARK SMILES IDX 6 13 7 14 8 15 12 16 10 17 9 18 11 20 20 22 17 24
REMARK H PARENT 9 19 11 21 20 23 17 25
REMARK Flexibility Score: inf
ROOT
ATOM      1  C   UNL     1       6.112 -17.643 -39.301  1.00  0.00     0.138 A 
ATOM      2  C   UNL     1       6.217 -16.512 -40.122  1.00  0.00     0.100 A 
ATOM      3  C   UNL     1       7.471 -16.111 -40.586  1.00  0.00     0.197 A 
ATOM      4  O   UNL     1       7.527 -15.129 -41.371  1.00  0.00    -0.289 OA
ATOM      5  C   UNL     1       8.628 -16.828 -40.199  1.00  0.00     0.107 A 
ATOM      6  C   UNL     1       9.961 -16.487 -40.577  1.00  0.00     0.134 A 
ATOM      7  C   UNL     1      11.016 -17.338 -40.230  1.00  0.00     0.093 A 
ATOM      8  C   UNL     1      10.796 -18.486 -39.467  1.00  0.00     0.123 A 
ATOM      9  C   UNL     1       9.504 -18.800 -39.046  1.00  0.00     0.094 A 
ATOM     10  C   UNL     1       8.425 -17.989 -39.406  1.00  0.00     0.146 A 
ATOM     11  O   UNL     1       7.208 -18.332 -38.997  1.00  0.00    -0.456 OA
ENDROOT
BRANCH   1  12
ATOM     12  C   UNL     1       4.804 -18.114 -38.780  1.00  0.00     0.021 A 
ATOM     13  C   UNL     1       3.666 -17.285 -38.779  1.00  0.00     0.016 A 
ATOM     14  C   UNL     1       2.451 -17.750 -38.272  1.00  0.00     0.051 A 
ATOM     15  C   UNL     1       2.350 -19.046 -37.750  1.00  0.00     0.157 A 
ATOM     16  C   UNL     1       4.698 -19.409 -38.242  1.00  0.00     0.062 A 
ATOM     17  C   UNL     1       3.481 -19.879 -37.734  1.00  0.00     0.158 A 
BRANCH  15  18
ATOM     18  O   UNL     1       1.134 -19.508 -37.247  1.00  0.00    -0.504 OA
ATOM     19  H   UNL     1       1.034 -19.789 -36.279  1.00  0.00     0.293 HD
ENDBRANCH  15  18
BRANCH  17  20
ATOM     20  O   UNL     1       3.416 -21.173 -37.219  1.00  0.00    -0.504 OA
ATOM     21  H   UNL     1       2.906 -21.389 -36.372  1.00  0.00     0.293 HD
ENDBRANCH  17  20
ENDBRANCH   1  12
BRANCH   6  22
ATOM     22  O   UNL     1      10.302 -15.320 -41.267  1.00  0.00    -0.507 OA
ATOM     23  H   UNL     1      11.091 -15.228 -41.890  1.00  0.00     0.293 HD
ENDBRANCH   6  22
BRANCH   8  24
ATOM     24  O   UNL     1      11.873 -19.302 -39.127  1.00  0.00    -0.508 OA
ATOM     25  H   UNL     1      11.852 -19.890 -38.302  1.00  0.00     0.293 HD
ENDBRANCH   8  24
TORSDOF 5
ENDMDL
MODEL 2
REMARK VINA RESULT:    -6.800      0.932      1.591
REMARK INTER + INTRA:          -8.307
REMARK INTER:                  -8.014
REMARK INTRA:                  -0.294
REMARK UNBOUND:                -0.315
REMARK SMILES O=c1cc(-c2ccc(O)c(O)c2)oc2cc(O)cc(O)c12
REMARK SMILES IDX 4 1 3 2 2 3 1 4 21 5 19 6 18 7 16 8 15 9 14 10 13 11 5 12
REMARK SMILES IDX 6 13 7 14 8 15 12 16 10 17 9 18 11 20 20 22 17 24
REMARK H PARENT 9 19 11 21 20 23 17 25
REMARK Flexibility Score: inf
ROOT
ATOM      1  C   UNL     1       6.018 -17.979 -38.946  1.00  0.00     0.138 A 
ATOM      2  C   UNL     1       6.139 -17.081 -40.015  1.00  0.00     0.100 A 
ATOM      3  C   UNL     1       7.406 -16.755 -40.502  1.00  0.00     0.197 A 
ATOM      4  O   UNL     1       7.481 -15.995 -41.502  1.00  0.00    -0.289 OA
ATOM      5  C   UNL     1       8.558 -17.307 -39.892  1.00  0.00     0.107 A 
ATOM      6  C   UNL     1       9.900 -17.014 -40.277  1.00  0.00     0.134 A 
ATOM      7  C   UNL     1      10.958 -17.710 -39.677  1.00  0.00     0.093 A 
ATOM      8  C   UNL     1      10.725 -18.643 -38.666  1.00  0.00     0.123 A 
ATOM      9  C   UNL     1       9.420 -18.897 -38.245  1.00  0.00     0.094 A 
ATOM     10  C   UNL     1       8.342 -18.245 -38.847  1.00  0.00     0.146 A 
ATOM     11  O   UNL     1       7.113 -18.526 -38.427  1.00  0.00    -0.456 OA
ENDROOT
BRANCH   1  12
ATOM     12  C   UNL     1       4.696 -18.361 -38.389  1.00  0.00     0.021 A 
ATOM     13  C   UNL     1       4.556 -19.428 -37.480  1.00  0.00     0.016 A 
ATOM     14  C   UNL     1       3.299 -19.773 -36.981  1.00  0.00     0.051 A 
ATOM     15  C   UNL     1       2.158 -19.068 -37.383  1.00  0.00     0.157 A 
ATOM     16  C   UNL     1       3.544 -17.666 -38.798  1.00  0.00     0.062 A 
ATOM     17  C   UNL     1       2.282 -18.009 -38.298  1.00  0.00     0.158 A 
BRANCH  15  18
ATOM     18  O   UNL     1       0.904 -19.413 -36.880  1.00  0.00    -0.504 OA
ATOM     19  H   UNL     1       0.082 -18.856 -37.079  1.00  0.00     0.293 HD
ENDBRANCH  15  18
BRANCH  17  20
ATOM     20  O   UNL     1       1.167 -17.288 -38.721  1.00  0.00    -0.504 OA
ATOM     21  H   UNL     1       0.905 -16.404 -38.301  1.00  0.00     0.293 HD
ENDBRANCH  17  20
ENDBRANCH   1  12
BRANCH   6  22
ATOM     22  O   UNL     1      10.249 -16.040 -41.217  1.00  0.00    -0.507 OA
ATOM     23  H   UNL     1      10.057 -15.054 -41.124  1.00  0.00     0.293 HD
ENDBRANCH   6  22
BRANCH   8  24
ATOM     24  O   UNL     1      11.803 -19.305 -38.082  1.00  0.00    -0.508 OA
ATOM     25  H   UNL     1      11.953 -19.290 -37.080  1.00  0.00     0.293 HD
ENDBRANCH   8  24
TORSDOF 5
ENDMDL
MODEL 3
REMARK VINA RESULT:    -6.540      1.437      6.737
REMARK INTER + INTRA:          -8.002
REMARK INTER:                  -7.685
REMARK INTRA:                  -0.317
REMARK UNBOUND:                -0.315
REMARK SMILES O=c1cc(-c2ccc(O)c(O)c2)oc2cc(O)cc(O)c12
REMARK SMILES IDX 4 1 3 2 2 3 1 4 21 5 19 6 18 7 16 8 15 9 14 10 13 11 5 12
REMARK SMILES IDX 6 13 7 14 8 15 12 16 10 17 9 18 11 20 20 22 17 24
REMARK H PARENT 9 19 11 21 20 23 17 25
REMARK Flexibility Score: inf
ROOT
ATOM      1  C   UNL     1       6.911 -17.551 -39.109  1.00  0.00     0.138 A 
ATOM      2  C   UNL     1       6.068 -16.467 -39.388  1.00  0.00     0.100 A 
ATOM      3  C   UNL     1       4.710 -16.553 -39.079  1.00  0.00     0.197 A 
ATOM      4  O   UNL     1       3.990 -15.542 -39.283  1.00  0.00    -0.289 OA
ATOM      5  C   UNL     1       4.190 -17.743 -38.516  1.00  0.00     0.107 A 
ATOM      6  C   UNL     1       2.815 -17.958 -38.198  1.00  0.00     0.134 A 
ATOM      7  C   UNL     1       2.435 -19.132 -37.537  1.00  0.00     0.093 A 
ATOM      8  C   UNL     1       3.369 -20.125 -37.237  1.00  0.00     0.123 A 
ATOM      9  C   UNL     1       4.706 -19.948 -37.592  1.00  0.00     0.094 A 
ATOM     10  C   UNL     1       5.123 -18.772 -38.221  1.00  0.00     0.146 A 
ATOM     11  O   UNL     1       6.408 -18.637 -38.529  1.00  0.00    -0.456 OA
ENDROOT
BRANCH   1  12
ATOM     12  C   UNL     1       8.364 -17.515 -39.417  1.00  0.00     0.021 A 
ATOM     13  C   UNL     1       8.924 -16.502 -40.220  1.00  0.00     0.016 A 
ATOM     14  C   UNL     1      10.292 -16.498 -40.502  1.00  0.00     0.051 A 
ATOM     15  C   UNL     1      11.123 -17.506 -39.998  1.00  0.00     0.157 A 
ATOM     16  C   UNL     1       9.203 -18.530 -38.925  1.00  0.00     0.062 A 
ATOM     17  C   UNL     1      10.574 -18.528 -39.206  1.00  0.00     0.158 A 
BRANCH  15  18
ATOM     18  O   UNL     1      12.488 -17.497 -40.280  1.00  0.00    -0.504 OA
ATOM     19  H   UNL     1      12.848 -17.110 -41.145  1.00  0.00     0.293 HD
ENDBRANCH  15  18
BRANCH  17  20
ATOM     20  O   UNL     1      11.373 -19.548 -38.690  1.00  0.00    -0.504 OA
ATOM     21  H   UNL     1      11.736 -19.522 -37.745  1.00  0.00     0.293 HD
ENDBRANCH  17  20
ENDBRANCH   1  12
BRANCH   6  22
ATOM     22  O   UNL     1       1.788 -17.069 -38.529  1.00  0.00    -0.507 OA
ATOM     23  H   UNL     1       0.853 -17.340 -38.792  1.00  0.00     0.293 HD
ENDBRANCH   6  22
BRANCH   8  24
ATOM     24  O   UNL     1       2.952 -21.287 -36.592  1.00  0.00    -0.508 OA
ATOM     25  H   UNL     1       3.507 -22.134 -36.617  1.00  0.00     0.293 HD
ENDBRANCH   8  24
TORSDOF 5
ENDMDL
MODEL 4
REMARK VINA RESULT:    -6.519      1.769      6.785
REMARK INTER + INTRA:          -7.978
REMARK INTER:                  -7.686
REMARK INTRA:                  -0.292
REMARK UNBOUND:                -0.315
REMARK SMILES O=c1cc(-c2ccc(O)c(O)c2)oc2cc(O)cc(O)c12
REMARK SMILES IDX 4 1 3 2 2 3 1 4 21 5 19 6 18 7 16 8 15 9 14 10 13 11 5 12
REMARK SMILES IDX 6 13 7 14 8 15 12 16 10 17 9 18 11 20 20 22 17 24
REMARK H PARENT 9 19 11 21 20 23 17 25
REMARK Flexibility Score: inf
ROOT
ATOM      1  C   UNL     1       5.732 -16.668 -39.517  1.00  0.00     0.138 A 
ATOM      2  C   UNL     1       4.787 -15.818 -38.924  1.00  0.00     0.100 A 
ATOM      3  C   UNL     1       3.806 -16.355 -38.090  1.00  0.00     0.197 A 
ATOM      4  O   UNL     1       3.010 -15.562 -37.523  1.00  0.00    -0.289 OA
ATOM      5  C   UNL     1       3.751 -17.753 -37.876  1.00  0.00     0.107 A 
ATOM      6  C   UNL     1       2.770 -18.415 -37.079  1.00  0.00     0.134 A 
ATOM      7  C   UNL     1       2.886 -19.791 -36.844  1.00  0.00     0.093 A 
ATOM      8  C   UNL     1       3.910 -20.538 -37.425  1.00  0.00     0.123 A 
ATOM      9  C   UNL     1       4.844 -19.910 -38.250  1.00  0.00     0.094 A 
ATOM     10  C   UNL     1       4.776 -18.533 -38.475  1.00  0.00     0.146 A 
ATOM     11  O   UNL     1       5.693 -17.971 -39.256  1.00  0.00    -0.456 OA
ENDROOT
BRANCH   1  12
ATOM     12  C   UNL     1       6.798 -16.151 -40.413  1.00  0.00     0.021 A 
ATOM     13  C   UNL     1       6.511 -15.259 -41.465  1.00  0.00     0.016 A 
ATOM     14  C   UNL     1       7.532 -14.797 -42.299  1.00  0.00     0.051 A 
ATOM     15  C   UNL     1       8.852 -15.221 -42.105  1.00  0.00     0.157 A 
ATOM     16  C   UNL     1       8.124 -16.582 -40.233  1.00  0.00     0.062 A 
ATOM     17  C   UNL     1       9.149 -16.120 -41.067  1.00  0.00     0.158 A 
BRANCH  15  18
ATOM     18  O   UNL     1       9.869 -14.756 -42.938  1.00  0.00    -0.504 OA
ATOM     19  H   UNL     1      10.550 -15.386 -43.347  1.00  0.00     0.293 HD
ENDBRANCH  15  18
BRANCH  17  20
ATOM     20  O   UNL     1      10.452 -16.564 -40.848  1.00  0.00    -0.504 OA
ATOM     21  H   UNL     1      10.931 -17.171 -41.502  1.00  0.00     0.293 HD
ENDBRANCH  17  20
ENDBRANCH   1  12
BRANCH   6  22
ATOM     22  O   UNL     1       1.658 -17.779 -36.519  1.00  0.00    -0.507 OA
ATOM     23  H   UNL     1       1.335 -16.857 -36.770  1.00  0.00     0.293 HD
ENDBRANCH   6  22
BRANCH   8  24
ATOM     24  O   UNL     1       3.985 -21.908 -37.182  1.00  0.00    -0.508 OA
ATOM     25  H   UNL     1       4.747 -22.469 -37.543  1.00  0.00     0.293 HD
ENDBRANCH   8  24
TORSDOF 5
ENDMDL
MODEL 5
REMARK VINA RESULT:    -6.493      1.570      7.416
REMARK INTER + INTRA:          -7.946
REMARK INTER:                  -7.638
REMARK INTRA:                  -0.309
REMARK UNBOUND:                -0.315
REMARK SMILES O=c1cc(-c2ccc(O)c(O)c2)oc2cc(O)cc(O)c12
REMARK SMILES IDX 4 1 3 2 2 3 1 4 21 5 19 6 18 7 16 8 15 9 14 10 13 11 5 12
REMARK SMILES IDX 6 13 7 14 8 15 12 16 10 17 9 18 11 20 20 22 17 24
REMARK H PARENT 9 19 11 21 20 23 17 25
REMARK Flexibility Score: inf
ROOT
ATOM      1  C   UNL     1       6.079 -18.068 -38.888  1.00  0.00     0.138 A 
ATOM      2  C   UNL     1       5.613 -19.277 -38.354  1.00  0.00     0.100 A 
ATOM      3  C   UNL     1       4.259 -19.419 -38.049  1.00  0.00     0.197 A 
ATOM      4  O   UNL     1       3.859 -20.536 -37.629  1.00  0.00    -0.289 OA
ATOM      5  C   UNL     1       3.374 -18.333 -38.251  1.00  0.00     0.107 A 
ATOM      6  C   UNL     1       1.982 -18.350 -37.938  1.00  0.00     0.134 A 
ATOM      7  C   UNL     1       1.182 -17.257 -38.290  1.00  0.00     0.093 A 
ATOM      8  C   UNL     1       1.733 -16.123 -38.888  1.00  0.00     0.123 A 
ATOM      9  C   UNL     1       3.103 -16.074 -39.149  1.00  0.00     0.094 A 
ATOM     10  C   UNL     1       3.921 -17.163 -38.842  1.00  0.00     0.146 A 
ATOM     11  O   UNL     1       5.218 -17.082 -39.120  1.00  0.00    -0.456 OA
ENDROOT
BRANCH   1  12
ATOM     12  C   UNL     1       7.510 -17.862 -39.231  1.00  0.00     0.021 A 
ATOM     13  C   UNL     1       8.538 -18.551 -38.558  1.00  0.00     0.016 A 
ATOM     14  C   UNL     1       9.875 -18.330 -38.893  1.00  0.00     0.051 A 
ATOM     15  C   UNL     1      10.213 -17.414 -39.898  1.00  0.00     0.157 A 
ATOM     16  C   UNL     1       7.857 -16.935 -40.229  1.00  0.00     0.062 A 
ATOM     17  C   UNL     1       9.196 -16.712 -40.568  1.00  0.00     0.158 A 
BRANCH  15  18
ATOM     18  O   UNL     1      11.549 -17.198 -40.232  1.00  0.00    -0.504 OA
ATOM     19  H   UNL     1      11.950 -17.573 -41.083  1.00  0.00     0.293 HD
ENDBRANCH  15  18
BRANCH  17  20
ATOM     20  O   UNL     1       9.498 -15.791 -41.571  1.00  0.00    -0.504 OA
ATOM     21  H   UNL     1      10.447 -15.629 -41.885  1.00  0.00     0.293 HD
ENDBRANCH  17  20
ENDBRANCH   1  12
BRANCH   6  22
ATOM     22  O   UNL     1       1.345 -19.398 -37.265  1.00  0.00    -0.507 OA
ATOM     23  H   UNL     1       0.499 -19.306 -36.724  1.00  0.00     0.293 HD
ENDBRANCH   6  22
BRANCH   8  24
ATOM     24  O   UNL     1       0.909 -15.047 -39.210  1.00  0.00    -0.508 OA
ATOM     25  H   UNL     1       1.204 -14.090 -39.057  1.00  0.00     0.293 HD
ENDBRANCH   8  24
TORSDOF 5
ENDMDL
MODEL 6
REMARK VINA RESULT:    -6.481      1.259      2.700
REMARK INTER + INTRA:          -7.933
REMARK INTER:                  -7.645
REMARK INTRA:                  -0.288
REMARK UNBOUND:                -0.315
REMARK SMILES O=c1cc(-c2ccc(O)c(O)c2)oc2cc(O)cc(O)c12
REMARK SMILES IDX 4 1 3 2 2 3 1 4 21 5 19 6 18 7 16 8 15 9 14 10 13 11 5 12
REMARK SMILES IDX 6 13 7 14 8 15 12 16 10 17 9 18 11 20 20 22 17 24
REMARK H PARENT 9 19 11 21 20 23 17 25
REMARK Flexibility Score: inf
ROOT
ATOM      1  C   UNL     1       6.150 -17.880 -38.899  1.00  0.00     0.138 A 
ATOM      2  C   UNL     1       7.307 -18.298 -38.227  1.00  0.00     0.100 A 
ATOM      3  C   UNL     1       8.555 -17.847 -38.658  1.00  0.00     0.197 A 
ATOM      4  O   UNL     1       9.571 -18.189 -37.997  1.00  0.00    -0.289 OA
ATOM      5  C   UNL     1       8.646 -17.000 -39.788  1.00  0.00     0.107 A 
ATOM      6  C   UNL     1       9.868 -16.513 -40.342  1.00  0.00     0.134 A 
ATOM      7  C   UNL     1       9.829 -15.587 -41.391  1.00  0.00     0.093 A 
ATOM      8  C   UNL     1       8.616 -15.177 -41.946  1.00  0.00     0.123 A 
ATOM      9  C   UNL     1       7.418 -15.689 -41.448  1.00  0.00     0.094 A 
ATOM     10  C   UNL     1       7.423 -16.588 -40.379  1.00  0.00     0.146 A 
ATOM     11  O   UNL     1       6.259 -17.040 -39.924  1.00  0.00    -0.456 OA
ENDROOT
BRANCH   1  12
ATOM     12  C   UNL     1       4.797 -18.328 -38.483  1.00  0.00     0.021 A 
ATOM     13  C   UNL     1       3.652 -17.544 -38.725  1.00  0.00     0.016 A 
ATOM     14  C   UNL     1       2.392 -17.985 -38.313  1.00  0.00     0.051 A 
ATOM     15  C   UNL     1       2.252 -19.209 -37.647  1.00  0.00     0.157 A 
ATOM     16  C   UNL     1       4.649 -19.549 -37.802  1.00  0.00     0.062 A 
ATOM     17  C   UNL     1       3.388 -19.994 -37.389  1.00  0.00     0.158 A 
BRANCH  15  18
ATOM     18  O   UNL     1       0.993 -19.647 -37.239  1.00  0.00    -0.504 OA
ATOM     19  H   UNL     1       0.193 -19.024 -37.227  1.00  0.00     0.293 HD
ENDBRANCH  15  18
BRANCH  17  20
ATOM     20  O   UNL     1       3.284 -21.216 -36.725  1.00  0.00    -0.504 OA
ATOM     21  H   UNL     1       3.522 -22.093 -37.172  1.00  0.00     0.293 HD
ENDBRANCH  17  20
ENDBRANCH   1  12
BRANCH   6  22
ATOM     22  O   UNL     1      11.136 -16.922 -39.918  1.00  0.00    -0.507 OA
ATOM     23  H   UNL     1      11.653 -17.696 -40.308  1.00  0.00     0.293 HD
ENDBRANCH   6  22
BRANCH   8  24
ATOM     24  O   UNL     1       8.616 -14.266 -43.000  1.00  0.00    -0.508 OA
ATOM     25  H   UNL     1       9.435 -13.713 -43.223  1.00  0.00     0.293 HD
ENDBRANCH   8  24
TORSDOF 5
ENDMDL
MODEL 7
REMARK VINA RESULT:    -6.325      2.087      7.427
REMARK INTER + INTRA:          -7.749
REMARK INTER:                  -7.465
REMARK INTRA:                  -0.284
REMARK UNBOUND:                -0.315
REMARK SMILES O=c1cc(-c2ccc(O)c(O)c2)oc2cc(O)cc(O)c12
REMARK SMILES IDX 4 1 3 2 2 3 1 4 21 5 19 6 18 7 16 8 15 9 14 10 13 11 5 12
REMARK SMILES IDX 6 13 7 14 8 15 12 16 10 17 9 18 11 20 20 22 17 24
REMARK H PARENT 9 19 11 21 20 23 17 25
REMARK Flexibility Score: inf
ROOT
ATOM      1  C   UNL     1       5.202 -17.724 -38.264  1.00  0.00     0.138 A 
ATOM      2  C   UNL     1       4.519 -18.689 -39.016  1.00  0.00     0.100 A 
ATOM      3  C   UNL     1       3.187 -18.979 -38.718  1.00  0.00     0.197 A 
ATOM      4  O   UNL     1       2.581 -19.805 -39.449  1.00  0.00    -0.289 OA
ATOM      5  C   UNL     1       2.547 -18.321 -37.641  1.00  0.00     0.107 A 
ATOM      6  C   UNL     1       1.206 -18.567 -37.220  1.00  0.00     0.134 A 
ATOM      7  C   UNL     1       0.641 -17.771 -36.215  1.00  0.00     0.093 A 
ATOM      8  C   UNL     1       1.387 -16.781 -35.575  1.00  0.00     0.123 A 
ATOM      9  C   UNL     1       2.717 -16.569 -35.942  1.00  0.00     0.094 A 
ATOM     10  C   UNL     1       3.298 -17.323 -36.964  1.00  0.00     0.146 A 
ATOM     11  O   UNL     1       4.562 -17.080 -37.293  1.00  0.00    -0.456 OA
ENDROOT
BRANCH   1  12
ATOM     12  C   UNL     1       6.620 -17.375 -38.538  1.00  0.00     0.021 A 
ATOM     13  C   UNL     1       7.107 -16.065 -38.363  1.00  0.00     0.016 A 
ATOM     14  C   UNL     1       8.442 -15.763 -38.639  1.00  0.00     0.051 A 
ATOM     15  C   UNL     1       9.313 -16.758 -39.101  1.00  0.00     0.157 A 
ATOM     16  C   UNL     1       7.498 -18.365 -39.015  1.00  0.00     0.062 A 
ATOM     17  C   UNL     1       8.836 -18.066 -39.291  1.00  0.00     0.158 A 
BRANCH  15  18
ATOM     18  O   UNL     1      10.646 -16.453 -39.373  1.00  0.00    -0.504 OA
ATOM     19  H   UNL     1      11.202 -15.891 -38.738  1.00  0.00     0.293 HD
ENDBRANCH  15  18
BRANCH  17  20
ATOM     20  O   UNL     1       9.676 -19.078 -39.752  1.00  0.00    -0.504 OA
ATOM     21  H   UNL     1       9.536 -19.527 -40.649  1.00  0.00     0.293 HD
ENDBRANCH  17  20
ENDBRANCH   1  12
BRANCH   6  22
ATOM     22  O   UNL     1       0.400 -19.586 -37.734  1.00  0.00    -0.507 OA
ATOM     23  H   UNL     1       0.565 -20.573 -37.605  1.00  0.00     0.293 HD
ENDBRANCH   6  22
BRANCH   8  24
ATOM     24  O   UNL     1       0.798 -16.019 -34.569  1.00  0.00    -0.508 OA
ATOM     25  H   UNL     1      -0.190 -16.093 -34.358  1.00  0.00     0.293 HD
ENDBRANCH   8  24
TORSDOF 5
ENDMDL
MODEL 8
REMARK VINA RESULT:    -6.184      1.934      2.849
REMARK INTER + INTRA:          -7.583
REMARK INTER:                  -7.292
REMARK INTRA:                  -0.291
REMARK UNBOUND:                -0.315
REMARK SMILES O=c1cc(-c2ccc(O)c(O)c2)oc2cc(O)cc(O)c12
REMARK SMILES IDX 4 1 3 2 2 3 1 4 21 5 19 6 18 7 16 8 15 9 14 10 13 11 5 12
REMARK SMILES IDX 6 13 7 14 8 15 12 16 10 17 9 18 11 20 20 22 17 24
REMARK H PARENT 9 19 11 21 20 23 17 25
REMARK Flexibility Score: inf
ROOT
ATOM      1  C   UNL     1       6.655 -17.460 -38.579  1.00  0.00     0.138 A 
ATOM      2  C   UNL     1       7.674 -18.281 -39.082  1.00  0.00     0.100 A 
ATOM      3  C   UNL     1       8.941 -17.744 -39.312  1.00  0.00     0.197 A 
ATOM      4  O   UNL     1       9.852 -18.519 -39.704  1.00  0.00    -0.289 OA
ATOM      5  C   UNL     1       9.179 -16.371 -39.067  1.00  0.00     0.107 A 
ATOM      6  C   UNL     1      10.420 -15.706 -39.304  1.00  0.00     0.134 A 
ATOM      7  C   UNL     1      10.572 -14.370 -38.915  1.00  0.00     0.093 A 
ATOM      8  C   UNL     1       9.512 -13.657 -38.353  1.00  0.00     0.123 A 
ATOM      9  C   UNL     1       8.279 -14.282 -38.166  1.00  0.00     0.094 A 
ATOM     10  C   UNL     1       8.106 -15.624 -38.513  1.00  0.00     0.146 A 
ATOM     11  O   UNL     1       6.920 -16.186 -38.306  1.00  0.00    -0.456 OA
ENDROOT
BRANCH   1  12
ATOM     12  C   UNL     1       5.289 -17.979 -38.316  1.00  0.00     0.021 A 
ATOM     13  C   UNL     1       4.192 -17.113 -38.134  1.00  0.00     0.016 A 
ATOM     14  C   UNL     1       2.919 -17.628 -37.876  1.00  0.00     0.051 A 
ATOM     15  C   UNL     1       2.718 -19.011 -37.788  1.00  0.00     0.157 A 
ATOM     16  C   UNL     1       5.081 -19.365 -38.212  1.00  0.00     0.062 A 
ATOM     17  C   UNL     1       3.807 -19.884 -37.955  1.00  0.00     0.158 A 
BRANCH  15  18
ATOM     18  O   UNL     1       1.446 -19.521 -37.533  1.00  0.00    -0.504 OA
ATOM     19  H   UNL     1       1.204 -20.479 -37.759  1.00  0.00     0.293 HD
ENDBRANCH  15  18
BRANCH  17  20
ATOM     20  O   UNL     1       3.642 -21.266 -37.870  1.00  0.00    -0.504 OA
ATOM     21  H   UNL     1       3.258 -21.810 -38.633  1.00  0.00     0.293 HD
ENDBRANCH  17  20
ENDBRANCH   1  12
BRANCH   6  22
ATOM     22  O   UNL     1      11.516 -16.300 -39.936  1.00  0.00    -0.507 OA
ATOM     23  H   UNL     1      11.472 -16.824 -40.797  1.00  0.00     0.293 HD
ENDBRANCH   6  22
BRANCH   8  24
ATOM     24  O   UNL     1       9.696 -12.325 -37.991  1.00  0.00    -0.508 OA
ATOM     25  H   UNL     1       8.911 -11.722 -37.774  1.00  0.00     0.293 HD
ENDBRANCH   8  24
TORSDOF 5
ENDMDL
MODEL 9
REMARK VINA RESULT:    -6.099      1.808      3.689
REMARK INTER + INTRA:          -7.484
REMARK INTER:                  -7.207
REMARK INTRA:                  -0.276
REMARK UNBOUND:                -0.315
REMARK SMILES O=c1cc(-c2ccc(O)c(O)c2)oc2cc(O)cc(O)c12
REMARK SMILES IDX 4 1 3 2 2 3 1 4 21 5 19 6 18 7 16 8 15 9 14 10 13 11 5 12
REMARK SMILES IDX 6 13 7 14 8 15 12 16 10 17 9 18 11 20 20 22 17 24
REMARK H PARENT 9 19 11 21 20 23 17 25
REMARK Flexibility Score: inf
ROOT
ATOM      1  C   UNL     1       6.564 -17.409 -39.425  1.00  0.00     0.138 A 
ATOM      2  C   UNL     1       7.946 -17.632 -39.507  1.00  0.00     0.100 A 
ATOM      3  C   UNL     1       8.743 -16.754 -40.243  1.00  0.00     0.197 A 
ATOM      4  O   UNL     1       9.987 -16.943 -40.248  1.00  0.00    -0.289 OA
ATOM      5  C   UNL     1       8.147 -15.667 -40.927  1.00  0.00     0.107 A 
ATOM      6  C   UNL     1       8.855 -14.733 -41.740  1.00  0.00     0.134 A 
ATOM      7  C   UNL     1       8.178 -13.629 -42.273  1.00  0.00     0.093 A 
ATOM      8  C   UNL     1       6.808 -13.458 -42.072  1.00  0.00     0.123 A 
ATOM      9  C   UNL     1       6.095 -14.395 -41.323  1.00  0.00     0.094 A 
ATOM     10  C   UNL     1       6.749 -15.488 -40.749  1.00  0.00     0.146 A 
ATOM     11  O   UNL     1       6.037 -16.349 -40.031  1.00  0.00    -0.456 OA
ENDROOT
BRANCH   1  12
ATOM     12  C   UNL     1       5.669 -18.311 -38.656  1.00  0.00     0.021 A 
ATOM     13  C   UNL     1       5.837 -18.515 -37.272  1.00  0.00     0.016 A 
ATOM     14  C   UNL     1       4.988 -19.377 -36.575  1.00  0.00     0.051 A 
ATOM     15  C   UNL     1       3.963 -20.056 -37.245  1.00  0.00     0.157 A 
ATOM     16  C   UNL     1       4.646 -19.007 -39.323  1.00  0.00     0.062 A 
ATOM     17  C   UNL     1       3.793 -19.871 -38.627  1.00  0.00     0.158 A 
BRANCH  15  18
ATOM     18  O   UNL     1       3.115 -20.915 -36.546  1.00  0.00    -0.504 OA
ATOM     19  H   UNL     1       3.377 -21.302 -35.647  1.00  0.00     0.293 HD
ENDBRANCH  15  18
BRANCH  17  20
ATOM     20  O   UNL     1       2.784 -20.534 -39.325  1.00  0.00    -0.504 OA
ATOM     21  H   UNL     1       2.464 -21.457 -39.060  1.00  0.00     0.293 HD
ENDBRANCH  17  20
ENDBRANCH   1  12
BRANCH   6  22
ATOM     22  O   UNL     1      10.207 -14.854 -42.074  1.00  0.00    -0.507 OA
ATOM     23  H   UNL     1      10.945 -15.071 -41.421  1.00  0.00     0.293 HD
ENDBRANCH   6  22
BRANCH   8  24
ATOM     24  O   UNL     1       6.163 -12.356 -42.630  1.00  0.00    -0.508 OA
ATOM     25  H   UNL     1       5.468 -11.831 -42.113  1.00  0.00     0.293 HD
ENDBRANCH   8  24
TORSDOF 5
ENDMDL
