MODEL 1
REMARK VINA RESULT:    -4.913      0.000      0.000
REMARK INTER + INTRA:         -13.936
REMARK INTER:                 -10.657
REMARK INTRA:                  -3.279
REMARK UNBOUND:                -3.279
REMARK SMILES CCCCCCCCCCCCCCCCCCCCCC(=O)[O-]
REMARK SMILES IDX 12 1 11 2 10 3 9 4 8 5 7 6 6 7 5 8 4 9 3 10 2 11 1 12 13 13
REMARK SMILES IDX 14 14 15 15 16 16 17 17 18 18 19 19 20 20 21 21 22 22 23 23
REMARK SMILES IDX 24 24
REMARK H PARENT
REMARK Flexibility Score: inf
ROOT
ATOM      1  C   UNL     1      -4.030  10.007  -6.023  1.00  0.00     0.000 C 
ENDROOT
BRANCH   1   2
ATOM      2  C   UNL     1      -4.082   9.892  -7.556  1.00  0.00     0.000 C 
BRANCH   2   3
ATOM      3  C   UNL     1      -2.820  10.396  -8.286  1.00  0.00     0.000 C 
BRANCH   3   4
ATOM      4  C   UNL     1      -3.043  11.599  -9.224  1.00  0.00    -0.000 C 
BRANCH   4   5
ATOM      5  C   UNL     1      -4.096  12.617  -8.739  1.00  0.00    -0.000 C 
BRANCH   5   6
ATOM      6  C   UNL     1      -5.436  12.574  -9.494  1.00  0.00    -0.000 C 
BRANCH   6   7
ATOM      7  C   UNL     1      -5.449  11.543 -10.631  1.00  0.00    -0.000 C 
BRANCH   7   8
ATOM      8  C   UNL     1      -6.691  10.643 -10.540  1.00  0.00    -0.000 C 
BRANCH   8   9
ATOM      9  C   UNL     1      -6.339   9.165 -10.305  1.00  0.00    -0.000 C 
BRANCH   9  10
ATOM     10  C   UNL     1      -5.002   8.768 -10.954  1.00  0.00    -0.000 C 
BRANCH  10  11
ATOM     11  C   UNL     1      -4.631   7.301 -10.687  1.00  0.00    -0.003 C 
ATOM     12  C   UNL     1      -5.314   6.331 -11.650  1.00  0.00     0.004 C 
ENDBRANCH  10  11
ENDBRANCH   9  10
ENDBRANCH   8   9
ENDBRANCH   7   8
ENDBRANCH   6   7
ENDBRANCH   5   6
ENDBRANCH   4   5
ENDBRANCH   3   4
ENDBRANCH   2   3
ENDBRANCH   1   2
BRANCH   1  13
ATOM     13  C   UNL     1      -2.603   9.876  -5.463  1.00  0.00     0.000 C 
BRANCH  13  14
ATOM     14  C   UNL     1      -2.315  10.893  -4.347  1.00  0.00     0.000 C 
BRANCH  14  15
ATOM     15  C   UNL     1      -2.776  12.315  -4.715  1.00  0.00     0.000 C 
BRANCH  15  16
ATOM     16  C   UNL     1      -1.612  13.317  -4.767  1.00  0.00     0.000 C 
BRANCH  16  17
ATOM     17  C   UNL     1      -1.165  13.630  -6.202  1.00  0.00     0.000 C 
BRANCH  17  18
ATOM     18  C   UNL     1       0.260  13.118  -6.455  1.00  0.00     0.000 C 
BRANCH  18  19
ATOM     19  C   UNL     1       0.299  11.647  -6.904  1.00  0.00     0.000 C 
BRANCH  19  20
ATOM     20  C   UNL     1       0.765  11.415  -8.355  1.00  0.00     0.006 C 
BRANCH  20  21
ATOM     21  C   UNL     1       1.242   9.979  -8.638  1.00  0.00     0.053 C 
BRANCH  21  22
ATOM     22  C   UNL     1       2.717   9.909  -8.903  1.00  0.00     0.041 C 
ATOM     23  O   UNL     1       3.156   9.236  -9.872  1.00  0.00    -0.550 OA
ATOM     24  O   UNL     1       3.604  10.619  -8.103  1.00  0.00    -0.550 OA
ENDBRANCH  21  22
ENDBRANCH  20  21
ENDBRANCH  19  20
ENDBRANCH  18  19
ENDBRANCH  17  18
ENDBRANCH  16  17
ENDBRANCH  15  16
ENDBRANCH  14  15
ENDBRANCH  13  14
ENDBRANCH   1  13
TORSDOF 20
ENDMDL
MODEL 2
REMARK VINA RESULT:    -4.880      2.916      6.926
REMARK INTER + INTRA:         -13.865
REMARK INTER:                 -10.849
REMARK INTRA:                  -3.016
REMARK UNBOUND:                -3.279
REMARK SMILES CCCCCCCCCCCCCCCCCCCCCC(=O)[O-]
REMARK SMILES IDX 12 1 11 2 10 3 9 4 8 5 7 6 6 7 5 8 4 9 3 10 2 11 1 12 13 13
REMARK SMILES IDX 14 14 15 15 16 16 17 17 18 18 19 19 20 20 21 21 22 22 23 23
REMARK SMILES IDX 24 24
REMARK H PARENT
REMARK Flexibility Score: inf
ROOT
ATOM      1  C   UNL     1      -2.421  10.264  -8.005  1.00  0.00     0.000 C 
ENDROOT
BRANCH   1   2
ATOM      2  C   UNL     1      -1.555  10.139  -6.739  1.00  0.00     0.000 C 
BRANCH   2   3
ATOM      3  C   UNL     1      -2.184  10.732  -5.463  1.00  0.00     0.000 C 
BRANCH   3   4
ATOM      4  C   UNL     1      -1.335  11.807  -4.755  1.00  0.00    -0.000 C 
BRANCH   4   5
ATOM      5  C   UNL     1      -1.202  13.141  -5.518  1.00  0.00    -0.000 C 
BRANCH   5   6
ATOM      6  C   UNL     1       0.117  13.318  -6.289  1.00  0.00    -0.000 C 
BRANCH   6   7
ATOM      7  C   UNL     1       1.329  12.746  -5.541  1.00  0.00    -0.000 C 
BRANCH   7   8
ATOM      8  C   UNL     1       1.940  11.563  -6.309  1.00  0.00    -0.000 C 
BRANCH   8   9
ATOM      9  C   UNL     1       1.530  11.541  -7.790  1.00  0.00    -0.000 C 
BRANCH   9  10
ATOM     10  C   UNL     1       1.892  10.215  -8.482  1.00  0.00    -0.000 C 
BRANCH  10  11
ATOM     11  C   UNL     1       3.356  10.173  -8.943  1.00  0.00    -0.003 C 
ATOM     12  C   UNL     1       3.566   9.288 -10.172  1.00  0.00     0.004 C 
ENDBRANCH  10  11
ENDBRANCH   9  10
ENDBRANCH   8   9
ENDBRANCH   7   8
ENDBRANCH   6   7
ENDBRANCH   5   6
ENDBRANCH   4   5
ENDBRANCH   3   4
ENDBRANCH   2   3
ENDBRANCH   1   2
BRANCH   1  13
ATOM     13  C   UNL     1      -1.970  11.410  -8.926  1.00  0.00     0.000 C 
BRANCH  13  14
ATOM     14  C   UNL     1      -3.058  12.479  -9.108  1.00  0.00     0.000 C 
BRANCH  14  15
ATOM     15  C   UNL     1      -3.904  12.680  -7.837  1.00  0.00     0.000 C 
BRANCH  15  16
ATOM     16  C   UNL     1      -5.369  13.020  -8.151  1.00  0.00     0.000 C 
BRANCH  16  17
ATOM     17  C   UNL     1      -5.736  12.752  -9.618  1.00  0.00     0.000 C 
BRANCH  17  18
ATOM     18  C   UNL     1      -6.549  11.456  -9.750  1.00  0.00     0.000 C 
BRANCH  18  19
ATOM     19  C   UNL     1      -6.162  10.628 -10.988  1.00  0.00     0.000 C 
BRANCH  19  20
ATOM     20  C   UNL     1      -4.719  10.085 -10.991  1.00  0.00     0.006 C 
BRANCH  20  21
ATOM     21  C   UNL     1      -4.628   8.548 -11.016  1.00  0.00     0.053 C 
BRANCH  21  22
ATOM     22  C   UNL     1      -5.577   7.904 -10.049  1.00  0.00     0.041 C 
ATOM     23  O   UNL     1      -5.477   8.134  -8.815  1.00  0.00    -0.550 OA
ATOM     24  O   UNL     1      -6.595   7.081 -10.513  1.00  0.00    -0.550 OA
ENDBRANCH  21  22
ENDBRANCH  20  21
ENDBRANCH  19  20
ENDBRANCH  18  19
ENDBRANCH  17  18
ENDBRANCH  16  17
ENDBRANCH  15  16
ENDBRANCH  14  15
ENDBRANCH  13  14
ENDBRANCH   1  13
TORSDOF 20
ENDMDL
MODEL 3
REMARK VINA RESULT:    -4.834      1.380      2.343
REMARK INTER + INTRA:         -13.764
REMARK INTER:                 -10.601
REMARK INTRA:                  -3.163
REMARK UNBOUND:                -3.279
REMARK SMILES CCCCCCCCCCCCCCCCCCCCCC(=O)[O-]
REMARK SMILES IDX 12 1 11 2 10 3 9 4 8 5 7 6 6 7 5 8 4 9 3 10 2 11 1 12 13 13
REMARK SMILES IDX 14 14 15 15 16 16 17 17 18 18 19 19 20 20 21 21 22 22 23 23
REMARK SMILES IDX 24 24
REMARK H PARENT
REMARK Flexibility Score: inf
ROOT
ATOM      1  C   UNL     1      -4.396   9.836  -7.228  1.00  0.00     0.000 C 
ENDROOT
BRANCH   1   2
ATOM      2  C   UNL     1      -5.179  10.875  -6.407  1.00  0.00     0.000 C 
BRANCH   2   3
ATOM      3  C   UNL     1      -6.303  11.597  -7.178  1.00  0.00     0.000 C 
BRANCH   3   4
ATOM      4  C   UNL     1      -5.870  12.879  -7.915  1.00  0.00    -0.000 C 
BRANCH   4   5
ATOM      5  C   UNL     1      -6.134  12.879  -9.435  1.00  0.00    -0.000 C 
BRANCH   5   6
ATOM      6  C   UNL     1      -5.689  11.603 -10.171  1.00  0.00    -0.000 C 
BRANCH   6   7
ATOM      7  C   UNL     1      -6.861  10.681 -10.534  1.00  0.00    -0.000 C 
BRANCH   7   8
ATOM      8  C   UNL     1      -6.439   9.205 -10.469  1.00  0.00    -0.000 C 
BRANCH   8   9
ATOM      9  C   UNL     1      -4.971   8.988 -10.872  1.00  0.00    -0.000 C 
BRANCH   9  10
ATOM     10  C   UNL     1      -4.595   7.498 -10.949  1.00  0.00    -0.000 C 
BRANCH  10  11
ATOM     11  C   UNL     1      -5.549   6.608 -10.138  1.00  0.00    -0.003 C 
ATOM     12  C   UNL     1      -6.380   5.674 -11.017  1.00  0.00     0.004 C 
ENDBRANCH  10  11
ENDBRANCH   9  10
ENDBRANCH   8   9
ENDBRANCH   7   8
ENDBRANCH   6   7
ENDBRANCH   5   6
ENDBRANCH   4   5
ENDBRANCH   3   4
ENDBRANCH   2   3
ENDBRANCH   1   2
BRANCH   1  13
ATOM     13  C   UNL     1      -2.893  10.150  -7.308  1.00  0.00     0.000 C 
BRANCH  13  14
ATOM     14  C   UNL     1      -2.352  10.065  -8.744  1.00  0.00     0.000 C 
BRANCH  14  15
ATOM     15  C   UNL     1      -2.427  11.413  -9.482  1.00  0.00     0.000 C 
BRANCH  15  16
ATOM     16  C   UNL     1      -2.320  12.614  -8.529  1.00  0.00     0.000 C 
BRANCH  16  17
ATOM     17  C   UNL     1      -0.869  13.067  -8.311  1.00  0.00     0.000 C 
BRANCH  17  18
ATOM     18  C   UNL     1      -0.366  12.645  -6.924  1.00  0.00     0.000 C 
BRANCH  18  19
ATOM     19  C   UNL     1       1.059  12.066  -6.952  1.00  0.00     0.000 C 
BRANCH  19  20
ATOM     20  C   UNL     1       1.144  10.539  -7.151  1.00  0.00     0.006 C 
BRANCH  20  21
ATOM     21  C   UNL     1       1.271  10.105  -8.624  1.00  0.00     0.053 C 
BRANCH  21  22
ATOM     22  C   UNL     1       2.698   9.902  -9.038  1.00  0.00     0.041 C 
ATOM     23  O   UNL     1       3.635  10.359  -8.331  1.00  0.00    -0.550 OA
ATOM     24  O   UNL     1       2.996   9.174 -10.183  1.00  0.00    -0.550 OA
ENDBRANCH  21  22
ENDBRANCH  20  21
ENDBRANCH  19  20
ENDBRANCH  18  19
ENDBRANCH  17  18
ENDBRANCH  16  17
ENDBRANCH  15  16
ENDBRANCH  14  15
ENDBRANCH  13  14
ENDBRANCH   1  13
TORSDOF 20
ENDMDL
MODEL 4
REMARK VINA RESULT:    -4.813      1.195      1.952
REMARK INTER + INTRA:         -13.719
REMARK INTER:                 -10.483
REMARK INTRA:                  -3.235
REMARK UNBOUND:                -3.279
REMARK SMILES CCCCCCCCCCCCCCCCCCCCCC(=O)[O-]
REMARK SMILES IDX 12 1 11 2 10 3 9 4 8 5 7 6 6 7 5 8 4 9 3 10 2 11 1 12 13 13
REMARK SMILES IDX 14 14 15 15 16 16 17 17 18 18 19 19 20 20 21 21 22 22 23 23
REMARK SMILES IDX 24 24
REMARK H PARENT
REMARK Flexibility Score: inf
ROOT
ATOM      1  C   UNL     1      -2.884  10.838  -4.461  1.00  0.00     0.000 C 
ENDROOT
BRANCH   1   2
ATOM      2  C   UNL     1      -3.213   9.795  -5.543  1.00  0.00     0.000 C 
BRANCH   2   3
ATOM      3  C   UNL     1      -4.275  10.239  -6.569  1.00  0.00     0.000 C 
BRANCH   3   4
ATOM      4  C   UNL     1      -4.629  11.739  -6.535  1.00  0.00    -0.000 C 
BRANCH   4   5
ATOM      5  C   UNL     1      -5.792  12.156  -7.459  1.00  0.00    -0.000 C 
BRANCH   5   6
ATOM      6  C   UNL     1      -5.997  11.256  -8.690  1.00  0.00    -0.000 C 
BRANCH   6   7
ATOM      7  C   UNL     1      -5.356  11.826  -9.962  1.00  0.00    -0.000 C 
BRANCH   7   8
ATOM      8  C   UNL     1      -5.198  10.736 -11.033  1.00  0.00    -0.000 C 
BRANCH   8   9
ATOM      9  C   UNL     1      -3.851  10.002 -10.940  1.00  0.00    -0.000 C 
BRANCH   9  10
ATOM     10  C   UNL     1      -4.018   8.480 -10.791  1.00  0.00    -0.000 C 
BRANCH  10  11
ATOM     11  C   UNL     1      -5.484   8.065 -10.597  1.00  0.00    -0.003 C 
ATOM     12  C   UNL     1      -5.762   6.634 -11.056  1.00  0.00     0.004 C 
ENDBRANCH  10  11
ENDBRANCH   9  10
ENDBRANCH   8   9
ENDBRANCH   7   8
ENDBRANCH   6   7
ENDBRANCH   5   6
ENDBRANCH   4   5
ENDBRANCH   3   4
ENDBRANCH   2   3
ENDBRANCH   1   2
BRANCH   1  13
ATOM     13  C   UNL     1      -1.504  11.487  -4.660  1.00  0.00     0.000 C 
BRANCH  13  14
ATOM     14  C   UNL     1      -1.576  13.022  -4.688  1.00  0.00     0.000 C 
BRANCH  14  15
ATOM     15  C   UNL     1      -0.789  13.626  -5.865  1.00  0.00     0.000 C 
BRANCH  15  16
ATOM     16  C   UNL     1      -1.574  13.580  -7.185  1.00  0.00     0.000 C 
BRANCH  16  17
ATOM     17  C   UNL     1      -0.821  12.831  -8.294  1.00  0.00     0.000 C 
BRANCH  17  18
ATOM     18  C   UNL     1      -1.594  11.577  -8.729  1.00  0.00     0.000 C 
BRANCH  18  19
ATOM     19  C   UNL     1      -0.940  10.271  -8.246  1.00  0.00     0.000 C 
BRANCH  19  20
ATOM     20  C   UNL     1       0.556  10.378  -7.888  1.00  0.00     0.006 C 
BRANCH  20  21
ATOM     21  C   UNL     1       1.484   9.593  -8.834  1.00  0.00     0.053 C 
BRANCH  21  22
ATOM     22  C   UNL     1       2.917  10.016  -8.708  1.00  0.00     0.041 C 
ATOM     23  O   UNL     1       3.739   9.754  -9.625  1.00  0.00    -0.550 OA
ATOM     24  O   UNL     1       3.338  10.735  -7.597  1.00  0.00    -0.550 OA
ENDBRANCH  21  22
ENDBRANCH  20  21
ENDBRANCH  19  20
ENDBRANCH  18  19
ENDBRANCH  17  18
ENDBRANCH  16  17
ENDBRANCH  15  16
ENDBRANCH  14  15
ENDBRANCH  13  14
ENDBRANCH   1  13
TORSDOF 20
ENDMDL
MODEL 5
REMARK VINA RESULT:    -4.769      2.529      4.536
REMARK INTER + INTRA:         -13.624
REMARK INTER:                 -10.207
REMARK INTRA:                  -3.418
REMARK UNBOUND:                -3.279
REMARK SMILES CCCCCCCCCCCCCCCCCCCCCC(=O)[O-]
REMARK SMILES IDX 12 1 11 2 10 3 9 4 8 5 7 6 6 7 5 8 4 9 3 10 2 11 1 12 13 13
REMARK SMILES IDX 14 14 15 15 16 16 17 17 18 18 19 19 20 20 21 21 22 22 23 23
REMARK SMILES IDX 24 24
REMARK H PARENT
REMARK Flexibility Score: inf
ROOT
ATOM      1  C   UNL     1      -3.241   9.720  -9.823  1.00  0.00     0.000 C 
ENDROOT
BRANCH   1   2
ATOM      2  C   UNL     1      -4.337   9.524 -10.884  1.00  0.00     0.000 C 
BRANCH   2   3
ATOM      3  C   UNL     1      -5.194  10.774 -11.169  1.00  0.00     0.000 C 
BRANCH   3   4
ATOM      4  C   UNL     1      -6.633  10.720 -10.619  1.00  0.00    -0.000 C 
BRANCH   4   5
ATOM      5  C   UNL     1      -6.895  11.613  -9.389  1.00  0.00    -0.000 C 
BRANCH   5   6
ATOM      6  C   UNL     1      -6.038  12.889  -9.319  1.00  0.00    -0.000 C 
BRANCH   6   7
ATOM      7  C   UNL     1      -5.199  12.977  -8.037  1.00  0.00    -0.000 C 
BRANCH   7   8
ATOM      8  C   UNL     1      -5.776  12.069  -6.940  1.00  0.00    -0.000 C 
BRANCH   8   9
ATOM      9  C   UNL     1      -4.686  11.379  -6.105  1.00  0.00    -0.000 C 
BRANCH   9  10
ATOM     10  C   UNL     1      -4.567   9.877  -6.418  1.00  0.00    -0.000 C 
BRANCH  10  11
ATOM     11  C   UNL     1      -5.931   9.217  -6.667  1.00  0.00    -0.003 C 
ATOM     12  C   UNL     1      -5.919   8.261  -7.860  1.00  0.00     0.004 C 
ENDBRANCH  10  11
ENDBRANCH   9  10
ENDBRANCH   8   9
ENDBRANCH   7   8
ENDBRANCH   6   7
ENDBRANCH   5   6
ENDBRANCH   4   5
ENDBRANCH   3   4
ENDBRANCH   2   3
ENDBRANCH   1   2
BRANCH   1  13
ATOM     13  C   UNL     1      -2.598  11.116  -9.880  1.00  0.00     0.000 C 
BRANCH  13  14
ATOM     14  C   UNL     1      -1.930  11.509  -8.553  1.00  0.00     0.000 C 
BRANCH  14  15
ATOM     15  C   UNL     1      -1.189  10.331  -7.896  1.00  0.00     0.000 C 
BRANCH  15  16
ATOM     16  C   UNL     1       0.102   9.957  -8.641  1.00  0.00     0.000 C 
BRANCH  16  17
ATOM     17  C   UNL     1       1.359  10.163  -7.782  1.00  0.00     0.000 C 
BRANCH  17  18
ATOM     18  C   UNL     1       1.540  11.645  -7.424  1.00  0.00     0.000 C 
BRANCH  18  19
ATOM     19  C   UNL     1       2.132  11.855  -6.020  1.00  0.00     0.000 C 
BRANCH  19  20
ATOM     20  C   UNL     1       1.165  12.456  -4.981  1.00  0.00     0.006 C 
BRANCH  20  21
ATOM     21  C   UNL     1       0.982  13.981  -5.103  1.00  0.00     0.053 C 
BRANCH  21  22
ATOM     22  C   UNL     1      -0.451  14.370  -5.314  1.00  0.00     0.041 C 
ATOM     23  O   UNL     1      -1.098  14.931  -4.392  1.00  0.00    -0.550 OA
ATOM     24  O   UNL     1      -1.060  14.148  -6.543  1.00  0.00    -0.550 OA
ENDBRANCH  21  22
ENDBRANCH  20  21
ENDBRANCH  19  20
ENDBRANCH  18  19
ENDBRANCH  17  18
ENDBRANCH  16  17
ENDBRANCH  15  16
ENDBRANCH  14  15
ENDBRANCH  13  14
ENDBRANCH   1  13
TORSDOF 20
ENDMDL
MODEL 6
REMARK VINA RESULT:    -4.752      2.936      7.054
REMARK INTER + INTRA:         -13.588
REMARK INTER:                 -10.097
REMARK INTRA:                  -3.491
REMARK UNBOUND:                -3.279
REMARK SMILES CCCCCCCCCCCCCCCCCCCCCC(=O)[O-]
REMARK SMILES IDX 12 1 11 2 10 3 9 4 8 5 7 6 6 7 5 8 4 9 3 10 2 11 1 12 13 13
REMARK SMILES IDX 14 14 15 15 16 16 17 17 18 18 19 19 20 20 21 21 22 22 23 23
REMARK SMILES IDX 24 24
REMARK H PARENT
REMARK Flexibility Score: inf
ROOT
ATOM      1  C   UNL     1      -3.021  10.026  -9.514  1.00  0.00     0.000 C 
ENDROOT
BRANCH   1   2
ATOM      2  C   UNL     1      -2.060  10.589  -8.452  1.00  0.00     0.000 C 
BRANCH   2   3
ATOM      3  C   UNL     1      -1.414  11.941  -8.816  1.00  0.00     0.000 C 
BRANCH   3   4
ATOM      4  C   UNL     1      -1.649  13.073  -7.796  1.00  0.00    -0.000 C 
BRANCH   4   5
ATOM      5  C   UNL     1      -2.078  12.605  -6.390  1.00  0.00    -0.000 C 
BRANCH   5   6
ATOM      6  C   UNL     1      -1.131  13.021  -5.251  1.00  0.00    -0.000 C 
BRANCH   6   7
ATOM      7  C   UNL     1       0.162  13.675  -5.756  1.00  0.00    -0.000 C 
BRANCH   7   8
ATOM      8  C   UNL     1       1.381  13.152  -4.981  1.00  0.00    -0.000 C 
BRANCH   8   9
ATOM      9  C   UNL     1       2.268  12.223  -5.825  1.00  0.00    -0.000 C 
BRANCH   9  10
ATOM     10  C   UNL     1       1.448  11.297  -6.741  1.00  0.00    -0.000 C 
BRANCH  10  11
ATOM     11  C   UNL     1       2.067  11.155  -8.140  1.00  0.00    -0.003 C 
ATOM     12  C   UNL     1       1.785   9.796  -8.779  1.00  0.00     0.004 C 
ENDBRANCH  10  11
ENDBRANCH   9  10
ENDBRANCH   8   9
ENDBRANCH   7   8
ENDBRANCH   6   7
ENDBRANCH   5   6
ENDBRANCH   4   5
ENDBRANCH   3   4
ENDBRANCH   2   3
ENDBRANCH   1   2
BRANCH   1  13
ATOM     13  C   UNL     1      -3.498  11.094 -10.513  1.00  0.00     0.000 C 
BRANCH  13  14
ATOM     14  C   UNL     1      -4.950  11.530 -10.257  1.00  0.00     0.000 C 
BRANCH  14  15
ATOM     15  C   UNL     1      -5.050  12.660  -9.217  1.00  0.00     0.000 C 
BRANCH  15  16
ATOM     16  C   UNL     1      -5.502  12.155  -7.838  1.00  0.00     0.000 C 
BRANCH  16  17
ATOM     17  C   UNL     1      -6.444  10.946  -7.932  1.00  0.00     0.000 C 
BRANCH  17  18
ATOM     18  C   UNL     1      -5.855   9.734  -7.197  1.00  0.00     0.000 C 
BRANCH  18  19
ATOM     19  C   UNL     1      -5.881   8.448  -8.041  1.00  0.00     0.000 C 
BRANCH  19  20
ATOM     20  C   UNL     1      -6.839   8.474  -9.249  1.00  0.00     0.006 C 
BRANCH  20  21
ATOM     21  C   UNL     1      -6.140   8.277 -10.608  1.00  0.00     0.053 C 
BRANCH  21  22
ATOM     22  C   UNL     1      -5.425   6.962 -10.696  1.00  0.00     0.041 C 
ATOM     23  O   UNL     1      -4.168   6.926 -10.752  1.00  0.00    -0.550 OA
ATOM     24  O   UNL     1      -6.144   5.774 -10.678  1.00  0.00    -0.550 OA
ENDBRANCH  21  22
ENDBRANCH  20  21
ENDBRANCH  19  20
ENDBRANCH  18  19
ENDBRANCH  17  18
ENDBRANCH  16  17
ENDBRANCH  15  16
ENDBRANCH  14  15
ENDBRANCH  13  14
ENDBRANCH   1  13
TORSDOF 20
ENDMDL
MODEL 7
REMARK VINA RESULT:    -4.748      1.371      2.513
REMARK INTER + INTRA:         -13.579
REMARK INTER:                  -9.993
REMARK INTRA:                  -3.587
REMARK UNBOUND:                -3.279
REMARK SMILES CCCCCCCCCCCCCCCCCCCCCC(=O)[O-]
REMARK SMILES IDX 12 1 11 2 10 3 9 4 8 5 7 6 6 7 5 8 4 9 3 10 2 11 1 12 13 13
REMARK SMILES IDX 14 14 15 15 16 16 17 17 18 18 19 19 20 20 21 21 22 22 23 23
REMARK SMILES IDX 24 24
REMARK H PARENT
REMARK Flexibility Score: inf
ROOT
ATOM      1  C   UNL     1      -2.474  10.003  -7.978  1.00  0.00     0.000 C 
ENDROOT
BRANCH   1   2
ATOM      2  C   UNL     1      -2.466  10.296  -6.468  1.00  0.00     0.000 C 
BRANCH   2   3
ATOM      3  C   UNL     1      -3.813  10.779  -5.895  1.00  0.00     0.000 C 
BRANCH   3   4
ATOM      4  C   UNL     1      -5.061  10.279  -6.649  1.00  0.00    -0.000 C 
BRANCH   4   5
ATOM      5  C   UNL     1      -5.971  11.391  -7.212  1.00  0.00    -0.000 C 
BRANCH   5   6
ATOM      6  C   UNL     1      -5.230  12.631  -7.740  1.00  0.00    -0.000 C 
BRANCH   6   7
ATOM      7  C   UNL     1      -5.438  12.857  -9.244  1.00  0.00    -0.000 C 
BRANCH   7   8
ATOM      8  C   UNL     1      -6.446  11.848  -9.816  1.00  0.00    -0.000 C 
BRANCH   8   9
ATOM      9  C   UNL     1      -5.933  11.149 -11.085  1.00  0.00    -0.000 C 
BRANCH   9  10
ATOM     10  C   UNL     1      -4.481  10.659 -10.942  1.00  0.00    -0.000 C 
BRANCH  10  11
ATOM     11  C   UNL     1      -4.359   9.134 -11.086  1.00  0.00    -0.003 C 
ATOM     12  C   UNL     1      -5.050   8.374  -9.955  1.00  0.00     0.004 C 
ENDBRANCH  10  11
ENDBRANCH   9  10
ENDBRANCH   8   9
ENDBRANCH   7   8
ENDBRANCH   6   7
ENDBRANCH   5   6
ENDBRANCH   4   5
ENDBRANCH   3   4
ENDBRANCH   2   3
ENDBRANCH   1   2
BRANCH   1  13
ATOM     13  C   UNL     1      -1.455  10.851  -8.757  1.00  0.00     0.000 C 
BRANCH  13  14
ATOM     14  C   UNL     1      -1.890  12.320  -8.885  1.00  0.00     0.000 C 
BRANCH  14  15
ATOM     15  C   UNL     1      -1.024  13.266  -8.035  1.00  0.00     0.000 C 
BRANCH  15  16
ATOM     16  C   UNL     1      -1.756  13.767  -6.780  1.00  0.00     0.000 C 
BRANCH  16  17
ATOM     17  C   UNL     1      -0.792  14.153  -5.649  1.00  0.00     0.000 C 
BRANCH  17  18
ATOM     18  C   UNL     1       0.031  12.940  -5.194  1.00  0.00     0.000 C 
BRANCH  18  19
ATOM     19  C   UNL     1       1.541  13.114  -5.434  1.00  0.00     0.000 C 
BRANCH  19  20
ATOM     20  C   UNL     1       2.260  11.881  -6.016  1.00  0.00     0.006 C 
BRANCH  20  21
ATOM     21  C   UNL     1       1.495  11.193  -7.163  1.00  0.00     0.053 C 
BRANCH  21  22
ATOM     22  C   UNL     1       2.409  10.463  -8.102  1.00  0.00     0.041 C 
ATOM     23  O   UNL     1       3.658  10.562  -7.976  1.00  0.00    -0.550 OA
ATOM     24  O   UNL     1       1.883   9.643  -9.091  1.00  0.00    -0.550 OA
ENDBRANCH  21  22
ENDBRANCH  20  21
ENDBRANCH  19  20
ENDBRANCH  18  19
ENDBRANCH  17  18
ENDBRANCH  16  17
ENDBRANCH  15  16
ENDBRANCH  14  15
ENDBRANCH  13  14
ENDBRANCH   1  13
TORSDOF 20
ENDMDL
MODEL 8
REMARK VINA RESULT:    -4.744      2.632      6.728
REMARK INTER + INTRA:         -13.569
REMARK INTER:                 -10.675
REMARK INTRA:                  -2.894
REMARK UNBOUND:                -3.279
REMARK SMILES CCCCCCCCCCCCCCCCCCCCCC(=O)[O-]
REMARK SMILES IDX 12 1 11 2 10 3 9 4 8 5 7 6 6 7 5 8 4 9 3 10 2 11 1 12 13 13
REMARK SMILES IDX 14 14 15 15 16 16 17 17 18 18 19 19 20 20 21 21 22 22 23 23
REMARK SMILES IDX 24 24
REMARK H PARENT
REMARK Flexibility Score: inf
ROOT
ATOM      1  C   UNL     1      -2.951  10.281  -6.951  1.00  0.00     0.000 C 
ENDROOT
BRANCH   1   2
ATOM      2  C   UNL     1      -2.689  10.022  -5.457  1.00  0.00     0.000 C 
BRANCH   2   3
ATOM      3  C   UNL     1      -2.610  11.290  -4.584  1.00  0.00     0.000 C 
BRANCH   3   4
ATOM      4  C   UNL     1      -1.187  11.703  -4.159  1.00  0.00    -0.000 C 
BRANCH   4   5
ATOM      5  C   UNL     1      -0.801  13.157  -4.498  1.00  0.00    -0.000 C 
BRANCH   5   6
ATOM      6  C   UNL     1       0.010  13.328  -5.794  1.00  0.00    -0.000 C 
BRANCH   6   7
ATOM      7  C   UNL     1      -0.877  13.482  -7.038  1.00  0.00    -0.000 C 
BRANCH   7   8
ATOM      8  C   UNL     1      -0.468  12.482  -8.130  1.00  0.00    -0.000 C 
BRANCH   8   9
ATOM      9  C   UNL     1       0.726  11.606  -7.718  1.00  0.00    -0.000 C 
BRANCH   9  10
ATOM     10  C   UNL     1       0.573  10.146  -8.179  1.00  0.00    -0.000 C 
BRANCH  10  11
ATOM     11  C   UNL     1       1.862   9.586  -8.799  1.00  0.00    -0.003 C 
ATOM     12  C   UNL     1       3.105  10.384  -8.404  1.00  0.00     0.004 C 
ENDBRANCH  10  11
ENDBRANCH   9  10
ENDBRANCH   8   9
ENDBRANCH   7   8
ENDBRANCH   6   7
ENDBRANCH   5   6
ENDBRANCH   4   5
ENDBRANCH   3   4
ENDBRANCH   2   3
ENDBRANCH   1   2
BRANCH   1  13
ATOM     13  C   UNL     1      -4.325  10.920  -7.214  1.00  0.00     0.000 C 
BRANCH  13  14
ATOM     14  C   UNL     1      -4.212  12.370  -7.711  1.00  0.00     0.000 C 
BRANCH  14  15
ATOM     15  C   UNL     1      -4.389  12.484  -9.235  1.00  0.00     0.000 C 
BRANCH  15  16
ATOM     16  C   UNL     1      -3.648  11.376 -10.000  1.00  0.00     0.000 C 
BRANCH  16  17
ATOM     17  C   UNL     1      -4.539  10.678 -11.037  1.00  0.00     0.000 C 
BRANCH  17  18
ATOM     18  C   UNL     1      -6.007  11.093 -10.866  1.00  0.00     0.000 C 
BRANCH  18  19
ATOM     19  C   UNL     1      -6.899   9.950 -10.353  1.00  0.00     0.000 C 
BRANCH  19  20
ATOM     20  C   UNL     1      -6.146   8.755  -9.736  1.00  0.00     0.006 C 
BRANCH  20  21
ATOM     21  C   UNL     1      -6.452   7.405 -10.411  1.00  0.00     0.053 C 
BRANCH  21  22
ATOM     22  C   UNL     1      -5.259   6.838 -11.122  1.00  0.00     0.041 C 
ATOM     23  O   UNL     1      -5.413   5.998 -12.048  1.00  0.00    -0.550 OA
ATOM     24  O   UNL     1      -3.981   7.266 -10.790  1.00  0.00    -0.550 OA
ENDBRANCH  21  22
ENDBRANCH  20  21
ENDBRANCH  19  20
ENDBRANCH  18  19
ENDBRANCH  17  18
ENDBRANCH  16  17
ENDBRANCH  15  16
ENDBRANCH  14  15
ENDBRANCH  13  14
ENDBRANCH   1  13
TORSDOF 20
ENDMDL
MODEL 9
REMARK VINA RESULT:    -4.706      2.497      5.046
REMARK INTER + INTRA:         -13.486
REMARK INTER:                 -11.607
REMARK INTRA:                  -1.879
REMARK UNBOUND:                -3.279
REMARK SMILES CCCCCCCCCCCCCCCCCCCCCC(=O)[O-]
REMARK SMILES IDX 12 1 11 2 10 3 9 4 8 5 7 6 6 7 5 8 4 9 3 10 2 11 1 12 13 13
REMARK SMILES IDX 14 14 15 15 16 16 17 17 18 18 19 19 20 20 21 21 22 22 23 23
REMARK SMILES IDX 24 24
REMARK H PARENT
REMARK Flexibility Score: inf
ROOT
ATOM      1  C   UNL     1      -4.691  10.747 -11.072  1.00  0.00     0.000 C 
ENDROOT
BRANCH   1   2
ATOM      2  C   UNL     1      -4.388   9.278 -10.728  1.00  0.00     0.000 C 
BRANCH   2   3
ATOM      3  C   UNL     1      -4.896   8.819  -9.347  1.00  0.00     0.000 C 
BRANCH   3   4
ATOM      4  C   UNL     1      -5.700   7.504  -9.350  1.00  0.00    -0.000 C 
BRANCH   4   5
ATOM      5  C   UNL     1      -6.485   7.223 -10.648  1.00  0.00    -0.000 C 
BRANCH   5   6
ATOM      6  C   UNL     1      -6.658   5.733 -10.991  1.00  0.00    -0.000 C 
BRANCH   6   7
ATOM      7  C   UNL     1      -5.821   5.296 -12.202  1.00  0.00    -0.000 C 
BRANCH   7   8
ATOM      8  C   UNL     1      -6.648   4.417 -13.152  1.00  0.00    -0.000 C 
BRANCH   8   9
ATOM      9  C   UNL     1      -5.832   3.905 -14.349  1.00  0.00    -0.000 C 
BRANCH   9  10
ATOM     10  C   UNL     1      -6.705   3.192 -15.397  1.00  0.00    -0.000 C 
BRANCH  10  11
ATOM     11  C   UNL     1      -6.296   1.726 -15.604  1.00  0.00    -0.003 C 
ATOM     12  C   UNL     1      -4.891   1.422 -15.085  1.00  0.00     0.004 C 
ENDBRANCH  10  11
ENDBRANCH   9  10
ENDBRANCH   8   9
ENDBRANCH   7   8
ENDBRANCH   6   7
ENDBRANCH   5   6
ENDBRANCH   4   5
ENDBRANCH   3   4
ENDBRANCH   2   3
ENDBRANCH   1   2
BRANCH   1  13
ATOM     13  C   UNL     1      -6.163  11.124 -10.834  1.00  0.00     0.000 C 
BRANCH  13  14
ATOM     14  C   UNL     1      -6.348  12.013  -9.594  1.00  0.00     0.000 C 
BRANCH  14  15
ATOM     15  C   UNL     1      -5.021  12.617  -9.101  1.00  0.00     0.000 C 
BRANCH  15  16
ATOM     16  C   UNL     1      -4.719  12.263  -7.637  1.00  0.00     0.000 C 
BRANCH  16  17
ATOM     17  C   UNL     1      -3.221  12.341  -7.307  1.00  0.00     0.000 C 
BRANCH  17  18
ATOM     18  C   UNL     1      -2.524  11.007  -7.610  1.00  0.00     0.000 C 
BRANCH  18  19
ATOM     19  C   UNL     1      -1.642  11.062  -8.868  1.00  0.00     0.000 C 
BRANCH  19  20
ATOM     20  C   UNL     1      -0.137  11.273  -8.607  1.00  0.00     0.006 C 
BRANCH  20  21
ATOM     21  C   UNL     1       0.660   9.965  -8.443  1.00  0.00     0.053 C 
BRANCH  21  22
ATOM     22  C   UNL     1       2.139  10.203  -8.370  1.00  0.00     0.041 C 
ATOM     23  O   UNL     1       2.621  10.925  -7.458  1.00  0.00    -0.550 OA
ATOM     24  O   UNL     1       2.989   9.595  -9.285  1.00  0.00    -0.550 OA
ENDBRANCH  21  22
ENDBRANCH  20  21
ENDBRANCH  19  20
ENDBRANCH  18  19
ENDBRANCH  17  18
ENDBRANCH  16  17
ENDBRANCH  15  16
ENDBRANCH  14  15
ENDBRANCH  13  14
ENDBRANCH   1  13
TORSDOF 20
ENDMDL
