MODEL 1
REMARK VINA RESULT:    -8.853      0.000      0.000
REMARK INTER + INTRA:         -10.977
REMARK INTER:                 -10.664
REMARK INTRA:                  -0.313
REMARK UNBOUND:                -0.313
REMARK SMILES O=c1c(O)c(-c2ccc(O)cc2O)oc2cc(O)cc(O)c12
REMARK SMILES IDX 5 1 3 2 2 3 1 4 22 5 20 6 19 7 17 8 16 9 15 10 14 11 6 12
REMARK SMILES IDX 8 13 7 14 9 15 11 16 12 17 10 18 13 20 4 22 21 24 18 26
REMARK H PARENT 10 19 13 21 4 23 21 25 18 27
REMARK Flexibility Score: inf
ROOT
ATOM      1  C   UNL     1     137.261 -18.084  79.572  1.00  0.00     0.184 A 
ATOM      2  C   UNL     1     138.378 -18.518  78.843  1.00  0.00     0.208 A 
ATOM      3  C   UNL     1     139.567 -17.778  78.917  1.00  0.00     0.238 A 
ATOM      4  O   UNL     1     140.542 -18.131  78.203  1.00  0.00    -0.285 OA
ATOM      5  C   UNL     1     139.642 -16.645  79.762  1.00  0.00     0.111 A 
ATOM      6  C   UNL     1     140.809 -15.845  79.950  1.00  0.00     0.134 A 
ATOM      7  C   UNL     1     140.735 -14.685  80.731  1.00  0.00     0.093 A 
ATOM      8  C   UNL     1     139.555 -14.329  81.381  1.00  0.00     0.123 A 
ATOM      9  C   UNL     1     138.421 -15.133  81.250  1.00  0.00     0.094 A 
ATOM     10  C   UNL     1     138.453 -16.276  80.447  1.00  0.00     0.146 A 
ATOM     11  O   UNL     1     137.347 -17.001  80.334  1.00  0.00    -0.451 OA
ENDROOT
BRANCH   1  12
ATOM     12  C   UNL     1     135.975 -18.812  79.533  1.00  0.00     0.063 A 
ATOM     13  C   UNL     1     134.321 -20.170  80.687  1.00  0.00     0.047 A 
ATOM     14  C   UNL     1     135.534 -19.476  80.688  1.00  0.00     0.020 A 
ATOM     15  C   UNL     1     133.527 -20.196  79.537  1.00  0.00     0.119 A 
ATOM     16  C   UNL     1     133.947 -19.518  78.386  1.00  0.00     0.093 A 
ATOM     17  C   UNL     1     135.162 -18.815  78.380  1.00  0.00     0.130 A 
BRANCH  15  18
ATOM     18  O   UNL     1     132.322 -20.896  79.550  1.00  0.00    -0.508 OA
ATOM     19  H   UNL     1     132.221 -21.783  79.069  1.00  0.00     0.293 HD
ENDBRANCH  15  18
BRANCH  17  20
ATOM     20  O   UNL     1     135.546 -18.102  77.244  1.00  0.00    -0.507 OA
ATOM     21  H   UNL     1     135.795 -18.572  76.381  1.00  0.00     0.293 HD
ENDBRANCH  17  20
ENDBRANCH   1  12
BRANCH   2  22
ATOM     22  O   UNL     1     138.300 -19.681  78.072  1.00  0.00    -0.502 OA
ATOM     23  H   UNL     1     139.074 -20.011  77.507  1.00  0.00     0.293 HD
ENDBRANCH   2  22
BRANCH   6  24
ATOM     24  O   UNL     1     142.065 -16.156  79.418  1.00  0.00    -0.507 OA
ATOM     25  H   UNL     1     142.252 -16.916  78.782  1.00  0.00     0.293 HD
ENDBRANCH   6  24
BRANCH   8  26
ATOM     26  O   UNL     1     139.521 -13.177  82.164  1.00  0.00    -0.508 OA
ATOM     27  H   UNL     1     138.710 -12.571  82.181  1.00  0.00     0.293 HD
ENDBRANCH   8  26
TORSDOF 6
ENDMDL
MODEL 2
REMARK VINA RESULT:    -7.334      2.839      5.763
REMARK INTER + INTRA:          -9.148
REMARK INTER:                  -8.753
REMARK INTRA:                  -0.395
REMARK UNBOUND:                -0.313
REMARK SMILES O=c1c(O)c(-c2ccc(O)cc2O)oc2cc(O)cc(O)c12
REMARK SMILES IDX 5 1 3 2 2 3 1 4 22 5 20 6 19 7 17 8 16 9 15 10 14 11 6 12
REMARK SMILES IDX 8 13 7 14 9 15 11 16 12 17 10 18 13 20 4 22 21 24 18 26
REMARK H PARENT 10 19 13 21 4 23 21 25 18 27
REMARK Flexibility Score: inf
ROOT
ATOM      1  C   UNL     1     139.046 -19.652  78.792  1.00  0.00     0.184 A 
ATOM      2  C   UNL     1     137.795 -20.077  78.319  1.00  0.00     0.208 A 
ATOM      3  C   UNL     1     136.634 -19.597  78.942  1.00  0.00     0.238 A 
ATOM      4  O   UNL     1     135.518 -20.040  78.561  1.00  0.00    -0.285 OA
ATOM      5  C   UNL     1     136.736 -18.655  79.994  1.00  0.00     0.111 A 
ATOM      6  C   UNL     1     135.624 -18.067  80.670  1.00  0.00     0.134 A 
ATOM      7  C   UNL     1     135.847 -17.225  81.766  1.00  0.00     0.093 A 
ATOM      8  C   UNL     1     137.140 -16.900  82.174  1.00  0.00     0.123 A 
ATOM      9  C   UNL     1     138.236 -17.426  81.487  1.00  0.00     0.094 A 
ATOM     10  C   UNL     1     138.045 -18.299  80.413  1.00  0.00     0.146 A 
ATOM     11  O   UNL     1     139.115 -18.792  79.801  1.00  0.00    -0.451 OA
ENDROOT
BRANCH   1  12
ATOM     12  C   UNL     1     140.308 -20.125  78.187  1.00  0.00     0.063 A 
ATOM     13  C   UNL     1     142.008 -21.855  78.013  1.00  0.00     0.047 A 
ATOM     14  C   UNL     1     140.819 -21.375  78.569  1.00  0.00     0.020 A 
ATOM     15  C   UNL     1     142.693 -21.099  77.058  1.00  0.00     0.119 A 
ATOM     16  C   UNL     1     142.180 -19.860  76.653  1.00  0.00     0.093 A 
ATOM     17  C   UNL     1     140.984 -19.373  77.203  1.00  0.00     0.130 A 
BRANCH  15  18
ATOM     18  O   UNL     1     143.879 -21.588  76.516  1.00  0.00    -0.508 OA
ATOM     19  H   UNL     1     144.780 -21.356  76.918  1.00  0.00     0.293 HD
ENDBRANCH  15  18
BRANCH  17  20
ATOM     20  O   UNL     1     140.457 -18.162  76.756  1.00  0.00    -0.507 OA
ATOM     21  H   UNL     1     140.979 -17.550  76.140  1.00  0.00     0.293 HD
ENDBRANCH  17  20
ENDBRANCH   1  12
BRANCH   2  22
ATOM     22  O   UNL     1     137.720 -20.953  77.232  1.00  0.00    -0.502 OA
ATOM     23  H   UNL     1     138.487 -21.561  76.971  1.00  0.00     0.293 HD
ENDBRANCH   2  22
BRANCH   6  24
ATOM     24  O   UNL     1     134.290 -18.252  80.291  1.00  0.00    -0.507 OA
ATOM     25  H   UNL     1     133.509 -18.294  80.928  1.00  0.00     0.293 HD
ENDBRANCH   6  24
BRANCH   8  26
ATOM     26  O   UNL     1     137.326 -16.047  83.259  1.00  0.00    -0.508 OA
ATOM     27  H   UNL     1     136.850 -16.197  84.140  1.00  0.00     0.293 HD
ENDBRANCH   8  26
TORSDOF 6
ENDMDL
MODEL 3
REMARK VINA RESULT:    -7.162      1.543      6.822
REMARK INTER + INTRA:          -8.940
REMARK INTER:                  -8.783
REMARK INTRA:                  -0.157
REMARK UNBOUND:                -0.313
REMARK SMILES O=c1c(O)c(-c2ccc(O)cc2O)oc2cc(O)cc(O)c12
REMARK SMILES IDX 5 1 3 2 2 3 1 4 22 5 20 6 19 7 17 8 16 9 15 10 14 11 6 12
REMARK SMILES IDX 8 13 7 14 9 15 11 16 12 17 10 18 13 20 4 22 21 24 18 26
REMARK H PARENT 10 19 13 21 4 23 21 25 18 27
REMARK Flexibility Score: inf
ROOT
ATOM      1  C   UNL     1     137.792 -17.655  79.670  1.00  0.00     0.184 A 
ATOM      2  C   UNL     1     137.179 -18.192  80.812  1.00  0.00     0.208 A 
ATOM      3  C   UNL     1     135.921 -18.800  80.685  1.00  0.00     0.238 A 
ATOM      4  O   UNL     1     135.343 -19.213  81.724  1.00  0.00    -0.285 OA
ATOM      5  C   UNL     1     135.319 -18.914  79.409  1.00  0.00     0.111 A 
ATOM      6  C   UNL     1     134.066 -19.551  79.154  1.00  0.00     0.134 A 
ATOM      7  C   UNL     1     133.519 -19.510  77.866  1.00  0.00     0.093 A 
ATOM      8  C   UNL     1     134.204 -18.912  76.810  1.00  0.00     0.123 A 
ATOM      9  C   UNL     1     135.455 -18.334  77.034  1.00  0.00     0.094 A 
ATOM     10  C   UNL     1     136.011 -18.325  78.316  1.00  0.00     0.146 A 
ATOM     11  O   UNL     1     137.193 -17.747  78.490  1.00  0.00    -0.451 OA
ENDROOT
BRANCH   1  12
ATOM     12  C   UNL     1     139.113 -16.993  79.735  1.00  0.00     0.063 A 
ATOM     13  C   UNL     1     140.585 -15.398  80.830  1.00  0.00     0.047 A 
ATOM     14  C   UNL     1     139.346 -16.039  80.737  1.00  0.00     0.020 A 
ATOM     15  C   UNL     1     141.609 -15.713  79.934  1.00  0.00     0.119 A 
ATOM     16  C   UNL     1     141.394 -16.681  78.944  1.00  0.00     0.093 A 
ATOM     17  C   UNL     1     140.154 -17.333  78.847  1.00  0.00     0.130 A 
BRANCH  15  18
ATOM     18  O   UNL     1     142.837 -15.062  80.036  1.00  0.00    -0.508 OA
ATOM     19  H   UNL     1     143.711 -15.570  79.971  1.00  0.00     0.293 HD
ENDBRANCH  15  18
BRANCH  17  20
ATOM     20  O   UNL     1     139.968 -18.329  77.889  1.00  0.00    -0.507 OA
ATOM     21  H   UNL     1     140.746 -18.726  77.376  1.00  0.00     0.293 HD
ENDBRANCH  17  20
ENDBRANCH   1  12
BRANCH   2  22
ATOM     22  O   UNL     1     137.827 -18.130  82.048  1.00  0.00    -0.502 OA
ATOM     23  H   UNL     1     137.329 -18.209  82.927  1.00  0.00     0.293 HD
ENDBRANCH   2  22
BRANCH   6  24
ATOM     24  O   UNL     1     133.335 -20.254  80.117  1.00  0.00    -0.507 OA
ATOM     25  H   UNL     1     132.340 -20.178  80.257  1.00  0.00     0.293 HD
ENDBRANCH   6  24
BRANCH   8  26
ATOM     26  O   UNL     1     133.638 -18.905  75.537  1.00  0.00    -0.508 OA
ATOM     27  H   UNL     1     134.185 -18.681  74.714  1.00  0.00     0.293 HD
ENDBRANCH   8  26
TORSDOF 6
ENDMDL
MODEL 4
REMARK VINA RESULT:    -7.064      1.530      6.904
REMARK INTER + INTRA:          -8.822
REMARK INTER:                  -8.753
REMARK INTRA:                  -0.069
REMARK UNBOUND:                -0.313
REMARK SMILES O=c1c(O)c(-c2ccc(O)cc2O)oc2cc(O)cc(O)c12
REMARK SMILES IDX 5 1 3 2 2 3 1 4 22 5 20 6 19 7 17 8 16 9 15 10 14 11 6 12
REMARK SMILES IDX 8 13 7 14 9 15 11 16 12 17 10 18 13 20 4 22 21 24 18 26
REMARK H PARENT 10 19 13 21 4 23 21 25 18 27
REMARK Flexibility Score: inf
ROOT
ATOM      1  C   UNL     1     137.796 -17.500  79.887  1.00  0.00     0.184 A 
ATOM      2  C   UNL     1     137.167 -18.044  81.017  1.00  0.00     0.208 A 
ATOM      3  C   UNL     1     135.934 -18.695  80.861  1.00  0.00     0.238 A 
ATOM      4  O   UNL     1     135.340 -19.115  81.888  1.00  0.00    -0.285 OA
ATOM      5  C   UNL     1     135.374 -18.843  79.569  1.00  0.00     0.111 A 
ATOM      6  C   UNL     1     134.150 -19.523  79.286  1.00  0.00     0.134 A 
ATOM      7  C   UNL     1     133.640 -19.515  77.982  1.00  0.00     0.093 A 
ATOM      8  C   UNL     1     134.337 -18.907  76.940  1.00  0.00     0.123 A 
ATOM      9  C   UNL     1     135.561 -18.285  77.193  1.00  0.00     0.094 A 
ATOM     10  C   UNL     1     136.078 -18.244  78.491  1.00  0.00     0.146 A 
ATOM     11  O   UNL     1     137.235 -17.625  78.691  1.00  0.00    -0.451 OA
ENDROOT
BRANCH   1  12
ATOM     12  C   UNL     1     139.091 -16.795  79.983  1.00  0.00     0.063 A 
ATOM     13  C   UNL     1     141.384 -16.549  79.213  1.00  0.00     0.047 A 
ATOM     14  C   UNL     1     140.148 -17.198  79.152  1.00  0.00     0.020 A 
ATOM     15  C   UNL     1     141.576 -15.481  80.093  1.00  0.00     0.119 A 
ATOM     16  C   UNL     1     140.521 -15.056  80.910  1.00  0.00     0.093 A 
ATOM     17  C   UNL     1     139.274 -15.699  80.851  1.00  0.00     0.130 A 
BRANCH  15  18
ATOM     18  O   UNL     1     142.815 -14.847  80.146  1.00  0.00    -0.508 OA
ATOM     19  H   UNL     1     143.399 -14.758  79.322  1.00  0.00     0.293 HD
ENDBRANCH  15  18
BRANCH  17  20
ATOM     20  O   UNL     1     138.217 -15.235  81.634  1.00  0.00    -0.507 OA
ATOM     21  H   UNL     1     137.269 -15.195  81.278  1.00  0.00     0.293 HD
ENDBRANCH  17  20
ENDBRANCH   1  12
BRANCH   2  22
ATOM     22  O   UNL     1     137.776 -17.948  82.271  1.00  0.00    -0.502 OA
ATOM     23  H   UNL     1     138.783 -17.927  82.385  1.00  0.00     0.293 HD
ENDBRANCH   2  22
BRANCH   6  24
ATOM     24  O   UNL     1     133.415 -20.240  80.236  1.00  0.00    -0.507 OA
ATOM     25  H   UNL     1     132.514 -20.662  80.072  1.00  0.00     0.293 HD
ENDBRANCH   6  24
BRANCH   8  26
ATOM     26  O   UNL     1     133.808 -18.932  75.651  1.00  0.00    -0.508 OA
ATOM     27  H   UNL     1     134.192 -18.360  74.908  1.00  0.00     0.293 HD
ENDBRANCH   8  26
TORSDOF 6
ENDMDL
MODEL 5
REMARK VINA RESULT:    -6.884      2.674      4.968
REMARK INTER + INTRA:          -8.606
REMARK INTER:                  -8.296
REMARK INTRA:                  -0.310
REMARK UNBOUND:                -0.313
REMARK SMILES O=c1c(O)c(-c2ccc(O)cc2O)oc2cc(O)cc(O)c12
REMARK SMILES IDX 5 1 3 2 2 3 1 4 22 5 20 6 19 7 17 8 16 9 15 10 14 11 6 12
REMARK SMILES IDX 8 13 7 14 9 15 11 16 12 17 10 18 13 20 4 22 21 24 18 26
REMARK H PARENT 10 19 13 21 4 23 21 25 18 27
REMARK Flexibility Score: inf
ROOT
ATOM      1  C   UNL     1     139.476 -18.052  78.843  1.00  0.00     0.184 A 
ATOM      2  C   UNL     1     138.107 -17.922  78.569  1.00  0.00     0.208 A 
ATOM      3  C   UNL     1     137.415 -16.811  79.075  1.00  0.00     0.238 A 
ATOM      4  O   UNL     1     136.172 -16.738  78.889  1.00  0.00    -0.285 OA
ATOM      5  C   UNL     1     138.114 -15.816  79.800  1.00  0.00     0.111 A 
ATOM      6  C   UNL     1     137.525 -14.625  80.322  1.00  0.00     0.134 A 
ATOM      7  C   UNL     1     138.293 -13.763  81.114  1.00  0.00     0.093 A 
ATOM      8  C   UNL     1     139.643 -14.014  81.352  1.00  0.00     0.123 A 
ATOM      9  C   UNL     1     140.245 -15.147  80.802  1.00  0.00     0.094 A 
ATOM     10  C   UNL     1     139.496 -16.046  80.039  1.00  0.00     0.146 A 
ATOM     11  O   UNL     1     140.103 -17.122  79.552  1.00  0.00    -0.451 OA
ENDROOT
BRANCH   1  12
ATOM     12  C   UNL     1     140.262 -19.202  78.348  1.00  0.00     0.063 A 
ATOM     13  C   UNL     1     141.970 -20.057  76.843  1.00  0.00     0.047 A 
ATOM     14  C   UNL     1     141.207 -18.993  77.331  1.00  0.00     0.020 A 
ATOM     15  C   UNL     1     141.811 -21.339  77.375  1.00  0.00     0.119 A 
ATOM     16  C   UNL     1     140.887 -21.554  78.406  1.00  0.00     0.093 A 
ATOM     17  C   UNL     1     140.120 -20.490  78.905  1.00  0.00     0.130 A 
BRANCH  15  18
ATOM     18  O   UNL     1     142.576 -22.391  76.875  1.00  0.00    -0.508 OA
ATOM     19  H   UNL     1     142.755 -22.490  75.882  1.00  0.00     0.293 HD
ENDBRANCH  15  18
BRANCH  17  20
ATOM     20  O   UNL     1     139.240 -20.706  79.965  1.00  0.00    -0.507 OA
ATOM     21  H   UNL     1     139.384 -20.278  80.872  1.00  0.00     0.293 HD
ENDBRANCH  17  20
ENDBRANCH   1  12
BRANCH   2  22
ATOM     22  O   UNL     1     137.455 -18.882  77.790  1.00  0.00    -0.502 OA
ATOM     23  H   UNL     1     137.826 -19.815  77.656  1.00  0.00     0.293 HD
ENDBRANCH   2  22
BRANCH   6  24
ATOM     24  O   UNL     1     136.207 -14.229  80.073  1.00  0.00    -0.507 OA
ATOM     25  H   UNL     1     135.495 -14.111  80.778  1.00  0.00     0.293 HD
ENDBRANCH   6  24
BRANCH   8  26
ATOM     26  O   UNL     1     140.381 -13.126  82.132  1.00  0.00    -0.508 OA
ATOM     27  H   UNL     1     140.346 -13.153  83.144  1.00  0.00     0.293 HD
ENDBRANCH   8  26
TORSDOF 6
ENDMDL
MODEL 6
REMARK VINA RESULT:    -6.754      2.624      6.441
REMARK INTER + INTRA:          -8.449
REMARK INTER:                  -8.200
REMARK INTRA:                  -0.249
REMARK UNBOUND:                -0.313
REMARK SMILES O=c1c(O)c(-c2ccc(O)cc2O)oc2cc(O)cc(O)c12
REMARK SMILES IDX 5 1 3 2 2 3 1 4 22 5 20 6 19 7 17 8 16 9 15 10 14 11 6 12
REMARK SMILES IDX 8 13 7 14 9 15 11 16 12 17 10 18 13 20 4 22 21 24 18 26
REMARK H PARENT 10 19 13 21 4 23 21 25 18 27
REMARK Flexibility Score: inf
ROOT
ATOM      1  C   UNL     1     139.268 -19.222  78.678  1.00  0.00     0.184 A 
ATOM      2  C   UNL     1     139.342 -17.913  79.175  1.00  0.00     0.208 A 
ATOM      3  C   UNL     1     138.188 -17.322  79.712  1.00  0.00     0.238 A 
ATOM      4  O   UNL     1     138.244 -16.122  80.088  1.00  0.00    -0.285 OA
ATOM      5  C   UNL     1     136.989 -18.069  79.797  1.00  0.00     0.111 A 
ATOM      6  C   UNL     1     135.769 -17.588  80.363  1.00  0.00     0.134 A 
ATOM      7  C   UNL     1     134.616 -18.380  80.296  1.00  0.00     0.093 A 
ATOM      8  C   UNL     1     134.651 -19.658  79.743  1.00  0.00     0.123 A 
ATOM      9  C   UNL     1     135.850 -20.162  79.235  1.00  0.00     0.094 A 
ATOM     10  C   UNL     1     137.009 -19.381  79.252  1.00  0.00     0.146 A 
ATOM     11  O   UNL     1     138.123 -19.891  78.740  1.00  0.00    -0.451 OA
ENDROOT
BRANCH   1  12
ATOM     12  C   UNL     1     140.443 -19.900  78.092  1.00  0.00     0.063 A 
ATOM     13  C   UNL     1     142.263 -19.878  76.480  1.00  0.00     0.047 A 
ATOM     14  C   UNL     1     141.145 -19.268  77.054  1.00  0.00     0.020 A 
ATOM     15  C   UNL     1     142.703 -21.120  76.946  1.00  0.00     0.119 A 
ATOM     16  C   UNL     1     142.023 -21.749  77.997  1.00  0.00     0.093 A 
ATOM     17  C   UNL     1     140.902 -21.140  78.582  1.00  0.00     0.130 A 
BRANCH  15  18
ATOM     18  O   UNL     1     143.817 -21.718  76.361  1.00  0.00    -0.508 OA
ATOM     19  H   UNL     1     144.104 -22.658  76.610  1.00  0.00     0.293 HD
ENDBRANCH  15  18
BRANCH  17  20
ATOM     20  O   UNL     1     140.264 -21.753  79.660  1.00  0.00    -0.507 OA
ATOM     21  H   UNL     1     140.695 -22.514  80.171  1.00  0.00     0.293 HD
ENDBRANCH  17  20
ENDBRANCH   1  12
BRANCH   2  22
ATOM     22  O   UNL     1     140.557 -17.222  79.145  1.00  0.00    -0.502 OA
ATOM     23  H   UNL     1     140.637 -16.252  79.426  1.00  0.00     0.293 HD
ENDBRANCH   2  22
BRANCH   6  24
ATOM     24  O   UNL     1     135.642 -16.361  81.021  1.00  0.00    -0.507 OA
ATOM     25  H   UNL     1     134.953 -16.152  81.727  1.00  0.00     0.293 HD
ENDBRANCH   6  24
BRANCH   8  26
ATOM     26  O   UNL     1     133.489 -20.426  79.708  1.00  0.00    -0.508 OA
ATOM     27  H   UNL     1     132.828 -20.423  80.476  1.00  0.00     0.293 HD
ENDBRANCH   8  26
TORSDOF 6
ENDMDL
MODEL 7
REMARK VINA RESULT:    -6.602      3.113      5.725
REMARK INTER + INTRA:          -8.266
REMARK INTER:                  -8.076
REMARK INTRA:                  -0.190
REMARK UNBOUND:                -0.313
REMARK SMILES O=c1c(O)c(-c2ccc(O)cc2O)oc2cc(O)cc(O)c12
REMARK SMILES IDX 5 1 3 2 2 3 1 4 22 5 20 6 19 7 17 8 16 9 15 10 14 11 6 12
REMARK SMILES IDX 8 13 7 14 9 15 11 16 12 17 10 18 13 20 4 22 21 24 18 26
REMARK H PARENT 10 19 13 21 4 23 21 25 18 27
REMARK Flexibility Score: inf
ROOT
ATOM      1  C   UNL     1     133.650 -18.695  77.132  1.00  0.00     0.184 A 
ATOM      2  C   UNL     1     133.245 -19.449  78.243  1.00  0.00     0.208 A 
ATOM      3  C   UNL     1     134.207 -19.838  79.188  1.00  0.00     0.238 A 
ATOM      4  O   UNL     1     133.850 -20.577  80.143  1.00  0.00    -0.285 OA
ATOM      5  C   UNL     1     135.551 -19.420  79.038  1.00  0.00     0.111 A 
ATOM      6  C   UNL     1     136.603 -19.718  79.957  1.00  0.00     0.134 A 
ATOM      7  C   UNL     1     137.916 -19.341  79.651  1.00  0.00     0.093 A 
ATOM      8  C   UNL     1     138.208 -18.623  78.493  1.00  0.00     0.123 A 
ATOM      9  C   UNL     1     137.181 -18.279  77.613  1.00  0.00     0.094 A 
ATOM     10  C   UNL     1     135.866 -18.674  77.871  1.00  0.00     0.146 A 
ATOM     11  O   UNL     1     134.922 -18.342  76.998  1.00  0.00    -0.451 OA
ENDROOT
BRANCH   1  12
ATOM     12  C   UNL     1     132.690 -18.260  76.096  1.00  0.00     0.063 A 
ATOM     13  C   UNL     1     130.586 -17.178  75.537  1.00  0.00     0.047 A 
ATOM     14  C   UNL     1     131.512 -17.607  76.491  1.00  0.00     0.020 A 
ATOM     15  C   UNL     1     130.831 -17.383  74.177  1.00  0.00     0.119 A 
ATOM     16  C   UNL     1     132.014 -18.012  73.770  1.00  0.00     0.093 A 
ATOM     17  C   UNL     1     132.952 -18.442  74.722  1.00  0.00     0.130 A 
BRANCH  15  18
ATOM     18  O   UNL     1     129.895 -16.953  73.238  1.00  0.00    -0.508 OA
ATOM     19  H   UNL     1     129.637 -17.531  72.446  1.00  0.00     0.293 HD
ENDBRANCH  15  18
BRANCH  17  20
ATOM     20  O   UNL     1     134.149 -19.023  74.303  1.00  0.00    -0.507 OA
ATOM     21  H   UNL     1     135.046 -18.704  74.651  1.00  0.00     0.293 HD
ENDBRANCH  17  20
ENDBRANCH   1  12
BRANCH   2  22
ATOM     22  O   UNL     1     131.899 -19.788  78.406  1.00  0.00    -0.502 OA
ATOM     23  H   UNL     1     131.163 -19.369  77.849  1.00  0.00     0.293 HD
ENDBRANCH   2  22
BRANCH   6  24
ATOM     24  O   UNL     1     136.410 -20.353  81.188  1.00  0.00    -0.507 OA
ATOM     25  H   UNL     1     137.005 -20.243  81.995  1.00  0.00     0.293 HD
ENDBRANCH   6  24
BRANCH   8  26
ATOM     26  O   UNL     1     139.524 -18.249  78.228  1.00  0.00    -0.508 OA
ATOM     27  H   UNL     1     140.294 -18.580  78.797  1.00  0.00     0.293 HD
ENDBRANCH   8  26
TORSDOF 6
ENDMDL
MODEL 8
REMARK VINA RESULT:    -6.243      1.614      1.989
REMARK INTER + INTRA:          -7.833
REMARK INTER:                  -7.417
REMARK INTRA:                  -0.416
REMARK UNBOUND:                -0.313
REMARK SMILES O=c1c(O)c(-c2ccc(O)cc2O)oc2cc(O)cc(O)c12
REMARK SMILES IDX 5 1 3 2 2 3 1 4 22 5 20 6 19 7 17 8 16 9 15 10 14 11 6 12
REMARK SMILES IDX 8 13 7 14 9 15 11 16 12 17 10 18 13 20 4 22 21 24 18 26
REMARK H PARENT 10 19 13 21 4 23 21 25 18 27
REMARK Flexibility Score: inf
ROOT
ATOM      1  C   UNL     1     136.880 -17.293  79.939  1.00  0.00     0.184 A 
ATOM      2  C   UNL     1     138.220 -17.578  80.244  1.00  0.00     0.208 A 
ATOM      3  C   UNL     1     139.090 -16.517  80.537  1.00  0.00     0.238 A 
ATOM      4  O   UNL     1     140.307 -16.773  80.736  1.00  0.00    -0.285 OA
ATOM      5  C   UNL     1     138.597 -15.191  80.578  1.00  0.00     0.111 A 
ATOM      6  C   UNL     1     139.379 -14.042  80.907  1.00  0.00     0.134 A 
ATOM      7  C   UNL     1     138.808 -12.767  80.812  1.00  0.00     0.093 A 
ATOM      8  C   UNL     1     137.469 -12.601  80.461  1.00  0.00     0.123 A 
ATOM      9  C   UNL     1     136.680 -13.719  80.189  1.00  0.00     0.094 A 
ATOM     10  C   UNL     1     137.230 -15.003  80.239  1.00  0.00     0.146 A 
ATOM     11  O   UNL     1     136.449 -16.038  79.953  1.00  0.00    -0.451 OA
ENDROOT
BRANCH   1  12
ATOM     12  C   UNL     1     135.913 -18.362  79.613  1.00  0.00     0.063 A 
ATOM     13  C   UNL     1     134.200 -19.913  80.367  1.00  0.00     0.047 A 
ATOM     14  C   UNL     1     135.127 -18.905  80.642  1.00  0.00     0.020 A 
ATOM     15  C   UNL     1     134.034 -20.380  79.061  1.00  0.00     0.119 A 
ATOM     16  C   UNL     1     134.796 -19.829  78.023  1.00  0.00     0.093 A 
ATOM     17  C   UNL     1     135.727 -18.812  78.290  1.00  0.00     0.130 A 
BRANCH  15  18
ATOM     18  O   UNL     1     133.108 -21.389  78.803  1.00  0.00    -0.508 OA
ATOM     19  H   UNL     1     132.123 -21.267  79.006  1.00  0.00     0.293 HD
ENDBRANCH  15  18
BRANCH  17  20
ATOM     20  O   UNL     1     136.445 -18.236  77.241  1.00  0.00    -0.507 OA
ATOM     21  H   UNL     1     136.472 -18.658  76.320  1.00  0.00     0.293 HD
ENDBRANCH  17  20
ENDBRANCH   1  12
BRANCH   2  22
ATOM     22  O   UNL     1     138.665 -18.902  80.268  1.00  0.00    -0.502 OA
ATOM     23  H   UNL     1     139.038 -19.334  81.104  1.00  0.00     0.293 HD
ENDBRANCH   2  22
BRANCH   6  24
ATOM     24  O   UNL     1     140.702 -14.098  81.356  1.00  0.00    -0.507 OA
ATOM     25  H   UNL     1     141.022 -14.634  82.148  1.00  0.00     0.293 HD
ENDBRANCH   6  24
BRANCH   8  26
ATOM     26  O   UNL     1     136.930 -11.318  80.392  1.00  0.00    -0.508 OA
ATOM     27  H   UNL     1     137.136 -10.617  81.094  1.00  0.00     0.293 HD
ENDBRANCH   8  26
TORSDOF 6
ENDMDL
MODEL 9
REMARK VINA RESULT:    -6.192      1.425      6.258
REMARK INTER + INTRA:          -7.772
REMARK INTER:                  -7.693
REMARK INTRA:                  -0.079
REMARK UNBOUND:                -0.313
REMARK SMILES O=c1c(O)c(-c2ccc(O)cc2O)oc2cc(O)cc(O)c12
REMARK SMILES IDX 5 1 3 2 2 3 1 4 22 5 20 6 19 7 17 8 16 9 15 10 14 11 6 12
REMARK SMILES IDX 8 13 7 14 9 15 11 16 12 17 10 18 13 20 4 22 21 24 18 26
REMARK H PARENT 10 19 13 21 4 23 21 25 18 27
REMARK Flexibility Score: inf
ROOT
ATOM      1  C   UNL     1     138.157 -16.666  79.951  1.00  0.00     0.184 A 
ATOM      2  C   UNL     1     139.077 -17.481  79.274  1.00  0.00     0.208 A 
ATOM      3  C   UNL     1     138.665 -18.744  78.826  1.00  0.00     0.238 A 
ATOM      4  O   UNL     1     139.515 -19.499  78.285  1.00  0.00    -0.285 OA
ATOM      5  C   UNL     1     137.322 -19.153  79.009  1.00  0.00     0.111 A 
ATOM      6  C   UNL     1     136.781 -20.395  78.556  1.00  0.00     0.134 A 
ATOM      7  C   UNL     1     135.464 -20.737  78.888  1.00  0.00     0.093 A 
ATOM      8  C   UNL     1     134.649 -19.860  79.601  1.00  0.00     0.123 A 
ATOM      9  C   UNL     1     135.149 -18.621  80.003  1.00  0.00     0.094 A 
ATOM     10  C   UNL     1     136.471 -18.265  79.720  1.00  0.00     0.146 A 
ATOM     11  O   UNL     1     136.913 -17.085  80.139  1.00  0.00    -0.451 OA
ENDROOT
BRANCH   1  12
ATOM     12  C   UNL     1     138.529 -15.328  80.457  1.00  0.00     0.063 A 
ATOM     13  C   UNL     1     140.153 -13.909  81.580  1.00  0.00     0.047 A 
ATOM     14  C   UNL     1     139.769 -15.162  81.094  1.00  0.00     0.020 A 
ATOM     15  C   UNL     1     139.312 -12.805  81.423  1.00  0.00     0.119 A 
ATOM     16  C   UNL     1     138.082 -12.955  80.769  1.00  0.00     0.093 A 
ATOM     17  C   UNL     1     137.691 -14.209  80.273  1.00  0.00     0.130 A 
BRANCH  15  18
ATOM     18  O   UNL     1     139.707 -11.564  81.917  1.00  0.00    -0.508 OA
ATOM     19  H   UNL     1     139.413 -10.700  81.474  1.00  0.00     0.293 HD
ENDBRANCH  15  18
BRANCH  17  20
ATOM     20  O   UNL     1     136.487 -14.335  79.580  1.00  0.00    -0.507 OA
ATOM     21  H   UNL     1     136.390 -14.967  78.794  1.00  0.00     0.293 HD
ENDBRANCH  17  20
ENDBRANCH   1  12
BRANCH   2  22
ATOM     22  O   UNL     1     140.378 -17.024  79.042  1.00  0.00    -0.502 OA
ATOM     23  H   UNL     1     140.725 -16.155  79.430  1.00  0.00     0.293 HD
ENDBRANCH   2  22
BRANCH   6  24
ATOM     24  O   UNL     1     137.478 -21.309  77.761  1.00  0.00    -0.507 OA
ATOM     25  H   UNL     1     138.483 -21.372  77.697  1.00  0.00     0.293 HD
ENDBRANCH   6  24
BRANCH   8  26
ATOM     26  O   UNL     1     133.339 -20.226  79.900  1.00  0.00    -0.508 OA
ATOM     27  H   UNL     1     132.642 -20.344  79.173  1.00  0.00     0.293 HD
ENDBRANCH   8  26
TORSDOF 6
ENDMDL
