MODEL 1
REMARK VINA RESULT:    -4.411      0.000      0.000
REMARK INTER + INTRA:          -7.881
REMARK INTER:                  -6.990
REMARK INTRA:                  -0.891
REMARK UNBOUND:                -0.891
REMARK SMILES CCCCCCCCCCCC(=O)[O-]
REMARK SMILES IDX 7 1 8 2 9 3 10 4 11 5 12 6 13 7 14 8 6 9 5 10 4 11 3 12 2 13
REMARK SMILES IDX 1 14
REMARK H PARENT
REMARK Flexibility Score: inf
ROOT
ATOM      1  C   UNL     1     130.125 141.263 141.353  1.00  0.00     0.000 C 
ENDROOT
BRANCH   1   2
ATOM      2  C   UNL     1     131.507 141.509 140.737  1.00  0.00     0.000 C 
BRANCH   2   3
ATOM      3  C   UNL     1     131.807 140.485 139.632  1.00  0.00     0.000 C 
BRANCH   3   4
ATOM      4  C   UNL     1     130.975 140.721 138.358  1.00  0.00     0.006 C 
BRANCH   4   5
ATOM      5  C   UNL     1     130.568 139.435 137.622  1.00  0.00     0.053 C 
BRANCH   5   6
ATOM      6  C   UNL     1     129.140 139.067 137.885  1.00  0.00     0.041 C 
ATOM      7  O   UNL     1     128.330 138.946 136.927  1.00  0.00    -0.550 OA
ATOM      8  O   UNL     1     128.696 138.891 139.189  1.00  0.00    -0.550 OA
ENDBRANCH   5   6
ENDBRANCH   4   5
ENDBRANCH   3   4
ENDBRANCH   2   3
ENDBRANCH   1   2
BRANCH   1   9
ATOM      9  C   UNL     1     129.365 142.581 141.546  1.00  0.00     0.000 C 
BRANCH   9  10
ATOM     10  C   UNL     1     127.960 142.501 140.936  1.00  0.00    -0.000 C 
BRANCH  10  11
ATOM     11  C   UNL     1     128.027 142.452 139.405  1.00  0.00    -0.000 C 
BRANCH  11  12
ATOM     12  C   UNL     1     126.870 143.246 138.780  1.00  0.00    -0.000 C 
BRANCH  12  13
ATOM     13  C   UNL     1     126.378 144.385 139.688  1.00  0.00    -0.003 C 
ATOM     14  C   UNL     1     125.976 145.635 138.905  1.00  0.00     0.004 C 
ENDBRANCH  12  13
ENDBRANCH  11  12
ENDBRANCH  10  11
ENDBRANCH   9  10
ENDBRANCH   1   9
TORSDOF 10
ENDMDL
MODEL 2
REMARK VINA RESULT:    -4.388      2.962      5.482
REMARK INTER + INTRA:          -7.844
REMARK INTER:                  -6.752
REMARK INTRA:                  -1.091
REMARK UNBOUND:                -0.891
REMARK SMILES CCCCCCCCCCCC(=O)[O-]
REMARK SMILES IDX 7 1 8 2 9 3 10 4 11 5 12 6 13 7 14 8 6 9 5 10 4 11 3 12 2 13
REMARK SMILES IDX 1 14
REMARK H PARENT
REMARK Flexibility Score: inf
ROOT
ATOM      1  C   UNL     1     128.429 141.209 141.492  1.00  0.00     0.000 C 
ENDROOT
BRANCH   1   2
ATOM      2  C   UNL     1     128.433 142.623 140.898  1.00  0.00     0.000 C 
BRANCH   2   3
ATOM      3  C   UNL     1     127.992 142.601 139.427  1.00  0.00     0.000 C 
BRANCH   3   4
ATOM      4  C   UNL     1     126.501 142.943 139.245  1.00  0.00     0.006 C 
BRANCH   4   5
ATOM      5  C   UNL     1     126.223 144.006 138.170  1.00  0.00     0.053 C 
BRANCH   5   6
ATOM      6  C   UNL     1     126.059 145.372 138.761  1.00  0.00     0.041 C 
ATOM      7  O   UNL     1     126.202 145.548 140.000  1.00  0.00    -0.550 OA
ATOM      8  O   UNL     1     125.716 146.445 137.948  1.00  0.00    -0.550 OA
ENDBRANCH   5   6
ENDBRANCH   4   5
ENDBRANCH   3   4
ENDBRANCH   2   3
ENDBRANCH   1   2
BRANCH   1   9
ATOM      9  C   UNL     1     129.832 140.804 141.960  1.00  0.00     0.000 C 
BRANCH   9  10
ATOM     10  C   UNL     1     130.907 141.665 141.284  1.00  0.00    -0.000 C 
BRANCH  10  11
ATOM     11  C   UNL     1     131.703 140.847 140.260  1.00  0.00    -0.000 C 
BRANCH  11  12
ATOM     12  C   UNL     1     131.237 141.155 138.829  1.00  0.00    -0.000 C 
BRANCH  12  13
ATOM     13  C   UNL     1     130.877 139.886 138.039  1.00  0.00    -0.003 C 
ATOM     14  C   UNL     1     129.429 139.446 138.254  1.00  0.00     0.004 C 
ENDBRANCH  12  13
ENDBRANCH  11  12
ENDBRANCH  10  11
ENDBRANCH   9  10
ENDBRANCH   1   9
TORSDOF 10
ENDMDL
MODEL 3
REMARK VINA RESULT:    -4.326      2.538      4.983
REMARK INTER + INTRA:          -7.745
REMARK INTER:                  -6.369
REMARK INTRA:                  -1.377
REMARK UNBOUND:                -0.891
REMARK SMILES CCCCCCCCCCCC(=O)[O-]
REMARK SMILES IDX 7 1 8 2 9 3 10 4 11 5 12 6 13 7 14 8 6 9 5 10 4 11 3 12 2 13
REMARK SMILES IDX 1 14
REMARK H PARENT
REMARK Flexibility Score: inf
ROOT
ATOM      1  C   UNL     1     130.625 141.245 141.396  1.00  0.00     0.000 C 
ENDROOT
BRANCH   1   2
ATOM      2  C   UNL     1     129.570 142.358 141.401  1.00  0.00     0.000 C 
BRANCH   2   3
ATOM      3  C   UNL     1     128.171 141.788 141.682  1.00  0.00     0.000 C 
BRANCH   3   4
ATOM      4  C   UNL     1     127.046 142.634 141.057  1.00  0.00     0.006 C 
BRANCH   4   5
ATOM      5  C   UNL     1     127.283 143.016 139.588  1.00  0.00     0.053 C 
BRANCH   5   6
ATOM      6  C   UNL     1     126.338 144.083 139.126  1.00  0.00     0.041 C 
ATOM      7  O   UNL     1     125.795 144.854 139.962  1.00  0.00    -0.550 OA
ATOM      8  O   UNL     1     126.031 144.203 137.777  1.00  0.00    -0.550 OA
ENDBRANCH   5   6
ENDBRANCH   4   5
ENDBRANCH   3   4
ENDBRANCH   2   3
ENDBRANCH   1   2
BRANCH   1   9
ATOM      9  C   UNL     1     131.498 141.321 140.138  1.00  0.00     0.000 C 
BRANCH   9  10
ATOM     10  C   UNL     1     130.638 141.309 138.869  1.00  0.00    -0.000 C 
BRANCH  10  11
ATOM     11  C   UNL     1     130.812 139.996 138.097  1.00  0.00    -0.000 C 
BRANCH  11  12
ATOM     12  C   UNL     1     129.449 139.406 137.702  1.00  0.00    -0.000 C 
BRANCH  12  13
ATOM     13  C   UNL     1     128.410 139.517 138.829  1.00  0.00    -0.003 C 
ATOM     14  C   UNL     1     128.595 138.455 139.912  1.00  0.00     0.004 C 
ENDBRANCH  12  13
ENDBRANCH  11  12
ENDBRANCH  10  11
ENDBRANCH   9  10
ENDBRANCH   1   9
TORSDOF 10
ENDMDL
MODEL 4
REMARK VINA RESULT:    -4.284      8.493     11.912
REMARK INTER + INTRA:          -7.679
REMARK INTER:                  -6.471
REMARK INTRA:                  -1.208
REMARK UNBOUND:                -0.891
REMARK SMILES CCCCCCCCCCCC(=O)[O-]
REMARK SMILES IDX 7 1 8 2 9 3 10 4 11 5 12 6 13 7 14 8 6 9 5 10 4 11 3 12 2 13
REMARK SMILES IDX 1 14
REMARK H PARENT
REMARK Flexibility Score: inf
ROOT
ATOM      1  C   UNL     1     139.492 136.742 139.392  1.00  0.00     0.000 C 
ENDROOT
BRANCH   1   2
ATOM      2  C   UNL     1     138.021 137.105 139.158  1.00  0.00     0.000 C 
BRANCH   2   3
ATOM      3  C   UNL     1     137.096 136.236 140.023  1.00  0.00     0.000 C 
BRANCH   3   4
ATOM      4  C   UNL     1     136.231 137.066 140.990  1.00  0.00     0.006 C 
BRANCH   4   5
ATOM      5  C   UNL     1     136.842 138.421 141.380  1.00  0.00     0.053 C 
BRANCH   5   6
ATOM      6  C   UNL     1     135.940 139.564 141.027  1.00  0.00     0.041 C 
ATOM      7  O   UNL     1     135.378 139.605 139.900  1.00  0.00    -0.550 OA
ATOM      8  O   UNL     1     135.747 140.602 141.931  1.00  0.00    -0.550 OA
ENDBRANCH   5   6
ENDBRANCH   4   5
ENDBRANCH   3   4
ENDBRANCH   2   3
ENDBRANCH   1   2
BRANCH   1   9
ATOM      9  C   UNL     1     139.707 136.204 140.812  1.00  0.00     0.000 C 
BRANCH   9  10
ATOM     10  C   UNL     1     140.525 134.907 140.792  1.00  0.00    -0.000 C 
BRANCH  10  11
ATOM     11  C   UNL     1     139.629 133.688 141.037  1.00  0.00    -0.000 C 
BRANCH  11  12
ATOM     12  C   UNL     1     139.270 132.996 139.713  1.00  0.00    -0.000 C 
BRANCH  12  13
ATOM     13  C   UNL     1     140.278 133.304 138.594  1.00  0.00    -0.003 C 
ATOM     14  C   UNL     1     139.601 133.670 137.273  1.00  0.00     0.004 C 
ENDBRANCH  12  13
ENDBRANCH  11  12
ENDBRANCH  10  11
ENDBRANCH   9  10
ENDBRANCH   1   9
TORSDOF 10
ENDMDL
MODEL 5
REMARK VINA RESULT:    -4.217      1.812      2.829
REMARK INTER + INTRA:          -7.573
REMARK INTER:                  -6.832
REMARK INTRA:                  -0.740
REMARK UNBOUND:                -0.891
REMARK SMILES CCCCCCCCCCCC(=O)[O-]
REMARK SMILES IDX 7 1 8 2 9 3 10 4 11 5 12 6 13 7 14 8 6 9 5 10 4 11 3 12 2 13
REMARK SMILES IDX 1 14
REMARK H PARENT
REMARK Flexibility Score: inf
ROOT
ATOM      1  C   UNL     1     127.992 142.227 141.254  1.00  0.00     0.000 C 
ENDROOT
BRANCH   1   2
ATOM      2  C   UNL     1     129.472 142.488 141.558  1.00  0.00     0.000 C 
BRANCH   2   3
ATOM      3  C   UNL     1     130.269 141.175 141.580  1.00  0.00     0.000 C 
BRANCH   3   4
ATOM      4  C   UNL     1     131.359 141.120 140.493  1.00  0.00     0.006 C 
BRANCH   4   5
ATOM      5  C   UNL     1     130.857 141.443 139.077  1.00  0.00     0.053 C 
BRANCH   5   6
ATOM      6  C   UNL     1     130.383 140.217 138.358  1.00  0.00     0.041 C 
ATOM      7  O   UNL     1     131.086 139.707 137.445  1.00  0.00    -0.550 OA
ATOM      8  O   UNL     1     129.152 139.658 138.673  1.00  0.00    -0.550 OA
ENDBRANCH   5   6
ENDBRANCH   4   5
ENDBRANCH   3   4
ENDBRANCH   2   3
ENDBRANCH   1   2
BRANCH   1   9
ATOM      9  C   UNL     1     127.435 143.278 140.286  1.00  0.00     0.000 C 
BRANCH   9  10
ATOM     10  C   UNL     1     127.528 142.794 138.834  1.00  0.00    -0.000 C 
BRANCH  10  11
ATOM     11  C   UNL     1     126.136 142.669 138.205  1.00  0.00    -0.000 C 
BRANCH  11  12
ATOM     12  C   UNL     1     126.124 143.245 136.780  1.00  0.00    -0.000 C 
BRANCH  12  13
ATOM     13  C   UNL     1     125.337 142.366 135.795  1.00  0.00    -0.003 C 
ATOM     14  C   UNL     1     125.267 140.903 136.232  1.00  0.00     0.004 C 
ENDBRANCH  12  13
ENDBRANCH  11  12
ENDBRANCH  10  11
ENDBRANCH   9  10
ENDBRANCH   1   9
TORSDOF 10
ENDMDL
MODEL 6
REMARK VINA RESULT:    -4.212      8.583     10.825
REMARK INTER + INTRA:          -7.565
REMARK INTER:                  -6.600
REMARK INTRA:                  -0.965
REMARK UNBOUND:                -0.891
REMARK SMILES CCCCCCCCCCCC(=O)[O-]
REMARK SMILES IDX 7 1 8 2 9 3 10 4 11 5 12 6 13 7 14 8 6 9 5 10 4 11 3 12 2 13
REMARK SMILES IDX 1 14
REMARK H PARENT
REMARK Flexibility Score: inf
ROOT
ATOM      1  C   UNL     1     139.632 136.568 139.169  1.00  0.00     0.000 C 
ENDROOT
BRANCH   1   2
ATOM      2  C   UNL     1     140.361 136.076 140.424  1.00  0.00     0.000 C 
BRANCH   2   3
ATOM      3  C   UNL     1     141.133 134.779 140.138  1.00  0.00     0.000 C 
BRANCH   3   4
ATOM      4  C   UNL     1     140.503 133.947 139.005  1.00  0.00     0.006 C 
BRANCH   4   5
ATOM      5  C   UNL     1     139.594 132.807 139.488  1.00  0.00     0.053 C 
BRANCH   5   6
ATOM      6  C   UNL     1     138.146 133.191 139.453  1.00  0.00     0.041 C 
ATOM      7  O   UNL     1     137.459 132.978 138.419  1.00  0.00    -0.550 OA
ATOM      8  O   UNL     1     137.565 133.815 140.550  1.00  0.00    -0.550 OA
ENDBRANCH   5   6
ENDBRANCH   4   5
ENDBRANCH   3   4
ENDBRANCH   2   3
ENDBRANCH   1   2
BRANCH   1   9
ATOM      9  C   UNL     1     138.241 137.112 139.518  1.00  0.00     0.000 C 
BRANCH   9  10
ATOM     10  C   UNL     1     138.139 137.446 141.011  1.00  0.00    -0.000 C 
BRANCH  10  11
ATOM     11  C   UNL     1     136.712 137.862 141.386  1.00  0.00    -0.000 C 
BRANCH  11  12
ATOM     12  C   UNL     1     136.581 139.393 141.434  1.00  0.00    -0.000 C 
BRANCH  12  13
ATOM     13  C   UNL     1     135.320 139.900 140.716  1.00  0.00    -0.003 C 
ATOM     14  C   UNL     1     134.987 139.091 139.463  1.00  0.00     0.004 C 
ENDBRANCH  12  13
ENDBRANCH  11  12
ENDBRANCH  10  11
ENDBRANCH   9  10
ENDBRANCH   1   9
TORSDOF 10
ENDMDL
MODEL 7
REMARK VINA RESULT:    -4.202      1.978      4.750
REMARK INTER + INTRA:          -7.550
REMARK INTER:                  -6.484
REMARK INTRA:                  -1.066
REMARK UNBOUND:                -0.891
REMARK SMILES CCCCCCCCCCCC(=O)[O-]
REMARK SMILES IDX 7 1 8 2 9 3 10 4 11 5 12 6 13 7 14 8 6 9 5 10 4 11 3 12 2 13
REMARK SMILES IDX 1 14
REMARK H PARENT
REMARK Flexibility Score: inf
ROOT
ATOM      1  C   UNL     1     129.272 142.473 141.357  1.00  0.00     0.000 C 
ENDROOT
BRANCH   1   2
ATOM      2  C   UNL     1     127.915 142.217 140.691  1.00  0.00     0.000 C 
BRANCH   2   3
ATOM      3  C   UNL     1     127.213 143.539 140.347  1.00  0.00     0.000 C 
BRANCH   3   4
ATOM      4  C   UNL     1     126.535 143.513 138.964  1.00  0.00     0.006 C 
BRANCH   4   5
ATOM      5  C   UNL     1     126.865 142.271 138.121  1.00  0.00     0.053 C 
BRANCH   5   6
ATOM      6  C   UNL     1     125.951 142.134 136.943  1.00  0.00     0.041 C 
ATOM      7  O   UNL     1     125.404 141.028 136.690  1.00  0.00    -0.550 OA
ATOM      8  O   UNL     1     125.731 143.220 136.104  1.00  0.00    -0.550 OA
ENDBRANCH   5   6
ENDBRANCH   4   5
ENDBRANCH   3   4
ENDBRANCH   2   3
ENDBRANCH   1   2
BRANCH   1   9
ATOM      9  C   UNL     1     130.371 141.619 140.713  1.00  0.00     0.000 C 
BRANCH   9  10
ATOM     10  C   UNL     1     130.316 141.713 139.183  1.00  0.00    -0.000 C 
BRANCH  10  11
ATOM     11  C   UNL     1     130.605 140.353 138.537  1.00  0.00    -0.000 C 
BRANCH  11  12
ATOM     12  C   UNL     1     129.588 139.298 139.002  1.00  0.00    -0.000 C 
BRANCH  12  13
ATOM     13  C   UNL     1     129.205 138.315 137.884  1.00  0.00    -0.003 C 
ATOM     14  C   UNL     1     128.083 138.843 136.990  1.00  0.00     0.004 C 
ENDBRANCH  12  13
ENDBRANCH  11  12
ENDBRANCH  10  11
ENDBRANCH   9  10
ENDBRANCH   1   9
TORSDOF 10
ENDMDL
MODEL 8
REMARK VINA RESULT:    -4.184      8.433     10.582
REMARK INTER + INTRA:          -7.521
REMARK INTER:                  -6.706
REMARK INTRA:                  -0.815
REMARK UNBOUND:                -0.891
REMARK SMILES CCCCCCCCCCCC(=O)[O-]
REMARK SMILES IDX 7 1 8 2 9 3 10 4 11 5 12 6 13 7 14 8 6 9 5 10 4 11 3 12 2 13
REMARK SMILES IDX 1 14
REMARK H PARENT
REMARK Flexibility Score: inf
ROOT
ATOM      1  C   UNL     1     138.133 136.965 139.096  1.00  0.00     0.000 C 
ENDROOT
BRANCH   1   2
ATOM      2  C   UNL     1     139.643 136.709 139.177  1.00  0.00     0.000 C 
BRANCH   2   3
ATOM      3  C   UNL     1     139.972 135.716 140.301  1.00  0.00     0.000 C 
BRANCH   3   4
ATOM      4  C   UNL     1     140.669 134.442 139.787  1.00  0.00     0.006 C 
BRANCH   4   5
ATOM      5  C   UNL     1     139.747 133.217 139.680  1.00  0.00     0.053 C 
BRANCH   5   6
ATOM      6  C   UNL     1     138.873 133.279 138.465  1.00  0.00     0.041 C 
ATOM      7  O   UNL     1     139.363 133.584 137.345  1.00  0.00    -0.550 OA
ATOM      8  O   UNL     1     137.510 133.032 138.576  1.00  0.00    -0.550 OA
ENDBRANCH   5   6
ENDBRANCH   4   5
ENDBRANCH   3   4
ENDBRANCH   2   3
ENDBRANCH   1   2
BRANCH   1   9
ATOM      9  C   UNL     1     137.396 136.283 140.254  1.00  0.00     0.000 C 
BRANCH   9  10
ATOM     10  C   UNL     1     136.485 137.275 140.988  1.00  0.00    -0.000 C 
BRANCH  10  11
ATOM     11  C   UNL     1     137.178 138.632 141.162  1.00  0.00    -0.000 C 
BRANCH  11  12
ATOM     12  C   UNL     1     136.261 139.626 141.893  1.00  0.00    -0.000 C 
BRANCH  12  13
ATOM     13  C   UNL     1     136.513 141.082 141.469  1.00  0.00    -0.003 C 
ATOM     14  C   UNL     1     135.338 142.004 141.794  1.00  0.00     0.004 C 
ENDBRANCH  12  13
ENDBRANCH  11  12
ENDBRANCH  10  11
ENDBRANCH   9  10
ENDBRANCH   1   9
TORSDOF 10
ENDMDL
MODEL 9
REMARK VINA RESULT:    -4.113      8.263     11.599
REMARK INTER + INTRA:          -7.408
REMARK INTER:                  -6.213
REMARK INTRA:                  -1.195
REMARK UNBOUND:                -0.891
REMARK SMILES CCCCCCCCCCCC(=O)[O-]
REMARK SMILES IDX 7 1 8 2 9 3 10 4 11 5 12 6 13 7 14 8 6 9 5 10 4 11 3 12 2 13
REMARK SMILES IDX 1 14
REMARK H PARENT
REMARK Flexibility Score: inf
ROOT
ATOM      1  C   UNL     1     139.258 136.805 139.564  1.00  0.00     0.000 C 
ENDROOT
BRANCH   1   2
ATOM      2  C   UNL     1     137.746 137.051 139.486  1.00  0.00     0.000 C 
BRANCH   2   3
ATOM      3  C   UNL     1     136.964 135.768 139.803  1.00  0.00     0.000 C 
BRANCH   3   4
ATOM      4  C   UNL     1     135.683 136.035 140.616  1.00  0.00     0.006 C 
BRANCH   4   5
ATOM      5  C   UNL     1     134.665 136.945 139.910  1.00  0.00     0.053 C 
BRANCH   5   6
ATOM      6  C   UNL     1     133.675 136.160 139.106  1.00  0.00     0.041 C 
ATOM      7  O   UNL     1     133.539 134.923 139.299  1.00  0.00    -0.550 OA
ATOM      8  O   UNL     1     132.926 136.789 138.119  1.00  0.00    -0.550 OA
ENDBRANCH   5   6
ENDBRANCH   4   5
ENDBRANCH   3   4
ENDBRANCH   2   3
ENDBRANCH   1   2
BRANCH   1   9
ATOM      9  C   UNL     1     139.661 136.293 140.951  1.00  0.00     0.000 C 
BRANCH   9  10
ATOM     10  C   UNL     1     140.532 135.035 140.842  1.00  0.00    -0.000 C 
BRANCH  10  11
ATOM     11  C   UNL     1     139.716 133.773 141.142  1.00  0.00    -0.000 C 
BRANCH  11  12
ATOM     12  C   UNL     1     139.423 132.989 139.852  1.00  0.00    -0.000 C 
BRANCH  12  13
ATOM     13  C   UNL     1     140.371 133.369 138.704  1.00  0.00    -0.003 C 
ATOM     14  C   UNL     1     139.629 133.721 137.415  1.00  0.00     0.004 C 
ENDBRANCH  12  13
ENDBRANCH  11  12
ENDBRANCH  10  11
ENDBRANCH   9  10
ENDBRANCH   1   9
TORSDOF 10
ENDMDL
