MODEL 1
REMARK VINA RESULT:    -3.551      0.000      0.000
REMARK INTER + INTRA:          -3.655
REMARK INTER:                  -3.655
REMARK INTRA:                   0.000
REMARK UNBOUND:                 0.000
REMARK SMILES O=c1ccc2ccc(O)cc2o1
REMARK SMILES IDX 6 1 7 2 8 3 10 4 11 5 5 6 4 7 3 8 2 9 1 10 12 11 9 12
REMARK H PARENT 9 13
REMARK Flexibility Score: inf
ROOT
ATOM      1  C   UNL     1     -11.875  -2.493 -12.951  1.00  0.00     0.016 A 
ATOM      2  C   UNL     1     -12.547  -2.349 -14.169  1.00  0.00     0.047 A 
ATOM      3  C   UNL     1     -13.857  -2.823 -14.316  1.00  0.00     0.119 A 
ATOM      4  C   UNL     1     -14.500  -3.446 -13.236  1.00  0.00     0.094 A 
ATOM      5  C   UNL     1     -13.835  -3.595 -12.014  1.00  0.00     0.142 A 
ATOM      6  C   UNL     1     -12.514  -3.115 -11.870  1.00  0.00     0.018 A 
ATOM      7  C   UNL     1     -11.876  -3.279 -10.637  1.00  0.00     0.019 A 
ATOM      8  C   UNL     1     -12.555  -3.906  -9.593  1.00  0.00     0.094 A 
ATOM      9  C   UNL     1     -13.863  -4.355  -9.807  1.00  0.00     0.336 A 
ATOM     10  O   UNL     1     -14.493  -4.923  -8.877  1.00  0.00    -0.246 OA
ATOM     11  O   UNL     1     -14.447  -4.187 -10.991  1.00  0.00    -0.423 OA
ENDROOT
BRANCH   3  12
ATOM     12  O   UNL     1     -14.509  -2.670 -15.537  1.00  0.00    -0.508 OA
ATOM     13  H   UNL     1     -14.907  -3.462 -16.027  1.00  0.00     0.293 HD
ENDBRANCH   3  12
TORSDOF 1
ENDMDL
MODEL 2
REMARK VINA RESULT:    -3.245     23.056     24.009
REMARK INTER + INTRA:          -3.340
REMARK INTER:                  -3.340
REMARK INTRA:                   0.000
REMARK UNBOUND:                 0.000
REMARK SMILES O=c1ccc2ccc(O)cc2o1
REMARK SMILES IDX 6 1 7 2 8 3 10 4 11 5 5 6 4 7 3 8 2 9 1 10 12 11 9 12
REMARK H PARENT 9 13
REMARK Flexibility Score: inf
ROOT
ATOM      1  C   UNL     1     -31.039   1.972 -24.970  1.00  0.00     0.016 A 
ATOM      2  C   UNL     1     -31.315   3.257 -25.448  1.00  0.00     0.047 A 
ATOM      3  C   UNL     1     -31.857   3.437 -26.727  1.00  0.00     0.119 A 
ATOM      4  C   UNL     1     -32.124   2.322 -27.536  1.00  0.00     0.094 A 
ATOM      5  C   UNL     1     -31.850   1.032 -27.066  1.00  0.00     0.142 A 
ATOM      6  C   UNL     1     -31.304   0.856 -25.775  1.00  0.00     0.018 A 
ATOM      7  C   UNL     1     -31.041  -0.444 -25.335  1.00  0.00     0.019 A 
ATOM      8  C   UNL     1     -31.323  -1.521 -26.174  1.00  0.00     0.094 A 
ATOM      9  C   UNL     1     -31.863  -1.272 -27.440  1.00  0.00     0.336 A 
ATOM     10  O   UNL     1     -32.125  -2.230 -28.213  1.00  0.00    -0.246 OA
ATOM     11  O   UNL     1     -32.104  -0.023 -27.835  1.00  0.00    -0.423 OA
ENDROOT
BRANCH   3  12
ATOM     12  O   UNL     1     -32.125   4.725 -27.184  1.00  0.00    -0.508 OA
ATOM     13  H   UNL     1     -32.904   5.263 -26.823  1.00  0.00     0.293 HD
ENDBRANCH   3  12
TORSDOF 1
ENDMDL
MODEL 3
REMARK VINA RESULT:    -3.167     23.086     24.038
REMARK INTER + INTRA:          -3.260
REMARK INTER:                  -3.260
REMARK INTRA:                   0.000
REMARK UNBOUND:                 0.000
REMARK SMILES O=c1ccc2ccc(O)cc2o1
REMARK SMILES IDX 6 1 7 2 8 3 10 4 11 5 5 6 4 7 3 8 2 9 1 10 12 11 9 12
REMARK H PARENT 9 13
REMARK Flexibility Score: inf
ROOT
ATOM      1  C   UNL     1     -31.000  -0.594 -25.411  1.00  0.00     0.016 A 
ATOM      2  C   UNL     1     -31.287  -1.647 -26.285  1.00  0.00     0.047 A 
ATOM      3  C   UNL     1     -31.847  -1.392 -27.543  1.00  0.00     0.119 A 
ATOM      4  C   UNL     1     -32.123  -0.073 -27.931  1.00  0.00     0.094 A 
ATOM      5  C   UNL     1     -31.840   0.988 -27.063  1.00  0.00     0.142 A 
ATOM      6  C   UNL     1     -31.275   0.726 -25.795  1.00  0.00     0.018 A 
ATOM      7  C   UNL     1     -31.003   1.806 -24.950  1.00  0.00     0.019 A 
ATOM      8  C   UNL     1     -31.296   3.100 -25.378  1.00  0.00     0.094 A 
ATOM      9  C   UNL     1     -31.854   3.285 -26.648  1.00  0.00     0.336 A 
ATOM     10  O   UNL     1     -32.125   4.445 -27.053  1.00  0.00    -0.246 OA
ATOM     11  O   UNL     1     -32.103   2.239 -27.432  1.00  0.00    -0.423 OA
ENDROOT
BRANCH   3  12
ATOM     12  O   UNL     1     -32.125  -2.455 -28.399  1.00  0.00    -0.508 OA
ATOM     13  H   UNL     1     -33.073  -2.778 -28.551  1.00  0.00     0.293 HD
ENDBRANCH   3  12
TORSDOF 1
ENDMDL
MODEL 4
REMARK VINA RESULT:    -2.482     17.125     18.616
REMARK INTER + INTRA:          -2.555
REMARK INTER:                  -2.555
REMARK INTRA:                   0.000
REMARK UNBOUND:                 0.000
REMARK SMILES O=c1ccc2ccc(O)cc2o1
REMARK SMILES IDX 6 1 7 2 8 3 10 4 11 5 5 6 4 7 3 8 2 9 1 10 12 11 9 12
REMARK H PARENT 9 13
REMARK Flexibility Score: inf
ROOT
ATOM      1  C   UNL     1     -20.862   5.568 -28.587  1.00  0.00     0.016 A 
ATOM      2  C   UNL     1     -19.586   6.124 -28.721  1.00  0.00     0.047 A 
ATOM      3  C   UNL     1     -18.491   5.555 -28.059  1.00  0.00     0.119 A 
ATOM      4  C   UNL     1     -18.674   4.419 -27.256  1.00  0.00     0.094 A 
ATOM      5  C   UNL     1     -19.947   3.856 -27.116  1.00  0.00     0.142 A 
ATOM      6  C   UNL     1     -21.049   4.434 -27.785  1.00  0.00     0.018 A 
ATOM      7  C   UNL     1     -22.308   3.849 -27.625  1.00  0.00     0.019 A 
ATOM      8  C   UNL     1     -22.441   2.721 -26.815  1.00  0.00     0.094 A 
ATOM      9  C   UNL     1     -21.306   2.202 -26.183  1.00  0.00     0.336 A 
ATOM     10  O   UNL     1     -21.404   1.185 -25.450  1.00  0.00    -0.246 OA
ATOM     11  O   UNL     1     -20.118   2.779 -26.353  1.00  0.00    -0.423 OA
ENDROOT
BRANCH   3  12
ATOM     12  O   UNL     1     -17.229   6.123 -28.206  1.00  0.00    -0.508 OA
ATOM     13  H   UNL     1     -17.106   7.126 -28.296  1.00  0.00     0.293 HD
ENDBRANCH   3  12
TORSDOF 1
ENDMDL
MODEL 5
REMARK VINA RESULT:    -2.158     22.362     24.611
REMARK INTER + INTRA:          -2.221
REMARK INTER:                  -2.221
REMARK INTRA:                   0.000
REMARK UNBOUND:                 0.000
REMARK SMILES O=c1ccc2ccc(O)cc2o1
REMARK SMILES IDX 6 1 7 2 8 3 10 4 11 5 5 6 4 7 3 8 2 9 1 10 12 11 9 12
REMARK H PARENT 9 13
REMARK Flexibility Score: inf
ROOT
ATOM      1  C   UNL     1     -31.982   0.591 -27.253  1.00  0.00     0.016 A 
ATOM      2  C   UNL     1     -31.676   0.143 -25.964  1.00  0.00     0.047 A 
ATOM      3  C   UNL     1     -31.218   1.041 -24.992  1.00  0.00     0.119 A 
ATOM      4  C   UNL     1     -31.064   2.399 -25.311  1.00  0.00     0.094 A 
ATOM      5  C   UNL     1     -31.368   2.856 -26.598  1.00  0.00     0.142 A 
ATOM      6  C   UNL     1     -31.830   1.947 -27.576  1.00  0.00     0.018 A 
ATOM      7  C   UNL     1     -32.125   2.433 -28.852  1.00  0.00     0.019 A 
ATOM      8  C   UNL     1     -31.956   3.791 -29.123  1.00  0.00     0.094 A 
ATOM      9  C   UNL     1     -31.495   4.633 -28.106  1.00  0.00     0.336 A 
ATOM     10  O   UNL     1     -31.337   5.861 -28.330  1.00  0.00    -0.246 OA
ATOM     11  O   UNL     1     -31.221   4.144 -26.899  1.00  0.00    -0.423 OA
ENDROOT
BRANCH   3  12
ATOM     12  O   UNL     1     -30.918   0.575 -23.714  1.00  0.00    -0.508 OA
ATOM     13  H   UNL     1     -30.708  -0.402 -23.542  1.00  0.00     0.293 HD
ENDBRANCH   3  12
TORSDOF 1
ENDMDL
MODEL 6
REMARK VINA RESULT:    -2.123     16.924     18.895
REMARK INTER + INTRA:          -2.185
REMARK INTER:                  -2.185
REMARK INTRA:                   0.000
REMARK UNBOUND:                 0.000
REMARK SMILES O=c1ccc2ccc(O)cc2o1
REMARK SMILES IDX 6 1 7 2 8 3 10 4 11 5 5 6 4 7 3 8 2 9 1 10 12 11 9 12
REMARK H PARENT 9 13
REMARK Flexibility Score: inf
ROOT
ATOM      1  C   UNL     1     -22.374   3.788 -27.629  1.00  0.00     0.016 A 
ATOM      2  C   UNL     1     -22.496   2.651 -26.825  1.00  0.00     0.047 A 
ATOM      3  C   UNL     1     -21.378   2.126 -26.165  1.00  0.00     0.119 A 
ATOM      4  C   UNL     1     -20.126   2.744 -26.312  1.00  0.00     0.094 A 
ATOM      5  C   UNL     1     -19.995   3.882 -27.115  1.00  0.00     0.142 A 
ATOM      6  C   UNL     1     -21.126   4.408 -27.778  1.00  0.00     0.018 A 
ATOM      7  C   UNL     1     -20.964   5.546 -28.573  1.00  0.00     0.019 A 
ATOM      8  C   UNL     1     -19.700   6.125 -28.689  1.00  0.00     0.094 A 
ATOM      9  C   UNL     1     -18.625   5.550 -28.003  1.00  0.00     0.336 A 
ATOM     10  O   UNL     1     -17.477   6.058 -28.094  1.00  0.00    -0.246 OA
ATOM     11  O   UNL     1     -18.807   4.466 -27.252  1.00  0.00    -0.423 OA
ENDROOT
BRANCH   3  12
ATOM     12  O   UNL     1     -21.519   0.992 -25.369  1.00  0.00    -0.508 OA
ATOM     13  H   UNL     1     -21.732   0.086 -25.770  1.00  0.00     0.293 HD
ENDBRANCH   3  12
TORSDOF 1
ENDMDL
MODEL 7
REMARK VINA RESULT:    -2.098      0.763      4.231
REMARK INTER + INTRA:          -2.160
REMARK INTER:                  -2.160
REMARK INTRA:                   0.000
REMARK UNBOUND:                 0.000
REMARK SMILES O=c1ccc2ccc(O)cc2o1
REMARK SMILES IDX 6 1 7 2 8 3 10 4 11 5 5 6 4 7 3 8 2 9 1 10 12 11 9 12
REMARK H PARENT 9 13
REMARK Flexibility Score: inf
ROOT
ATOM      1  C   UNL     1     -11.875  -3.006 -10.838  1.00  0.00     0.016 A 
ATOM      2  C   UNL     1     -12.524  -3.647  -9.778  1.00  0.00     0.047 A 
ATOM      3  C   UNL     1     -13.811  -4.172  -9.948  1.00  0.00     0.119 A 
ATOM      4  C   UNL     1     -14.455  -4.054 -11.189  1.00  0.00     0.094 A 
ATOM      5  C   UNL     1     -13.814  -3.414 -12.255  1.00  0.00     0.142 A 
ATOM      6  C   UNL     1     -12.515  -2.886 -12.079  1.00  0.00     0.018 A 
ATOM      7  C   UNL     1     -11.901  -2.252 -13.162  1.00  0.00     0.019 A 
ATOM      8  C   UNL     1     -12.581  -2.158 -14.376  1.00  0.00     0.094 A 
ATOM      9  C   UNL     1     -13.865  -2.704 -14.478  1.00  0.00     0.336 A 
ATOM     10  O   UNL     1     -14.495  -2.631 -15.566  1.00  0.00    -0.246 OA
ATOM     11  O   UNL     1     -14.427  -3.303 -13.431  1.00  0.00    -0.423 OA
ENDROOT
BRANCH   3  12
ATOM     12  O   UNL     1     -14.440  -4.807  -8.880  1.00  0.00    -0.508 OA
ATOM     13  H   UNL     1     -14.216  -5.762  -8.626  1.00  0.00     0.293 HD
ENDBRANCH   3  12
TORSDOF 1
ENDMDL
MODEL 8
REMARK VINA RESULT:    -1.419     23.037     24.094
REMARK INTER + INTRA:          -1.461
REMARK INTER:                  -1.461
REMARK INTRA:                   0.000
REMARK UNBOUND:                 0.000
REMARK SMILES O=c1ccc2ccc(O)cc2o1
REMARK SMILES IDX 6 1 7 2 8 3 10 4 11 5 5 6 4 7 3 8 2 9 1 10 12 11 9 12
REMARK H PARENT 9 13
REMARK Flexibility Score: inf
ROOT
ATOM      1  C   UNL     1     -32.010   0.474 -28.424  1.00  0.00     0.016 A 
ATOM      2  C   UNL     1     -31.800  -0.866 -28.084  1.00  0.00     0.047 A 
ATOM      3  C   UNL     1     -31.503  -1.224 -26.763  1.00  0.00     0.119 A 
ATOM      4  C   UNL     1     -31.414  -0.232 -25.774  1.00  0.00     0.094 A 
ATOM      5  C   UNL     1     -31.622   1.111 -26.106  1.00  0.00     0.142 A 
ATOM      6  C   UNL     1     -31.922   1.467 -27.439  1.00  0.00     0.018 A 
ATOM      7  C   UNL     1     -32.124   2.817 -27.740  1.00  0.00     0.019 A 
ATOM      8  C   UNL     1     -32.025   3.766 -26.724  1.00  0.00     0.094 A 
ATOM      9  C   UNL     1     -31.724   3.341 -25.425  1.00  0.00     0.336 A 
ATOM     10  O   UNL     1     -31.631   4.183 -24.494  1.00  0.00    -0.246 OA
ATOM     11  O   UNL     1     -31.536   2.049 -25.166  1.00  0.00    -0.423 OA
ENDROOT
BRANCH   3  12
ATOM     12  O   UNL     1     -31.297  -2.564 -26.444  1.00  0.00    -0.508 OA
ATOM     13  H   UNL     1     -30.942  -3.222 -27.128  1.00  0.00     0.293 HD
ENDBRANCH   3  12
TORSDOF 1
ENDMDL
MODEL 9
REMARK VINA RESULT:    -1.323      1.532      4.755
REMARK INTER + INTRA:          -1.362
REMARK INTER:                  -1.362
REMARK INTRA:                   0.000
REMARK UNBOUND:                 0.000
REMARK SMILES O=c1ccc2ccc(O)cc2o1
REMARK SMILES IDX 6 1 7 2 8 3 10 4 11 5 5 6 4 7 3 8 2 9 1 10 12 11 9 12
REMARK H PARENT 9 13
REMARK Flexibility Score: inf
ROOT
ATOM      1  C   UNL     1     -14.832  -3.727 -11.094  1.00  0.00     0.016 A 
ATOM      2  C   UNL     1     -14.034  -4.011  -9.981  1.00  0.00     0.047 A 
ATOM      3  C   UNL     1     -12.652  -3.791 -10.025  1.00  0.00     0.119 A 
ATOM      4  C   UNL     1     -12.061  -3.283 -11.191  1.00  0.00     0.094 A 
ATOM      5  C   UNL     1     -12.852  -2.996 -12.310  1.00  0.00     0.142 A 
ATOM      6  C   UNL     1     -14.246  -3.220 -12.262  1.00  0.00     0.018 A 
ATOM      7  C   UNL     1     -15.008  -2.924 -13.395  1.00  0.00     0.019 A 
ATOM      8  C   UNL     1     -14.377  -2.421 -14.532  1.00  0.00     0.094 A 
ATOM      9  C   UNL     1     -12.992  -2.225 -14.509  1.00  0.00     0.336 A 
ATOM     10  O   UNL     1     -12.404  -1.772 -15.525  1.00  0.00    -0.246 OA
ATOM     11  O   UNL     1     -12.289  -2.515 -13.416  1.00  0.00    -0.423 OA
ENDROOT
BRANCH   3  12
ATOM     12  O   UNL     1     -11.875  -4.081  -8.905  1.00  0.00    -0.508 OA
ATOM     13  H   UNL     1     -12.124  -4.827  -8.267  1.00  0.00     0.293 HD
ENDBRANCH   3  12
TORSDOF 1
ENDMDL
