MODEL 1
REMARK VINA RESULT:    -4.747      0.000      0.000
REMARK INTER + INTRA:          -5.025
REMARK INTER:                  -5.025
REMARK INTRA:                   0.000
REMARK UNBOUND:                 0.000
REMARK SMILES O=c1ccc2cc(O)c(O)cc2o1
REMARK SMILES IDX 4 1 3 2 2 3 1 4 13 5 12 6 11 7 9 8 7 9 6 10 5 11 8 12 10 14
REMARK H PARENT 8 13 10 15
REMARK Flexibility Score: inf
ROOT
ATOM      1  C   UNL     1      -9.039   1.900  -9.169  1.00  0.00     0.019 A 
ATOM      2  C   UNL     1      -9.900   0.915  -8.685  1.00  0.00     0.094 A 
ATOM      3  C   UNL     1      -9.356  -0.269  -8.175  1.00  0.00     0.336 A 
ATOM      4  O   UNL     1     -10.115  -1.171  -7.734  1.00  0.00    -0.246 OA
ATOM      5  O   UNL     1      -8.038  -0.451  -8.154  1.00  0.00    -0.423 OA
ATOM      6  C   UNL     1      -7.181   0.463  -8.605  1.00  0.00     0.142 A 
ATOM      7  C   UNL     1      -5.807   0.217  -8.557  1.00  0.00     0.098 A 
ATOM      8  C   UNL     1      -4.899   1.177  -9.031  1.00  0.00     0.161 A 
ATOM      9  C   UNL     1      -5.375   2.391  -9.558  1.00  0.00     0.158 A 
ATOM     10  C   UNL     1      -6.752   2.641  -9.607  1.00  0.00     0.062 A 
ATOM     11  C   UNL     1      -7.658   1.682  -9.134  1.00  0.00     0.022 A 
ENDROOT
BRANCH   9  12
ATOM     12  O   UNL     1      -4.495   3.362 -10.036  1.00  0.00    -0.504 OA
ATOM     13  H   UNL     1      -3.892   3.195 -10.833  1.00  0.00     0.293 HD
ENDBRANCH   9  12
BRANCH   8  14
ATOM     14  O   UNL     1      -3.528   0.927  -8.981  1.00  0.00    -0.504 OA
ATOM     15  H   UNL     1      -3.140   0.220  -8.369  1.00  0.00     0.293 HD
ENDBRANCH   8  14
TORSDOF 2
ENDMDL
MODEL 2
REMARK VINA RESULT:    -4.505      1.755      4.815
REMARK INTER + INTRA:          -4.768
REMARK INTER:                  -4.768
REMARK INTRA:                   0.000
REMARK UNBOUND:                 0.000
REMARK SMILES O=c1ccc2cc(O)c(O)cc2o1
REMARK SMILES IDX 4 1 3 2 2 3 1 4 13 5 12 6 11 7 9 8 7 9 6 10 5 11 8 12 10 14
REMARK H PARENT 8 13 10 15
REMARK Flexibility Score: inf
ROOT
ATOM      1  C   UNL     1      -5.361  -1.235  -9.877  1.00  0.00     0.019 A 
ATOM      2  C   UNL     1      -4.093  -0.826  -9.465  1.00  0.00     0.094 A 
ATOM      3  C   UNL     1      -3.960   0.394  -8.792  1.00  0.00     0.336 A 
ATOM      4  O   UNL     1      -2.825   0.782  -8.413  1.00  0.00    -0.246 OA
ATOM      5  O   UNL     1      -5.028   1.150  -8.552  1.00  0.00    -0.423 OA
ATOM      6  C   UNL     1      -6.256   0.797  -8.927  1.00  0.00     0.142 A 
ATOM      7  C   UNL     1      -7.340   1.632  -8.646  1.00  0.00     0.098 A 
ATOM      8  C   UNL     1      -8.636   1.265  -9.040  1.00  0.00     0.161 A 
ATOM      9  C   UNL     1      -8.845   0.052  -9.721  1.00  0.00     0.158 A 
ATOM     10  C   UNL     1      -7.759  -0.787 -10.003  1.00  0.00     0.062 A 
ATOM     11  C   UNL     1      -6.466  -0.421  -9.610  1.00  0.00     0.022 A 
ENDROOT
BRANCH   9  12
ATOM     12  O   UNL     1     -10.122  -0.337 -10.124  1.00  0.00    -0.504 OA
ATOM     13  H   UNL     1     -10.504  -0.077 -11.025  1.00  0.00     0.293 HD
ENDBRANCH   9  12
BRANCH   8  14
ATOM     14  O   UNL     1      -9.716   2.101  -8.758  1.00  0.00    -0.504 OA
ATOM     15  H   UNL     1     -10.665   1.750  -8.726  1.00  0.00     0.293 HD
ENDBRANCH   8  14
TORSDOF 2
ENDMDL
MODEL 3
REMARK VINA RESULT:    -4.341      1.767      2.553
REMARK INTER + INTRA:          -4.594
REMARK INTER:                  -4.594
REMARK INTRA:                   0.000
REMARK UNBOUND:                 0.000
REMARK SMILES O=c1ccc2cc(O)c(O)cc2o1
REMARK SMILES IDX 4 1 3 2 2 3 1 4 13 5 12 6 11 7 9 8 7 9 6 10 5 11 8 12 10 14
REMARK H PARENT 8 13 10 15
REMARK Flexibility Score: inf
ROOT
ATOM      1  C   UNL     1      -8.206  -0.904 -10.026  1.00  0.00     0.019 A 
ATOM      2  C   UNL     1      -9.300  -0.195  -9.532  1.00  0.00     0.094 A 
ATOM      3  C   UNL     1      -9.078   0.852  -8.631  1.00  0.00     0.336 A 
ATOM      4  O   UNL     1     -10.052   1.504  -8.172  1.00  0.00    -0.246 OA
ATOM      5  O   UNL     1      -7.841   1.164  -8.252  1.00  0.00    -0.423 OA
ATOM      6  C   UNL     1      -6.770   0.513  -8.700  1.00  0.00     0.142 A 
ATOM      7  C   UNL     1      -5.494   0.886  -8.267  1.00  0.00     0.098 A 
ATOM      8  C   UNL     1      -4.361   0.203  -8.735  1.00  0.00     0.161 A 
ATOM      9  C   UNL     1      -4.509  -0.860  -9.644  1.00  0.00     0.158 A 
ATOM     10  C   UNL     1      -5.786  -1.236 -10.079  1.00  0.00     0.062 A 
ATOM     11  C   UNL     1      -6.917  -0.555  -9.611  1.00  0.00     0.022 A 
ENDROOT
BRANCH   9  12
ATOM     12  O   UNL     1      -3.400  -1.556 -10.124  1.00  0.00    -0.504 OA
ATOM     13  H   UNL     1      -3.053  -2.394  -9.673  1.00  0.00     0.293 HD
ENDBRANCH   9  12
BRANCH   8  14
ATOM     14  O   UNL     1      -3.090   0.579  -8.301  1.00  0.00    -0.504 OA
ATOM     15  H   UNL     1      -2.493  -0.061  -7.792  1.00  0.00     0.293 HD
ENDBRANCH   8  14
TORSDOF 2
ENDMDL
MODEL 4
REMARK VINA RESULT:    -4.263      2.672      4.382
REMARK INTER + INTRA:          -4.512
REMARK INTER:                  -4.512
REMARK INTRA:                   0.000
REMARK UNBOUND:                 0.000
REMARK SMILES O=c1ccc2cc(O)c(O)cc2o1
REMARK SMILES IDX 4 1 3 2 2 3 1 4 13 5 12 6 11 7 9 8 7 9 6 10 5 11 8 12 10 14
REMARK H PARENT 8 13 10 15
REMARK Flexibility Score: inf
ROOT
ATOM      1  C   UNL     1      -6.780   0.476  -9.660  1.00  0.00     0.019 A 
ATOM      2  C   UNL     1      -6.678   1.812  -9.275  1.00  0.00     0.094 A 
ATOM      3  C   UNL     1      -5.484   2.263  -8.701  1.00  0.00     0.336 A 
ATOM      4  O   UNL     1      -5.371   3.465  -8.346  1.00  0.00    -0.246 OA
ATOM      5  O   UNL     1      -4.464   1.426  -8.525  1.00  0.00    -0.423 OA
ATOM      6  C   UNL     1      -4.519   0.144  -8.879  1.00  0.00     0.142 A 
ATOM      7  C   UNL     1      -3.415  -0.687  -8.671  1.00  0.00     0.098 A 
ATOM      8  C   UNL     1      -3.468  -2.040  -9.041  1.00  0.00     0.161 A 
ATOM      9  C   UNL     1      -4.637  -2.561  -9.625  1.00  0.00     0.158 A 
ATOM     10  C   UNL     1      -5.744  -1.730  -9.835  1.00  0.00     0.062 A 
ATOM     11  C   UNL     1      -5.692  -0.380  -9.464  1.00  0.00     0.022 A 
ENDROOT
BRANCH   9  12
ATOM     12  O   UNL     1      -4.716  -3.901 -10.002  1.00  0.00    -0.504 OA
ATOM     13  H   UNL     1      -4.871  -4.182 -10.963  1.00  0.00     0.293 HD
ENDBRANCH   9  12
BRANCH   8  14
ATOM     14  O   UNL     1      -2.364  -2.865  -8.832  1.00  0.00    -0.504 OA
ATOM     15  H   UNL     1      -2.070  -3.132  -7.900  1.00  0.00     0.293 HD
ENDBRANCH   8  14
TORSDOF 2
ENDMDL
MODEL 5
REMARK VINA RESULT:    -4.181      1.741      4.408
REMARK INTER + INTRA:          -4.425
REMARK INTER:                  -4.425
REMARK INTRA:                   0.000
REMARK UNBOUND:                 0.000
REMARK SMILES O=c1ccc2cc(O)c(O)cc2o1
REMARK SMILES IDX 4 1 3 2 2 3 1 4 13 5 12 6 11 7 9 8 7 9 6 10 5 11 8 12 10 14
REMARK H PARENT 8 13 10 15
REMARK Flexibility Score: inf
ROOT
ATOM      1  C   UNL     1      -4.280   1.538 -10.105  1.00  0.00     0.019 A 
ATOM      2  C   UNL     1      -3.253   0.734  -9.614  1.00  0.00     0.094 A 
ATOM      3  C   UNL     1      -3.558  -0.257  -8.674  1.00  0.00     0.336 A 
ATOM      4  O   UNL     1      -2.645  -0.994  -8.219  1.00  0.00    -0.246 OA
ATOM      5  O   UNL     1      -4.810  -0.426  -8.256  1.00  0.00    -0.423 OA
ATOM      6  C   UNL     1      -5.820   0.319  -8.699  1.00  0.00     0.142 A 
ATOM      7  C   UNL     1      -7.115   0.095  -8.224  1.00  0.00     0.098 A 
ATOM      8  C   UNL     1      -8.184   0.878  -8.687  1.00  0.00     0.161 A 
ATOM      9  C   UNL     1      -7.951   1.893  -9.633  1.00  0.00     0.158 A 
ATOM     10  C   UNL     1      -6.654   2.120 -10.111  1.00  0.00     0.062 A 
ATOM     11  C   UNL     1      -5.587   1.338  -9.648  1.00  0.00     0.022 A 
ENDROOT
BRANCH   9  12
ATOM     12  O   UNL     1      -8.994   2.686 -10.109  1.00  0.00    -0.504 OA
ATOM     13  H   UNL     1      -9.224   2.738 -11.095  1.00  0.00     0.293 HD
ENDBRANCH   9  12
BRANCH   8  14
ATOM     14  O   UNL     1      -9.474   0.651  -8.211  1.00  0.00    -0.504 OA
ATOM     15  H   UNL     1     -10.266   1.183  -8.550  1.00  0.00     0.293 HD
ENDBRANCH   8  14
TORSDOF 2
ENDMDL
MODEL 6
REMARK VINA RESULT:    -4.167      2.913      4.604
REMARK INTER + INTRA:          -4.410
REMARK INTER:                  -4.410
REMARK INTRA:                   0.000
REMARK UNBOUND:                 0.000
REMARK SMILES O=c1ccc2cc(O)c(O)cc2o1
REMARK SMILES IDX 4 1 3 2 2 3 1 4 13 5 12 6 11 7 9 8 7 9 6 10 5 11 8 12 10 14
REMARK H PARENT 8 13 10 15
REMARK Flexibility Score: inf
ROOT
ATOM      1  C   UNL     1      -2.959  -1.357  -8.943  1.00  0.00     0.019 A 
ATOM      2  C   UNL     1      -2.997  -2.703  -9.303  1.00  0.00     0.094 A 
ATOM      3  C   UNL     1      -4.192  -3.241  -9.795  1.00  0.00     0.336 A 
ATOM      4  O   UNL     1      -4.247  -4.454 -10.125  1.00  0.00    -0.246 OA
ATOM      5  O   UNL     1      -5.274  -2.476  -9.915  1.00  0.00    -0.423 OA
ATOM      6  C   UNL     1      -5.282  -1.187  -9.584  1.00  0.00     0.142 A 
ATOM      7  C   UNL     1      -6.449  -0.433  -9.733  1.00  0.00     0.098 A 
ATOM      8  C   UNL     1      -6.463   0.927  -9.385  1.00  0.00     0.161 A 
ATOM      9  C   UNL     1      -5.297   1.534  -8.884  1.00  0.00     0.158 A 
ATOM     10  C   UNL     1      -4.125   0.780  -8.734  1.00  0.00     0.062 A 
ATOM     11  C   UNL     1      -4.112  -0.577  -9.081  1.00  0.00     0.022 A 
ENDROOT
BRANCH   9  12
ATOM     12  O   UNL     1      -5.282   2.882  -8.531  1.00  0.00    -0.504 OA
ATOM     13  H   UNL     1      -4.419   3.393  -8.392  1.00  0.00     0.293 HD
ENDBRANCH   9  12
BRANCH   8  14
ATOM     14  O   UNL     1      -7.629   1.675  -9.536  1.00  0.00    -0.504 OA
ATOM     15  H   UNL     1      -7.612   2.687  -9.551  1.00  0.00     0.293 HD
ENDBRANCH   8  14
TORSDOF 2
ENDMDL
MODEL 7
REMARK VINA RESULT:    -4.053      2.384      4.310
REMARK INTER + INTRA:          -4.290
REMARK INTER:                  -4.290
REMARK INTRA:                   0.000
REMARK UNBOUND:                 0.000
REMARK SMILES O=c1ccc2cc(O)c(O)cc2o1
REMARK SMILES IDX 4 1 3 2 2 3 1 4 13 5 12 6 11 7 9 8 7 9 6 10 5 11 8 12 10 14
REMARK H PARENT 8 13 10 15
REMARK Flexibility Score: inf
ROOT
ATOM      1  C   UNL     1      -5.928  -2.037 -10.125  1.00  0.00     0.019 A 
ATOM      2  C   UNL     1      -4.812  -2.862  -9.989  1.00  0.00     0.094 A 
ATOM      3  C   UNL     1      -3.651  -2.342  -9.406  1.00  0.00     0.336 A 
ATOM      4  O   UNL     1      -2.633  -3.070  -9.275  1.00  0.00    -0.246 OA
ATOM      5  O   UNL     1      -3.615  -1.079  -8.989  1.00  0.00    -0.423 OA
ATOM      6  C   UNL     1      -4.658  -0.258  -9.099  1.00  0.00     0.142 A 
ATOM      7  C   UNL     1      -4.561   1.060  -8.642  1.00  0.00     0.098 A 
ATOM      8  C   UNL     1      -5.656   1.930  -8.756  1.00  0.00     0.161 A 
ATOM      9  C   UNL     1      -6.856   1.475  -9.332  1.00  0.00     0.158 A 
ATOM     10  C   UNL     1      -6.955   0.155  -9.791  1.00  0.00     0.062 A 
ATOM     11  C   UNL     1      -5.862  -0.714  -9.677  1.00  0.00     0.022 A 
ENDROOT
BRANCH   9  12
ATOM     12  O   UNL     1      -7.959   2.318  -9.458  1.00  0.00    -0.504 OA
ATOM     13  H   UNL     1      -7.884   3.247  -9.855  1.00  0.00     0.293 HD
ENDBRANCH   9  12
BRANCH   8  14
ATOM     14  O   UNL     1      -5.556   3.243  -8.299  1.00  0.00    -0.504 OA
ATOM     15  H   UNL     1      -6.208   3.959  -8.595  1.00  0.00     0.293 HD
ENDBRANCH   8  14
TORSDOF 2
ENDMDL
MODEL 8
REMARK VINA RESULT:    -3.845      1.608      2.144
REMARK INTER + INTRA:          -4.070
REMARK INTER:                  -4.070
REMARK INTRA:                   0.000
REMARK UNBOUND:                 0.000
REMARK SMILES O=c1ccc2cc(O)c(O)cc2o1
REMARK SMILES IDX 4 1 3 2 2 3 1 4 13 5 12 6 11 7 9 8 7 9 6 10 5 11 8 12 10 14
REMARK H PARENT 8 13 10 15
REMARK Flexibility Score: inf
ROOT
ATOM      1  C   UNL     1      -7.560   1.534  -8.628  1.00  0.00     0.019 A 
ATOM      2  C   UNL     1      -8.839   1.084  -8.954  1.00  0.00     0.094 A 
ATOM      3  C   UNL     1      -8.979  -0.153  -9.593  1.00  0.00     0.336 A 
ATOM      4  O   UNL     1     -10.125  -0.577  -9.897  1.00  0.00    -0.246 OA
ATOM      5  O   UNL     1      -7.908  -0.886  -9.885  1.00  0.00    -0.423 OA
ATOM      6  C   UNL     1      -6.670  -0.494  -9.591  1.00  0.00     0.142 A 
ATOM      7  C   UNL     1      -5.582  -1.307  -9.921  1.00  0.00     0.098 A 
ATOM      8  C   UNL     1      -4.275  -0.899  -9.614  1.00  0.00     0.161 A 
ATOM      9  C   UNL     1      -4.058   0.333  -8.971  1.00  0.00     0.158 A 
ATOM     10  C   UNL     1      -5.147   1.150  -8.639  1.00  0.00     0.062 A 
ATOM     11  C   UNL     1      -6.452   0.743  -8.946  1.00  0.00     0.022 A 
ENDROOT
BRANCH   9  12
ATOM     12  O   UNL     1      -2.770   0.763  -8.655  1.00  0.00    -0.504 OA
ATOM     13  H   UNL     1      -2.188   1.254  -9.323  1.00  0.00     0.293 HD
ENDBRANCH   9  12
BRANCH   8  14
ATOM     14  O   UNL     1      -3.193  -1.713  -9.945  1.00  0.00    -0.504 OA
ATOM     15  H   UNL     1      -3.269  -2.723  -9.945  1.00  0.00     0.293 HD
ENDBRANCH   8  14
TORSDOF 2
ENDMDL
MODEL 9
REMARK VINA RESULT:    -2.464      1.772      5.067
REMARK INTER + INTRA:          -2.608
REMARK INTER:                  -2.608
REMARK INTRA:                   0.000
REMARK UNBOUND:                 0.000
REMARK SMILES O=c1ccc2cc(O)c(O)cc2o1
REMARK SMILES IDX 4 1 3 2 2 3 1 4 13 5 12 6 11 7 9 8 7 9 6 10 5 11 8 12 10 14
REMARK H PARENT 8 13 10 15
REMARK Flexibility Score: inf
ROOT
ATOM      1  C   UNL     1      -4.281  -0.440  -8.247  1.00  0.00     0.019 A 
ATOM      2  C   UNL     1      -2.983  -0.272  -8.727  1.00  0.00     0.094 A 
ATOM      3  C   UNL     1      -2.730   0.746  -9.654  1.00  0.00     0.336 A 
ATOM      4  O   UNL     1      -1.565   0.915 -10.100  1.00  0.00    -0.246 OA
ATOM      5  O   UNL     1      -3.714   1.539 -10.068  1.00  0.00    -0.423 OA
ATOM      6  C   UNL     1      -4.967   1.413  -9.635  1.00  0.00     0.142 A 
ATOM      7  C   UNL     1      -5.960   2.276 -10.106  1.00  0.00     0.098 A 
ATOM      8  C   UNL     1      -7.282   2.148  -9.653  1.00  0.00     0.161 A 
ATOM      9  C   UNL     1      -7.609   1.146  -8.721  1.00  0.00     0.158 A 
ATOM     10  C   UNL     1      -6.616   0.280  -8.247  1.00  0.00     0.062 A 
ATOM     11  C   UNL     1      -5.296   0.408  -8.700  1.00  0.00     0.022 A 
ENDROOT
BRANCH   9  12
ATOM     12  O   UNL     1      -8.915   0.996  -8.255  1.00  0.00    -0.504 OA
ATOM     13  H   UNL     1      -9.141   1.034  -7.268  1.00  0.00     0.293 HD
ENDBRANCH   9  12
BRANCH   8  14
ATOM     14  O   UNL     1      -8.269   3.011 -10.125  1.00  0.00    -0.504 OA
ATOM     15  H   UNL     1      -8.881   3.514  -9.493  1.00  0.00     0.293 HD
ENDBRANCH   8  14
TORSDOF 2
ENDMDL
