MODEL 1
REMARK VINA RESULT:    -8.239      0.000      0.000
REMARK INTER + INTRA:         -15.240
REMARK INTER:                 -13.537
REMARK INTRA:                  -1.704
REMARK UNBOUND:                -1.704
REMARK SMILES C[C@@H]1O[C@H](OC[C@H]2O[C@@H](Oc3c(-c4ccc(O)c(O)c4)oc4cc(O)cc(O)c4c3=O)[C@@H](O)[C@H](O)[C@@H]2O)[C@H](O)[C@@H](O)[C@H]1O
REMARK SMILES IDX 7 1 36 2 34 3 32 4 9 5 8 6 6 7 5 8 4 9 1 10 2 11 42 12 3 13
REMARK SMILES IDX 40 14 38 15 43 16 41 18 39 20 37 22 35 24 10 26 11 27 12 28
REMARK SMILES IDX 30 29 21 30 29 31 31 32 22 33 27 34 23 35 26 36 24 37 13 38
REMARK SMILES IDX 20 39 14 40 18 41 15 42 16 43 19 44 17 46 28 48 25 50 33 52
REMARK H PARENT 43 17 41 19 39 21 37 23 35 25 19 45 17 47 28 49 25 51 33 53
REMARK Flexibility Score: inf
ROOT
ATOM      1  C   UNL     1      52.347  20.979  60.172  1.00  0.00     0.180 C 
ATOM      2  C   UNL     1      52.271  22.270  59.342  1.00  0.00     0.177 C 
ATOM      3  C   UNL     1      51.327  22.000  58.105  1.00  0.00     0.180 C 
ATOM      4  C   UNL     1      51.579  20.611  57.447  1.00  0.00     0.214 C 
ATOM      5  C   UNL     1      52.421  19.545  58.253  1.00  0.00     0.339 C 
ATOM      6  O   UNL     1      53.050  19.962  59.468  1.00  0.00    -0.332 OA
ENDROOT
BRANCH   1   7
ATOM      7  C   UNL     1      51.007  20.531  60.871  1.00  0.00     0.198 C 
BRANCH   7   8
ATOM      8  O   UNL     1      51.352  19.784  62.166  1.00  0.00    -0.347 OA
BRANCH   8   9
ATOM      9  C   UNL     1      50.969  20.094  63.611  1.00  0.00     0.281 C 
ATOM     10  C   UNL     1      49.378  23.703  64.242  1.00  0.00     0.041 C 
ATOM     11  C   UNL     1      49.487  22.124  64.233  1.00  0.00     0.150 C 
ATOM     12  C   UNL     1      48.166  21.337  63.693  1.00  0.00     0.174 C 
ATOM     13  O   UNL     1      50.817  21.579  63.878  1.00  0.00    -0.344 OA
ATOM     14  C   UNL     1      48.755  19.981  63.226  1.00  0.00     0.179 C 
ATOM     15  C   UNL     1      49.738  19.496  64.242  1.00  0.00     0.202 C 
BRANCH  12  16
ATOM     16  O   UNL     1      47.118  21.115  64.615  1.00  0.00    -0.388 OA
ATOM     17  H   UNL     1      47.140  20.099  64.667  1.00  0.00     0.211 HD
ENDBRANCH  12  16
BRANCH  14  18
ATOM     18  O   UNL     1      48.214  18.787  62.738  1.00  0.00    -0.387 OA
ATOM     19  H   UNL     1      48.002  18.185  63.505  1.00  0.00     0.211 HD
ENDBRANCH  14  18
BRANCH  15  20
ATOM     20  O   UNL     1      49.896  18.074  64.402  1.00  0.00    -0.385 OA
ATOM     21  H   UNL     1      49.952  17.975  65.381  1.00  0.00     0.211 HD
ENDBRANCH  15  20
ENDBRANCH   8   9
ENDBRANCH   7   8
ENDBRANCH   1   7
BRANCH   2  22
ATOM     22  O   UNL     1      53.574  22.670  58.946  1.00  0.00    -0.387 OA
ATOM     23  H   UNL     1      53.964  23.296  59.634  1.00  0.00     0.211 HD
ENDBRANCH   2  22
BRANCH   3  24
ATOM     24  O   UNL     1      51.366  23.065  57.159  1.00  0.00    -0.387 OA
ATOM     25  H   UNL     1      52.193  22.965  56.605  1.00  0.00     0.211 HD
ENDBRANCH   3  24
BRANCH   5  26
ATOM     26  O   UNL     1      51.681  18.290  58.446  1.00  0.00    -0.454 OA
BRANCH  26  27
ATOM     27  C   UNL     1      52.327  17.032  58.472  1.00  0.00     0.214 A 
ATOM     28  C   UNL     1      52.395  16.240  57.287  1.00  0.00     0.180 A 
ATOM     29  C   UNL     1      52.820  16.494  59.670  1.00  0.00     0.239 A 
ATOM     30  O   UNL     1      52.743  14.964  57.421  1.00  0.00    -0.452 OA
ATOM     31  C   UNL     1      53.192  15.132  59.740  1.00  0.00     0.111 A 
ATOM     32  O   UNL     1      52.915  17.211  60.693  1.00  0.00    -0.285 OA
ATOM     33  C   UNL     1      53.149  14.390  58.566  1.00  0.00     0.146 A 
ATOM     34  C   UNL     1      53.539  14.479  60.952  1.00  0.00     0.134 A 
ATOM     35  C   UNL     1      53.483  13.017  58.587  1.00  0.00     0.094 A 
ATOM     36  C   UNL     1      53.862  13.121  60.982  1.00  0.00     0.093 A 
ATOM     37  C   UNL     1      53.904  12.399  59.795  1.00  0.00     0.123 A 
BRANCH  28  38
ATOM     38  C   UNL     1      52.126  16.743  55.926  1.00  0.00     0.025 A 
ATOM     39  C   UNL     1      52.952  17.784  55.361  1.00  0.00     0.062 A 
ATOM     40  C   UNL     1      50.891  16.498  55.333  1.00  0.00     0.016 A 
ATOM     41  C   UNL     1      52.543  18.481  54.226  1.00  0.00     0.158 A 
ATOM     42  C   UNL     1      50.425  17.194  54.222  1.00  0.00     0.051 A 
ATOM     43  C   UNL     1      51.263  18.223  53.719  1.00  0.00     0.157 A 
BRANCH  41  44
ATOM     44  O   UNL     1      53.353  19.515  53.739  1.00  0.00    -0.504 OA
ATOM     45  H   UNL     1      53.008  20.115  52.995  1.00  0.00     0.293 HD
ENDBRANCH  41  44
BRANCH  43  46
ATOM     46  O   UNL     1      50.777  18.956  52.621  1.00  0.00    -0.504 OA
ATOM     47  H   UNL     1      50.189  19.789  52.856  1.00  0.00     0.293 HD
ENDBRANCH  43  46
ENDBRANCH  28  38
BRANCH  34  48
ATOM     48  O   UNL     1      53.420  15.173  62.153  1.00  0.00    -0.507 OA
ATOM     49  H   UNL     1      54.203  15.587  62.620  1.00  0.00     0.293 HD
ENDBRANCH  34  48
BRANCH  37  50
ATOM     50  O   UNL     1      54.366  11.100  59.839  1.00  0.00    -0.508 OA
ATOM     51  H   UNL     1      54.498  10.638  60.749  1.00  0.00     0.293 HD
ENDBRANCH  37  50
ENDBRANCH  26  27
ENDBRANCH   5  26
BRANCH   4  52
ATOM     52  O   UNL     1      50.308  20.179  57.032  1.00  0.00    -0.384 OA
ATOM     53  H   UNL     1      50.331  19.176  57.118  1.00  0.00     0.211 HD
ENDBRANCH   4  52
TORSDOF 16
ENDMDL
MODEL 2
REMARK VINA RESULT:    -8.217      2.604      8.880
REMARK INTER + INTRA:         -15.204
REMARK INTER:                 -13.810
REMARK INTRA:                  -1.394
REMARK UNBOUND:                -1.704
REMARK SMILES C[C@@H]1O[C@H](OC[C@H]2O[C@@H](Oc3c(-c4ccc(O)c(O)c4)oc4cc(O)cc(O)c4c3=O)[C@@H](O)[C@H](O)[C@@H]2O)[C@H](O)[C@@H](O)[C@H]1O
REMARK SMILES IDX 7 1 36 2 34 3 32 4 9 5 8 6 6 7 5 8 4 9 1 10 2 11 42 12 3 13
REMARK SMILES IDX 40 14 38 15 43 16 41 18 39 20 37 22 35 24 10 26 11 27 12 28
REMARK SMILES IDX 30 29 21 30 29 31 31 32 22 33 27 34 23 35 26 36 24 37 13 38
REMARK SMILES IDX 20 39 14 40 18 41 15 42 16 43 19 44 17 46 28 48 25 50 33 52
REMARK H PARENT 43 17 41 19 39 21 37 23 35 25 19 45 17 47 28 49 25 51 33 53
REMARK Flexibility Score: inf
ROOT
ATOM      1  C   UNL     1      51.672  17.252  55.503  1.00  0.00     0.180 C 
ATOM      2  C   UNL     1      51.853  18.093  54.230  1.00  0.00     0.177 C 
ATOM      3  C   UNL     1      53.143  18.986  54.414  1.00  0.00     0.180 C 
ATOM      4  C   UNL     1      53.245  19.612  55.836  1.00  0.00     0.214 C 
ATOM      5  C   UNL     1      52.320  19.029  56.976  1.00  0.00     0.339 C 
ATOM      6  O   UNL     1      51.320  18.073  56.610  1.00  0.00    -0.332 OA
ENDROOT
BRANCH   1   7
ATOM      7  C   UNL     1      52.785  16.170  55.776  1.00  0.00     0.198 C 
BRANCH   7   8
ATOM      8  O   UNL     1      52.336  14.835  55.169  1.00  0.00    -0.347 OA
BRANCH   8   9
ATOM      9  C   UNL     1      52.637  14.227  53.801  1.00  0.00     0.281 C 
ATOM     10  C   UNL     1      56.463  14.339  52.661  1.00  0.00     0.041 C 
ATOM     11  C   UNL     1      55.053  13.717  53.025  1.00  0.00     0.150 C 
ATOM     12  C   UNL     1      55.098  12.408  53.995  1.00  0.00     0.174 C 
ATOM     13  O   UNL     1      53.959  14.694  53.222  1.00  0.00    -0.344 OA
ATOM     14  C   UNL     1      53.691  12.427  54.643  1.00  0.00     0.179 C 
ATOM     15  C   UNL     1      52.670  12.735  53.596  1.00  0.00     0.202 C 
BRANCH  12  16
ATOM     16  O   UNL     1      55.332  11.154  53.386  1.00  0.00    -0.388 OA
ATOM     17  H   UNL     1      54.830  10.548  54.031  1.00  0.00     0.211 HD
ENDBRANCH  12  16
BRANCH  14  18
ATOM     18  O   UNL     1      52.989  11.574  55.503  1.00  0.00    -0.387 OA
ATOM     19  H   UNL     1      52.048  11.486  55.182  1.00  0.00     0.211 HD
ENDBRANCH  14  18
BRANCH  15  20
ATOM     20  O   UNL     1      51.352  12.177  53.752  1.00  0.00    -0.385 OA
ATOM     21  H   UNL     1      51.283  11.573  52.976  1.00  0.00     0.211 HD
ENDBRANCH  15  20
ENDBRANCH   8   9
ENDBRANCH   7   8
ENDBRANCH   1   7
BRANCH   2  22
ATOM     22  O   UNL     1      50.690  18.873  53.994  1.00  0.00    -0.387 OA
ATOM     23  H   UNL     1      50.359  19.264  54.863  1.00  0.00     0.211 HD
ENDBRANCH   2  22
BRANCH   3  24
ATOM     24  O   UNL     1      53.272  19.958  53.380  1.00  0.00    -0.387 OA
ATOM     25  H   UNL     1      54.241  20.044  53.147  1.00  0.00     0.211 HD
ENDBRANCH   3  24
BRANCH   5  26
ATOM     26  O   UNL     1      53.099  18.560  58.131  1.00  0.00    -0.454 OA
BRANCH  26  27
ATOM     27  C   UNL     1      52.793  18.955  59.454  1.00  0.00     0.214 A 
ATOM     28  C   UNL     1      52.689  17.974  60.486  1.00  0.00     0.180 A 
ATOM     29  C   UNL     1      52.485  20.289  59.761  1.00  0.00     0.239 A 
ATOM     30  O   UNL     1      52.121  18.344  61.630  1.00  0.00    -0.452 OA
ATOM     31  C   UNL     1      51.901  20.618  61.005  1.00  0.00     0.111 A 
ATOM     32  O   UNL     1      52.708  21.196  58.927  1.00  0.00    -0.285 OA
ATOM     33  C   UNL     1      51.743  19.596  61.934  1.00  0.00     0.146 A 
ATOM     34  C   UNL     1      51.411  21.912  61.319  1.00  0.00     0.134 A 
ATOM     35  C   UNL     1      51.137  19.866  63.183  1.00  0.00     0.094 A 
ATOM     36  C   UNL     1      50.803  22.184  62.548  1.00  0.00     0.093 A 
ATOM     37  C   UNL     1      50.724  21.185  63.510  1.00  0.00     0.123 A 
BRANCH  28  38
ATOM     38  C   UNL     1      53.186  16.589  60.378  1.00  0.00     0.025 A 
ATOM     39  C   UNL     1      53.032  15.858  59.142  1.00  0.00     0.062 A 
ATOM     40  C   UNL     1      53.462  15.864  61.534  1.00  0.00     0.016 A 
ATOM     41  C   UNL     1      53.207  14.476  59.105  1.00  0.00     0.158 A 
ATOM     42  C   UNL     1      53.608  14.480  61.551  1.00  0.00     0.051 A 
ATOM     43  C   UNL     1      53.424  13.805  60.317  1.00  0.00     0.157 A 
BRANCH  41  44
ATOM     44  O   UNL     1      53.002  13.800  57.895  1.00  0.00    -0.504 OA
ATOM     45  H   UNL     1      53.399  14.173  57.038  1.00  0.00     0.293 HD
ENDBRANCH  41  44
BRANCH  43  46
ATOM     46  O   UNL     1      53.531  12.403  60.338  1.00  0.00    -0.504 OA
ATOM     47  H   UNL     1      52.640  11.878  60.176  1.00  0.00     0.293 HD
ENDBRANCH  43  46
ENDBRANCH  28  38
BRANCH  34  48
ATOM     48  O   UNL     1      51.411  22.895  60.333  1.00  0.00    -0.507 OA
ATOM     49  H   UNL     1      50.699  22.960  59.632  1.00  0.00     0.293 HD
ENDBRANCH  34  48
BRANCH  37  50
ATOM     50  O   UNL     1      50.251  21.523  64.761  1.00  0.00    -0.508 OA
ATOM     51  H   UNL     1      49.727  20.830  65.311  1.00  0.00     0.293 HD
ENDBRANCH  37  50
ENDBRANCH  26  27
ENDBRANCH   5  26
BRANCH   4  52
ATOM     52  O   UNL     1      54.620  19.615  56.125  1.00  0.00    -0.384 OA
ATOM     53  H   UNL     1      55.075  19.713  55.232  1.00  0.00     0.211 HD
ENDBRANCH   4  52
TORSDOF 16
ENDMDL
MODEL 3
REMARK VINA RESULT:    -8.166      1.756      7.322
REMARK INTER + INTRA:         -15.121
REMARK INTER:                 -15.007
REMARK INTRA:                  -0.114
REMARK UNBOUND:                -1.704
REMARK SMILES C[C@@H]1O[C@H](OC[C@H]2O[C@@H](Oc3c(-c4ccc(O)c(O)c4)oc4cc(O)cc(O)c4c3=O)[C@@H](O)[C@H](O)[C@@H]2O)[C@H](O)[C@@H](O)[C@H]1O
REMARK SMILES IDX 7 1 36 2 34 3 32 4 9 5 8 6 6 7 5 8 4 9 1 10 2 11 42 12 3 13
REMARK SMILES IDX 40 14 38 15 43 16 41 18 39 20 37 22 35 24 10 26 11 27 12 28
REMARK SMILES IDX 30 29 21 30 29 31 31 32 22 33 27 34 23 35 26 36 24 37 13 38
REMARK SMILES IDX 20 39 14 40 18 41 15 42 16 43 19 44 17 46 28 48 25 50 33 52
REMARK H PARENT 43 17 41 19 39 21 37 23 35 25 19 45 17 47 28 49 25 51 33 53
REMARK Flexibility Score: inf
ROOT
ATOM      1  C   UNL     1      51.017  20.683  57.301  1.00  0.00     0.180 C 
ATOM      2  C   UNL     1      51.364  21.035  55.846  1.00  0.00     0.177 C 
ATOM      3  C   UNL     1      52.645  20.206  55.436  1.00  0.00     0.180 C 
ATOM      4  C   UNL     1      53.726  20.174  56.556  1.00  0.00     0.214 C 
ATOM      5  C   UNL     1      53.305  20.618  58.012  1.00  0.00     0.339 C 
ATOM      6  O   UNL     1      52.004  21.184  58.195  1.00  0.00    -0.332 OA
ENDROOT
BRANCH   1   7
ATOM      7  C   UNL     1      50.546  19.201  57.557  1.00  0.00     0.198 C 
BRANCH   7   8
ATOM      8  O   UNL     1      49.270  18.941  56.746  1.00  0.00    -0.347 OA
BRANCH   8   9
ATOM      9  C   UNL     1      48.890  17.751  55.867  1.00  0.00     0.281 C 
ATOM     10  C   UNL     1      48.975  18.412  51.929  1.00  0.00     0.041 C 
ATOM     11  C   UNL     1      49.327  17.733  53.316  1.00  0.00     0.150 C 
ATOM     12  C   UNL     1      50.913  17.468  53.579  1.00  0.00     0.174 C 
ATOM     13  O   UNL     1      48.491  18.156  54.461  1.00  0.00    -0.344 OA
ATOM     14  C   UNL     1      50.987  17.412  55.127  1.00  0.00     0.179 C 
ATOM     15  C   UNL     1      49.841  16.605  55.646  1.00  0.00     0.202 C 
BRANCH  12  16
ATOM     16  O   UNL     1      51.478  16.296  53.027  1.00  0.00    -0.388 OA
ATOM     17  H   UNL     1      52.005  16.700  52.256  1.00  0.00     0.211 HD
ENDBRANCH  12  16
BRANCH  14  18
ATOM     18  O   UNL     1      51.996  17.134  56.057  1.00  0.00    -0.387 OA
ATOM     19  H   UNL     1      52.636  16.480  55.659  1.00  0.00     0.211 HD
ENDBRANCH  14  18
BRANCH  15  20
ATOM     20  O   UNL     1      50.034  15.868  56.868  1.00  0.00    -0.385 OA
ATOM     21  H   UNL     1      49.119  15.811  57.229  1.00  0.00     0.211 HD
ENDBRANCH  15  20
ENDBRANCH   8   9
ENDBRANCH   7   8
ENDBRANCH   1   7
BRANCH   2  22
ATOM     22  O   UNL     1      51.568  22.434  55.720  1.00  0.00    -0.387 OA
ATOM     23  H   UNL     1      50.680  22.913  55.746  1.00  0.00     0.211 HD
ENDBRANCH   2  22
BRANCH   3  24
ATOM     24  O   UNL     1      53.173  20.625  54.180  1.00  0.00    -0.387 OA
ATOM     25  H   UNL     1      52.677  20.149  53.454  1.00  0.00     0.211 HD
ENDBRANCH   3  24
BRANCH   5  26
ATOM     26  O   UNL     1      53.567  19.566  59.005  1.00  0.00    -0.454 OA
BRANCH  26  27
ATOM     27  C   UNL     1      52.892  19.520  60.247  1.00  0.00     0.214 A 
ATOM     28  C   UNL     1      52.510  18.264  60.807  1.00  0.00     0.180 A 
ATOM     29  C   UNL     1      52.495  20.696  60.901  1.00  0.00     0.239 A 
ATOM     30  O   UNL     1      51.636  18.278  61.809  1.00  0.00    -0.452 OA
ATOM     31  C   UNL     1      51.576  20.640  61.974  1.00  0.00     0.111 A 
ATOM     32  O   UNL     1      52.935  21.807  60.527  1.00  0.00    -0.285 OA
ATOM     33  C   UNL     1      51.172  19.384  62.413  1.00  0.00     0.146 A 
ATOM     34  C   UNL     1      51.003  21.793  62.572  1.00  0.00     0.134 A 
ATOM     35  C   UNL     1      50.233  19.274  63.463  1.00  0.00     0.094 A 
ATOM     36  C   UNL     1      50.067  21.691  63.605  1.00  0.00     0.093 A 
ATOM     37  C   UNL     1      49.729  20.438  64.102  1.00  0.00     0.123 A 
BRANCH  28  38
ATOM     38  C   UNL     1      53.033  16.957  60.365  1.00  0.00     0.025 A 
ATOM     39  C   UNL     1      52.795  16.499  59.016  1.00  0.00     0.062 A 
ATOM     40  C   UNL     1      53.425  16.016  61.313  1.00  0.00     0.016 A 
ATOM     41  C   UNL     1      53.003  15.166  58.668  1.00  0.00     0.158 A 
ATOM     42  C   UNL     1      53.609  14.667  61.020  1.00  0.00     0.051 A 
ATOM     43  C   UNL     1      53.339  14.263  59.687  1.00  0.00     0.157 A 
BRANCH  41  44
ATOM     44  O   UNL     1      52.714  14.754  57.361  1.00  0.00    -0.504 OA
ATOM     45  H   UNL     1      53.438  14.310  56.803  1.00  0.00     0.293 HD
ENDBRANCH  41  44
BRANCH  43  46
ATOM     46  O   UNL     1      53.485  12.895  59.397  1.00  0.00    -0.504 OA
ATOM     47  H   UNL     1      53.087  12.236  60.107  1.00  0.00     0.293 HD
ENDBRANCH  43  46
ENDBRANCH  28  38
BRANCH  34  48
ATOM     48  O   UNL     1      51.273  23.045  62.026  1.00  0.00    -0.507 OA
ATOM     49  H   UNL     1      51.537  23.833  62.582  1.00  0.00     0.293 HD
ENDBRANCH  34  48
BRANCH  37  50
ATOM     50  O   UNL     1      48.916  20.378  65.215  1.00  0.00    -0.508 OA
ATOM     51  H   UNL     1      47.948  20.721  65.156  1.00  0.00     0.293 HD
ENDBRANCH  37  50
ENDBRANCH  26  27
ENDBRANCH   5  26
BRANCH   4  52
ATOM     52  O   UNL     1      54.296  18.893  56.462  1.00  0.00    -0.384 OA
ATOM     53  H   UNL     1      53.861  18.358  57.197  1.00  0.00     0.211 HD
ENDBRANCH   4  52
TORSDOF 16
ENDMDL
MODEL 4
REMARK VINA RESULT:    -8.095      2.646      8.627
REMARK INTER + INTRA:         -15.004
REMARK INTER:                 -13.036
REMARK INTRA:                  -1.968
REMARK UNBOUND:                -1.704
REMARK SMILES C[C@@H]1O[C@H](OC[C@H]2O[C@@H](Oc3c(-c4ccc(O)c(O)c4)oc4cc(O)cc(O)c4c3=O)[C@@H](O)[C@H](O)[C@@H]2O)[C@H](O)[C@@H](O)[C@H]1O
REMARK SMILES IDX 7 1 36 2 34 3 32 4 9 5 8 6 6 7 5 8 4 9 1 10 2 11 42 12 3 13
REMARK SMILES IDX 40 14 38 15 43 16 41 18 39 20 37 22 35 24 10 26 11 27 12 28
REMARK SMILES IDX 30 29 21 30 29 31 31 32 22 33 27 34 23 35 26 36 24 37 13 38
REMARK SMILES IDX 20 39 14 40 18 41 15 42 16 43 19 44 17 46 28 48 25 50 33 52
REMARK H PARENT 43 17 41 19 39 21 37 23 35 25 19 45 17 47 28 49 25 51 33 53
REMARK Flexibility Score: inf
ROOT
ATOM      1  C   UNL     1      52.148  17.852  55.605  1.00  0.00     0.180 C 
ATOM      2  C   UNL     1      51.950  18.931  54.529  1.00  0.00     0.177 C 
ATOM      3  C   UNL     1      52.769  20.210  54.964  1.00  0.00     0.180 C 
ATOM      4  C   UNL     1      52.631  20.525  56.483  1.00  0.00     0.214 C 
ATOM      5  C   UNL     1      52.043  19.405  57.428  1.00  0.00     0.339 C 
ATOM      6  O   UNL     1      51.512  18.223  56.822  1.00  0.00    -0.332 OA
ENDROOT
BRANCH   1   7
ATOM      7  C   UNL     1      53.610  17.277  55.742  1.00  0.00     0.198 C 
BRANCH   7   8
ATOM      8  O   UNL     1      53.689  15.943  54.989  1.00  0.00    -0.347 OA
BRANCH   8   9
ATOM      9  C   UNL     1      53.591  15.651  53.494  1.00  0.00     0.281 C 
ATOM     10  C   UNL     1      56.422  13.257  52.009  1.00  0.00     0.041 C 
ATOM     11  C   UNL     1      54.968  13.770  52.368  1.00  0.00     0.150 C 
ATOM     12  C   UNL     1      53.969  12.648  52.998  1.00  0.00     0.174 C 
ATOM     13  O   UNL     1      54.893  15.149  52.901  1.00  0.00    -0.344 OA
ATOM     14  C   UNL     1      52.948  13.514  53.780  1.00  0.00     0.179 C 
ATOM     15  C   UNL     1      52.564  14.695  52.947  1.00  0.00     0.202 C 
BRANCH  12  16
ATOM     16  O   UNL     1      53.289  11.800  52.095  1.00  0.00    -0.388 OA
ATOM     17  H   UNL     1      52.921  11.109  52.745  1.00  0.00     0.211 HD
ENDBRANCH  12  16
BRANCH  14  18
ATOM     18  O   UNL     1      51.770  13.252  54.489  1.00  0.00    -0.387 OA
ATOM     19  H   UNL     1      51.746  12.286  54.738  1.00  0.00     0.211 HD
ENDBRANCH  14  18
BRANCH  15  20
ATOM     20  O   UNL     1      51.239  15.233  53.109  1.00  0.00    -0.385 OA
ATOM     21  H   UNL     1      50.727  14.752  52.417  1.00  0.00     0.211 HD
ENDBRANCH  15  20
ENDBRANCH   8   9
ENDBRANCH   7   8
ENDBRANCH   1   7
BRANCH   2  22
ATOM     22  O   UNL     1      50.567  19.208  54.369  1.00  0.00    -0.387 OA
ATOM     23  H   UNL     1      50.020  18.449  54.748  1.00  0.00     0.211 HD
ENDBRANCH   2  22
BRANCH   3  24
ATOM     24  O   UNL     1      52.474  21.338  54.144  1.00  0.00    -0.387 OA
ATOM     25  H   UNL     1      52.741  21.123  53.204  1.00  0.00     0.211 HD
ENDBRANCH   3  24
BRANCH   5  26
ATOM     26  O   UNL     1      52.965  19.069  58.522  1.00  0.00    -0.454 OA
BRANCH  26  27
ATOM     27  C   UNL     1      52.554  19.063  59.876  1.00  0.00     0.214 A 
ATOM     28  C   UNL     1      52.416  17.827  60.575  1.00  0.00     0.180 A 
ATOM     29  C   UNL     1      52.178  20.249  60.525  1.00  0.00     0.239 A 
ATOM     30  O   UNL     1      51.758  17.845  61.730  1.00  0.00    -0.452 OA
ATOM     31  C   UNL     1      51.498  20.199  61.763  1.00  0.00     0.111 A 
ATOM     32  O   UNL     1      52.425  21.361  60.003  1.00  0.00    -0.285 OA
ATOM     33  C   UNL     1      51.314  18.952  62.349  1.00  0.00     0.146 A 
ATOM     34  C   UNL     1      50.942  21.342  62.394  1.00  0.00     0.134 A 
ATOM     35  C   UNL     1      50.614  18.844  63.572  1.00  0.00     0.094 A 
ATOM     36  C   UNL     1      50.242  21.242  63.599  1.00  0.00     0.093 A 
ATOM     37  C   UNL     1      50.133  20.008  64.229  1.00  0.00     0.123 A 
BRANCH  28  38
ATOM     38  C   UNL     1      52.968  16.538  60.115  1.00  0.00     0.025 A 
ATOM     39  C   UNL     1      52.681  16.060  58.783  1.00  0.00     0.062 A 
ATOM     40  C   UNL     1      53.444  15.622  61.048  1.00  0.00     0.016 A 
ATOM     41  C   UNL     1      52.926  14.734  58.433  1.00  0.00     0.158 A 
ATOM     42  C   UNL     1      53.668  14.279  60.755  1.00  0.00     0.051 A 
ATOM     43  C   UNL     1      53.349  13.854  59.439  1.00  0.00     0.157 A 
BRANCH  41  44
ATOM     44  O   UNL     1      52.590  14.300  57.145  1.00  0.00    -0.504 OA
ATOM     45  H   UNL     1      51.919  13.547  57.028  1.00  0.00     0.293 HD
ENDBRANCH  41  44
BRANCH  43  46
ATOM     46  O   UNL     1      53.535  12.490  59.151  1.00  0.00    -0.504 OA
ATOM     47  H   UNL     1      53.504  12.232  58.138  1.00  0.00     0.293 HD
ENDBRANCH  43  46
ENDBRANCH  28  38
BRANCH  34  48
ATOM     48  O   UNL     1      50.975  22.566  61.731  1.00  0.00    -0.507 OA
ATOM     49  H   UNL     1      50.755  22.662  60.759  1.00  0.00     0.293 HD
ENDBRANCH  34  48
BRANCH  37  50
ATOM     50  O   UNL     1      49.564  19.967  65.485  1.00  0.00    -0.508 OA
ATOM     51  H   UNL     1      49.526  19.075  65.997  1.00  0.00     0.293 HD
ENDBRANCH  37  50
ENDBRANCH  26  27
ENDBRANCH   5  26
BRANCH   4  52
ATOM     52  O   UNL     1      53.892  21.023  56.857  1.00  0.00    -0.384 OA
ATOM     53  H   UNL     1      54.552  20.508  56.298  1.00  0.00     0.211 HD
ENDBRANCH   4  52
TORSDOF 16
ENDMDL
MODEL 5
REMARK VINA RESULT:    -7.824      3.193      9.495
REMARK INTER + INTRA:         -14.558
REMARK INTER:                 -13.186
REMARK INTRA:                  -1.373
REMARK UNBOUND:                -1.704
REMARK SMILES C[C@@H]1O[C@H](OC[C@H]2O[C@@H](Oc3c(-c4ccc(O)c(O)c4)oc4cc(O)cc(O)c4c3=O)[C@@H](O)[C@H](O)[C@@H]2O)[C@H](O)[C@@H](O)[C@H]1O
REMARK SMILES IDX 7 1 36 2 34 3 32 4 9 5 8 6 6 7 5 8 4 9 1 10 2 11 42 12 3 13
REMARK SMILES IDX 40 14 38 15 43 16 41 18 39 20 37 22 35 24 10 26 11 27 12 28
REMARK SMILES IDX 30 29 21 30 29 31 31 32 22 33 27 34 23 35 26 36 24 37 13 38
REMARK SMILES IDX 20 39 14 40 18 41 15 42 16 43 19 44 17 46 28 48 25 50 33 52
REMARK H PARENT 43 17 41 19 39 21 37 23 35 25 19 45 17 47 28 49 25 51 33 53
REMARK Flexibility Score: inf
ROOT
ATOM      1  C   UNL     1      51.664  16.014  54.998  1.00  0.00     0.180 C 
ATOM      2  C   UNL     1      51.078  16.780  53.802  1.00  0.00     0.177 C 
ATOM      3  C   UNL     1      51.723  18.222  53.781  1.00  0.00     0.180 C 
ATOM      4  C   UNL     1      51.820  18.858  55.199  1.00  0.00     0.214 C 
ATOM      5  C   UNL     1      51.629  17.919  56.454  1.00  0.00     0.339 C 
ATOM      6  O   UNL     1      51.212  16.569  56.228  1.00  0.00    -0.332 OA
ENDROOT
BRANCH   1   7
ATOM      7  C   UNL     1      53.203  15.686  54.917  1.00  0.00     0.198 C 
BRANCH   7   8
ATOM      8  O   UNL     1      53.457  14.808  53.685  1.00  0.00    -0.347 OA
BRANCH   8   9
ATOM      9  C   UNL     1      53.520  13.288  53.557  1.00  0.00     0.281 C 
ATOM     10  C   UNL     1      50.300  11.551  51.956  1.00  0.00     0.041 C 
ATOM     11  C   UNL     1      51.820  11.958  52.128  1.00  0.00     0.150 C 
ATOM     12  C   UNL     1      52.570  12.444  50.765  1.00  0.00     0.174 C 
ATOM     13  O   UNL     1      52.154  12.649  53.393  1.00  0.00    -0.344 OA
ATOM     14  C   UNL     1      53.728  13.315  51.317  1.00  0.00     0.179 C 
ATOM     15  C   UNL     1      54.349  12.624  52.488  1.00  0.00     0.202 C 
BRANCH  12  16
ATOM     16  O   UNL     1      53.086  11.442  49.912  1.00  0.00    -0.388 OA
ATOM     17  H   UNL     1      53.156  10.669  50.570  1.00  0.00     0.211 HD
ENDBRANCH  12  16
BRANCH  14  18
ATOM     18  O   UNL     1      54.820  13.980  50.748  1.00  0.00    -0.387 OA
ATOM     19  H   UNL     1      54.485  14.691  50.132  1.00  0.00     0.211 HD
ENDBRANCH  14  18
BRANCH  15  20
ATOM     20  O   UNL     1      55.751  12.840  52.733  1.00  0.00    -0.385 OA
ATOM     21  H   UNL     1      55.996  12.054  53.275  1.00  0.00     0.211 HD
ENDBRANCH  15  20
ENDBRANCH   8   9
ENDBRANCH   7   8
ENDBRANCH   1   7
BRANCH   2  22
ATOM     22  O   UNL     1      49.662  16.827  53.902  1.00  0.00    -0.387 OA
ATOM     23  H   UNL     1      49.252  16.743  52.984  1.00  0.00     0.211 HD
ENDBRANCH   2  22
BRANCH   3  24
ATOM     24  O   UNL     1      51.083  19.080  52.841  1.00  0.00    -0.387 OA
ATOM     25  H   UNL     1      51.790  19.564  52.324  1.00  0.00     0.211 HD
ENDBRANCH   3  24
BRANCH   5  26
ATOM     26  O   UNL     1      52.785  17.969  57.360  1.00  0.00    -0.454 OA
BRANCH  26  27
ATOM     27  C   UNL     1      52.709  18.558  58.643  1.00  0.00     0.214 A 
ATOM     28  C   UNL     1      52.778  17.740  59.810  1.00  0.00     0.180 A 
ATOM     29  C   UNL     1      52.463  19.931  58.798  1.00  0.00     0.239 A 
ATOM     30  O   UNL     1      52.414  18.287  60.966  1.00  0.00    -0.452 OA
ATOM     31  C   UNL     1      52.100  20.452  60.061  1.00  0.00     0.111 A 
ATOM     32  O   UNL     1      52.545  20.702  57.815  1.00  0.00    -0.285 OA
ATOM     33  C   UNL     1      52.098  19.580  61.143  1.00  0.00     0.146 A 
ATOM     34  C   UNL     1      51.676  21.792  60.259  1.00  0.00     0.134 A 
ATOM     35  C   UNL     1      51.713  20.044  62.422  1.00  0.00     0.094 A 
ATOM     36  C   UNL     1      51.286  22.256  61.518  1.00  0.00     0.093 A 
ATOM     37  C   UNL     1      51.368  21.408  62.616  1.00  0.00     0.123 A 
BRANCH  28  38
ATOM     38  C   UNL     1      53.243  16.339  59.825  1.00  0.00     0.025 A 
ATOM     39  C   UNL     1      53.072  15.506  58.659  1.00  0.00     0.062 A 
ATOM     40  C   UNL     1      53.503  15.713  61.041  1.00  0.00     0.016 A 
ATOM     41  C   UNL     1      53.217  14.123  58.743  1.00  0.00     0.158 A 
ATOM     42  C   UNL     1      53.618  14.333  61.181  1.00  0.00     0.051 A 
ATOM     43  C   UNL     1      53.419  13.557  60.010  1.00  0.00     0.157 A 
BRANCH  41  44
ATOM     44  O   UNL     1      52.996  13.348  57.597  1.00  0.00    -0.504 OA
ATOM     45  H   UNL     1      52.066  12.987  57.407  1.00  0.00     0.293 HD
ENDBRANCH  41  44
BRANCH  43  46
ATOM     46  O   UNL     1      53.494  12.160  60.155  1.00  0.00    -0.504 OA
ATOM     47  H   UNL     1      53.450  11.608  59.266  1.00  0.00     0.293 HD
ENDBRANCH  43  46
ENDBRANCH  28  38
BRANCH  34  48
ATOM     48  O   UNL     1      51.513  22.622  59.153  1.00  0.00    -0.507 OA
ATOM     49  H   UNL     1      50.753  22.525  58.509  1.00  0.00     0.293 HD
ENDBRANCH  34  48
BRANCH  37  50
ATOM     50  O   UNL     1      51.115  21.936  63.866  1.00  0.00    -0.508 OA
ATOM     51  H   UNL     1      51.893  22.305  64.428  1.00  0.00     0.293 HD
ENDBRANCH  37  50
ENDBRANCH  26  27
ENDBRANCH   5  26
BRANCH   4  52
ATOM     52  O   UNL     1      53.019  19.591  55.177  1.00  0.00    -0.384 OA
ATOM     53  H   UNL     1      52.949  20.232  55.950  1.00  0.00     0.211 HD
ENDBRANCH   4  52
TORSDOF 16
ENDMDL
MODEL 6
REMARK VINA RESULT:    -7.395      2.587      4.336
REMARK INTER + INTRA:         -13.854
REMARK INTER:                 -12.714
REMARK INTRA:                  -1.140
REMARK UNBOUND:                -1.704
REMARK SMILES C[C@@H]1O[C@H](OC[C@H]2O[C@@H](Oc3c(-c4ccc(O)c(O)c4)oc4cc(O)cc(O)c4c3=O)[C@@H](O)[C@H](O)[C@@H]2O)[C@H](O)[C@@H](O)[C@H]1O
REMARK SMILES IDX 7 1 36 2 34 3 32 4 9 5 8 6 6 7 5 8 4 9 1 10 2 11 42 12 3 13
REMARK SMILES IDX 40 14 38 15 43 16 41 18 39 20 37 22 35 24 10 26 11 27 12 28
REMARK SMILES IDX 30 29 21 30 29 31 31 32 22 33 27 34 23 35 26 36 24 37 13 38
REMARK SMILES IDX 20 39 14 40 18 41 15 42 16 43 19 44 17 46 28 48 25 50 33 52
REMARK H PARENT 43 17 41 19 39 21 37 23 35 25 19 45 17 47 28 49 25 51 33 53
REMARK Flexibility Score: inf
ROOT
ATOM      1  C   UNL     1      53.490  19.475  58.012  1.00  0.00     0.180 C 
ATOM      2  C   UNL     1      53.869  20.896  58.455  1.00  0.00     0.177 C 
ATOM      3  C   UNL     1      52.916  21.911  57.708  1.00  0.00     0.180 C 
ATOM      4  C   UNL     1      52.702  21.544  56.209  1.00  0.00     0.214 C 
ATOM      5  C   UNL     1      53.120  20.099  55.728  1.00  0.00     0.339 C 
ATOM      6  O   UNL     1      53.826  19.260  56.646  1.00  0.00    -0.332 OA
ENDROOT
BRANCH   1   7
ATOM      7  C   UNL     1      52.063  18.974  58.455  1.00  0.00     0.198 C 
BRANCH   7   8
ATOM      8  O   UNL     1      51.755  19.532  59.851  1.00  0.00    -0.347 OA
BRANCH   8   9
ATOM      9  C   UNL     1      51.927  18.890  61.226  1.00  0.00     0.281 C 
ATOM     10  C   UNL     1      50.069  20.735  64.241  1.00  0.00     0.041 C 
ATOM     11  C   UNL     1      50.461  19.565  63.250  1.00  0.00     0.150 C 
ATOM     12  C   UNL     1      49.209  18.722  62.636  1.00  0.00     0.174 C 
ATOM     13  O   UNL     1      51.616  19.840  62.366  1.00  0.00    -0.344 OA
ATOM     14  C   UNL     1      49.807  18.142  61.329  1.00  0.00     0.179 C 
ATOM     15  C   UNL     1      51.186  17.634  61.603  1.00  0.00     0.202 C 
BRANCH  12  16
ATOM     16  O   UNL     1      48.676  17.678  63.426  1.00  0.00    -0.388 OA
ATOM     17  H   UNL     1      49.260  17.767  64.254  1.00  0.00     0.211 HD
ENDBRANCH  12  16
BRANCH  14  18
ATOM     18  O   UNL     1      49.353  17.260  60.342  1.00  0.00    -0.387 OA
ATOM     19  H   UNL     1      49.950  16.461  60.318  1.00  0.00     0.211 HD
ENDBRANCH  14  18
BRANCH  15  20
ATOM     20  O   UNL     1      51.661  16.518  60.826  1.00  0.00    -0.385 OA
ATOM     21  H   UNL     1      52.637  16.572  60.949  1.00  0.00     0.211 HD
ENDBRANCH  15  20
ENDBRANCH   8   9
ENDBRANCH   7   8
ENDBRANCH   1   7
BRANCH   2  22
ATOM     22  O   UNL     1      55.239  21.142  58.175  1.00  0.00    -0.387 OA
ATOM     23  H   UNL     1      55.501  20.682  57.317  1.00  0.00     0.211 HD
ENDBRANCH   2  22
BRANCH   3  24
ATOM     24  O   UNL     1      53.330  23.263  57.883  1.00  0.00    -0.387 OA
ATOM     25  H   UNL     1      52.649  23.731  58.447  1.00  0.00     0.211 HD
ENDBRANCH   3  24
BRANCH   5  26
ATOM     26  O   UNL     1      51.997  19.378  55.110  1.00  0.00    -0.454 OA
BRANCH  26  27
ATOM     27  C   UNL     1      52.058  17.994  54.826  1.00  0.00     0.214 A 
ATOM     28  C   UNL     1      51.033  17.122  55.300  1.00  0.00     0.180 A 
ATOM     29  C   UNL     1      53.165  17.436  54.170  1.00  0.00     0.239 A 
ATOM     30  O   UNL     1      51.274  15.815  55.266  1.00  0.00    -0.452 OA
ATOM     31  C   UNL     1      53.353  16.035  54.153  1.00  0.00     0.111 A 
ATOM     32  O   UNL     1      54.007  18.176  53.610  1.00  0.00    -0.285 OA
ATOM     33  C   UNL     1      52.357  15.244  54.714  1.00  0.00     0.146 A 
ATOM     34  C   UNL     1      54.527  15.411  53.657  1.00  0.00     0.134 A 
ATOM     35  C   UNL     1      52.510  13.839  54.750  1.00  0.00     0.094 A 
ATOM     36  C   UNL     1      54.688  14.024  53.697  1.00  0.00     0.093 A 
ATOM     37  C   UNL     1      53.656  13.227  54.178  1.00  0.00     0.123 A 
BRANCH  28  38
ATOM     38  C   UNL     1      49.720  17.569  55.804  1.00  0.00     0.025 A 
ATOM     39  C   UNL     1      48.622  17.772  54.890  1.00  0.00     0.062 A 
ATOM     40  C   UNL     1      49.627  18.142  57.070  1.00  0.00     0.016 A 
ATOM     41  C   UNL     1      47.485  18.473  55.284  1.00  0.00     0.158 A 
ATOM     42  C   UNL     1      48.528  18.883  57.495  1.00  0.00     0.051 A 
ATOM     43  C   UNL     1      47.486  19.073  56.551  1.00  0.00     0.157 A 
BRANCH  41  44
ATOM     44  O   UNL     1      46.463  18.687  54.350  1.00  0.00    -0.504 OA
ATOM     45  H   UNL     1      45.831  17.928  54.114  1.00  0.00     0.293 HD
ENDBRANCH  41  44
BRANCH  43  46
ATOM     46  O   UNL     1      46.392  19.855  56.963  1.00  0.00    -0.504 OA
ATOM     47  H   UNL     1      46.193  20.700  56.380  1.00  0.00     0.293 HD
ENDBRANCH  43  46
ENDBRANCH  28  38
BRANCH  34  48
ATOM     48  O   UNL     1      55.596  16.205  53.251  1.00  0.00    -0.507 OA
ATOM     49  H   UNL     1      56.549  15.904  53.311  1.00  0.00     0.293 HD
ENDBRANCH  34  48
BRANCH  37  50
ATOM     50  O   UNL     1      53.787  11.858  54.069  1.00  0.00    -0.508 OA
ATOM     51  H   UNL     1      53.272  11.355  53.334  1.00  0.00     0.293 HD
ENDBRANCH  37  50
ENDBRANCH  26  27
ENDBRANCH   5  26
BRANCH   4  52
ATOM     52  O   UNL     1      51.368  21.900  55.944  1.00  0.00    -0.384 OA
ATOM     53  H   UNL     1      50.959  21.085  55.519  1.00  0.00     0.211 HD
ENDBRANCH   4  52
TORSDOF 16
ENDMDL
MODEL 7
REMARK VINA RESULT:    -7.297      4.201      9.775
REMARK INTER + INTRA:         -13.692
REMARK INTER:                 -12.505
REMARK INTRA:                  -1.187
REMARK UNBOUND:                -1.704
REMARK SMILES C[C@@H]1O[C@H](OC[C@H]2O[C@@H](Oc3c(-c4ccc(O)c(O)c4)oc4cc(O)cc(O)c4c3=O)[C@@H](O)[C@H](O)[C@@H]2O)[C@H](O)[C@@H](O)[C@H]1O
REMARK SMILES IDX 7 1 36 2 34 3 32 4 9 5 8 6 6 7 5 8 4 9 1 10 2 11 42 12 3 13
REMARK SMILES IDX 40 14 38 15 43 16 41 18 39 20 37 22 35 24 10 26 11 27 12 28
REMARK SMILES IDX 30 29 21 30 29 31 31 32 22 33 27 34 23 35 26 36 24 37 13 38
REMARK SMILES IDX 20 39 14 40 18 41 15 42 16 43 19 44 17 46 28 48 25 50 33 52
REMARK H PARENT 43 17 41 19 39 21 37 23 35 25 19 45 17 47 28 49 25 51 33 53
REMARK Flexibility Score: inf
ROOT
ATOM      1  C   UNL     1      52.683  12.477  54.901  1.00  0.00     0.180 C 
ATOM      2  C   UNL     1      52.377  12.137  53.434  1.00  0.00     0.177 C 
ATOM      3  C   UNL     1      52.720  13.405  52.556  1.00  0.00     0.180 C 
ATOM      4  C   UNL     1      52.245  14.736  53.210  1.00  0.00     0.214 C 
ATOM      5  C   UNL     1      51.841  14.716  54.736  1.00  0.00     0.339 C 
ATOM      6  O   UNL     1      51.771  13.450  55.398  1.00  0.00    -0.332 OA
ENDROOT
BRANCH   1   7
ATOM      7  C   UNL     1      54.201  12.717  55.249  1.00  0.00     0.198 C 
BRANCH   7   8
ATOM      8  O   UNL     1      54.922  13.225  53.993  1.00  0.00    -0.347 OA
BRANCH   8   9
ATOM      9  C   UNL     1      56.182  12.704  53.305  1.00  0.00     0.281 C 
ATOM     10  C   UNL     1      55.589  10.664  49.923  1.00  0.00     0.041 C 
ATOM     11  C   UNL     1      56.147  11.793  50.882  1.00  0.00     0.150 C 
ATOM     12  C   UNL     1      56.047  13.312  50.302  1.00  0.00     0.174 C 
ATOM     13  O   UNL     1      55.901  11.580  52.326  1.00  0.00    -0.344 OA
ATOM     14  C   UNL     1      56.057  14.164  51.597  1.00  0.00     0.179 C 
ATOM     15  C   UNL     1      57.091  13.624  52.533  1.00  0.00     0.202 C 
BRANCH  12  16
ATOM     16  O   UNL     1      57.073  13.747  49.433  1.00  0.00    -0.388 OA
ATOM     17  H   UNL     1      56.559  13.781  48.555  1.00  0.00     0.211 HD
ENDBRANCH  12  16
BRANCH  14  18
ATOM     18  O   UNL     1      56.086  15.535  51.877  1.00  0.00    -0.387 OA
ATOM     19  H   UNL     1      55.888  15.675  52.845  1.00  0.00     0.211 HD
ENDBRANCH  14  18
BRANCH  15  20
ATOM     20  O   UNL     1      57.744  14.548  53.423  1.00  0.00    -0.385 OA
ATOM     21  H   UNL     1      58.307  15.073  52.808  1.00  0.00     0.211 HD
ENDBRANCH  15  20
ENDBRANCH   8   9
ENDBRANCH   7   8
ENDBRANCH   1   7
BRANCH   2  22
ATOM     22  O   UNL     1      51.019  11.744  53.300  1.00  0.00    -0.387 OA
ATOM     23  H   UNL     1      50.417  12.457  53.685  1.00  0.00     0.211 HD
ENDBRANCH   2  22
BRANCH   3  24
ATOM     24  O   UNL     1      52.266  13.265  51.213  1.00  0.00    -0.387 OA
ATOM     25  H   UNL     1      51.639  12.487  51.172  1.00  0.00     0.211 HD
ENDBRANCH   3  24
BRANCH   5  26
ATOM     26  O   UNL     1      52.621  15.681  55.525  1.00  0.00    -0.454 OA
BRANCH  26  27
ATOM     27  C   UNL     1      52.110  16.276  56.702  1.00  0.00     0.214 A 
ATOM     28  C   UNL     1      51.302  17.449  56.616  1.00  0.00     0.180 A 
ATOM     29  C   UNL     1      52.466  15.796  57.971  1.00  0.00     0.239 A 
ATOM     30  O   UNL     1      51.091  18.133  57.737  1.00  0.00    -0.452 OA
ATOM     31  C   UNL     1      52.195  16.564  59.126  1.00  0.00     0.111 A 
ATOM     32  O   UNL     1      53.044  14.691  58.090  1.00  0.00    -0.285 OA
ATOM     33  C   UNL     1      51.481  17.746  58.962  1.00  0.00     0.146 A 
ATOM     34  C   UNL     1      52.671  16.224  60.419  1.00  0.00     0.134 A 
ATOM     35  C   UNL     1      51.209  18.566  60.081  1.00  0.00     0.094 A 
ATOM     36  C   UNL     1      52.413  17.034  61.528  1.00  0.00     0.093 A 
ATOM     37  C   UNL     1      51.625  18.170  61.380  1.00  0.00     0.123 A 
BRANCH  28  38
ATOM     38  C   UNL     1      50.669  17.941  55.377  1.00  0.00     0.025 A 
ATOM     39  C   UNL     1      49.234  17.902  55.231  1.00  0.00     0.062 A 
ATOM     40  C   UNL     1      51.438  18.098  54.227  1.00  0.00     0.016 A 
ATOM     41  C   UNL     1      48.640  18.069  53.982  1.00  0.00     0.158 A 
ATOM     42  C   UNL     1      50.890  18.230  52.954  1.00  0.00     0.051 A 
ATOM     43  C   UNL     1      49.476  18.161  52.860  1.00  0.00     0.157 A 
BRANCH  41  44
ATOM     44  O   UNL     1      47.246  17.976  53.877  1.00  0.00    -0.504 OA
ATOM     45  H   UNL     1      46.722  17.471  54.585  1.00  0.00     0.293 HD
ENDBRANCH  41  44
BRANCH  43  46
ATOM     46  O   UNL     1      48.921  18.253  51.571  1.00  0.00    -0.504 OA
ATOM     47  H   UNL     1      49.146  17.463  50.923  1.00  0.00     0.293 HD
ENDBRANCH  43  46
ENDBRANCH  28  38
BRANCH  34  48
ATOM     48  O   UNL     1      53.528  15.136  60.561  1.00  0.00    -0.507 OA
ATOM     49  H   UNL     1      54.519  15.235  60.662  1.00  0.00     0.293 HD
ENDBRANCH  34  48
BRANCH  37  50
ATOM     50  O   UNL     1      51.269  18.867  62.516  1.00  0.00    -0.508 OA
ATOM     51  H   UNL     1      51.905  19.582  62.893  1.00  0.00     0.293 HD
ENDBRANCH  37  50
ENDBRANCH  26  27
ENDBRANCH   5  26
BRANCH   4  52
ATOM     52  O   UNL     1      53.234  15.673  52.865  1.00  0.00    -0.384 OA
ATOM     53  H   UNL     1      54.063  15.369  53.349  1.00  0.00     0.211 HD
ENDBRANCH   4  52
TORSDOF 16
ENDMDL
MODEL 8
REMARK VINA RESULT:    -7.246      2.092      8.536
REMARK INTER + INTRA:         -13.609
REMARK INTER:                 -10.420
REMARK INTRA:                  -3.188
REMARK UNBOUND:                -1.704
REMARK SMILES C[C@@H]1O[C@H](OC[C@H]2O[C@@H](Oc3c(-c4ccc(O)c(O)c4)oc4cc(O)cc(O)c4c3=O)[C@@H](O)[C@H](O)[C@@H]2O)[C@H](O)[C@@H](O)[C@H]1O
REMARK SMILES IDX 7 1 36 2 34 3 32 4 9 5 8 6 6 7 5 8 4 9 1 10 2 11 42 12 3 13
REMARK SMILES IDX 40 14 38 15 43 16 41 18 39 20 37 22 35 24 10 26 11 27 12 28
REMARK SMILES IDX 30 29 21 30 29 31 31 32 22 33 27 34 23 35 26 36 24 37 13 38
REMARK SMILES IDX 20 39 14 40 18 41 15 42 16 43 19 44 17 46 28 48 25 50 33 52
REMARK H PARENT 43 17 41 19 39 21 37 23 35 25 19 45 17 47 28 49 25 51 33 53
REMARK Flexibility Score: inf
ROOT
ATOM      1  C   UNL     1      53.520  18.189  58.915  1.00  0.00     0.180 C 
ATOM      2  C   UNL     1      54.186  16.994  59.615  1.00  0.00     0.177 C 
ATOM      3  C   UNL     1      53.236  16.523  60.787  1.00  0.00     0.180 C 
ATOM      4  C   UNL     1      52.630  17.715  61.586  1.00  0.00     0.214 C 
ATOM      5  C   UNL     1      52.720  19.159  60.955  1.00  0.00     0.339 C 
ATOM      6  O   UNL     1      53.496  19.329  59.766  1.00  0.00    -0.332 OA
ENDROOT
BRANCH   1   7
ATOM      7  C   UNL     1      52.179  17.876  58.147  1.00  0.00     0.198 C 
BRANCH   7   8
ATOM      8  O   UNL     1      52.247  18.516  56.754  1.00  0.00    -0.347 OA
BRANCH   8   9
ATOM      9  C   UNL     1      52.962  18.044  55.490  1.00  0.00     0.281 C 
ATOM     10  C   UNL     1      52.898  14.104  54.835  1.00  0.00     0.041 C 
ATOM     11  C   UNL     1      52.667  15.646  54.559  1.00  0.00     0.150 C 
ATOM     12  C   UNL     1      51.192  16.039  53.989  1.00  0.00     0.174 C 
ATOM     13  O   UNL     1      53.311  16.568  55.522  1.00  0.00    -0.344 OA
ATOM     14  C   UNL     1      51.061  17.526  54.404  1.00  0.00     0.179 C 
ATOM     15  C   UNL     1      52.350  18.231  54.127  1.00  0.00     0.202 C 
BRANCH  12  16
ATOM     16  O   UNL     1      50.975  15.906  52.599  1.00  0.00    -0.388 OA
ATOM     17  H   UNL     1      51.873  15.521  52.315  1.00  0.00     0.211 HD
ENDBRANCH  12  16
BRANCH  14  18
ATOM     18  O   UNL     1      50.115  18.533  54.181  1.00  0.00    -0.387 OA
ATOM     19  H   UNL     1      49.699  18.398  53.284  1.00  0.00     0.211 HD
ENDBRANCH  14  18
BRANCH  15  20
ATOM     20  O   UNL     1      52.295  19.629  53.788  1.00  0.00    -0.385 OA
ATOM     21  H   UNL     1      51.860  19.617  52.904  1.00  0.00     0.211 HD
ENDBRANCH  15  20
ENDBRANCH   8   9
ENDBRANCH   7   8
ENDBRANCH   1   7
BRANCH   2  22
ATOM     22  O   UNL     1      55.474  17.363  60.084  1.00  0.00    -0.387 OA
ATOM     23  H   UNL     1      55.480  18.341  60.332  1.00  0.00     0.211 HD
ENDBRANCH   2  22
BRANCH   3  24
ATOM     24  O   UNL     1      53.864  15.563  61.632  1.00  0.00    -0.387 OA
ATOM     25  H   UNL     1      53.494  15.666  62.556  1.00  0.00     0.211 HD
ENDBRANCH   3  24
BRANCH   5  26
ATOM     26  O   UNL     1      51.395  19.781  60.814  1.00  0.00    -0.454 OA
BRANCH  26  27
ATOM     27  C   UNL     1      51.088  21.034  61.394  1.00  0.00     0.214 A 
ATOM     28  C   UNL     1      51.460  22.240  60.727  1.00  0.00     0.180 A 
ATOM     29  C   UNL     1      50.509  21.121  62.669  1.00  0.00     0.239 A 
ATOM     30  O   UNL     1      51.417  23.368  61.430  1.00  0.00    -0.452 OA
ATOM     31  C   UNL     1      50.478  22.357  63.354  1.00  0.00     0.111 A 
ATOM     32  O   UNL     1      50.034  20.101  63.218  1.00  0.00    -0.285 OA
ATOM     33  C   UNL     1      50.941  23.481  62.680  1.00  0.00     0.146 A 
ATOM     34  C   UNL     1      50.064  22.489  64.706  1.00  0.00     0.134 A 
ATOM     35  C   UNL     1      50.959  24.736  63.332  1.00  0.00     0.094 A 
ATOM     36  C   UNL     1      50.086  23.725  65.358  1.00  0.00     0.093 A 
ATOM     37  C   UNL     1      50.467  24.863  64.658  1.00  0.00     0.123 A 
BRANCH  28  38
ATOM     38  C   UNL     1      51.868  22.323  59.312  1.00  0.00     0.025 A 
ATOM     39  C   UNL     1      51.054  21.717  58.285  1.00  0.00     0.062 A 
ATOM     40  C   UNL     1      53.183  22.648  58.993  1.00  0.00     0.016 A 
ATOM     41  C   UNL     1      51.557  21.515  57.002  1.00  0.00     0.158 A 
ATOM     42  C   UNL     1      53.741  22.430  57.736  1.00  0.00     0.051 A 
ATOM     43  C   UNL     1      52.907  21.811  56.769  1.00  0.00     0.157 A 
BRANCH  41  44
ATOM     44  O   UNL     1      50.749  20.881  56.049  1.00  0.00    -0.504 OA
ATOM     45  H   UNL     1      50.234  20.044  56.306  1.00  0.00     0.293 HD
ENDBRANCH  41  44
BRANCH  43  46
ATOM     46  O   UNL     1      53.480  21.552  55.511  1.00  0.00    -0.504 OA
ATOM     47  H   UNL     1      53.805  22.392  54.978  1.00  0.00     0.293 HD
ENDBRANCH  43  46
ENDBRANCH  28  38
BRANCH  34  48
ATOM     48  O   UNL     1      49.761  21.344  65.437  1.00  0.00    -0.507 OA
ATOM     49  H   UNL     1      50.127  20.441  65.207  1.00  0.00     0.293 HD
ENDBRANCH  34  48
BRANCH  37  50
ATOM     50  O   UNL     1      50.340  26.085  65.285  1.00  0.00    -0.508 OA
ATOM     51  H   UNL     1      50.222  26.937  64.721  1.00  0.00     0.293 HD
ENDBRANCH  37  50
ENDBRANCH  26  27
ENDBRANCH   5  26
BRANCH   4  52
ATOM     52  O   UNL     1      51.335  17.290  61.928  1.00  0.00    -0.384 OA
ATOM     53  H   UNL     1      51.063  17.874  62.702  1.00  0.00     0.211 HD
ENDBRANCH   4  52
TORSDOF 16
ENDMDL
MODEL 9
REMARK VINA RESULT:    -7.180      2.662      8.572
REMARK INTER + INTRA:         -13.501
REMARK INTER:                 -11.750
REMARK INTRA:                  -1.751
REMARK UNBOUND:                -1.704
REMARK SMILES C[C@@H]1O[C@H](OC[C@H]2O[C@@H](Oc3c(-c4ccc(O)c(O)c4)oc4cc(O)cc(O)c4c3=O)[C@@H](O)[C@H](O)[C@@H]2O)[C@H](O)[C@@H](O)[C@H]1O
REMARK SMILES IDX 7 1 36 2 34 3 32 4 9 5 8 6 6 7 5 8 4 9 1 10 2 11 42 12 3 13
REMARK SMILES IDX 40 14 38 15 43 16 41 18 39 20 37 22 35 24 10 26 11 27 12 28
REMARK SMILES IDX 30 29 21 30 29 31 31 32 22 33 27 34 23 35 26 36 24 37 13 38
REMARK SMILES IDX 20 39 14 40 18 41 15 42 16 43 19 44 17 46 28 48 25 50 33 52
REMARK H PARENT 43 17 41 19 39 21 37 23 35 25 19 45 17 47 28 49 25 51 33 53
REMARK Flexibility Score: inf
ROOT
ATOM      1  C   UNL     1      50.499  16.977  56.026  1.00  0.00     0.180 C 
ATOM      2  C   UNL     1      50.660  17.576  54.620  1.00  0.00     0.177 C 
ATOM      3  C   UNL     1      51.901  18.553  54.644  1.00  0.00     0.180 C 
ATOM      4  C   UNL     1      51.948  19.436  55.926  1.00  0.00     0.214 C 
ATOM      5  C   UNL     1      51.033  19.027  57.147  1.00  0.00     0.339 C 
ATOM      6  O   UNL     1      50.088  17.971  56.958  1.00  0.00    -0.332 OA
ENDROOT
BRANCH   1   7
ATOM      7  C   UNL     1      51.659  16.024  56.504  1.00  0.00     0.198 C 
BRANCH   7   8
ATOM      8  O   UNL     1      51.746  14.831  55.544  1.00  0.00    -0.347 OA
BRANCH   8   9
ATOM      9  C   UNL     1      52.927  14.309  54.730  1.00  0.00     0.281 C 
ATOM     10  C   UNL     1      52.837  10.414  53.851  1.00  0.00     0.041 C 
ATOM     11  C   UNL     1      52.898  11.976  53.606  1.00  0.00     0.150 C 
ATOM     12  C   UNL     1      51.906  12.539  52.442  1.00  0.00     0.174 C 
ATOM     13  O   UNL     1      53.090  12.804  54.819  1.00  0.00    -0.344 OA
ATOM     14  C   UNL     1      51.724  14.023  52.850  1.00  0.00     0.179 C 
ATOM     15  C   UNL     1      53.048  14.589  53.255  1.00  0.00     0.202 C 
BRANCH  12  16
ATOM     16  O   UNL     1      52.357  12.459  51.106  1.00  0.00    -0.388 OA
ATOM     17  H   UNL     1      53.028  13.224  51.099  1.00  0.00     0.211 HD
ENDBRANCH  12  16
BRANCH  14  18
ATOM     18  O   UNL     1      51.086  15.132  52.282  1.00  0.00    -0.387 OA
ATOM     19  H   UNL     1      51.594  15.958  52.517  1.00  0.00     0.211 HD
ENDBRANCH  14  18
BRANCH  15  20
ATOM     20  O   UNL     1      53.280  15.991  53.026  1.00  0.00    -0.385 OA
ATOM     21  H   UNL     1      53.556  16.308  53.917  1.00  0.00     0.211 HD
ENDBRANCH  15  20
ENDBRANCH   8   9
ENDBRANCH   7   8
ENDBRANCH   1   7
BRANCH   2  22
ATOM     22  O   UNL     1      49.464  18.237  54.235  1.00  0.00    -0.387 OA
ATOM     23  H   UNL     1      48.712  17.569  54.161  1.00  0.00     0.211 HD
ENDBRANCH   2  22
BRANCH   3  24
ATOM     24  O   UNL     1      52.000  19.322  53.449  1.00  0.00    -0.387 OA
ATOM     25  H   UNL     1      51.239  19.971  53.428  1.00  0.00     0.211 HD
ENDBRANCH   3  24
BRANCH   5  26
ATOM     26  O   UNL     1      51.815  18.822  58.375  1.00  0.00    -0.454 OA
BRANCH  26  27
ATOM     27  C   UNL     1      51.351  19.249  59.641  1.00  0.00     0.214 A 
ATOM     28  C   UNL     1      51.851  20.455  60.216  1.00  0.00     0.180 A 
ATOM     29  C   UNL     1      50.477  18.455  60.399  1.00  0.00     0.239 A 
ATOM     30  O   UNL     1      51.617  20.664  61.508  1.00  0.00    -0.452 OA
ATOM     31  C   UNL     1      50.255  18.743  61.765  1.00  0.00     0.111 A 
ATOM     32  O   UNL     1      49.902  17.473  59.877  1.00  0.00    -0.285 OA
ATOM     33  C   UNL     1      50.848  19.887  62.288  1.00  0.00     0.146 A 
ATOM     34  C   UNL     1      49.521  17.893  62.633  1.00  0.00     0.134 A 
ATOM     35  C   UNL     1      50.681  20.204  63.655  1.00  0.00     0.094 A 
ATOM     36  C   UNL     1      49.360  18.196  63.987  1.00  0.00     0.093 A 
ATOM     37  C   UNL     1      49.878  19.384  64.490  1.00  0.00     0.123 A 
BRANCH  28  38
ATOM     38  C   UNL     1      52.592  21.493  59.472  1.00  0.00     0.025 A 
ATOM     39  C   UNL     1      51.946  22.221  58.406  1.00  0.00     0.062 A 
ATOM     40  C   UNL     1      53.982  21.525  59.535  1.00  0.00     0.016 A 
ATOM     41  C   UNL     1      52.693  22.972  57.501  1.00  0.00     0.158 A 
ATOM     42  C   UNL     1      54.771  22.231  58.631  1.00  0.00     0.051 A 
ATOM     43  C   UNL     1      54.091  22.910  57.587  1.00  0.00     0.157 A 
BRANCH  41  44
ATOM     44  O   UNL     1      52.031  23.624  56.453  1.00  0.00    -0.504 OA
ATOM     45  H   UNL     1      51.074  23.367  56.227  1.00  0.00     0.293 HD
ENDBRANCH  41  44
BRANCH  43  46
ATOM     46  O   UNL     1      54.887  23.590  56.649  1.00  0.00    -0.504 OA
ATOM     47  H   UNL     1      54.475  23.691  55.692  1.00  0.00     0.293 HD
ENDBRANCH  43  46
ENDBRANCH  28  38
BRANCH  34  48
ATOM     48  O   UNL     1      49.070  16.665  62.156  1.00  0.00    -0.507 OA
ATOM     49  H   UNL     1      48.109  16.390  62.190  1.00  0.00     0.293 HD
ENDBRANCH  34  48
BRANCH  37  50
ATOM     50  O   UNL     1      49.578  19.723  65.794  1.00  0.00    -0.508 OA
ATOM     51  H   UNL     1      50.265  20.244  66.354  1.00  0.00     0.293 HD
ENDBRANCH  37  50
ENDBRANCH  26  27
ENDBRANCH   5  26
BRANCH   4  52
ATOM     52  O   UNL     1      53.316  19.563  56.219  1.00  0.00    -0.384 OA
ATOM     53  H   UNL     1      53.396  20.427  56.729  1.00  0.00     0.211 HD
ENDBRANCH   4  52
TORSDOF 16
ENDMDL
