MODEL 1
REMARK VINA RESULT:    -5.051      0.000      0.000
REMARK INTER + INTRA:          -9.506
REMARK INTER:                  -8.594
REMARK INTRA:                  -0.911
REMARK UNBOUND:                -0.911
REMARK SMILES CCCCCCCCCCCCCC(=O)[O-]
REMARK SMILES IDX 8 1 9 2 10 3 11 4 12 5 13 6 14 7 15 8 16 9 7 10 6 11 5 12
REMARK SMILES IDX 4 13 3 14 2 15 1 16
REMARK H PARENT
REMARK Flexibility Score: inf
ROOT
ATOM      1  C   UNL     1      -0.498  -1.692   9.628  1.00  0.00     0.000 C 
ENDROOT
BRANCH   1   2
ATOM      2  C   UNL     1      -0.191  -0.341   8.957  1.00  0.00     0.000 C 
BRANCH   2   3
ATOM      3  C   UNL     1      -1.399   0.230   8.197  1.00  0.00     0.000 C 
BRANCH   3   4
ATOM      4  C   UNL     1      -1.214   0.183   6.671  1.00  0.00     0.000 C 
BRANCH   4   5
ATOM      5  C   UNL     1      -1.212  -1.258   6.121  1.00  0.00     0.006 C 
BRANCH   5   6
ATOM      6  C   UNL     1      -1.532  -1.344   4.621  1.00  0.00     0.053 C 
BRANCH   6   7
ATOM      7  C   UNL     1      -1.527  -2.752   4.116  1.00  0.00     0.041 C 
ATOM      8  O   UNL     1      -1.272  -2.990   2.906  1.00  0.00    -0.550 OA
ATOM      9  O   UNL     1      -1.830  -3.802   4.975  1.00  0.00    -0.550 OA
ENDBRANCH   6   7
ENDBRANCH   5   6
ENDBRANCH   4   5
ENDBRANCH   3   4
ENDBRANCH   2   3
ENDBRANCH   1   2
BRANCH   1  10
ATOM     10  C   UNL     1       0.749  -2.579   9.768  1.00  0.00     0.000 C 
BRANCH  10  11
ATOM     11  C   UNL     1       0.442  -4.069   9.555  1.00  0.00    -0.000 C 
BRANCH  11  12
ATOM     12  C   UNL     1      -0.212  -4.303   8.185  1.00  0.00    -0.000 C 
BRANCH  12  13
ATOM     13  C   UNL     1       0.529  -5.355   7.344  1.00  0.00    -0.000 C 
BRANCH  13  14
ATOM     14  C   UNL     1      -0.392  -6.495   6.877  1.00  0.00    -0.000 C 
BRANCH  14  15
ATOM     15  C   UNL     1      -1.391  -6.927   7.962  1.00  0.00    -0.003 C 
ATOM     16  C   UNL     1      -1.786  -8.400   7.853  1.00  0.00     0.004 C 
ENDBRANCH  14  15
ENDBRANCH  13  14
ENDBRANCH  12  13
ENDBRANCH  11  12
ENDBRANCH  10  11
ENDBRANCH   1  10
TORSDOF 12
ENDMDL
MODEL 2
REMARK VINA RESULT:    -4.775      1.703      4.887
REMARK INTER + INTRA:          -9.037
REMARK INTER:                  -8.199
REMARK INTRA:                  -0.837
REMARK UNBOUND:                -0.911
REMARK SMILES CCCCCCCCCCCCCC(=O)[O-]
REMARK SMILES IDX 8 1 9 2 10 3 11 4 12 5 13 6 14 7 15 8 16 9 7 10 6 11 5 12
REMARK SMILES IDX 4 13 3 14 2 15 1 16
REMARK H PARENT
REMARK Flexibility Score: inf
ROOT
ATOM      1  C   UNL     1      -0.398   0.032   8.381  1.00  0.00     0.000 C 
ENDROOT
BRANCH   1   2
ATOM      2  C   UNL     1      -0.627  -0.902   9.583  1.00  0.00     0.000 C 
BRANCH   2   3
ATOM      3  C   UNL     1       0.439  -2.004   9.687  1.00  0.00     0.000 C 
BRANCH   3   4
ATOM      4  C   UNL     1      -0.155  -3.417   9.547  1.00  0.00     0.000 C 
BRANCH   4   5
ATOM      5  C   UNL     1       0.775  -4.372   8.772  1.00  0.00     0.006 C 
BRANCH   5   6
ATOM      6  C   UNL     1       0.270  -5.823   8.732  1.00  0.00     0.053 C 
BRANCH   6   7
ATOM      7  C   UNL     1      -0.405  -6.157   7.440  1.00  0.00     0.041 C 
ATOM      8  O   UNL     1      -0.048  -5.590   6.373  1.00  0.00    -0.550 OA
ATOM      9  O   UNL     1      -1.449  -7.074   7.415  1.00  0.00    -0.550 OA
ENDBRANCH   6   7
ENDBRANCH   5   6
ENDBRANCH   4   5
ENDBRANCH   3   4
ENDBRANCH   2   3
ENDBRANCH   1   2
BRANCH   1  10
ATOM     10  C   UNL     1      -1.570   0.013   7.387  1.00  0.00     0.000 C 
BRANCH  10  11
ATOM     11  C   UNL     1      -1.170   0.517   5.992  1.00  0.00    -0.000 C 
BRANCH  11  12
ATOM     12  C   UNL     1      -1.424  -0.560   4.927  1.00  0.00    -0.000 C 
BRANCH  12  13
ATOM     13  C   UNL     1      -1.513  -1.975   5.519  1.00  0.00    -0.000 C 
BRANCH  13  14
ATOM     14  C   UNL     1      -1.490  -3.071   4.440  1.00  0.00    -0.000 C 
BRANCH  14  15
ATOM     15  C   UNL     1      -1.137  -2.522   3.049  1.00  0.00    -0.003 C 
ATOM     16  C   UNL     1      -1.655  -3.404   1.913  1.00  0.00     0.004 C 
ENDBRANCH  14  15
ENDBRANCH  13  14
ENDBRANCH  12  13
ENDBRANCH  11  12
ENDBRANCH  10  11
ENDBRANCH   1  10
TORSDOF 12
ENDMDL
MODEL 3
REMARK VINA RESULT:    -4.664      2.547      4.361
REMARK INTER + INTRA:          -8.848
REMARK INTER:                  -8.009
REMARK INTRA:                  -0.839
REMARK UNBOUND:                -0.911
REMARK SMILES CCCCCCCCCCCCCC(=O)[O-]
REMARK SMILES IDX 8 1 9 2 10 3 11 4 12 5 13 6 14 7 15 8 16 9 7 10 6 11 5 12
REMARK SMILES IDX 4 13 3 14 2 15 1 16
REMARK H PARENT
REMARK Flexibility Score: inf
ROOT
ATOM      1  C   UNL     1      -1.476  -4.092   5.123  1.00  0.00     0.000 C 
ENDROOT
BRANCH   1   2
ATOM      2  C   UNL     1      -1.539  -2.605   4.731  1.00  0.00     0.000 C 
BRANCH   2   3
ATOM      3  C   UNL     1      -1.181  -1.670   5.898  1.00  0.00     0.000 C 
BRANCH   3   4
ATOM      4  C   UNL     1      -1.346  -0.184   5.538  1.00  0.00     0.000 C 
BRANCH   4   5
ATOM      5  C   UNL     1      -1.182   0.741   6.761  1.00  0.00     0.006 C 
BRANCH   5   6
ATOM      6  C   UNL     1      -1.595   0.084   8.087  1.00  0.00     0.053 C 
BRANCH   6   7
ATOM      7  C   UNL     1      -0.420  -0.237   8.956  1.00  0.00     0.041 C 
ATOM      8  O   UNL     1      -0.416  -1.285   9.655  1.00  0.00    -0.550 OA
ATOM      9  O   UNL     1       0.660   0.635   9.017  1.00  0.00    -0.550 OA
ENDBRANCH   6   7
ENDBRANCH   5   6
ENDBRANCH   4   5
ENDBRANCH   3   4
ENDBRANCH   2   3
ENDBRANCH   1   2
BRANCH   1  10
ATOM     10  C   UNL     1      -0.768  -4.319   6.468  1.00  0.00     0.000 C 
BRANCH  10  11
ATOM     11  C   UNL     1      -0.131  -5.713   6.574  1.00  0.00    -0.000 C 
BRANCH  11  12
ATOM     12  C   UNL     1      -0.492  -6.380   7.909  1.00  0.00    -0.000 C 
BRANCH  12  13
ATOM     13  C   UNL     1      -0.397  -5.416   9.102  1.00  0.00    -0.000 C 
BRANCH  13  14
ATOM     14  C   UNL     1       0.964  -5.488   9.815  1.00  0.00    -0.000 C 
BRANCH  14  15
ATOM     15  C   UNL     1       2.012  -4.561   9.180  1.00  0.00    -0.003 C 
ATOM     16  C   UNL     1       3.176  -5.325   8.548  1.00  0.00     0.004 C 
ENDBRANCH  14  15
ENDBRANCH  13  14
ENDBRANCH  12  13
ENDBRANCH  11  12
ENDBRANCH  10  11
ENDBRANCH   1  10
TORSDOF 12
ENDMDL
MODEL 4
REMARK VINA RESULT:    -4.547      2.494      6.384
REMARK INTER + INTRA:          -8.649
REMARK INTER:                  -7.877
REMARK INTRA:                  -0.771
REMARK UNBOUND:                -0.911
REMARK SMILES CCCCCCCCCCCCCC(=O)[O-]
REMARK SMILES IDX 8 1 9 2 10 3 11 4 12 5 13 6 14 7 15 8 16 9 7 10 6 11 5 12
REMARK SMILES IDX 4 13 3 14 2 15 1 16
REMARK H PARENT
REMARK Flexibility Score: inf
ROOT
ATOM      1  C   UNL     1      -1.015  -4.323   5.103  1.00  0.00     0.000 C 
ENDROOT
BRANCH   1   2
ATOM      2  C   UNL     1      -0.702  -4.433   6.606  1.00  0.00     0.000 C 
BRANCH   2   3
ATOM      3  C   UNL     1       0.146  -5.670   6.944  1.00  0.00     0.000 C 
BRANCH   3   4
ATOM      4  C   UNL     1      -0.682  -6.966   6.965  1.00  0.00     0.000 C 
BRANCH   4   5
ATOM      5  C   UNL     1      -1.493  -7.127   8.266  1.00  0.00     0.006 C 
BRANCH   5   6
ATOM      6  C   UNL     1      -2.622  -8.164   8.163  1.00  0.00     0.053 C 
BRANCH   6   7
ATOM      7  C   UNL     1      -3.960  -7.587   8.499  1.00  0.00     0.041 C 
ATOM      8  O   UNL     1      -4.779  -7.309   7.583  1.00  0.00    -0.550 OA
ATOM      9  O   UNL     1      -4.296  -7.329   9.823  1.00  0.00    -0.550 OA
ENDBRANCH   6   7
ENDBRANCH   5   6
ENDBRANCH   4   5
ENDBRANCH   3   4
ENDBRANCH   2   3
ENDBRANCH   1   2
BRANCH   1  10
ATOM     10  C   UNL     1      -1.611  -2.958   4.722  1.00  0.00     0.000 C 
BRANCH  10  11
ATOM     11  C   UNL     1      -1.423  -1.903   5.823  1.00  0.00    -0.000 C 
BRANCH  11  12
ATOM     12  C   UNL     1      -1.343  -0.492   5.221  1.00  0.00    -0.000 C 
BRANCH  12  13
ATOM     13  C   UNL     1      -1.194   0.603   6.289  1.00  0.00    -0.000 C 
BRANCH  13  14
ATOM     14  C   UNL     1      -1.602   0.122   7.692  1.00  0.00    -0.000 C 
BRANCH  14  15
ATOM     15  C   UNL     1      -0.417   0.081   8.669  1.00  0.00    -0.003 C 
ATOM     16  C   UNL     1      -0.223  -1.293   9.310  1.00  0.00     0.004 C 
ENDBRANCH  14  15
ENDBRANCH  13  14
ENDBRANCH  12  13
ENDBRANCH  11  12
ENDBRANCH  10  11
ENDBRANCH   1  10
TORSDOF 12
ENDMDL
MODEL 5
REMARK VINA RESULT:    -4.498      2.594      5.724
REMARK INTER + INTRA:          -8.564
REMARK INTER:                  -7.895
REMARK INTRA:                  -0.669
REMARK UNBOUND:                -0.911
REMARK SMILES CCCCCCCCCCCCCC(=O)[O-]
REMARK SMILES IDX 8 1 9 2 10 3 11 4 12 5 13 6 14 7 15 8 16 9 7 10 6 11 5 12
REMARK SMILES IDX 4 13 3 14 2 15 1 16
REMARK H PARENT
REMARK Flexibility Score: inf
ROOT
ATOM      1  C   UNL     1       1.195  -3.079  10.038  1.00  0.00     0.000 C 
ENDROOT
BRANCH   1   2
ATOM      2  C   UNL     1       1.498  -4.455   9.420  1.00  0.00     0.000 C 
BRANCH   2   3
ATOM      3  C   UNL     1       0.224  -5.227   9.040  1.00  0.00     0.000 C 
BRANCH   3   4
ATOM      4  C   UNL     1       0.047  -5.364   7.518  1.00  0.00     0.000 C 
BRANCH   4   5
ATOM      5  C   UNL     1      -0.685  -6.663   7.125  1.00  0.00     0.006 C 
BRANCH   5   6
ATOM      6  C   UNL     1      -1.733  -7.114   8.155  1.00  0.00     0.053 C 
BRANCH   6   7
ATOM      7  C   UNL     1      -2.217  -8.507   7.905  1.00  0.00     0.041 C 
ATOM      8  O   UNL     1      -3.420  -8.808   8.126  1.00  0.00    -0.550 OA
ATOM      9  O   UNL     1      -1.335  -9.481   7.453  1.00  0.00    -0.550 OA
ENDBRANCH   6   7
ENDBRANCH   5   6
ENDBRANCH   4   5
ENDBRANCH   3   4
ENDBRANCH   2   3
ENDBRANCH   1   2
BRANCH   1  10
ATOM     10  C   UNL     1      -0.250  -2.622   9.781  1.00  0.00     0.000 C 
BRANCH  10  11
ATOM     11  C   UNL     1      -0.472  -1.141  10.125  1.00  0.00    -0.000 C 
BRANCH  11  12
ATOM     12  C   UNL     1      -0.200  -0.248   8.905  1.00  0.00    -0.000 C 
BRANCH  12  13
ATOM     13  C   UNL     1      -1.472   0.064   8.100  1.00  0.00    -0.000 C 
BRANCH  13  14
ATOM     14  C   UNL     1      -1.217   0.104   6.584  1.00  0.00    -0.000 C 
BRANCH  14  15
ATOM     15  C   UNL     1      -1.252  -1.292   5.944  1.00  0.00    -0.003 C 
ATOM     16  C   UNL     1      -1.609  -1.255   4.457  1.00  0.00     0.004 C 
ENDBRANCH  14  15
ENDBRANCH  13  14
ENDBRANCH  12  13
ENDBRANCH  11  12
ENDBRANCH  10  11
ENDBRANCH   1  10
TORSDOF 12
ENDMDL
MODEL 6
REMARK VINA RESULT:    -4.416      1.859      3.193
REMARK INTER + INTRA:          -8.425
REMARK INTER:                  -7.666
REMARK INTRA:                  -0.759
REMARK UNBOUND:                -0.911
REMARK SMILES CCCCCCCCCCCCCC(=O)[O-]
REMARK SMILES IDX 8 1 9 2 10 3 11 4 12 5 13 6 14 7 15 8 16 9 7 10 6 11 5 12
REMARK SMILES IDX 4 13 3 14 2 15 1 16
REMARK H PARENT
REMARK Flexibility Score: inf
ROOT
ATOM      1  C   UNL     1       0.223  -4.982   9.131  1.00  0.00     0.000 C 
ENDROOT
BRANCH   1   2
ATOM      2  C   UNL     1       0.400  -3.517   9.567  1.00  0.00     0.000 C 
BRANCH   2   3
ATOM      3  C   UNL     1      -0.337  -2.533   8.644  1.00  0.00     0.000 C 
BRANCH   3   4
ATOM      4  C   UNL     1      -0.243  -1.078   9.136  1.00  0.00     0.000 C 
BRANCH   4   5
ATOM      5  C   UNL     1      -0.733  -0.066   8.080  1.00  0.00     0.006 C 
BRANCH   5   6
ATOM      6  C   UNL     1      -1.458  -0.720   6.893  1.00  0.00     0.053 C 
BRANCH   6   7
ATOM      7  C   UNL     1      -1.273   0.044   5.620  1.00  0.00     0.041 C 
ATOM      8  O   UNL     1      -0.843   1.227   5.648  1.00  0.00    -0.550 OA
ATOM      9  O   UNL     1      -1.601  -0.541   4.403  1.00  0.00    -0.550 OA
ENDBRANCH   6   7
ENDBRANCH   5   6
ENDBRANCH   4   5
ENDBRANCH   3   4
ENDBRANCH   2   3
ENDBRANCH   1   2
BRANCH   1  10
ATOM     10  C   UNL     1       0.961  -5.303   7.822  1.00  0.00     0.000 C 
BRANCH  10  11
ATOM     11  C   UNL     1       0.064  -6.009   6.795  1.00  0.00    -0.000 C 
BRANCH  11  12
ATOM     12  C   UNL     1      -1.156  -6.645   7.478  1.00  0.00    -0.000 C 
BRANCH  12  13
ATOM     13  C   UNL     1      -1.173  -8.177   7.360  1.00  0.00    -0.000 C 
BRANCH  13  14
ATOM     14  C   UNL     1      -2.448  -8.802   7.955  1.00  0.00    -0.000 C 
BRANCH  14  15
ATOM     15  C   UNL     1      -3.344  -7.764   8.647  1.00  0.00    -0.003 C 
ATOM     16  C   UNL     1      -4.733  -7.663   8.015  1.00  0.00     0.004 C 
ENDBRANCH  14  15
ENDBRANCH  13  14
ENDBRANCH  12  13
ENDBRANCH  11  12
ENDBRANCH  10  11
ENDBRANCH   1  10
TORSDOF 12
ENDMDL
MODEL 7
REMARK VINA RESULT:    -4.214      4.369      7.300
REMARK INTER + INTRA:          -8.082
REMARK INTER:                  -7.214
REMARK INTRA:                  -0.868
REMARK UNBOUND:                -0.911
REMARK SMILES CCCCCCCCCCCCCC(=O)[O-]
REMARK SMILES IDX 8 1 9 2 10 3 11 4 12 5 13 6 14 7 15 8 16 9 7 10 6 11 5 12
REMARK SMILES IDX 4 13 3 14 2 15 1 16
REMARK H PARENT
REMARK Flexibility Score: inf
ROOT
ATOM      1  C   UNL     1      -2.761  -8.866   9.147  1.00  0.00     0.000 C 
ENDROOT
BRANCH   1   2
ATOM      2  C   UNL     1      -3.880  -9.885   8.865  1.00  0.00     0.000 C 
BRANCH   2   3
ATOM      3  C   UNL     1      -4.582  -9.635   7.521  1.00  0.00     0.000 C 
BRANCH   3   4
ATOM      4  C   UNL     1      -6.038  -9.167   7.691  1.00  0.00     0.000 C 
BRANCH   4   5
ATOM      5  C   UNL     1      -6.212  -8.206   8.885  1.00  0.00     0.006 C 
BRANCH   5   6
ATOM      6  C   UNL     1      -5.932  -6.736   8.537  1.00  0.00     0.053 C 
BRANCH   6   7
ATOM      7  C   UNL     1      -7.112  -5.853   8.794  1.00  0.00     0.041 C 
ATOM      8  O   UNL     1      -7.732  -5.928   9.887  1.00  0.00    -0.550 OA
ATOM      9  O   UNL     1      -7.545  -4.966   7.816  1.00  0.00    -0.550 OA
ENDBRANCH   6   7
ENDBRANCH   5   6
ENDBRANCH   4   5
ENDBRANCH   3   4
ENDBRANCH   2   3
ENDBRANCH   1   2
BRANCH   1  10
ATOM     10  C   UNL     1      -1.958  -8.508   7.887  1.00  0.00     0.000 C 
BRANCH  10  11
ATOM     11  C   UNL     1      -1.568  -7.024   7.835  1.00  0.00    -0.000 C 
BRANCH  11  12
ATOM     12  C   UNL     1      -0.396  -6.798   6.868  1.00  0.00    -0.000 C 
BRANCH  12  13
ATOM     13  C   UNL     1       0.475  -5.594   7.257  1.00  0.00    -0.000 C 
BRANCH  13  14
ATOM     14  C   UNL     1       0.407  -5.276   8.761  1.00  0.00    -0.000 C 
BRANCH  14  15
ATOM     15  C   UNL     1       1.786  -5.326   9.437  1.00  0.00    -0.003 C 
ATOM     16  C   UNL     1       2.940  -5.238   8.437  1.00  0.00     0.004 C 
ENDBRANCH  14  15
ENDBRANCH  13  14
ENDBRANCH  12  13
ENDBRANCH  11  12
ENDBRANCH  10  11
ENDBRANCH   1  10
TORSDOF 12
ENDMDL
MODEL 8
REMARK VINA RESULT:    -4.142      3.109      6.585
REMARK INTER + INTRA:          -7.959
REMARK INTER:                  -6.963
REMARK INTRA:                  -0.996
REMARK UNBOUND:                -0.911
REMARK SMILES CCCCCCCCCCCCCC(=O)[O-]
REMARK SMILES IDX 8 1 9 2 10 3 11 4 12 5 13 6 14 7 15 8 16 9 7 10 6 11 5 12
REMARK SMILES IDX 4 13 3 14 2 15 1 16
REMARK H PARENT
REMARK Flexibility Score: inf
ROOT
ATOM      1  C   UNL     1      -1.746  -6.026   9.760  1.00  0.00     0.000 C 
ENDROOT
BRANCH   1   2
ATOM      2  C   UNL     1      -2.099  -7.514   9.590  1.00  0.00     0.000 C 
BRANCH   2   3
ATOM      3  C   UNL     1      -1.779  -8.040   8.181  1.00  0.00     0.000 C 
BRANCH   3   4
ATOM      4  C   UNL     1      -2.300  -9.470   7.951  1.00  0.00     0.000 C 
BRANCH   4   5
ATOM      5  C   UNL     1      -3.627  -9.739   8.689  1.00  0.00     0.006 C 
BRANCH   5   6
ATOM      6  C   UNL     1      -4.851  -9.768   7.761  1.00  0.00     0.053 C 
BRANCH   6   7
ATOM      7  C   UNL     1      -5.666  -8.518   7.851  1.00  0.00     0.041 C 
ATOM      8  O   UNL     1      -6.859  -8.566   8.253  1.00  0.00    -0.550 OA
ATOM      9  O   UNL     1      -5.120  -7.299   7.466  1.00  0.00    -0.550 OA
ENDBRANCH   6   7
ENDBRANCH   5   6
ENDBRANCH   4   5
ENDBRANCH   3   4
ENDBRANCH   2   3
ENDBRANCH   1   2
BRANCH   1  10
ATOM     10  C   UNL     1      -0.237  -5.794   9.936  1.00  0.00     0.000 C 
BRANCH  10  11
ATOM     11  C   UNL     1       0.347  -4.860   8.865  1.00  0.00    -0.000 C 
BRANCH  11  12
ATOM     12  C   UNL     1       0.687  -5.638   7.585  1.00  0.00    -0.000 C 
BRANCH  12  13
ATOM     13  C   UNL     1      -0.304  -5.365   6.442  1.00  0.00    -0.000 C 
BRANCH  13  14
ATOM     14  C   UNL     1      -0.808  -3.911   6.431  1.00  0.00    -0.000 C 
BRANCH  14  15
ATOM     15  C   UNL     1      -1.540  -3.552   5.129  1.00  0.00    -0.003 C 
ATOM     16  C   UNL     1      -1.567  -2.048   4.858  1.00  0.00     0.004 C 
ENDBRANCH  14  15
ENDBRANCH  13  14
ENDBRANCH  12  13
ENDBRANCH  11  12
ENDBRANCH  10  11
ENDBRANCH   1  10
TORSDOF 12
ENDMDL
