MODEL 1
REMARK VINA RESULT:    -4.219      0.000      0.000
REMARK INTER + INTRA:          -8.597
REMARK INTER:                  -7.672
REMARK INTRA:                  -0.926
REMARK UNBOUND:                -0.926
REMARK SMILES CCCCCCCCCCCCCCCC(=O)[O-]
REMARK SMILES IDX 9 1 10 2 11 3 12 4 13 5 14 6 15 7 16 8 17 9 18 10 8 11 7 12
REMARK SMILES IDX 6 13 5 14 4 15 3 16 2 17 1 18
REMARK H PARENT
REMARK Flexibility Score: inf
ROOT
ATOM      1  C   UNL     1     158.679 157.822 149.907  1.00  0.00     0.000 C 
ENDROOT
BRANCH   1   2
ATOM      2  C   UNL     1     159.824 158.786 150.255  1.00  0.00     0.000 C 
BRANCH   2   3
ATOM      3  C   UNL     1     161.115 158.015 150.567  1.00  0.00     0.000 C 
BRANCH   3   4
ATOM      4  C   UNL     1     162.359 158.642 149.914  1.00  0.00     0.000 C 
BRANCH   4   5
ATOM      5  C   UNL     1     163.074 159.671 150.818  1.00  0.00     0.000 C 
BRANCH   5   6
ATOM      6  C   UNL     1     164.178 159.021 151.674  1.00  0.00     0.006 C 
BRANCH   6   7
ATOM      7  C   UNL     1     165.431 159.900 151.776  1.00  0.00     0.053 C 
BRANCH   7   8
ATOM      8  C   UNL     1     166.366 159.418 152.843  1.00  0.00     0.041 C 
ATOM      9  O   UNL     1     165.914 159.051 153.960  1.00  0.00    -0.550 OA
ATOM     10  O   UNL     1     167.735 159.401 152.613  1.00  0.00    -0.550 OA
ENDBRANCH   7   8
ENDBRANCH   6   7
ENDBRANCH   5   6
ENDBRANCH   4   5
ENDBRANCH   3   4
ENDBRANCH   2   3
ENDBRANCH   1   2
BRANCH   1  11
ATOM     11  C   UNL     1     157.369 158.166 150.635  1.00  0.00     0.000 C 
BRANCH  11  12
ATOM     12  C   UNL     1     156.850 157.007 151.506  1.00  0.00    -0.000 C 
BRANCH  12  13
ATOM     13  C   UNL     1     157.650 156.851 152.810  1.00  0.00    -0.000 C 
BRANCH  13  14
ATOM     14  C   UNL     1     158.530 155.587 152.812  1.00  0.00    -0.000 C 
BRANCH  14  15
ATOM     15  C   UNL     1     157.750 154.326 152.402  1.00  0.00    -0.000 C 
BRANCH  15  16
ATOM     16  C   UNL     1     156.941 153.731 153.570  1.00  0.00    -0.000 C 
BRANCH  16  17
ATOM     17  C   UNL     1     157.797 153.509 154.828  1.00  0.00    -0.003 C 
ATOM     18  C   UNL     1     157.371 154.393 156.001  1.00  0.00     0.004 C 
ENDBRANCH  16  17
ENDBRANCH  15  16
ENDBRANCH  14  15
ENDBRANCH  13  14
ENDBRANCH  12  13
ENDBRANCH  11  12
ENDBRANCH   1  11
TORSDOF 14
ENDMDL
MODEL 2
REMARK VINA RESULT:    -4.129     12.319     13.646
REMARK INTER + INTRA:          -8.434
REMARK INTER:                  -5.910
REMARK INTRA:                  -2.524
REMARK UNBOUND:                -0.926
REMARK SMILES CCCCCCCCCCCCCCCC(=O)[O-]
REMARK SMILES IDX 9 1 10 2 11 3 12 4 13 5 14 6 15 7 16 8 17 9 18 10 8 11 7 12
REMARK SMILES IDX 6 13 5 14 4 15 3 16 2 17 1 18
REMARK H PARENT
REMARK Flexibility Score: inf
ROOT
ATOM      1  C   UNL     1     151.831 159.351 159.964  1.00  0.00     0.000 C 
ENDROOT
BRANCH   1   2
ATOM      2  C   UNL     1     152.760 159.930 161.043  1.00  0.00     0.000 C 
BRANCH   2   3
ATOM      3  C   UNL     1     153.861 158.927 161.415  1.00  0.00     0.000 C 
BRANCH   3   4
ATOM      4  C   UNL     1     154.507 159.226 162.779  1.00  0.00     0.000 C 
BRANCH   4   5
ATOM      5  C   UNL     1     155.132 157.982 163.449  1.00  0.00     0.000 C 
BRANCH   5   6
ATOM      6  C   UNL     1     154.910 156.704 162.619  1.00  0.00     0.006 C 
BRANCH   6   7
ATOM      7  C   UNL     1     154.916 155.437 163.484  1.00  0.00     0.053 C 
BRANCH   7   8
ATOM      8  C   UNL     1     155.004 154.194 162.654  1.00  0.00     0.041 C 
ATOM      9  O   UNL     1     155.244 154.274 161.419  1.00  0.00    -0.550 OA
ATOM     10  O   UNL     1     154.795 152.951 163.236  1.00  0.00    -0.550 OA
ENDBRANCH   7   8
ENDBRANCH   6   7
ENDBRANCH   5   6
ENDBRANCH   4   5
ENDBRANCH   3   4
ENDBRANCH   2   3
ENDBRANCH   1   2
BRANCH   1  11
ATOM     11  C   UNL     1     150.400 159.906 160.050  1.00  0.00     0.000 C 
BRANCH  11  12
ATOM     12  C   UNL     1     149.373 158.839 160.472  1.00  0.00    -0.000 C 
BRANCH  12  13
ATOM     13  C   UNL     1     148.700 159.174 161.814  1.00  0.00    -0.000 C 
BRANCH  13  14
ATOM     14  C   UNL     1     149.083 158.180 162.927  1.00  0.00    -0.000 C 
BRANCH  14  15
ATOM     15  C   UNL     1     150.450 158.500 163.556  1.00  0.00    -0.000 C 
BRANCH  15  16
ATOM     16  C   UNL     1     151.394 157.283 163.559  1.00  0.00    -0.000 C 
BRANCH  16  17
ATOM     17  C   UNL     1     150.861 156.121 162.704  1.00  0.00    -0.003 C 
ATOM     18  C   UNL     1     151.662 155.912 161.418  1.00  0.00     0.004 C 
ENDBRANCH  16  17
ENDBRANCH  15  16
ENDBRANCH  14  15
ENDBRANCH  13  14
ENDBRANCH  12  13
ENDBRANCH  11  12
ENDBRANCH   1  11
TORSDOF 14
ENDMDL
MODEL 3
REMARK VINA RESULT:    -4.107     11.541     13.251
REMARK INTER + INTRA:          -8.393
REMARK INTER:                  -7.231
REMARK INTRA:                  -1.162
REMARK UNBOUND:                -0.926
REMARK SMILES CCCCCCCCCCCCCCCC(=O)[O-]
REMARK SMILES IDX 9 1 10 2 11 3 12 4 13 5 14 6 15 7 16 8 17 9 18 10 8 11 7 12
REMARK SMILES IDX 6 13 5 14 4 15 3 16 2 17 1 18
REMARK H PARENT
REMARK Flexibility Score: inf
ROOT
ATOM      1  C   UNL     1     153.828 157.567 163.837  1.00  0.00     0.000 C 
ENDROOT
BRANCH   1   2
ATOM      2  C   UNL     1     154.248 159.040 163.961  1.00  0.00     0.000 C 
BRANCH   2   3
ATOM      3  C   UNL     1     155.640 159.267 163.357  1.00  0.00     0.000 C 
BRANCH   3   4
ATOM      4  C   UNL     1     156.599 159.992 164.318  1.00  0.00     0.000 C 
BRANCH   4   5
ATOM      5  C   UNL     1     158.088 159.682 164.050  1.00  0.00     0.000 C 
BRANCH   5   6
ATOM      6  C   UNL     1     158.898 159.557 165.354  1.00  0.00     0.006 C 
BRANCH   6   7
ATOM      7  C   UNL     1     160.398 159.793 165.135  1.00  0.00     0.053 C 
BRANCH   7   8
ATOM      8  C   UNL     1     161.164 158.507 165.090  1.00  0.00     0.041 C 
ATOM      9  O   UNL     1     162.065 158.277 165.941  1.00  0.00    -0.550 OA
ATOM     10  O   UNL     1     160.904 157.575 164.094  1.00  0.00    -0.550 OA
ENDBRANCH   7   8
ENDBRANCH   6   7
ENDBRANCH   5   6
ENDBRANCH   4   5
ENDBRANCH   3   4
ENDBRANCH   2   3
ENDBRANCH   1   2
BRANCH   1  11
ATOM     11  C   UNL     1     152.305 157.373 163.917  1.00  0.00     0.000 C 
BRANCH  11  12
ATOM     12  C   UNL     1     151.525 158.680 163.684  1.00  0.00    -0.000 C 
BRANCH  12  13
ATOM     13  C   UNL     1     150.010 158.443 163.565  1.00  0.00    -0.000 C 
BRANCH  13  14
ATOM     14  C   UNL     1     149.506 158.581 162.116  1.00  0.00    -0.000 C 
BRANCH  14  15
ATOM     15  C   UNL     1     150.620 158.348 161.081  1.00  0.00    -0.000 C 
BRANCH  15  16
ATOM     16  C   UNL     1     150.902 159.602 160.231  1.00  0.00    -0.000 C 
BRANCH  16  17
ATOM     17  C   UNL     1     152.388 159.995 160.236  1.00  0.00    -0.003 C 
ATOM     18  C   UNL     1     153.322 158.791 160.372  1.00  0.00     0.004 C 
ENDBRANCH  16  17
ENDBRANCH  15  16
ENDBRANCH  14  15
ENDBRANCH  13  14
ENDBRANCH  12  13
ENDBRANCH  11  12
ENDBRANCH   1  11
TORSDOF 14
ENDMDL
MODEL 4
REMARK VINA RESULT:    -4.024     10.129     13.549
REMARK INTER + INTRA:          -8.243
REMARK INTER:                  -5.828
REMARK INTRA:                  -2.416
REMARK UNBOUND:                -0.926
REMARK SMILES CCCCCCCCCCCCCCCC(=O)[O-]
REMARK SMILES IDX 9 1 10 2 11 3 12 4 13 5 14 6 15 7 16 8 17 9 18 10 8 11 7 12
REMARK SMILES IDX 6 13 5 14 4 15 3 16 2 17 1 18
REMARK H PARENT
REMARK Flexibility Score: inf
ROOT
ATOM      1  C   UNL     1     164.598 151.484 164.449  1.00  0.00     0.000 C 
ENDROOT
BRANCH   1   2
ATOM      2  C   UNL     1     163.554 151.136 163.376  1.00  0.00     0.000 C 
BRANCH   2   3
ATOM      3  C   UNL     1     162.135 151.449 163.869  1.00  0.00     0.000 C 
BRANCH   3   4
ATOM      4  C   UNL     1     161.449 152.557 163.052  1.00  0.00     0.000 C 
BRANCH   4   5
ATOM      5  C   UNL     1     161.634 153.969 163.652  1.00  0.00     0.000 C 
BRANCH   5   6
ATOM      6  C   UNL     1     162.103 154.989 162.597  1.00  0.00     0.006 C 
BRANCH   6   7
ATOM      7  C   UNL     1     163.125 154.393 161.622  1.00  0.00     0.053 C 
BRANCH   7   8
ATOM      8  C   UNL     1     162.779 154.694 160.196  1.00  0.00     0.041 C 
ATOM      9  O   UNL     1     163.656 155.152 159.415  1.00  0.00    -0.550 OA
ATOM     10  O   UNL     1     161.483 154.497 159.737  1.00  0.00    -0.550 OA
ENDBRANCH   7   8
ENDBRANCH   6   7
ENDBRANCH   5   6
ENDBRANCH   4   5
ENDBRANCH   3   4
ENDBRANCH   2   3
ENDBRANCH   1   2
BRANCH   1  11
ATOM     11  C   UNL     1     165.412 152.741 164.102  1.00  0.00     0.000 C 
BRANCH  11  12
ATOM     12  C   UNL     1     165.136 153.912 165.062  1.00  0.00    -0.000 C 
BRANCH  12  13
ATOM     13  C   UNL     1     165.376 155.280 164.401  1.00  0.00    -0.000 C 
BRANCH  13  14
ATOM     14  C   UNL     1     164.541 156.401 165.049  1.00  0.00    -0.000 C 
BRANCH  14  15
ATOM     15  C   UNL     1     163.632 155.880 166.176  1.00  0.00    -0.000 C 
BRANCH  15  16
ATOM     16  C   UNL     1     162.559 156.906 166.586  1.00  0.00    -0.000 C 
BRANCH  16  17
ATOM     17  C   UNL     1     162.360 158.005 165.529  1.00  0.00    -0.003 C 
ATOM     18  C   UNL     1     161.037 157.871 164.774  1.00  0.00     0.004 C 
ENDBRANCH  16  17
ENDBRANCH  15  16
ENDBRANCH  14  15
ENDBRANCH  13  14
ENDBRANCH  12  13
ENDBRANCH  11  12
ENDBRANCH   1  11
TORSDOF 14
ENDMDL
MODEL 5
REMARK VINA RESULT:    -4.015      1.475      2.118
REMARK INTER + INTRA:          -8.228
REMARK INTER:                  -7.163
REMARK INTRA:                  -1.064
REMARK UNBOUND:                -0.926
REMARK SMILES CCCCCCCCCCCCCCCC(=O)[O-]
REMARK SMILES IDX 9 1 10 2 11 3 12 4 13 5 14 6 15 7 16 8 17 9 18 10 8 11 7 12
REMARK SMILES IDX 6 13 5 14 4 15 3 16 2 17 1 18
REMARK H PARENT
REMARK Flexibility Score: inf
ROOT
ATOM      1  C   UNL     1     159.285 157.598 150.018  1.00  0.00     0.000 C 
ENDROOT
BRANCH   1   2
ATOM      2  C   UNL     1     160.650 157.536 150.721  1.00  0.00     0.000 C 
BRANCH   2   3
ATOM      3  C   UNL     1     161.476 158.796 150.430  1.00  0.00     0.000 C 
BRANCH   3   4
ATOM      4  C   UNL     1     162.639 158.991 151.418  1.00  0.00     0.000 C 
BRANCH   4   5
ATOM      5  C   UNL     1     163.717 159.974 150.912  1.00  0.00     0.000 C 
BRANCH   5   6
ATOM      6  C   UNL     1     164.908 160.077 151.883  1.00  0.00     0.006 C 
BRANCH   6   7
ATOM      7  C   UNL     1     165.339 158.709 152.426  1.00  0.00     0.053 C 
BRANCH   7   8
ATOM      8  C   UNL     1     166.308 158.837 153.561  1.00  0.00     0.041 C 
ATOM      9  O   UNL     1     166.128 158.185 154.623  1.00  0.00    -0.550 OA
ATOM     10  O   UNL     1     167.393 159.697 153.456  1.00  0.00    -0.550 OA
ENDBRANCH   7   8
ENDBRANCH   6   7
ENDBRANCH   5   6
ENDBRANCH   4   5
ENDBRANCH   3   4
ENDBRANCH   2   3
ENDBRANCH   1   2
BRANCH   1  11
ATOM     11  C   UNL     1     158.348 158.654 150.627  1.00  0.00     0.000 C 
BRANCH  11  12
ATOM     12  C   UNL     1     157.173 158.032 151.402  1.00  0.00    -0.000 C 
BRANCH  12  13
ATOM     13  C   UNL     1     157.045 156.519 151.155  1.00  0.00    -0.000 C 
BRANCH  13  14
ATOM     14  C   UNL     1     157.114 155.703 152.459  1.00  0.00    -0.000 C 
BRANCH  14  15
ATOM     15  C   UNL     1     158.556 155.327 152.842  1.00  0.00    -0.000 C 
BRANCH  15  16
ATOM     16  C   UNL     1     159.170 154.295 151.877  1.00  0.00    -0.000 C 
BRANCH  16  17
ATOM     17  C   UNL     1     158.164 153.212 151.454  1.00  0.00    -0.003 C 
ATOM     18  C   UNL     1     158.688 152.323 150.325  1.00  0.00     0.004 C 
ENDBRANCH  16  17
ENDBRANCH  15  16
ENDBRANCH  14  15
ENDBRANCH  13  14
ENDBRANCH  12  13
ENDBRANCH  11  12
ENDBRANCH   1  11
TORSDOF 14
ENDMDL
MODEL 6
REMARK VINA RESULT:    -3.971     11.859     12.756
REMARK INTER + INTRA:          -8.147
REMARK INTER:                  -7.067
REMARK INTRA:                  -1.081
REMARK UNBOUND:                -0.926
REMARK SMILES CCCCCCCCCCCCCCCC(=O)[O-]
REMARK SMILES IDX 9 1 10 2 11 3 12 4 13 5 14 6 15 7 16 8 17 9 18 10 8 11 7 12
REMARK SMILES IDX 6 13 5 14 4 15 3 16 2 17 1 18
REMARK H PARENT
REMARK Flexibility Score: inf
ROOT
ATOM      1  C   UNL     1     155.233 158.158 163.351  1.00  0.00     0.000 C 
ENDROOT
BRANCH   1   2
ATOM      2  C   UNL     1     155.270 159.595 163.894  1.00  0.00     0.000 C 
BRANCH   2   3
ATOM      3  C   UNL     1     156.626 159.902 164.544  1.00  0.00     0.000 C 
BRANCH   3   4
ATOM      4  C   UNL     1     157.728 158.912 164.126  1.00  0.00     0.000 C 
BRANCH   4   5
ATOM      5  C   UNL     1     159.139 159.539 164.099  1.00  0.00     0.000 C 
BRANCH   5   6
ATOM      6  C   UNL     1     160.228 158.535 164.523  1.00  0.00     0.006 C 
BRANCH   6   7
ATOM      7  C   UNL     1     161.328 159.190 165.367  1.00  0.00     0.053 C 
BRANCH   7   8
ATOM      8  C   UNL     1     162.443 158.236 165.668  1.00  0.00     0.041 C 
ATOM      9  O   UNL     1     162.830 158.070 166.856  1.00  0.00    -0.550 OA
ATOM     10  O   UNL     1     163.073 157.552 164.637  1.00  0.00    -0.550 OA
ENDBRANCH   7   8
ENDBRANCH   6   7
ENDBRANCH   5   6
ENDBRANCH   4   5
ENDBRANCH   3   4
ENDBRANCH   2   3
ENDBRANCH   1   2
BRANCH   1  11
ATOM     11  C   UNL     1     154.230 157.981 162.200  1.00  0.00     0.000 C 
BRANCH  11  12
ATOM     12  C   UNL     1     153.981 159.286 161.422  1.00  0.00    -0.000 C 
BRANCH  12  13
ATOM     13  C   UNL     1     152.483 159.563 161.208  1.00  0.00    -0.000 C 
BRANCH  13  14
ATOM     14  C   UNL     1     151.728 158.330 160.679  1.00  0.00    -0.000 C 
BRANCH  14  15
ATOM     15  C   UNL     1     150.385 158.111 161.397  1.00  0.00    -0.000 C 
BRANCH  15  16
ATOM     16  C   UNL     1     150.567 157.684 162.865  1.00  0.00    -0.000 C 
BRANCH  16  17
ATOM     17  C   UNL     1     150.558 156.157 163.042  1.00  0.00    -0.003 C 
ATOM     18  C   UNL     1     151.882 155.613 163.580  1.00  0.00     0.004 C 
ENDBRANCH  16  17
ENDBRANCH  15  16
ENDBRANCH  14  15
ENDBRANCH  13  14
ENDBRANCH  12  13
ENDBRANCH  11  12
ENDBRANCH   1  11
TORSDOF 14
ENDMDL
MODEL 7
REMARK VINA RESULT:    -3.971      4.714      7.561
REMARK INTER + INTRA:          -8.147
REMARK INTER:                  -5.888
REMARK INTRA:                  -2.259
REMARK UNBOUND:                -0.926
REMARK SMILES CCCCCCCCCCCCCCCC(=O)[O-]
REMARK SMILES IDX 9 1 10 2 11 3 12 4 13 5 14 6 15 7 16 8 17 9 18 10 8 11 7 12
REMARK SMILES IDX 6 13 5 14 4 15 3 16 2 17 1 18
REMARK H PARENT
REMARK Flexibility Score: inf
ROOT
ATOM      1  C   UNL     1     158.702 153.656 151.126  1.00  0.00     0.000 C 
ENDROOT
BRANCH   1   2
ATOM      2  C   UNL     1     159.805 154.712 151.305  1.00  0.00     0.000 C 
BRANCH   2   3
ATOM      3  C   UNL     1     159.620 155.481 152.621  1.00  0.00     0.000 C 
BRANCH   3   4
ATOM      4  C   UNL     1     160.361 154.832 153.802  1.00  0.00     0.000 C 
BRANCH   4   5
ATOM      5  C   UNL     1     159.449 153.966 154.699  1.00  0.00     0.000 C 
BRANCH   5   6
ATOM      6  C   UNL     1     157.994 154.471 154.704  1.00  0.00     0.006 C 
BRANCH   6   7
ATOM      7  C   UNL     1     156.978 153.324 154.617  1.00  0.00     0.053 C 
BRANCH   7   8
ATOM      8  C   UNL     1     156.218 153.154 155.896  1.00  0.00     0.041 C 
ATOM      9  O   UNL     1     156.646 153.674 156.961  1.00  0.00    -0.550 OA
ATOM     10  O   UNL     1     155.053 152.398 155.919  1.00  0.00    -0.550 OA
ENDBRANCH   7   8
ENDBRANCH   6   7
ENDBRANCH   5   6
ENDBRANCH   4   5
ENDBRANCH   3   4
ENDBRANCH   2   3
ENDBRANCH   1   2
BRANCH   1  11
ATOM     11  C   UNL     1     157.508 154.175 150.309  1.00  0.00     0.000 C 
BRANCH  11  12
ATOM     12  C   UNL     1     156.224 154.304 151.149  1.00  0.00    -0.000 C 
BRANCH  12  13
ATOM     13  C   UNL     1     156.032 155.723 151.711  1.00  0.00    -0.000 C 
BRANCH  13  14
ATOM     14  C   UNL     1     156.078 156.801 150.612  1.00  0.00    -0.000 C 
BRANCH  14  15
ATOM     15  C   UNL     1     157.042 157.950 150.955  1.00  0.00    -0.000 C 
BRANCH  15  16
ATOM     16  C   UNL     1     158.344 157.890 150.135  1.00  0.00    -0.000 C 
BRANCH  16  17
ATOM     17  C   UNL     1     159.391 158.908 150.614  1.00  0.00    -0.003 C 
ATOM     18  C   UNL     1     160.827 158.459 150.338  1.00  0.00     0.004 C 
ENDBRANCH  16  17
ENDBRANCH  15  16
ENDBRANCH  14  15
ENDBRANCH  13  14
ENDBRANCH  12  13
ENDBRANCH  11  12
ENDBRANCH   1  11
TORSDOF 14
ENDMDL
MODEL 8
REMARK VINA RESULT:    -3.960     11.016     13.633
REMARK INTER + INTRA:          -8.126
REMARK INTER:                  -5.860
REMARK INTRA:                  -2.266
REMARK UNBOUND:                -0.926
REMARK SMILES CCCCCCCCCCCCCCCC(=O)[O-]
REMARK SMILES IDX 9 1 10 2 11 3 12 4 13 5 14 6 15 7 16 8 17 9 18 10 8 11 7 12
REMARK SMILES IDX 6 13 5 14 4 15 3 16 2 17 1 18
REMARK H PARENT
REMARK Flexibility Score: inf
ROOT
ATOM      1  C   UNL     1     165.470 152.737 164.572  1.00  0.00     0.000 C 
ENDROOT
BRANCH   1   2
ATOM      2  C   UNL     1     165.531 153.749 163.417  1.00  0.00     0.000 C 
BRANCH   2   3
ATOM      3  C   UNL     1     165.145 155.154 163.897  1.00  0.00     0.000 C 
BRANCH   3   4
ATOM      4  C   UNL     1     165.119 155.277 165.431  1.00  0.00     0.000 C 
BRANCH   4   5
ATOM      5  C   UNL     1     163.820 155.911 165.975  1.00  0.00     0.000 C 
BRANCH   5   6
ATOM      6  C   UNL     1     163.499 157.252 165.289  1.00  0.00     0.006 C 
BRANCH   6   7
ATOM      7  C   UNL     1     162.030 157.658 165.459  1.00  0.00     0.053 C 
BRANCH   7   8
ATOM      8  C   UNL     1     161.873 159.140 165.610  1.00  0.00     0.041 C 
ATOM      9  O   UNL     1     162.796 159.824 166.128  1.00  0.00    -0.550 OA
ATOM     10  O   UNL     1     160.699 159.761 165.204  1.00  0.00    -0.550 OA
ENDBRANCH   7   8
ENDBRANCH   6   7
ENDBRANCH   5   6
ENDBRANCH   4   5
ENDBRANCH   3   4
ENDBRANCH   2   3
ENDBRANCH   1   2
BRANCH   1  11
ATOM     11  C   UNL     1     164.241 151.816 164.492  1.00  0.00     0.000 C 
BRANCH  11  12
ATOM     12  C   UNL     1     164.044 151.206 163.092  1.00  0.00    -0.000 C 
BRANCH  12  13
ATOM     13  C   UNL     1     162.563 151.152 162.681  1.00  0.00    -0.000 C 
BRANCH  13  14
ATOM     14  C   UNL     1     161.637 151.787 163.735  1.00  0.00    -0.000 C 
BRANCH  14  15
ATOM     15  C   UNL     1     160.870 153.003 163.187  1.00  0.00    -0.000 C 
BRANCH  15  16
ATOM     16  C   UNL     1     161.424 154.336 163.725  1.00  0.00    -0.000 C 
BRANCH  16  17
ATOM     17  C   UNL     1     161.836 155.300 162.601  1.00  0.00    -0.003 C 
ATOM     18  C   UNL     1     162.134 154.584 161.283  1.00  0.00     0.004 C 
ENDBRANCH  16  17
ENDBRANCH  15  16
ENDBRANCH  14  15
ENDBRANCH  13  14
ENDBRANCH  12  13
ENDBRANCH  11  12
ENDBRANCH   1  11
TORSDOF 14
ENDMDL
MODEL 9
REMARK VINA RESULT:    -3.956      4.627      6.407
REMARK INTER + INTRA:          -8.119
REMARK INTER:                  -5.738
REMARK INTRA:                  -2.381
REMARK UNBOUND:                -0.926
REMARK SMILES CCCCCCCCCCCCCCCC(=O)[O-]
REMARK SMILES IDX 9 1 10 2 11 3 12 4 13 5 14 6 15 7 16 8 17 9 18 10 8 11 7 12
REMARK SMILES IDX 6 13 5 14 4 15 3 16 2 17 1 18
REMARK H PARENT
REMARK Flexibility Score: inf
ROOT
ATOM      1  C   UNL     1     160.005 157.299 150.657  1.00  0.00     0.000 C 
ENDROOT
BRANCH   1   2
ATOM      2  C   UNL     1     159.608 155.999 149.940  1.00  0.00     0.000 C 
BRANCH   2   3
ATOM      3  C   UNL     1     159.588 154.817 150.919  1.00  0.00     0.000 C 
BRANCH   3   4
ATOM      4  C   UNL     1     159.946 155.225 152.358  1.00  0.00     0.000 C 
BRANCH   4   5
ATOM      5  C   UNL     1     158.764 155.098 153.345  1.00  0.00     0.000 C 
BRANCH   5   6
ATOM      6  C   UNL     1     157.986 153.783 153.151  1.00  0.00     0.006 C 
BRANCH   6   7
ATOM      7  C   UNL     1     156.984 153.525 154.283  1.00  0.00     0.053 C 
BRANCH   7   8
ATOM      8  C   UNL     1     157.643 153.540 155.628  1.00  0.00     0.041 C 
ATOM      9  O   UNL     1     158.506 152.669 155.918  1.00  0.00    -0.550 OA
ATOM     10  O   UNL     1     157.286 154.497 156.568  1.00  0.00    -0.550 OA
ENDBRANCH   7   8
ENDBRANCH   6   7
ENDBRANCH   5   6
ENDBRANCH   4   5
ENDBRANCH   3   4
ENDBRANCH   2   3
ENDBRANCH   1   2
BRANCH   1  11
ATOM     11  C   UNL     1     158.957 158.412 150.495  1.00  0.00     0.000 C 
BRANCH  11  12
ATOM     12  C   UNL     1     157.716 158.196 151.380  1.00  0.00    -0.000 C 
BRANCH  12  13
ATOM     13  C   UNL     1     156.528 157.621 150.592  1.00  0.00    -0.000 C 
BRANCH  13  14
ATOM     14  C   UNL     1     156.026 156.286 151.175  1.00  0.00    -0.000 C 
BRANCH  14  15
ATOM     15  C   UNL     1     155.986 155.163 150.124  1.00  0.00    -0.000 C 
BRANCH  15  16
ATOM     16  C   UNL     1     154.995 154.045 150.498  1.00  0.00    -0.000 C 
BRANCH  16  17
ATOM     17  C   UNL     1     154.191 154.369 151.767  1.00  0.00    -0.003 C 
ATOM     18  C   UNL     1     153.726 153.117 152.513  1.00  0.00     0.004 C 
ENDBRANCH  16  17
ENDBRANCH  15  16
ENDBRANCH  14  15
ENDBRANCH  13  14
ENDBRANCH  12  13
ENDBRANCH  11  12
ENDBRANCH   1  11
TORSDOF 14
ENDMDL
