MODEL 1
REMARK VINA RESULT:    -2.676      0.000      0.000
REMARK INTER + INTRA:          -5.842
REMARK INTER:                  -4.240
REMARK INTRA:                  -1.602
REMARK UNBOUND:                -1.602
REMARK SMILES CCCCCCCCCCCC(=O)[O-]
REMARK SMILES IDX 7 1 8 2 9 3 10 4 11 5 12 6 13 7 14 8 6 9 5 10 4 11 3 12 2 13
REMARK SMILES IDX 1 14
REMARK H PARENT
REMARK Flexibility Score: inf
ROOT
ATOM      1  C   UNL     1       1.132   8.281   4.635  1.00  0.00     0.000 C 
ENDROOT
BRANCH   1   2
ATOM      2  C   UNL     1       2.586   8.183   4.145  1.00  0.00     0.000 C 
BRANCH   2   3
ATOM      3  C   UNL     1       2.685   8.000   2.621  1.00  0.00     0.000 C 
BRANCH   3   4
ATOM      4  C   UNL     1       3.151   6.588   2.226  1.00  0.00     0.006 C 
BRANCH   4   5
ATOM      5  C   UNL     1       3.602   5.754   3.433  1.00  0.00     0.053 C 
BRANCH   5   6
ATOM      6  C   UNL     1       5.073   5.492   3.365  1.00  0.00     0.041 C 
ATOM      7  O   UNL     1       5.501   4.381   2.953  1.00  0.00    -0.550 OA
ATOM      8  O   UNL     1       5.973   6.455   3.804  1.00  0.00    -0.550 OA
ENDBRANCH   5   6
ENDBRANCH   4   5
ENDBRANCH   3   4
ENDBRANCH   2   3
ENDBRANCH   1   2
BRANCH   1   9
ATOM      9  C   UNL     1       0.166   8.753   3.532  1.00  0.00     0.000 C 
BRANCH   9  10
ATOM     10  C   UNL     1      -1.033   7.808   3.353  1.00  0.00    -0.000 C 
BRANCH  10  11
ATOM     11  C   UNL     1      -0.897   6.908   2.112  1.00  0.00    -0.000 C 
BRANCH  11  12
ATOM     12  C   UNL     1      -0.449   5.480   2.464  1.00  0.00    -0.000 C 
BRANCH  12  13
ATOM     13  C   UNL     1      -0.867   5.060   3.882  1.00  0.00    -0.003 C 
ATOM     14  C   UNL     1       0.344   4.637   4.708  1.00  0.00     0.004 C 
ENDBRANCH  12  13
ENDBRANCH  11  12
ENDBRANCH  10  11
ENDBRANCH   9  10
ENDBRANCH   1   9
TORSDOF 10
ENDMDL
MODEL 2
REMARK VINA RESULT:    -2.672      1.426      2.025
REMARK INTER + INTRA:          -5.836
REMARK INTER:                  -4.989
REMARK INTRA:                  -0.847
REMARK UNBOUND:                -1.602
REMARK SMILES CCCCCCCCCCCC(=O)[O-]
REMARK SMILES IDX 7 1 8 2 9 3 10 4 11 5 12 6 13 7 14 8 6 9 5 10 4 11 3 12 2 13
REMARK SMILES IDX 1 14
REMARK H PARENT
REMARK Flexibility Score: inf
ROOT
ATOM      1  C   UNL     1       2.540   9.274   5.415  1.00  0.00     0.000 C 
ENDROOT
BRANCH   1   2
ATOM      2  C   UNL     1       3.466  10.054   4.468  1.00  0.00     0.000 C 
BRANCH   2   3
ATOM      3  C   UNL     1       4.310   9.130   3.574  1.00  0.00     0.000 C 
BRANCH   3   4
ATOM      4  C   UNL     1       4.879   7.925   4.341  1.00  0.00     0.006 C 
BRANCH   4   5
ATOM      5  C   UNL     1       4.519   6.584   3.688  1.00  0.00     0.053 C 
BRANCH   5   6
ATOM      6  C   UNL     1       5.751   5.902   3.185  1.00  0.00     0.041 C 
ATOM      7  O   UNL     1       6.802   6.564   2.972  1.00  0.00    -0.550 OA
ATOM      8  O   UNL     1       5.727   4.541   2.901  1.00  0.00    -0.550 OA
ENDBRANCH   5   6
ENDBRANCH   4   5
ENDBRANCH   3   4
ENDBRANCH   2   3
ENDBRANCH   1   2
BRANCH   1   9
ATOM      9  C   UNL     1       1.052   9.601   5.191  1.00  0.00     0.000 C 
BRANCH   9  10
ATOM     10  C   UNL     1       0.386   8.657   4.177  1.00  0.00    -0.000 C 
BRANCH  10  11
ATOM     11  C   UNL     1       1.018   7.254   4.171  1.00  0.00    -0.000 C 
BRANCH  11  12
ATOM     12  C   UNL     1       0.017   6.157   3.771  1.00  0.00    -0.000 C 
BRANCH  12  13
ATOM     13  C   UNL     1       0.226   4.850   4.550  1.00  0.00    -0.003 C 
ATOM     14  C   UNL     1      -1.085   4.085   4.700  1.00  0.00     0.004 C 
ENDBRANCH  12  13
ENDBRANCH  11  12
ENDBRANCH  10  11
ENDBRANCH   9  10
ENDBRANCH   1   9
TORSDOF 10
ENDMDL
MODEL 3
REMARK VINA RESULT:    -2.227      2.927      4.830
REMARK INTER + INTRA:          -5.132
REMARK INTER:                  -3.774
REMARK INTRA:                  -1.358
REMARK UNBOUND:                -1.602
REMARK SMILES CCCCCCCCCCCC(=O)[O-]
REMARK SMILES IDX 7 1 8 2 9 3 10 4 11 5 12 6 13 7 14 8 6 9 5 10 4 11 3 12 2 13
REMARK SMILES IDX 1 14
REMARK H PARENT
REMARK Flexibility Score: inf
ROOT
ATOM      1  C   UNL     1       4.614   7.173   3.892  1.00  0.00     0.000 C 
ENDROOT
BRANCH   1   2
ATOM      2  C   UNL     1       3.647   6.091   3.385  1.00  0.00     0.000 C 
BRANCH   2   3
ATOM      3  C   UNL     1       2.674   6.622   2.317  1.00  0.00     0.000 C 
BRANCH   3   4
ATOM      4  C   UNL     1       1.205   6.534   2.762  1.00  0.00     0.006 C 
BRANCH   4   5
ATOM      5  C   UNL     1       1.008   5.617   3.977  1.00  0.00     0.053 C 
BRANCH   5   6
ATOM      6  C   UNL     1      -0.327   4.946   3.913  1.00  0.00     0.041 C 
ATOM      7  O   UNL     1      -0.714   4.211   4.861  1.00  0.00    -0.550 OA
ATOM      8  O   UNL     1      -1.125   5.090   2.785  1.00  0.00    -0.550 OA
ENDBRANCH   5   6
ENDBRANCH   4   5
ENDBRANCH   3   4
ENDBRANCH   2   3
ENDBRANCH   1   2
BRANCH   1   9
ATOM      9  C   UNL     1       4.787   8.330   2.890  1.00  0.00     0.000 C 
BRANCH   9  10
ATOM     10  C   UNL     1       4.501   9.703   3.518  1.00  0.00    -0.000 C 
BRANCH  10  11
ATOM     11  C   UNL     1       3.000   9.941   3.761  1.00  0.00    -0.000 C 
BRANCH  11  12
ATOM     12  C   UNL     1       2.634   9.925   5.254  1.00  0.00    -0.000 C 
BRANCH  12  13
ATOM     13  C   UNL     1       1.393   9.070   5.552  1.00  0.00    -0.003 C 
ATOM     14  C   UNL     1       0.202   9.520   4.710  1.00  0.00     0.004 C 
ENDBRANCH  12  13
ENDBRANCH  11  12
ENDBRANCH  10  11
ENDBRANCH   9  10
ENDBRANCH   1   9
TORSDOF 10
ENDMDL
MODEL 4
REMARK VINA RESULT:    -2.211      2.626      3.978
REMARK INTER + INTRA:          -5.106
REMARK INTER:                  -4.038
REMARK INTRA:                  -1.068
REMARK UNBOUND:                -1.602
REMARK SMILES CCCCCCCCCCCC(=O)[O-]
REMARK SMILES IDX 7 1 8 2 9 3 10 4 11 5 12 6 13 7 14 8 6 9 5 10 4 11 3 12 2 13
REMARK SMILES IDX 1 14
REMARK H PARENT
REMARK Flexibility Score: inf
ROOT
ATOM      1  C   UNL     1       4.401   5.718   3.384  1.00  0.00     0.000 C 
ENDROOT
BRANCH   1   2
ATOM      2  C   UNL     1       5.461   6.767   3.758  1.00  0.00     0.000 C 
BRANCH   2   3
ATOM      3  C   UNL     1       4.895   7.891   4.643  1.00  0.00     0.000 C 
BRANCH   3   4
ATOM      4  C   UNL     1       4.519   9.144   3.835  1.00  0.00     0.006 C 
BRANCH   4   5
ATOM      5  C   UNL     1       3.649  10.125   4.633  1.00  0.00     0.053 C 
BRANCH   5   6
ATOM      6  C   UNL     1       2.228   9.658   4.660  1.00  0.00     0.041 C 
ATOM      7  O   UNL     1       1.767   9.088   5.685  1.00  0.00    -0.550 OA
ATOM      8  O   UNL     1       1.425   9.807   3.536  1.00  0.00    -0.550 OA
ENDBRANCH   5   6
ENDBRANCH   4   5
ENDBRANCH   3   4
ENDBRANCH   2   3
ENDBRANCH   1   2
BRANCH   1   9
ATOM      9  C   UNL     1       3.692   6.040   2.056  1.00  0.00     0.000 C 
BRANCH   9  10
ATOM     10  C   UNL     1       2.277   6.603   2.262  1.00  0.00    -0.000 C 
BRANCH  10  11
ATOM     11  C   UNL     1       1.651   6.157   3.596  1.00  0.00    -0.000 C 
BRANCH  11  12
ATOM     12  C   UNL     1       0.137   6.418   3.654  1.00  0.00    -0.000 C 
BRANCH  12  13
ATOM     13  C   UNL     1      -0.693   5.155   3.380  1.00  0.00    -0.003 C 
ATOM     14  C   UNL     1      -0.724   4.242   4.602  1.00  0.00     0.004 C 
ENDBRANCH  12  13
ENDBRANCH  11  12
ENDBRANCH  10  11
ENDBRANCH   9  10
ENDBRANCH   1   9
TORSDOF 10
ENDMDL
MODEL 5
REMARK VINA RESULT:    -2.176      2.523      5.139
REMARK INTER + INTRA:          -5.051
REMARK INTER:                  -4.194
REMARK INTRA:                  -0.857
REMARK UNBOUND:                -1.602
REMARK SMILES CCCCCCCCCCCC(=O)[O-]
REMARK SMILES IDX 7 1 8 2 9 3 10 4 11 5 12 6 13 7 14 8 6 9 5 10 4 11 3 12 2 13
REMARK SMILES IDX 1 14
REMARK H PARENT
REMARK Flexibility Score: inf
ROOT
ATOM      1  C   UNL     1       2.601   8.213   2.397  1.00  0.00     0.000 C 
ENDROOT
BRANCH   1   2
ATOM      2  C   UNL     1       1.071   8.317   2.277  1.00  0.00     0.000 C 
BRANCH   2   3
ATOM      3  C   UNL     1       0.348   7.909   3.573  1.00  0.00     0.000 C 
BRANCH   3   4
ATOM      4  C   UNL     1      -0.878   7.020   3.308  1.00  0.00     0.006 C 
BRANCH   4   5
ATOM      5  C   UNL     1      -0.497   5.579   2.941  1.00  0.00     0.053 C 
BRANCH   5   6
ATOM      6  C   UNL     1      -0.137   4.805   4.169  1.00  0.00     0.041 C 
ATOM      7  O   UNL     1       1.066   4.712   4.531  1.00  0.00    -0.550 OA
ATOM      8  O   UNL     1      -1.125   4.143   4.889  1.00  0.00    -0.550 OA
ENDBRANCH   5   6
ENDBRANCH   4   5
ENDBRANCH   3   4
ENDBRANCH   2   3
ENDBRANCH   1   2
BRANCH   1   9
ATOM      9  C   UNL     1       3.050   7.624   3.747  1.00  0.00     0.000 C 
BRANCH   9  10
ATOM     10  C   UNL     1       4.382   8.217   4.236  1.00  0.00    -0.000 C 
BRANCH  10  11
ATOM     11  C   UNL     1       5.519   7.180   4.257  1.00  0.00    -0.000 C 
BRANCH  11  12
ATOM     12  C   UNL     1       6.194   7.017   2.885  1.00  0.00    -0.000 C 
BRANCH  12  13
ATOM     13  C   UNL     1       5.970   5.625   2.275  1.00  0.00    -0.003 C 
ATOM     14  C   UNL     1       5.250   4.705   3.257  1.00  0.00     0.004 C 
ENDBRANCH  12  13
ENDBRANCH  11  12
ENDBRANCH  10  11
ENDBRANCH   9  10
ENDBRANCH   1   9
TORSDOF 10
ENDMDL
MODEL 6
REMARK VINA RESULT:    -2.071      1.791      2.813
REMARK INTER + INTRA:          -4.884
REMARK INTER:                  -4.063
REMARK INTRA:                  -0.822
REMARK UNBOUND:                -1.602
REMARK SMILES CCCCCCCCCCCC(=O)[O-]
REMARK SMILES IDX 7 1 8 2 9 3 10 4 11 5 12 6 13 7 14 8 6 9 5 10 4 11 3 12 2 13
REMARK SMILES IDX 1 14
REMARK H PARENT
REMARK Flexibility Score: inf
ROOT
ATOM      1  C   UNL     1       2.748   6.686   3.020  1.00  0.00     0.000 C 
ENDROOT
BRANCH   1   2
ATOM      2  C   UNL     1       3.884   5.880   2.368  1.00  0.00     0.000 C 
BRANCH   2   3
ATOM      3  C   UNL     1       4.852   5.281   3.403  1.00  0.00     0.000 C 
BRANCH   3   4
ATOM      4  C   UNL     1       5.984   6.250   3.782  1.00  0.00     0.006 C 
BRANCH   4   5
ATOM      5  C   UNL     1       6.710   6.821   2.556  1.00  0.00     0.053 C 
BRANCH   5   6
ATOM      6  C   UNL     1       6.610   8.312   2.538  1.00  0.00     0.041 C 
ATOM      7  O   UNL     1       7.539   9.005   2.042  1.00  0.00    -0.550 OA
ATOM      8  O   UNL     1       5.513   8.943   3.113  1.00  0.00    -0.550 OA
ENDBRANCH   5   6
ENDBRANCH   4   5
ENDBRANCH   3   4
ENDBRANCH   2   3
ENDBRANCH   1   2
BRANCH   1   9
ATOM      9  C   UNL     1       1.603   6.997   2.038  1.00  0.00     0.000 C 
BRANCH   9  10
ATOM     10  C   UNL     1       0.534   7.917   2.650  1.00  0.00    -0.000 C 
BRANCH  10  11
ATOM     11  C   UNL     1      -0.405   7.173   3.614  1.00  0.00    -0.000 C 
BRANCH  11  12
ATOM     12  C   UNL     1      -0.980   5.885   3.002  1.00  0.00    -0.000 C 
BRANCH  12  13
ATOM     13  C   UNL     1      -0.942   4.696   3.975  1.00  0.00    -0.003 C 
ATOM     14  C   UNL     1       0.362   4.677   4.766  1.00  0.00     0.004 C 
ENDBRANCH  12  13
ENDBRANCH  11  12
ENDBRANCH  10  11
ENDBRANCH   9  10
ENDBRANCH   1   9
TORSDOF 10
ENDMDL
MODEL 7
REMARK VINA RESULT:    -2.048      3.061      5.835
REMARK INTER + INTRA:          -4.847
REMARK INTER:                  -3.587
REMARK INTRA:                  -1.261
REMARK UNBOUND:                -1.602
REMARK SMILES CCCCCCCCCCCC(=O)[O-]
REMARK SMILES IDX 7 1 8 2 9 3 10 4 11 5 12 6 13 7 14 8 6 9 5 10 4 11 3 12 2 13
REMARK SMILES IDX 1 14
REMARK H PARENT
REMARK Flexibility Score: inf
ROOT
ATOM      1  C   UNL     1       5.396   5.549   3.260  1.00  0.00     0.000 C 
ENDROOT
BRANCH   1   2
ATOM      2  C   UNL     1       3.879   5.761   3.391  1.00  0.00     0.000 C 
BRANCH   2   3
ATOM      3  C   UNL     1       3.256   6.369   2.122  1.00  0.00     0.000 C 
BRANCH   3   4
ATOM      4  C   UNL     1       1.740   6.586   2.255  1.00  0.00     0.006 C 
BRANCH   4   5
ATOM      5  C   UNL     1       1.286   6.711   3.716  1.00  0.00     0.053 C 
BRANCH   5   6
ATOM      6  C   UNL     1       0.222   5.705   4.020  1.00  0.00     0.041 C 
ATOM      7  O   UNL     1      -0.947   5.864   3.576  1.00  0.00    -0.550 OA
ATOM      8  O   UNL     1       0.506   4.616   4.835  1.00  0.00    -0.550 OA
ENDBRANCH   5   6
ENDBRANCH   4   5
ENDBRANCH   3   4
ENDBRANCH   2   3
ENDBRANCH   1   2
BRANCH   1   9
ATOM      9  C   UNL     1       6.002   6.317   2.071  1.00  0.00     0.000 C 
BRANCH   9  10
ATOM     10  C   UNL     1       7.234   7.145   2.469  1.00  0.00    -0.000 C 
BRANCH  10  11
ATOM     11  C   UNL     1       7.064   8.644   2.162  1.00  0.00    -0.000 C 
BRANCH  11  12
ATOM     12  C   UNL     1       5.594   9.037   1.940  1.00  0.00    -0.000 C 
BRANCH  12  13
ATOM     13  C   UNL     1       5.082  10.036   2.989  1.00  0.00    -0.003 C 
ATOM     14  C   UNL     1       4.382   9.315   4.138  1.00  0.00     0.004 C 
ENDBRANCH  12  13
ENDBRANCH  11  12
ENDBRANCH  10  11
ENDBRANCH   9  10
ENDBRANCH   1   9
TORSDOF 10
ENDMDL
MODEL 8
REMARK VINA RESULT:    -1.956      2.838      5.763
REMARK INTER + INTRA:          -4.703
REMARK INTER:                  -3.914
REMARK INTRA:                  -0.789
REMARK UNBOUND:                -1.602
REMARK SMILES CCCCCCCCCCCC(=O)[O-]
REMARK SMILES IDX 7 1 8 2 9 3 10 4 11 5 12 6 13 7 14 8 6 9 5 10 4 11 3 12 2 13
REMARK SMILES IDX 1 14
REMARK H PARENT
REMARK Flexibility Score: inf
ROOT
ATOM      1  C   UNL     1       3.034   7.101   3.049  1.00  0.00     0.000 C 
ENDROOT
BRANCH   1   2
ATOM      2  C   UNL     1       1.644   7.254   2.412  1.00  0.00     0.000 C 
BRANCH   2   3
ATOM      3  C   UNL     1       0.605   7.828   3.391  1.00  0.00     0.000 C 
BRANCH   3   4
ATOM      4  C   UNL     1      -0.690   7.000   3.429  1.00  0.00     0.006 C 
BRANCH   4   5
ATOM      5  C   UNL     1      -0.478   5.547   2.983  1.00  0.00     0.053 C 
BRANCH   5   6
ATOM      6  C   UNL     1      -0.217   4.671   4.167  1.00  0.00     0.041 C 
ATOM      7  O   UNL     1      -1.125   3.920   4.613  1.00  0.00    -0.550 OA
ATOM      8  O   UNL     1       1.014   4.720   4.810  1.00  0.00    -0.550 OA
ENDBRANCH   5   6
ENDBRANCH   4   5
ENDBRANCH   3   4
ENDBRANCH   2   3
ENDBRANCH   1   2
BRANCH   1   9
ATOM      9  C   UNL     1       3.856   5.966   2.412  1.00  0.00     0.000 C 
BRANCH   9  10
ATOM     10  C   UNL     1       4.942   5.421   3.354  1.00  0.00    -0.000 C 
BRANCH  10  11
ATOM     11  C   UNL     1       6.123   6.393   3.520  1.00  0.00    -0.000 C 
BRANCH  11  12
ATOM     12  C   UNL     1       6.638   6.930   2.174  1.00  0.00    -0.000 C 
BRANCH  12  13
ATOM     13  C   UNL     1       7.204   8.355   2.281  1.00  0.00    -0.003 C 
ATOM     14  C   UNL     1       6.117   9.396   2.033  1.00  0.00     0.004 C 
ENDBRANCH  12  13
ENDBRANCH  11  12
ENDBRANCH  10  11
ENDBRANCH   9  10
ENDBRANCH   1   9
TORSDOF 10
ENDMDL
MODEL 9
REMARK VINA RESULT:    -1.919      3.275      4.292
REMARK INTER + INTRA:          -4.644
REMARK INTER:                  -4.230
REMARK INTRA:                  -0.415
REMARK UNBOUND:                -1.602
REMARK SMILES CCCCCCCCCCCC(=O)[O-]
REMARK SMILES IDX 7 1 8 2 9 3 10 4 11 5 12 6 13 7 14 8 6 9 5 10 4 11 3 12 2 13
REMARK SMILES IDX 1 14
REMARK H PARENT
REMARK Flexibility Score: inf
ROOT
ATOM      1  C   UNL     1       4.896   6.508   3.764  1.00  0.00     0.000 C 
ENDROOT
BRANCH   1   2
ATOM      2  C   UNL     1       6.220   6.656   2.998  1.00  0.00     0.000 C 
BRANCH   2   3
ATOM      3  C   UNL     1       6.197   7.824   1.996  1.00  0.00     0.000 C 
BRANCH   3   4
ATOM      4  C   UNL     1       7.525   8.597   1.960  1.00  0.00     0.006 C 
BRANCH   4   5
ATOM      5  C   UNL     1       8.750   7.676   2.056  1.00  0.00     0.053 C 
BRANCH   5   6
ATOM      6  C   UNL     1       9.982   8.474   2.340  1.00  0.00     0.041 C 
ATOM      7  O   UNL     1      11.086   7.894   2.521  1.00  0.00    -0.550 OA
ATOM      8  O   UNL     1       9.904   9.856   2.456  1.00  0.00    -0.550 OA
ENDBRANCH   5   6
ENDBRANCH   4   5
ENDBRANCH   3   4
ENDBRANCH   2   3
ENDBRANCH   1   2
BRANCH   1   9
ATOM      9  C   UNL     1       3.693   6.283   2.829  1.00  0.00     0.000 C 
BRANCH   9  10
ATOM     10  C   UNL     1       2.703   7.459   2.846  1.00  0.00    -0.000 C 
BRANCH  10  11
ATOM     11  C   UNL     1       1.501   7.206   3.773  1.00  0.00    -0.000 C 
BRANCH  11  12
ATOM     12  C   UNL     1       1.133   5.716   3.870  1.00  0.00    -0.000 C 
BRANCH  12  13
ATOM     13  C   UNL     1      -0.383   5.474   3.815  1.00  0.00    -0.003 C 
ATOM     14  C   UNL     1      -0.765   4.216   4.590  1.00  0.00     0.004 C 
ENDBRANCH  12  13
ENDBRANCH  11  12
ENDBRANCH  10  11
ENDBRANCH   9  10
ENDBRANCH   1   9
TORSDOF 10
ENDMDL
