MODEL 1
REMARK VINA RESULT:    -6.966      0.000      0.000
REMARK INTER + INTRA:          -7.170
REMARK INTER:                  -7.170
REMARK INTRA:                   0.000
REMARK UNBOUND:                 0.000
REMARK SMILES O=c1ccc2ccc(O)cc2o1
REMARK SMILES IDX 6 1 7 2 8 3 10 4 11 5 5 6 4 7 3 8 2 9 1 10 12 11 9 12
REMARK H PARENT 9 13
REMARK Flexibility Score: inf
ROOT
ATOM      1  C   UNL     1     -29.637  19.087  -3.332  1.00  0.00     0.016 A 
ATOM      2  C   UNL     1     -28.884  19.769  -2.371  1.00  0.00     0.047 A 
ATOM      3  C   UNL     1     -29.483  20.752  -1.567  1.00  0.00     0.119 A 
ATOM      4  C   UNL     1     -30.841  21.051  -1.728  1.00  0.00     0.094 A 
ATOM      5  C   UNL     1     -31.603  20.375  -2.687  1.00  0.00     0.142 A 
ATOM      6  C   UNL     1     -30.997  19.386  -3.494  1.00  0.00     0.018 A 
ATOM      7  C   UNL     1     -31.785  18.726  -4.443  1.00  0.00     0.019 A 
ATOM      8  C   UNL     1     -33.133  19.061  -4.565  1.00  0.00     0.094 A 
ATOM      9  C   UNL     1     -33.664  20.050  -3.731  1.00  0.00     0.336 A 
ATOM     10  O   UNL     1     -34.879  20.365  -3.825  1.00  0.00    -0.246 OA
ATOM     11  O   UNL     1     -32.894  20.663  -2.836  1.00  0.00    -0.423 OA
ENDROOT
BRANCH   3  12
ATOM     12  O   UNL     1     -28.737  21.435  -0.609  1.00  0.00    -0.508 OA
ATOM     13  H   UNL     1     -28.088  22.167  -0.868  1.00  0.00     0.293 HD
ENDBRANCH   3  12
TORSDOF 1
ENDMDL
MODEL 2
REMARK VINA RESULT:    -6.847      1.611      2.288
REMARK INTER + INTRA:          -7.047
REMARK INTER:                  -7.047
REMARK INTRA:                   0.000
REMARK UNBOUND:                 0.000
REMARK SMILES O=c1ccc2ccc(O)cc2o1
REMARK SMILES IDX 6 1 7 2 8 3 10 4 11 5 5 6 4 7 3 8 2 9 1 10 12 11 9 12
REMARK H PARENT 9 13
REMARK Flexibility Score: inf
ROOT
ATOM      1  C   UNL     1     -31.336  21.132  -2.081  1.00  0.00     0.016 A 
ATOM      2  C   UNL     1     -29.978  21.014  -1.770  1.00  0.00     0.047 A 
ATOM      3  C   UNL     1     -29.217  19.961  -2.302  1.00  0.00     0.119 A 
ATOM      4  C   UNL     1     -29.821  19.024  -3.149  1.00  0.00     0.094 A 
ATOM      5  C   UNL     1     -31.179  19.133  -3.466  1.00  0.00     0.142 A 
ATOM      6  C   UNL     1     -31.942  20.195  -2.929  1.00  0.00     0.018 A 
ATOM      7  C   UNL     1     -33.297  20.278  -3.265  1.00  0.00     0.019 A 
ATOM      8  C   UNL     1     -33.852  19.319  -4.112  1.00  0.00     0.094 A 
ATOM      9  C   UNL     1     -33.036  18.296  -4.606  1.00  0.00     0.336 A 
ATOM     10  O   UNL     1     -33.518  17.423  -5.373  1.00  0.00    -0.246 OA
ATOM     11  O   UNL     1     -31.749  18.239  -4.272  1.00  0.00    -0.423 OA
ENDROOT
BRANCH   3  12
ATOM     12  O   UNL     1     -27.864  19.838  -1.995  1.00  0.00    -0.508 OA
ATOM     13  H   UNL     1     -27.302  20.643  -1.750  1.00  0.00     0.293 HD
ENDBRANCH   3  12
TORSDOF 1
ENDMDL
MODEL 3
REMARK VINA RESULT:    -6.549      1.659      4.763
REMARK INTER + INTRA:          -6.741
REMARK INTER:                  -6.741
REMARK INTRA:                   0.000
REMARK UNBOUND:                 0.000
REMARK SMILES O=c1ccc2ccc(O)cc2o1
REMARK SMILES IDX 6 1 7 2 8 3 10 4 11 5 5 6 4 7 3 8 2 9 1 10 12 11 9 12
REMARK H PARENT 9 13
REMARK Flexibility Score: inf
ROOT
ATOM      1  C   UNL     1     -33.385  20.374  -3.220  1.00  0.00     0.016 A 
ATOM      2  C   UNL     1     -33.978  19.447  -4.083  1.00  0.00     0.047 A 
ATOM      3  C   UNL     1     -33.214  18.411  -4.643  1.00  0.00     0.119 A 
ATOM      4  C   UNL     1     -31.852  18.305  -4.337  1.00  0.00     0.094 A 
ATOM      5  C   UNL     1     -31.250  19.228  -3.476  1.00  0.00     0.142 A 
ATOM      6  C   UNL     1     -32.021  20.270  -2.913  1.00  0.00     0.018 A 
ATOM      7  C   UNL     1     -31.391  21.176  -2.054  1.00  0.00     0.019 A 
ATOM      8  C   UNL     1     -30.032  21.028  -1.781  1.00  0.00     0.094 A 
ATOM      9  C   UNL     1     -29.332  19.972  -2.374  1.00  0.00     0.336 A 
ATOM     10  O   UNL     1     -28.104  19.822  -2.139  1.00  0.00    -0.246 OA
ATOM     11  O   UNL     1     -29.954  19.123  -3.188  1.00  0.00    -0.423 OA
ENDROOT
BRANCH   3  12
ATOM     12  O   UNL     1     -33.799  17.485  -5.504  1.00  0.00    -0.508 OA
ATOM     13  H   UNL     1     -34.355  17.779  -6.298  1.00  0.00     0.293 HD
ENDBRANCH   3  12
TORSDOF 1
ENDMDL
MODEL 4
REMARK VINA RESULT:    -6.374      0.826      4.241
REMARK INTER + INTRA:          -6.560
REMARK INTER:                  -6.560
REMARK INTRA:                   0.000
REMARK UNBOUND:                 0.000
REMARK SMILES O=c1ccc2ccc(O)cc2o1
REMARK SMILES IDX 6 1 7 2 8 3 10 4 11 5 5 6 4 7 3 8 2 9 1 10 12 11 9 12
REMARK H PARENT 9 13
REMARK Flexibility Score: inf
ROOT
ATOM      1  C   UNL     1     -31.311  18.544  -4.277  1.00  0.00     0.016 A 
ATOM      2  C   UNL     1     -32.623  18.931  -4.570  1.00  0.00     0.047 A 
ATOM      3  C   UNL     1     -33.193  20.042  -3.930  1.00  0.00     0.119 A 
ATOM      4  C   UNL     1     -32.446  20.767  -2.994  1.00  0.00     0.094 A 
ATOM      5  C   UNL     1     -31.134  20.387  -2.694  1.00  0.00     0.142 A 
ATOM      6  C   UNL     1     -30.562  19.268  -3.340  1.00  0.00     0.018 A 
ATOM      7  C   UNL     1     -29.247  18.914  -3.020  1.00  0.00     0.019 A 
ATOM      8  C   UNL     1     -28.545  19.667  -2.081  1.00  0.00     0.094 A 
ATOM      9  C   UNL     1     -29.175  20.763  -1.481  1.00  0.00     0.336 A 
ATOM     10  O   UNL     1     -28.557  21.456  -0.631  1.00  0.00    -0.246 OA
ATOM     11  O   UNL     1     -30.427  21.080  -1.803  1.00  0.00    -0.423 OA
ENDROOT
BRANCH   3  12
ATOM     12  O   UNL     1     -34.499  20.432  -4.217  1.00  0.00    -0.508 OA
ATOM     13  H   UNL     1     -34.883  20.349  -5.150  1.00  0.00     0.293 HD
ENDBRANCH   3  12
TORSDOF 1
ENDMDL
MODEL 5
REMARK VINA RESULT:    -5.869      2.454      3.681
REMARK INTER + INTRA:          -6.040
REMARK INTER:                  -6.040
REMARK INTRA:                   0.000
REMARK UNBOUND:                 0.000
REMARK SMILES O=c1ccc2ccc(O)cc2o1
REMARK SMILES IDX 6 1 7 2 8 3 10 4 11 5 5 6 4 7 3 8 2 9 1 10 12 11 9 12
REMARK H PARENT 9 13
REMARK Flexibility Score: inf
ROOT
ATOM      1  C   UNL     1     -31.935  19.933  -3.655  1.00  0.00     0.016 A 
ATOM      2  C   UNL     1     -31.855  21.039  -2.803  1.00  0.00     0.047 A 
ATOM      3  C   UNL     1     -30.842  21.116  -1.834  1.00  0.00     0.119 A 
ATOM      4  C   UNL     1     -29.908  20.080  -1.719  1.00  0.00     0.094 A 
ATOM      5  C   UNL     1     -29.980  18.969  -2.565  1.00  0.00     0.142 A 
ATOM      6  C   UNL     1     -31.000  18.894  -3.540  1.00  0.00     0.018 A 
ATOM      7  C   UNL     1     -31.046  17.772  -4.373  1.00  0.00     0.019 A 
ATOM      8  C   UNL     1     -30.093  16.766  -4.218  1.00  0.00     0.094 A 
ATOM      9  C   UNL     1     -29.112  16.907  -3.231  1.00  0.00     0.336 A 
ATOM     10  O   UNL     1     -28.243  16.010  -3.077  1.00  0.00    -0.246 OA
ATOM     11  O   UNL     1     -29.090  17.985  -2.452  1.00  0.00    -0.423 OA
ENDROOT
BRANCH   3  12
ATOM     12  O   UNL     1     -30.758  22.215  -0.983  1.00  0.00    -0.508 OA
ATOM     13  H   UNL     1     -29.869  22.534  -0.617  1.00  0.00     0.293 HD
ENDBRANCH   3  12
TORSDOF 1
ENDMDL
MODEL 6
REMARK VINA RESULT:    -5.545      1.839      4.786
REMARK INTER + INTRA:          -5.707
REMARK INTER:                  -5.707
REMARK INTRA:                   0.000
REMARK UNBOUND:                 0.000
REMARK SMILES O=c1ccc2ccc(O)cc2o1
REMARK SMILES IDX 6 1 7 2 8 3 10 4 11 5 5 6 4 7 3 8 2 9 1 10 12 11 9 12
REMARK H PARENT 9 13
REMARK Flexibility Score: inf
ROOT
ATOM      1  C   UNL     1     -31.960  21.016  -2.758  1.00  0.00     0.016 A 
ATOM      2  C   UNL     1     -32.942  20.467  -3.589  1.00  0.00     0.047 A 
ATOM      3  C   UNL     1     -32.772  19.186  -4.137  1.00  0.00     0.119 A 
ATOM      4  C   UNL     1     -31.614  18.454  -3.852  1.00  0.00     0.094 A 
ATOM      5  C   UNL     1     -30.626  18.994  -3.022  1.00  0.00     0.142 A 
ATOM      6  C   UNL     1     -30.799  20.283  -2.471  1.00  0.00     0.018 A 
ATOM      7  C   UNL     1     -29.794  20.796  -1.644  1.00  0.00     0.019 A 
ATOM      8  C   UNL     1     -28.659  20.027  -1.391  1.00  0.00     0.094 A 
ATOM      9  C   UNL     1     -28.555  18.758  -1.971  1.00  0.00     0.336 A 
ATOM     10  O   UNL     1     -27.539  18.049  -1.752  1.00  0.00    -0.246 OA
ATOM     11  O   UNL     1     -29.526  18.293  -2.753  1.00  0.00    -0.423 OA
ENDROOT
BRANCH   3  12
ATOM     12  O   UNL     1     -33.747  18.636  -4.966  1.00  0.00    -0.508 OA
ATOM     13  H   UNL     1     -34.071  19.119  -5.794  1.00  0.00     0.293 HD
ENDBRANCH   3  12
TORSDOF 1
ENDMDL
MODEL 7
REMARK VINA RESULT:    -5.468      2.654      4.448
REMARK INTER + INTRA:          -5.628
REMARK INTER:                  -5.628
REMARK INTRA:                   0.000
REMARK UNBOUND:                 0.000
REMARK SMILES O=c1ccc2ccc(O)cc2o1
REMARK SMILES IDX 6 1 7 2 8 3 10 4 11 5 5 6 4 7 3 8 2 9 1 10 12 11 9 12
REMARK H PARENT 9 13
REMARK Flexibility Score: inf
ROOT
ATOM      1  C   UNL     1     -30.725  20.199  -2.189  1.00  0.00     0.016 A 
ATOM      2  C   UNL     1     -31.860  20.776  -2.766  1.00  0.00     0.047 A 
ATOM      3  C   UNL     1     -32.499  20.153  -3.849  1.00  0.00     0.119 A 
ATOM      4  C   UNL     1     -31.996  18.949  -4.356  1.00  0.00     0.094 A 
ATOM      5  C   UNL     1     -30.860  18.364  -3.786  1.00  0.00     0.142 A 
ATOM      6  C   UNL     1     -30.220  18.993  -2.695  1.00  0.00     0.018 A 
ATOM      7  C   UNL     1     -29.087  18.384  -2.146  1.00  0.00     0.019 A 
ATOM      8  C   UNL     1     -28.625  17.185  -2.686  1.00  0.00     0.094 A 
ATOM      9  C   UNL     1     -29.310  16.620  -3.767  1.00  0.00     0.336 A 
ATOM     10  O   UNL     1     -28.909  15.537  -4.268  1.00  0.00    -0.246 OA
ATOM     11  O   UNL     1     -30.386  17.219  -4.271  1.00  0.00    -0.423 OA
ENDROOT
BRANCH   3  12
ATOM     12  O   UNL     1     -33.630  20.723  -4.429  1.00  0.00    -0.508 OA
ATOM     13  H   UNL     1     -33.654  20.972  -5.410  1.00  0.00     0.293 HD
ENDBRANCH   3  12
TORSDOF 1
ENDMDL
MODEL 8
REMARK VINA RESULT:    -5.419      3.005      4.467
REMARK INTER + INTRA:          -5.577
REMARK INTER:                  -5.577
REMARK INTRA:                   0.000
REMARK UNBOUND:                 0.000
REMARK SMILES O=c1ccc2ccc(O)cc2o1
REMARK SMILES IDX 6 1 7 2 8 3 10 4 11 5 5 6 4 7 3 8 2 9 1 10 12 11 9 12
REMARK H PARENT 9 13
REMARK Flexibility Score: inf
ROOT
ATOM      1  C   UNL     1     -30.795  19.185  -3.733  1.00  0.00     0.016 A 
ATOM      2  C   UNL     1     -31.819  20.137  -3.747  1.00  0.00     0.047 A 
ATOM      3  C   UNL     1     -33.104  19.790  -4.192  1.00  0.00     0.119 A 
ATOM      4  C   UNL     1     -33.363  18.484  -4.624  1.00  0.00     0.094 A 
ATOM      5  C   UNL     1     -32.345  17.524  -4.615  1.00  0.00     0.142 A 
ATOM      6  C   UNL     1     -31.052  17.877  -4.166  1.00  0.00     0.018 A 
ATOM      7  C   UNL     1     -30.056  16.895  -4.167  1.00  0.00     0.019 A 
ATOM      8  C   UNL     1     -30.363  15.609  -4.608  1.00  0.00     0.094 A 
ATOM      9  C   UNL     1     -31.665  15.332  -5.038  1.00  0.00     0.336 A 
ATOM     10  O   UNL     1     -31.962  14.177  -5.439  1.00  0.00    -0.246 OA
ATOM     11  O   UNL     1     -32.596  16.284  -5.027  1.00  0.00    -0.423 OA
ENDROOT
BRANCH   3  12
ATOM     12  O   UNL     1     -34.128  20.735  -4.208  1.00  0.00    -0.508 OA
ATOM     13  H   UNL     1     -35.079  20.480  -4.441  1.00  0.00     0.293 HD
ENDBRANCH   3  12
TORSDOF 1
ENDMDL
MODEL 9
REMARK VINA RESULT:    -5.249      2.021      2.821
REMARK INTER + INTRA:          -5.402
REMARK INTER:                  -5.402
REMARK INTRA:                   0.000
REMARK UNBOUND:                 0.000
REMARK SMILES O=c1ccc2ccc(O)cc2o1
REMARK SMILES IDX 6 1 7 2 8 3 10 4 11 5 5 6 4 7 3 8 2 9 1 10 12 11 9 12
REMARK H PARENT 9 13
REMARK Flexibility Score: inf
ROOT
ATOM      1  C   UNL     1     -29.091  20.108  -1.070  1.00  0.00     0.016 A 
ATOM      2  C   UNL     1     -28.105  19.118  -1.007  1.00  0.00     0.047 A 
ATOM      3  C   UNL     1     -28.154  18.013  -1.871  1.00  0.00     0.119 A 
ATOM      4  C   UNL     1     -29.194  17.901  -2.801  1.00  0.00     0.094 A 
ATOM      5  C   UNL     1     -30.185  18.885  -2.872  1.00  0.00     0.142 A 
ATOM      6  C   UNL     1     -30.133  19.997  -2.001  1.00  0.00     0.018 A 
ATOM      7  C   UNL     1     -31.137  20.966  -2.096  1.00  0.00     0.019 A 
ATOM      8  C   UNL     1     -32.153  20.808  -3.039  1.00  0.00     0.094 A 
ATOM      9  C   UNL     1     -32.139  19.682  -3.868  1.00  0.00     0.336 A 
ATOM     10  O   UNL     1     -33.047  19.522  -4.726  1.00  0.00    -0.246 OA
ATOM     11  O   UNL     1     -31.172  18.774  -3.758  1.00  0.00    -0.423 OA
ENDROOT
BRANCH   3  12
ATOM     12  O   UNL     1     -27.176  17.024  -1.811  1.00  0.00    -0.508 OA
ATOM     13  H   UNL     1     -26.575  16.921  -1.003  1.00  0.00     0.293 HD
ENDBRANCH   3  12
TORSDOF 1
ENDMDL
