MODEL 1
REMARK VINA RESULT:    -3.632      0.000      0.000
REMARK INTER + INTRA:         -12.323
REMARK INTER:                  -7.879
REMARK INTRA:                  -4.444
REMARK UNBOUND:                -4.444
REMARK SMILES CCCCCCCCCCCCCCCCCCCCCC(=O)[O-]
REMARK SMILES IDX 12 1 11 2 10 3 9 4 8 5 7 6 6 7 5 8 4 9 3 10 2 11 1 12 13 13
REMARK SMILES IDX 14 14 15 15 16 16 17 17 18 18 19 19 20 20 21 21 22 22 23 23
REMARK SMILES IDX 24 24
REMARK H PARENT
REMARK Flexibility Score: inf
ROOT
ATOM      1  C   UNL     1     164.453 160.354 181.968  1.00  0.00     0.000 C 
ENDROOT
BRANCH   1   2
ATOM      2  C   UNL     1     163.546 160.638 183.175  1.00  0.00     0.000 C 
BRANCH   2   3
ATOM      3  C   UNL     1     162.986 162.070 183.165  1.00  0.00     0.000 C 
BRANCH   3   4
ATOM      4  C   UNL     1     161.451 162.114 183.245  1.00  0.00    -0.000 C 
BRANCH   4   5
ATOM      5  C   UNL     1     160.769 160.826 182.739  1.00  0.00    -0.000 C 
BRANCH   5   6
ATOM      6  C   UNL     1     160.166 161.000 181.335  1.00  0.00    -0.000 C 
BRANCH   6   7
ATOM      7  C   UNL     1     161.193 160.777 180.211  1.00  0.00    -0.000 C 
BRANCH   7   8
ATOM      8  C   UNL     1     161.638 162.053 179.467  1.00  0.00    -0.000 C 
BRANCH   8   9
ATOM      9  C   UNL     1     160.665 163.243 179.562  1.00  0.00    -0.000 C 
BRANCH   9  10
ATOM     10  C   UNL     1     161.267 164.448 180.305  1.00  0.00    -0.000 C 
BRANCH  10  11
ATOM     11  C   UNL     1     162.804 164.438 180.295  1.00  0.00    -0.003 C 
ATOM     12  C   UNL     1     163.413 165.318 181.386  1.00  0.00     0.004 C 
ENDBRANCH  10  11
ENDBRANCH   9  10
ENDBRANCH   8   9
ENDBRANCH   7   8
ENDBRANCH   6   7
ENDBRANCH   5   6
ENDBRANCH   4   5
ENDBRANCH   3   4
ENDBRANCH   2   3
ENDBRANCH   1   2
BRANCH   1  13
ATOM     13  C   UNL     1     164.875 161.637 181.232  1.00  0.00     0.000 C 
BRANCH  13  14
ATOM     14  C   UNL     1     166.100 161.421 180.330  1.00  0.00     0.000 C 
BRANCH  14  15
ATOM     15  C   UNL     1     166.834 160.104 180.641  1.00  0.00     0.000 C 
BRANCH  15  16
ATOM     16  C   UNL     1     168.315 160.317 181.004  1.00  0.00     0.000 C 
BRANCH  16  17
ATOM     17  C   UNL     1     168.556 160.947 182.388  1.00  0.00     0.000 C 
BRANCH  17  18
ATOM     18  C   UNL     1     167.851 160.236 183.559  1.00  0.00     0.000 C 
BRANCH  18  19
ATOM     19  C   UNL     1     167.068 161.192 184.485  1.00  0.00     0.000 C 
BRANCH  19  20
ATOM     20  C   UNL     1     167.501 162.656 184.318  1.00  0.00     0.006 C 
BRANCH  20  21
ATOM     21  C   UNL     1     166.301 163.550 183.995  1.00  0.00     0.053 C 
BRANCH  21  22
ATOM     22  C   UNL     1     166.703 164.653 183.068  1.00  0.00     0.041 C 
ATOM     23  O   UNL     1     166.550 165.855 183.410  1.00  0.00    -0.550 OA
ATOM     24  O   UNL     1     167.292 164.354 181.847  1.00  0.00    -0.550 OA
ENDBRANCH  21  22
ENDBRANCH  20  21
ENDBRANCH  19  20
ENDBRANCH  18  19
ENDBRANCH  17  18
ENDBRANCH  16  17
ENDBRANCH  15  16
ENDBRANCH  14  15
ENDBRANCH  13  14
ENDBRANCH   1  13
TORSDOF 20
ENDMDL
MODEL 2
REMARK VINA RESULT:    -3.610      4.292      5.796
REMARK INTER + INTRA:         -12.274
REMARK INTER:                 -10.144
REMARK INTRA:                  -2.130
REMARK UNBOUND:                -4.444
REMARK SMILES CCCCCCCCCCCCCCCCCCCCCC(=O)[O-]
REMARK SMILES IDX 12 1 11 2 10 3 9 4 8 5 7 6 6 7 5 8 4 9 3 10 2 11 1 12 13 13
REMARK SMILES IDX 14 14 15 15 16 16 17 17 18 18 19 19 20 20 21 21 22 22 23 23
REMARK SMILES IDX 24 24
REMARK H PARENT
REMARK Flexibility Score: inf
ROOT
ATOM      1  C   UNL     1     166.306 160.956 183.656  1.00  0.00     0.000 C 
ENDROOT
BRANCH   1   2
ATOM      2  C   UNL     1     165.226 159.931 183.275  1.00  0.00     0.000 C 
BRANCH   2   3
ATOM      3  C   UNL     1     164.013 160.582 182.590  1.00  0.00     0.000 C 
BRANCH   3   4
ATOM      4  C   UNL     1     164.403 161.460 181.390  1.00  0.00    -0.000 C 
BRANCH   4   5
ATOM      5  C   UNL     1     163.784 162.873 181.432  1.00  0.00    -0.000 C 
BRANCH   5   6
ATOM      6  C   UNL     1     163.006 163.130 182.733  1.00  0.00    -0.000 C 
BRANCH   6   7
ATOM      7  C   UNL     1     161.680 163.875 182.500  1.00  0.00    -0.000 C 
BRANCH   7   8
ATOM      8  C   UNL     1     160.412 163.105 182.924  1.00  0.00    -0.000 C 
BRANCH   8   9
ATOM      9  C   UNL     1     160.663 161.729 183.569  1.00  0.00    -0.000 C 
BRANCH   9  10
ATOM     10  C   UNL     1     160.287 160.559 182.645  1.00  0.00    -0.000 C 
BRANCH  10  11
ATOM     11  C   UNL     1     160.052 161.008 181.193  1.00  0.00    -0.003 C 
ATOM     12  C   UNL     1     161.090 160.448 180.221  1.00  0.00     0.004 C 
ENDBRANCH  10  11
ENDBRANCH   9  10
ENDBRANCH   8   9
ENDBRANCH   7   8
ENDBRANCH   6   7
ENDBRANCH   5   6
ENDBRANCH   4   5
ENDBRANCH   3   4
ENDBRANCH   2   3
ENDBRANCH   1   2
BRANCH   1  13
ATOM     13  C   UNL     1     167.725 160.366 183.599  1.00  0.00     0.000 C 
BRANCH  13  14
ATOM     14  C   UNL     1     168.289 160.331 182.170  1.00  0.00     0.000 C 
BRANCH  14  15
ATOM     15  C   UNL     1     169.807 160.074 182.143  1.00  0.00     0.000 C 
BRANCH  15  16
ATOM     16  C   UNL     1     170.627 161.364 181.956  1.00  0.00     0.000 C 
BRANCH  16  17
ATOM     17  C   UNL     1     172.093 161.141 181.539  1.00  0.00     0.000 C 
BRANCH  17  18
ATOM     18  C   UNL     1     172.790 159.947 182.219  1.00  0.00     0.000 C 
BRANCH  18  19
ATOM     19  C   UNL     1     173.727 160.352 183.377  1.00  0.00     0.000 C 
BRANCH  19  20
ATOM     20  C   UNL     1     175.191 159.979 183.104  1.00  0.00     0.006 C 
BRANCH  20  21
ATOM     21  C   UNL     1     176.075 161.228 183.045  1.00  0.00     0.053 C 
BRANCH  21  22
ATOM     22  C   UNL     1     176.458 161.533 181.632  1.00  0.00     0.041 C 
ATOM     23  O   UNL     1     176.013 160.827 180.689  1.00  0.00    -0.550 OA
ATOM     24  O   UNL     1     177.266 162.627 181.351  1.00  0.00    -0.550 OA
ENDBRANCH  21  22
ENDBRANCH  20  21
ENDBRANCH  19  20
ENDBRANCH  18  19
ENDBRANCH  17  18
ENDBRANCH  16  17
ENDBRANCH  15  16
ENDBRANCH  14  15
ENDBRANCH  13  14
ENDBRANCH   1  13
TORSDOF 20
ENDMDL
MODEL 3
REMARK VINA RESULT:    -3.573      2.289      6.383
REMARK INTER + INTRA:         -12.194
REMARK INTER:                  -8.307
REMARK INTRA:                  -3.887
REMARK UNBOUND:                -4.444
REMARK SMILES CCCCCCCCCCCCCCCCCCCCCC(=O)[O-]
REMARK SMILES IDX 12 1 11 2 10 3 9 4 8 5 7 6 6 7 5 8 4 9 3 10 2 11 1 12 13 13
REMARK SMILES IDX 14 14 15 15 16 16 17 17 18 18 19 19 20 20 21 21 22 22 23 23
REMARK SMILES IDX 24 24
REMARK H PARENT
REMARK Flexibility Score: inf
ROOT
ATOM      1  C   UNL     1     165.869 164.283 181.855  1.00  0.00     0.000 C 
ENDROOT
BRANCH   1   2
ATOM      2  C   UNL     1     166.975 163.862 182.834  1.00  0.00     0.000 C 
BRANCH   2   3
ATOM      3  C   UNL     1     166.432 163.053 184.024  1.00  0.00     0.000 C 
BRANCH   3   4
ATOM      4  C   UNL     1     167.338 161.872 184.409  1.00  0.00    -0.000 C 
BRANCH   4   5
ATOM      5  C   UNL     1     166.846 160.514 183.867  1.00  0.00    -0.000 C 
BRANCH   5   6
ATOM      6  C   UNL     1     165.369 160.558 183.441  1.00  0.00    -0.000 C 
BRANCH   6   7
ATOM      7  C   UNL     1     165.167 160.239 181.949  1.00  0.00    -0.000 C 
BRANCH   7   8
ATOM      8  C   UNL     1     166.464 159.991 181.150  1.00  0.00    -0.000 C 
BRANCH   8   9
ATOM      9  C   UNL     1     166.886 161.135 180.209  1.00  0.00    -0.000 C 
BRANCH   9  10
ATOM     10  C   UNL     1     168.410 161.335 180.158  1.00  0.00    -0.000 C 
BRANCH  10  11
ATOM     11  C   UNL     1     169.168 160.300 181.005  1.00  0.00    -0.003 C 
ATOM     12  C   UNL     1     170.093 160.940 182.039  1.00  0.00     0.004 C 
ENDBRANCH  10  11
ENDBRANCH   9  10
ENDBRANCH   8   9
ENDBRANCH   7   8
ENDBRANCH   6   7
ENDBRANCH   5   6
ENDBRANCH   4   5
ENDBRANCH   3   4
ENDBRANCH   2   3
ENDBRANCH   1   2
BRANCH   1  13
ATOM     13  C   UNL     1     164.461 164.142 182.459  1.00  0.00     0.000 C 
BRANCH  13  14
ATOM     14  C   UNL     1     163.353 164.275 181.404  1.00  0.00     0.000 C 
BRANCH  14  15
ATOM     15  C   UNL     1     161.969 163.885 181.953  1.00  0.00     0.000 C 
BRANCH  15  16
ATOM     16  C   UNL     1     162.052 162.986 183.200  1.00  0.00     0.000 C 
BRANCH  16  17
ATOM     17  C   UNL     1     160.791 162.147 183.476  1.00  0.00     0.000 C 
BRANCH  17  18
ATOM     18  C   UNL     1     160.798 160.736 182.858  1.00  0.00     0.000 C 
BRANCH  18  19
ATOM     19  C   UNL     1     159.876 160.592 181.627  1.00  0.00     0.000 C 
BRANCH  19  20
ATOM     20  C   UNL     1     160.611 160.872 180.308  1.00  0.00     0.006 C 
BRANCH  20  21
ATOM     21  C   UNL     1     162.094 160.506 180.417  1.00  0.00     0.053 C 
BRANCH  21  22
ATOM     22  C   UNL     1     162.824 160.897 179.172  1.00  0.00     0.041 C 
ATOM     23  O   UNL     1     163.693 160.129 178.679  1.00  0.00    -0.550 OA
ATOM     24  O   UNL     1     162.511 162.086 178.526  1.00  0.00    -0.550 OA
ENDBRANCH  21  22
ENDBRANCH  20  21
ENDBRANCH  19  20
ENDBRANCH  18  19
ENDBRANCH  17  18
ENDBRANCH  16  17
ENDBRANCH  15  16
ENDBRANCH  14  15
ENDBRANCH  13  14
ENDBRANCH   1  13
TORSDOF 20
ENDMDL
MODEL 4
REMARK VINA RESULT:    -3.470      2.701      5.979
REMARK INTER + INTRA:         -11.970
REMARK INTER:                  -8.303
REMARK INTRA:                  -3.667
REMARK UNBOUND:                -4.444
REMARK SMILES CCCCCCCCCCCCCCCCCCCCCC(=O)[O-]
REMARK SMILES IDX 12 1 11 2 10 3 9 4 8 5 7 6 6 7 5 8 4 9 3 10 2 11 1 12 13 13
REMARK SMILES IDX 14 14 15 15 16 16 17 17 18 18 19 19 20 20 21 21 22 22 23 23
REMARK SMILES IDX 24 24
REMARK H PARENT
REMARK Flexibility Score: inf
ROOT
ATOM      1  C   UNL     1     163.634 162.250 183.051  1.00  0.00     0.000 C 
ENDROOT
BRANCH   1   2
ATOM      2  C   UNL     1     163.687 160.725 182.872  1.00  0.00     0.000 C 
BRANCH   2   3
ATOM      3  C   UNL     1     164.945 160.264 182.117  1.00  0.00     0.000 C 
BRANCH   3   4
ATOM      4  C   UNL     1     165.494 161.334 181.158  1.00  0.00    -0.000 C 
BRANCH   4   5
ATOM      5  C   UNL     1     166.221 160.749 179.931  1.00  0.00    -0.000 C 
BRANCH   5   6
ATOM      6  C   UNL     1     165.240 160.235 178.863  1.00  0.00    -0.000 C 
BRANCH   6   7
ATOM      7  C   UNL     1     165.046 161.228 177.703  1.00  0.00    -0.000 C 
BRANCH   7   8
ATOM      8  C   UNL     1     164.084 160.757 176.592  1.00  0.00    -0.000 C 
BRANCH   8   9
ATOM      9  C   UNL     1     163.566 161.867 175.658  1.00  0.00    -0.000 C 
BRANCH   9  10
ATOM     10  C   UNL     1     162.321 162.581 176.212  1.00  0.00    -0.000 C 
BRANCH  10  11
ATOM     11  C   UNL     1     161.042 161.744 176.051  1.00  0.00    -0.003 C 
ATOM     12  C   UNL     1     160.787 161.320 174.605  1.00  0.00     0.004 C 
ENDBRANCH  10  11
ENDBRANCH   9  10
ENDBRANCH   8   9
ENDBRANCH   7   8
ENDBRANCH   6   7
ENDBRANCH   5   6
ENDBRANCH   4   5
ENDBRANCH   3   4
ENDBRANCH   2   3
ENDBRANCH   1   2
BRANCH   1  13
ATOM     13  C   UNL     1     162.207 162.765 183.304  1.00  0.00     0.000 C 
BRANCH  13  14
ATOM     14  C   UNL     1     161.226 161.633 183.647  1.00  0.00     0.000 C 
BRANCH  14  15
ATOM     15  C   UNL     1     160.058 161.546 182.649  1.00  0.00     0.000 C 
BRANCH  15  16
ATOM     16  C   UNL     1     160.175 160.343 181.695  1.00  0.00     0.000 C 
BRANCH  16  17
ATOM     17  C   UNL     1     160.289 160.711 180.204  1.00  0.00     0.000 C 
BRANCH  17  18
ATOM     18  C   UNL     1     161.716 161.023 179.716  1.00  0.00     0.000 C 
BRANCH  18  19
ATOM     19  C   UNL     1     162.079 162.523 179.775  1.00  0.00     0.000 C 
BRANCH  19  20
ATOM     20  C   UNL     1     160.858 163.430 179.569  1.00  0.00     0.006 C 
BRANCH  20  21
ATOM     21  C   UNL     1     161.267 164.906 179.552  1.00  0.00     0.053 C 
BRANCH  21  22
ATOM     22  C   UNL     1     161.135 165.502 180.918  1.00  0.00     0.041 C 
ATOM     23  O   UNL     1     162.163 165.823 181.570  1.00  0.00    -0.550 OA
ATOM     24  O   UNL     1     159.877 165.750 181.450  1.00  0.00    -0.550 OA
ENDBRANCH  21  22
ENDBRANCH  20  21
ENDBRANCH  19  20
ENDBRANCH  18  19
ENDBRANCH  17  18
ENDBRANCH  16  17
ENDBRANCH  15  16
ENDBRANCH  14  15
ENDBRANCH  13  14
ENDBRANCH   1  13
TORSDOF 20
ENDMDL
MODEL 5
REMARK VINA RESULT:    -3.441      2.185      3.932
REMARK INTER + INTRA:         -11.909
REMARK INTER:                  -8.096
REMARK INTRA:                  -3.813
REMARK UNBOUND:                -4.444
REMARK SMILES CCCCCCCCCCCCCCCCCCCCCC(=O)[O-]
REMARK SMILES IDX 12 1 11 2 10 3 9 4 8 5 7 6 6 7 5 8 4 9 3 10 2 11 1 12 13 13
REMARK SMILES IDX 14 14 15 15 16 16 17 17 18 18 19 19 20 20 21 21 22 22 23 23
REMARK SMILES IDX 24 24
REMARK H PARENT
REMARK Flexibility Score: inf
ROOT
ATOM      1  C   UNL     1     166.413 164.370 181.823  1.00  0.00     0.000 C 
ENDROOT
BRANCH   1   2
ATOM      2  C   UNL     1     164.990 163.860 181.550  1.00  0.00     0.000 C 
BRANCH   2   3
ATOM      3  C   UNL     1     163.972 164.377 182.580  1.00  0.00     0.000 C 
BRANCH   3   4
ATOM      4  C   UNL     1     163.297 163.247 183.374  1.00  0.00    -0.000 C 
BRANCH   4   5
ATOM      5  C   UNL     1     163.774 161.837 182.969  1.00  0.00    -0.000 C 
BRANCH   5   6
ATOM      6  C   UNL     1     162.600 160.882 182.697  1.00  0.00    -0.000 C 
BRANCH   6   7
ATOM      7  C   UNL     1     161.288 161.344 183.355  1.00  0.00    -0.000 C 
BRANCH   7   8
ATOM      8  C   UNL     1     160.135 161.649 182.376  1.00  0.00    -0.000 C 
BRANCH   8   9
ATOM      9  C   UNL     1     160.569 162.079 180.963  1.00  0.00    -0.000 C 
BRANCH   9  10
ATOM     10  C   UNL     1     160.443 163.596 180.736  1.00  0.00    -0.000 C 
BRANCH  10  11
ATOM     11  C   UNL     1     159.952 164.339 181.989  1.00  0.00    -0.003 C 
ATOM     12  C   UNL     1     160.423 165.792 182.042  1.00  0.00     0.004 C 
ENDBRANCH  10  11
ENDBRANCH   9  10
ENDBRANCH   8   9
ENDBRANCH   7   8
ENDBRANCH   6   7
ENDBRANCH   5   6
ENDBRANCH   4   5
ENDBRANCH   3   4
ENDBRANCH   2   3
ENDBRANCH   1   2
BRANCH   1  13
ATOM     13  C   UNL     1     166.776 164.335 183.318  1.00  0.00     0.000 C 
BRANCH  13  14
ATOM     14  C   UNL     1     167.808 163.245 183.646  1.00  0.00     0.000 C 
BRANCH  14  15
ATOM     15  C   UNL     1     167.189 162.061 184.412  1.00  0.00     0.000 C 
BRANCH  15  16
ATOM     16  C   UNL     1     167.295 160.732 183.642  1.00  0.00     0.000 C 
BRANCH  16  17
ATOM     17  C   UNL     1     168.519 160.618 182.715  1.00  0.00     0.000 C 
BRANCH  17  18
ATOM     18  C   UNL     1     168.199 160.247 181.255  1.00  0.00     0.000 C 
BRANCH  18  19
ATOM     19  C   UNL     1     167.899 161.467 180.356  1.00  0.00     0.000 C 
BRANCH  19  20
ATOM     20  C   UNL     1     166.812 161.173 179.312  1.00  0.00     0.006 C 
BRANCH  20  21
ATOM     21  C   UNL     1     165.560 160.588 179.972  1.00  0.00     0.053 C 
BRANCH  21  22
ATOM     22  C   UNL     1     164.358 160.821 179.113  1.00  0.00     0.041 C 
ATOM     23  O   UNL     1     163.307 160.153 179.302  1.00  0.00    -0.550 OA
ATOM     24  O   UNL     1     164.380 161.809 178.138  1.00  0.00    -0.550 OA
ENDBRANCH  21  22
ENDBRANCH  20  21
ENDBRANCH  19  20
ENDBRANCH  18  19
ENDBRANCH  17  18
ENDBRANCH  16  17
ENDBRANCH  15  16
ENDBRANCH  14  15
ENDBRANCH  13  14
ENDBRANCH   1  13
TORSDOF 20
ENDMDL
MODEL 6
REMARK VINA RESULT:    -3.422      1.782      3.427
REMARK INTER + INTRA:         -11.868
REMARK INTER:                  -7.870
REMARK INTRA:                  -3.998
REMARK UNBOUND:                -4.444
REMARK SMILES CCCCCCCCCCCCCCCCCCCCCC(=O)[O-]
REMARK SMILES IDX 12 1 11 2 10 3 9 4 8 5 7 6 6 7 5 8 4 9 3 10 2 11 1 12 13 13
REMARK SMILES IDX 14 14 15 15 16 16 17 17 18 18 19 19 20 20 21 21 22 22 23 23
REMARK SMILES IDX 24 24
REMARK H PARENT
REMARK Flexibility Score: inf
ROOT
ATOM      1  C   UNL     1     162.126 164.424 181.085  1.00  0.00     0.000 C 
ENDROOT
BRANCH   1   2
ATOM      2  C   UNL     1     161.359 164.583 182.407  1.00  0.00     0.000 C 
BRANCH   2   3
ATOM      3  C   UNL     1     160.222 163.559 182.555  1.00  0.00     0.000 C 
BRANCH   3   4
ATOM      4  C   UNL     1     160.631 162.325 183.376  1.00  0.00    -0.000 C 
BRANCH   4   5
ATOM      5  C   UNL     1     160.396 160.989 182.643  1.00  0.00    -0.000 C 
BRANCH   5   6
ATOM      6  C   UNL     1     160.241 161.177 181.124  1.00  0.00    -0.000 C 
BRANCH   6   7
ATOM      7  C   UNL     1     161.249 160.345 180.312  1.00  0.00    -0.000 C 
BRANCH   7   8
ATOM      8  C   UNL     1     162.052 161.134 179.257  1.00  0.00    -0.000 C 
BRANCH   8   9
ATOM      9  C   UNL     1     163.421 160.533 178.887  1.00  0.00    -0.000 C 
BRANCH   9  10
ATOM     10  C   UNL     1     164.434 161.595 178.425  1.00  0.00    -0.000 C 
BRANCH  10  11
ATOM     11  C   UNL     1     165.858 161.306 178.928  1.00  0.00    -0.003 C 
ATOM     12  C   UNL     1     166.544 162.540 179.513  1.00  0.00     0.004 C 
ENDBRANCH  10  11
ENDBRANCH   9  10
ENDBRANCH   8   9
ENDBRANCH   7   8
ENDBRANCH   6   7
ENDBRANCH   5   6
ENDBRANCH   4   5
ENDBRANCH   3   4
ENDBRANCH   2   3
ENDBRANCH   1   2
BRANCH   1  13
ATOM     13  C   UNL     1     163.447 163.655 181.259  1.00  0.00     0.000 C 
BRANCH  13  14
ATOM     14  C   UNL     1     164.051 163.835 182.661  1.00  0.00     0.000 C 
BRANCH  14  15
ATOM     15  C   UNL     1     164.370 162.491 183.340  1.00  0.00     0.000 C 
BRANCH  15  16
ATOM     16  C   UNL     1     164.202 161.289 182.393  1.00  0.00     0.000 C 
BRANCH  16  17
ATOM     17  C   UNL     1     165.365 160.280 182.419  1.00  0.00     0.000 C 
BRANCH  17  18
ATOM     18  C   UNL     1     166.110 160.178 183.764  1.00  0.00     0.000 C 
BRANCH  18  19
ATOM     19  C   UNL     1     167.630 160.427 183.653  1.00  0.00     0.000 C 
BRANCH  19  20
ATOM     20  C   UNL     1     167.960 161.683 182.833  1.00  0.00     0.006 C 
BRANCH  20  21
ATOM     21  C   UNL     1     169.348 161.572 182.194  1.00  0.00     0.053 C 
BRANCH  21  22
ATOM     22  C   UNL     1     169.929 162.931 181.965  1.00  0.00     0.041 C 
ATOM     23  O   UNL     1     170.261 163.290 180.804  1.00  0.00    -0.550 OA
ATOM     24  O   UNL     1     170.058 163.821 183.023  1.00  0.00    -0.550 OA
ENDBRANCH  21  22
ENDBRANCH  20  21
ENDBRANCH  19  20
ENDBRANCH  18  19
ENDBRANCH  17  18
ENDBRANCH  16  17
ENDBRANCH  15  16
ENDBRANCH  14  15
ENDBRANCH  13  14
ENDBRANCH   1  13
TORSDOF 20
ENDMDL
MODEL 7
REMARK VINA RESULT:    -3.404      2.028      6.164
REMARK INTER + INTRA:         -11.828
REMARK INTER:                  -7.698
REMARK INTRA:                  -4.130
REMARK UNBOUND:                -4.444
REMARK SMILES CCCCCCCCCCCCCCCCCCCCCC(=O)[O-]
REMARK SMILES IDX 12 1 11 2 10 3 9 4 8 5 7 6 6 7 5 8 4 9 3 10 2 11 1 12 13 13
REMARK SMILES IDX 14 14 15 15 16 16 17 17 18 18 19 19 20 20 21 21 22 22 23 23
REMARK SMILES IDX 24 24
REMARK H PARENT
REMARK Flexibility Score: inf
ROOT
ATOM      1  C   UNL     1     163.559 162.100 182.748  1.00  0.00     0.000 C 
ENDROOT
BRANCH   1   2
ATOM      2  C   UNL     1     163.762 160.594 182.520  1.00  0.00     0.000 C 
BRANCH   2   3
ATOM      3  C   UNL     1     165.000 160.050 183.252  1.00  0.00     0.000 C 
BRANCH   3   4
ATOM      4  C   UNL     1     165.991 161.154 183.656  1.00  0.00    -0.000 C 
BRANCH   4   5
ATOM      5  C   UNL     1     167.434 160.647 183.852  1.00  0.00    -0.000 C 
BRANCH   5   6
ATOM      6  C   UNL     1     168.419 161.298 182.867  1.00  0.00    -0.000 C 
BRANCH   6   7
ATOM      7  C   UNL     1     168.878 160.336 181.757  1.00  0.00    -0.000 C 
BRANCH   7   8
ATOM      8  C   UNL     1     168.292 160.619 180.359  1.00  0.00    -0.000 C 
BRANCH   8   9
ATOM      9  C   UNL     1     166.795 160.295 180.195  1.00  0.00    -0.000 C 
BRANCH   9  10
ATOM     10  C   UNL     1     165.978 161.491 179.679  1.00  0.00    -0.000 C 
BRANCH  10  11
ATOM     11  C   UNL     1     166.748 162.817 179.779  1.00  0.00    -0.003 C 
ATOM     12  C   UNL     1     166.254 163.708 180.918  1.00  0.00     0.004 C 
ENDBRANCH  10  11
ENDBRANCH   9  10
ENDBRANCH   8   9
ENDBRANCH   7   8
ENDBRANCH   6   7
ENDBRANCH   5   6
ENDBRANCH   4   5
ENDBRANCH   3   4
ENDBRANCH   2   3
ENDBRANCH   1   2
BRANCH   1  13
ATOM     13  C   UNL     1     162.144 162.435 183.252  1.00  0.00     0.000 C 
BRANCH  13  14
ATOM     14  C   UNL     1     161.242 161.194 183.337  1.00  0.00     0.000 C 
BRANCH  14  15
ATOM     15  C   UNL     1     160.064 161.256 182.349  1.00  0.00     0.000 C 
BRANCH  15  16
ATOM     16  C   UNL     1     160.309 160.428 181.074  1.00  0.00     0.000 C 
BRANCH  16  17
ATOM     17  C   UNL     1     160.607 161.260 179.812  1.00  0.00     0.000 C 
BRANCH  17  18
ATOM     18  C   UNL     1     162.091 161.316 179.403  1.00  0.00     0.000 C 
BRANCH  18  19
ATOM     19  C   UNL     1     162.495 162.635 178.711  1.00  0.00     0.000 C 
BRANCH  19  20
ATOM     20  C   UNL     1     162.686 163.787 179.709  1.00  0.00     0.006 C 
BRANCH  20  21
ATOM     21  C   UNL     1     161.508 164.765 179.650  1.00  0.00     0.053 C 
BRANCH  21  22
ATOM     22  C   UNL     1     161.010 165.068 181.028  1.00  0.00     0.041 C 
ATOM     23  O   UNL     1     159.876 164.661 181.394  1.00  0.00    -0.550 OA
ATOM     24  O   UNL     1     161.817 165.757 181.923  1.00  0.00    -0.550 OA
ENDBRANCH  21  22
ENDBRANCH  20  21
ENDBRANCH  19  20
ENDBRANCH  18  19
ENDBRANCH  17  18
ENDBRANCH  16  17
ENDBRANCH  15  16
ENDBRANCH  14  15
ENDBRANCH  13  14
ENDBRANCH   1  13
TORSDOF 20
ENDMDL
MODEL 8
REMARK VINA RESULT:    -3.369      2.344      6.359
REMARK INTER + INTRA:         -11.752
REMARK INTER:                  -7.833
REMARK INTRA:                  -3.919
REMARK UNBOUND:                -4.444
REMARK SMILES CCCCCCCCCCCCCCCCCCCCCC(=O)[O-]
REMARK SMILES IDX 12 1 11 2 10 3 9 4 8 5 7 6 6 7 5 8 4 9 3 10 2 11 1 12 13 13
REMARK SMILES IDX 14 14 15 15 16 16 17 17 18 18 19 19 20 20 21 21 22 22 23 23
REMARK SMILES IDX 24 24
REMARK H PARENT
REMARK Flexibility Score: inf
ROOT
ATOM      1  C   UNL     1     164.263 163.376 181.207  1.00  0.00     0.000 C 
ENDROOT
BRANCH   1   2
ATOM      2  C   UNL     1     165.008 163.572 182.536  1.00  0.00     0.000 C 
BRANCH   2   3
ATOM      3  C   UNL     1     164.743 162.432 183.533  1.00  0.00     0.000 C 
BRANCH   3   4
ATOM      4  C   UNL     1     164.444 161.091 182.843  1.00  0.00    -0.000 C 
BRANCH   4   5
ATOM      5  C   UNL     1     165.412 159.960 183.247  1.00  0.00    -0.000 C 
BRANCH   5   6
ATOM      6  C   UNL     1     166.623 160.483 184.039  1.00  0.00    -0.000 C 
BRANCH   6   7
ATOM      7  C   UNL     1     167.935 160.413 183.239  1.00  0.00    -0.000 C 
BRANCH   7   8
ATOM      8  C   UNL     1     168.213 161.625 182.326  1.00  0.00    -0.000 C 
BRANCH   8   9
ATOM      9  C   UNL     1     168.364 161.300 180.829  1.00  0.00    -0.000 C 
BRANCH   9  10
ATOM     10  C   UNL     1     167.016 161.034 180.137  1.00  0.00    -0.000 C 
BRANCH  10  11
ATOM     11  C   UNL     1     167.052 161.356 178.634  1.00  0.00    -0.003 C 
ATOM     12  C   UNL     1     166.486 162.738 178.308  1.00  0.00     0.004 C 
ENDBRANCH  10  11
ENDBRANCH   9  10
ENDBRANCH   8   9
ENDBRANCH   7   8
ENDBRANCH   6   7
ENDBRANCH   5   6
ENDBRANCH   4   5
ENDBRANCH   3   4
ENDBRANCH   2   3
ENDBRANCH   1   2
BRANCH   1  13
ATOM     13  C   UNL     1     163.407 164.597 180.825  1.00  0.00     0.000 C 
BRANCH  13  14
ATOM     14  C   UNL     1     162.324 164.905 181.871  1.00  0.00     0.000 C 
BRANCH  14  15
ATOM     15  C   UNL     1     160.954 164.319 181.489  1.00  0.00     0.000 C 
BRANCH  15  16
ATOM     16  C   UNL     1     160.212 163.700 182.688  1.00  0.00     0.000 C 
BRANCH  16  17
ATOM     17  C   UNL     1     160.982 162.583 183.416  1.00  0.00     0.000 C 
BRANCH  17  18
ATOM     18  C   UNL     1     160.561 161.149 183.041  1.00  0.00     0.000 C 
BRANCH  18  19
ATOM     19  C   UNL     1     160.262 160.964 181.537  1.00  0.00     0.000 C 
BRANCH  19  20
ATOM     20  C   UNL     1     161.505 160.544 180.739  1.00  0.00     0.006 C 
BRANCH  20  21
ATOM     21  C   UNL     1     161.568 161.276 179.395  1.00  0.00     0.053 C 
BRANCH  21  22
ATOM     22  C   UNL     1     162.879 161.022 178.721  1.00  0.00     0.041 C 
ATOM     23  O   UNL     1     163.690 160.191 179.207  1.00  0.00    -0.550 OA
ATOM     24  O   UNL     1     163.184 161.666 177.529  1.00  0.00    -0.550 OA
ENDBRANCH  21  22
ENDBRANCH  20  21
ENDBRANCH  19  20
ENDBRANCH  18  19
ENDBRANCH  17  18
ENDBRANCH  16  17
ENDBRANCH  15  16
ENDBRANCH  14  15
ENDBRANCH  13  14
ENDBRANCH   1  13
TORSDOF 20
ENDMDL
MODEL 9
REMARK VINA RESULT:    -3.358      2.843      4.928
REMARK INTER + INTRA:         -11.729
REMARK INTER:                  -7.982
REMARK INTRA:                  -3.747
REMARK UNBOUND:                -4.444
REMARK SMILES CCCCCCCCCCCCCCCCCCCCCC(=O)[O-]
REMARK SMILES IDX 12 1 11 2 10 3 9 4 8 5 7 6 6 7 5 8 4 9 3 10 2 11 1 12 13 13
REMARK SMILES IDX 14 14 15 15 16 16 17 17 18 18 19 19 20 20 21 21 22 22 23 23
REMARK SMILES IDX 24 24
REMARK H PARENT
REMARK Flexibility Score: inf
ROOT
ATOM      1  C   UNL     1     165.475 160.020 183.104  1.00  0.00     0.000 C 
ENDROOT
BRANCH   1   2
ATOM      2  C   UNL     1     164.139 160.741 182.868  1.00  0.00     0.000 C 
BRANCH   2   3
ATOM      3  C   UNL     1     164.200 161.723 181.686  1.00  0.00     0.000 C 
BRANCH   3   4
ATOM      4  C   UNL     1     164.010 163.187 182.115  1.00  0.00    -0.000 C 
BRANCH   4   5
ATOM      5  C   UNL     1     162.864 163.391 183.128  1.00  0.00    -0.000 C 
BRANCH   5   6
ATOM      6  C   UNL     1     161.584 163.920 182.460  1.00  0.00    -0.000 C 
BRANCH   6   7
ATOM      7  C   UNL     1     160.334 163.105 182.836  1.00  0.00    -0.000 C 
BRANCH   7   8
ATOM      8  C   UNL     1     160.610 161.798 183.609  1.00  0.00    -0.000 C 
BRANCH   8   9
ATOM      9  C   UNL     1     160.492 160.506 182.780  1.00  0.00    -0.000 C 
BRANCH   9  10
ATOM     10  C   UNL     1     159.927 160.750 181.371  1.00  0.00    -0.000 C 
BRANCH  10  11
ATOM     11  C   UNL     1     160.982 160.552 180.271  1.00  0.00    -0.003 C 
ATOM     12  C   UNL     1     161.128 161.769 179.359  1.00  0.00     0.004 C 
ENDBRANCH  10  11
ENDBRANCH   9  10
ENDBRANCH   8   9
ENDBRANCH   7   8
ENDBRANCH   6   7
ENDBRANCH   5   6
ENDBRANCH   4   5
ENDBRANCH   3   4
ENDBRANCH   2   3
ENDBRANCH   1   2
BRANCH   1  13
ATOM     13  C   UNL     1     166.576 160.969 183.610  1.00  0.00     0.000 C 
BRANCH  13  14
ATOM     14  C   UNL     1     167.828 160.945 182.720  1.00  0.00     0.000 C 
BRANCH  14  15
ATOM     15  C   UNL     1     167.571 160.266 181.363  1.00  0.00     0.000 C 
BRANCH  15  16
ATOM     16  C   UNL     1     167.817 161.206 180.168  1.00  0.00     0.000 C 
BRANCH  16  17
ATOM     17  C   UNL     1     166.703 161.204 179.105  1.00  0.00     0.000 C 
BRANCH  17  18
ATOM     18  C   UNL     1     165.852 159.920 179.056  1.00  0.00     0.000 C 
BRANCH  18  19
ATOM     19  C   UNL     1     164.491 160.105 178.349  1.00  0.00     0.000 C 
BRANCH  19  20
ATOM     20  C   UNL     1     164.338 161.499 177.725  1.00  0.00     0.006 C 
BRANCH  20  21
ATOM     21  C   UNL     1     163.498 161.440 176.446  1.00  0.00     0.053 C 
BRANCH  21  22
ATOM     22  C   UNL     1     163.842 162.578 175.539  1.00  0.00     0.041 C 
ATOM     23  O   UNL     1     162.930 163.220 174.955  1.00  0.00    -0.550 OA
ATOM     24  O   UNL     1     165.167 162.962 175.376  1.00  0.00    -0.550 OA
ENDBRANCH  21  22
ENDBRANCH  20  21
ENDBRANCH  19  20
ENDBRANCH  18  19
ENDBRANCH  17  18
ENDBRANCH  16  17
ENDBRANCH  15  16
ENDBRANCH  14  15
ENDBRANCH  13  14
ENDBRANCH   1  13
TORSDOF 20
ENDMDL
