MODEL 1
REMARK VINA RESULT:    25.132      0.000      0.000
REMARK INTER + INTRA:          29.948
REMARK INTER:                  29.539
REMARK INTRA:                   0.409
REMARK UNBOUND:                 0.409
REMARK SMILES O=c1c(O)c(-c2ccc(O)cc2)oc2cc(O)cc(O)c12
REMARK SMILES IDX 5 1 3 2 2 3 1 4 21 5 19 6 18 7 16 8 15 9 14 10 13 11 6 12
REMARK SMILES IDX 7 13 8 14 9 15 12 16 11 17 10 18 4 20 20 22 17 24
REMARK H PARENT 10 19 4 21 20 23 17 25
REMARK Flexibility Score: inf
ROOT
ATOM      1  C   UNL     1      -5.478  -2.447  13.003  1.00  0.00     0.180 A 
ATOM      2  C   UNL     1      -6.293  -1.913  11.986  1.00  0.00     0.208 A 
ATOM      3  C   UNL     1      -7.687  -1.946  12.146  1.00  0.00     0.238 A 
ATOM      4  O   UNL     1      -8.427  -1.481  11.236  1.00  0.00    -0.285 OA
ATOM      5  C   UNL     1      -8.241  -2.490  13.323  1.00  0.00     0.111 A 
ATOM      6  C   UNL     1      -9.635  -2.557  13.564  1.00  0.00     0.134 A 
ATOM      7  C   UNL     1     -10.108  -3.105  14.766  1.00  0.00     0.093 A 
ATOM      8  C   UNL     1      -9.217  -3.586  15.729  1.00  0.00     0.123 A 
ATOM      9  C   UNL     1      -7.839  -3.523  15.496  1.00  0.00     0.094 A 
ATOM     10  C   UNL     1      -7.349  -2.981  14.305  1.00  0.00     0.146 A 
ATOM     11  O   UNL     1      -6.036  -2.939  14.107  1.00  0.00    -0.452 OA
ENDROOT
BRANCH   1  12
ATOM     12  C   UNL     1      -4.001  -2.466  12.901  1.00  0.00     0.021 A 
ATOM     13  C   UNL     1      -3.351  -1.513  12.099  1.00  0.00     0.016 A 
ATOM     14  C   UNL     1      -1.956  -1.499  12.006  1.00  0.00     0.047 A 
ATOM     15  C   UNL     1      -1.193  -2.426  12.723  1.00  0.00     0.115 A 
ATOM     16  C   UNL     1      -3.228  -3.384  13.637  1.00  0.00     0.016 A 
ATOM     17  C   UNL     1      -1.833  -3.366  13.542  1.00  0.00     0.047 A 
BRANCH  15  18
ATOM     18  O   UNL     1       0.195  -2.400  12.621  1.00  0.00    -0.508 OA
ATOM     19  H   UNL     1       0.661  -1.935  11.850  1.00  0.00     0.293 HD
ENDBRANCH  15  18
ENDBRANCH   1  12
BRANCH   2  20
ATOM     20  O   UNL     1      -5.718  -1.335  10.852  1.00  0.00    -0.502 OA
ATOM     21  H   UNL     1      -4.839  -1.655  10.464  1.00  0.00     0.293 HD
ENDBRANCH   2  20
BRANCH   6  22
ATOM     22  O   UNL     1     -10.550  -2.085  12.623  1.00  0.00    -0.507 OA
ATOM     23  H   UNL     1     -10.913  -2.679  11.887  1.00  0.00     0.293 HD
ENDBRANCH   6  22
BRANCH   8  24
ATOM     24  O   UNL     1      -9.713  -4.125  16.914  1.00  0.00    -0.508 OA
ATOM     25  H   UNL     1      -9.976  -3.534  17.695  1.00  0.00     0.293 HD
ENDBRANCH   8  24
TORSDOF 5
ENDMDL
MODEL 2
REMARK VINA RESULT:    26.567     10.231     11.049
REMARK INTER + INTRA:          31.636
REMARK INTER:                  31.878
REMARK INTRA:                  -0.242
REMARK UNBOUND:                 0.409
REMARK SMILES O=c1c(O)c(-c2ccc(O)cc2)oc2cc(O)cc(O)c12
REMARK SMILES IDX 5 1 3 2 2 3 1 4 21 5 19 6 18 7 16 8 15 9 14 10 13 11 6 12
REMARK SMILES IDX 7 13 8 14 9 15 12 16 11 17 10 18 4 20 20 22 17 24
REMARK H PARENT 10 19 4 21 20 23 17 25
REMARK Flexibility Score: inf
ROOT
ATOM      1  C   UNL     1      -5.788   7.498  16.554  1.00  0.00     0.180 A 
ATOM      2  C   UNL     1      -5.409   6.570  17.544  1.00  0.00     0.208 A 
ATOM      3  C   UNL     1      -5.760   5.221  17.378  1.00  0.00     0.238 A 
ATOM      4  O   UNL     1      -5.436   4.382  18.264  1.00  0.00    -0.285 OA
ATOM      5  C   UNL     1      -6.461   4.820  16.223  1.00  0.00     0.111 A 
ATOM      6  C   UNL     1      -6.848   3.480  15.977  1.00  0.00     0.134 A 
ATOM      7  C   UNL     1      -7.536   3.159  14.798  1.00  0.00     0.093 A 
ATOM      8  C   UNL     1      -7.843   4.148  13.861  1.00  0.00     0.123 A 
ATOM      9  C   UNL     1      -7.464   5.474  14.097  1.00  0.00     0.094 A 
ATOM     10  C   UNL     1      -6.779   5.813  15.267  1.00  0.00     0.146 A 
ATOM     11  O   UNL     1      -6.436   7.080  15.470  1.00  0.00    -0.452 OA
ENDROOT
BRANCH   1  12
ATOM     12  C   UNL     1      -5.471   8.941  16.665  1.00  0.00     0.021 A 
ATOM     13  C   UNL     1      -6.467   9.836  17.089  1.00  0.00     0.016 A 
ATOM     14  C   UNL     1      -6.183  11.199  17.223  1.00  0.00     0.047 A 
ATOM     15  C   UNL     1      -4.900  11.681  16.949  1.00  0.00     0.115 A 
ATOM     16  C   UNL     1      -4.176   9.427  16.410  1.00  0.00     0.016 A 
ATOM     17  C   UNL     1      -3.895  10.791  16.546  1.00  0.00     0.047 A 
BRANCH  15  18
ATOM     18  O   UNL     1      -4.631  13.040  17.085  1.00  0.00    -0.508 OA
ATOM     19  H   UNL     1      -5.376  13.729  17.094  1.00  0.00     0.293 HD
ENDBRANCH  15  18
ENDBRANCH   1  12
BRANCH   2  20
ATOM     20  O   UNL     1      -4.672   6.984  18.656  1.00  0.00    -0.502 OA
ATOM     21  H   UNL     1      -3.664   6.892  18.704  1.00  0.00     0.293 HD
ENDBRANCH   2  20
BRANCH   6  22
ATOM     22  O   UNL     1      -6.555   2.468  16.893  1.00  0.00    -0.507 OA
ATOM     23  H   UNL     1      -5.653   2.008  16.909  1.00  0.00     0.293 HD
ENDBRANCH   6  22
BRANCH   8  24
ATOM     24  O   UNL     1      -8.526   3.803  12.696  1.00  0.00    -0.508 OA
ATOM     25  H   UNL     1      -8.471   2.869  12.307  1.00  0.00     0.293 HD
ENDBRANCH   8  24
TORSDOF 5
ENDMDL
MODEL 3
REMARK VINA RESULT:    27.020     13.198     14.953
REMARK INTER + INTRA:          32.168
REMARK INTER:                  31.840
REMARK INTRA:                   0.328
REMARK UNBOUND:                 0.409
REMARK SMILES O=c1c(O)c(-c2ccc(O)cc2)oc2cc(O)cc(O)c12
REMARK SMILES IDX 5 1 3 2 2 3 1 4 21 5 19 6 18 7 16 8 15 9 14 10 13 11 6 12
REMARK SMILES IDX 7 13 8 14 9 15 12 16 11 17 10 18 4 20 20 22 17 24
REMARK H PARENT 10 19 4 21 20 23 17 25
REMARK Flexibility Score: inf
ROOT
ATOM      1  C   UNL     1     -10.502   8.478  19.180  1.00  0.00     0.180 A 
ATOM      2  C   UNL     1      -9.119   8.674  19.363  1.00  0.00     0.208 A 
ATOM      3  C   UNL     1      -8.537   9.866  18.905  1.00  0.00     0.238 A 
ATOM      4  O   UNL     1      -7.298  10.049  19.053  1.00  0.00    -0.285 OA
ATOM      5  C   UNL     1      -9.346  10.846  18.292  1.00  0.00     0.111 A 
ATOM      6  C   UNL     1      -8.838  12.076  17.807  1.00  0.00     0.134 A 
ATOM      7  C   UNL     1      -9.709  13.004  17.218  1.00  0.00     0.093 A 
ATOM      8  C   UNL     1     -11.074  12.729  17.106  1.00  0.00     0.123 A 
ATOM      9  C   UNL     1     -11.581  11.516  17.583  1.00  0.00     0.094 A 
ATOM     10  C   UNL     1     -10.729  10.578  18.172  1.00  0.00     0.146 A 
ATOM     11  O   UNL     1     -11.235   9.431  18.612  1.00  0.00    -0.452 OA
ENDROOT
BRANCH   1  12
ATOM     12  C   UNL     1     -11.186   7.240  19.619  1.00  0.00     0.021 A 
ATOM     13  C   UNL     1     -10.727   6.564  20.761  1.00  0.00     0.016 A 
ATOM     14  C   UNL     1     -11.373   5.406  21.207  1.00  0.00     0.047 A 
ATOM     15  C   UNL     1     -12.492   4.919  20.526  1.00  0.00     0.115 A 
ATOM     16  C   UNL     1     -12.326   6.756  18.949  1.00  0.00     0.016 A 
ATOM     17  C   UNL     1     -12.969   5.598  19.398  1.00  0.00     0.047 A 
BRANCH  15  18
ATOM     18  O   UNL     1     -13.125   3.764  20.980  1.00  0.00    -0.508 OA
ATOM     19  H   UNL     1     -12.743   2.843  20.795  1.00  0.00     0.293 HD
ENDBRANCH  15  18
ENDBRANCH   1  12
BRANCH   2  20
ATOM     20  O   UNL     1      -8.349   7.710  20.017  1.00  0.00    -0.502 OA
ATOM     21  H   UNL     1      -8.613   6.732  20.047  1.00  0.00     0.293 HD
ENDBRANCH   2  20
BRANCH   6  22
ATOM     22  O   UNL     1      -7.480  12.382  17.905  1.00  0.00    -0.507 OA
ATOM     23  H   UNL     1      -7.158  13.317  18.123  1.00  0.00     0.293 HD
ENDBRANCH   6  22
BRANCH   8  24
ATOM     24  O   UNL     1     -11.918  13.668  16.518  1.00  0.00    -0.508 OA
ATOM     25  H   UNL     1     -12.778  13.393  16.058  1.00  0.00     0.293 HD
ENDBRANCH   8  24
TORSDOF 5
ENDMDL
MODEL 4
REMARK VINA RESULT:    27.829     10.032     10.543
REMARK INTER + INTRA:          33.119
REMARK INTER:                  33.347
REMARK INTRA:                  -0.229
REMARK UNBOUND:                 0.409
REMARK SMILES O=c1c(O)c(-c2ccc(O)cc2)oc2cc(O)cc(O)c12
REMARK SMILES IDX 5 1 3 2 2 3 1 4 21 5 19 6 18 7 16 8 15 9 14 10 13 11 6 12
REMARK SMILES IDX 7 13 8 14 9 15 12 16 11 17 10 18 4 20 20 22 17 24
REMARK H PARENT 10 19 4 21 20 23 17 25
REMARK Flexibility Score: inf
ROOT
ATOM      1  C   UNL     1      -6.054   7.457  16.019  1.00  0.00     0.180 A 
ATOM      2  C   UNL     1      -6.794   7.213  14.847  1.00  0.00     0.208 A 
ATOM      3  C   UNL     1      -7.143   5.891  14.527  1.00  0.00     0.238 A 
ATOM      4  O   UNL     1      -7.796   5.659  13.473  1.00  0.00    -0.285 OA
ATOM      5  C   UNL     1      -6.765   4.843  15.391  1.00  0.00     0.111 A 
ATOM      6  C   UNL     1      -7.081   3.484  15.144  1.00  0.00     0.134 A 
ATOM      7  C   UNL     1      -6.677   2.499  16.058  1.00  0.00     0.093 A 
ATOM      8  C   UNL     1      -5.967   2.845  17.211  1.00  0.00     0.123 A 
ATOM      9  C   UNL     1      -5.653   4.184  17.460  1.00  0.00     0.094 A 
ATOM     10  C   UNL     1      -6.045   5.180  16.561  1.00  0.00     0.146 A 
ATOM     11  O   UNL     1      -5.729   6.444  16.818  1.00  0.00    -0.452 OA
ENDROOT
BRANCH   1  12
ATOM     12  C   UNL     1      -5.633   8.821  16.415  1.00  0.00     0.021 A 
ATOM     13  C   UNL     1      -4.304   9.223  16.203  1.00  0.00     0.016 A 
ATOM     14  C   UNL     1      -3.891  10.514  16.548  1.00  0.00     0.047 A 
ATOM     15  C   UNL     1      -4.803  11.421  17.096  1.00  0.00     0.115 A 
ATOM     16  C   UNL     1      -6.552   9.745  16.948  1.00  0.00     0.016 A 
ATOM     17  C   UNL     1      -6.135  11.035  17.292  1.00  0.00     0.047 A 
BRANCH  15  18
ATOM     18  O   UNL     1      -4.378  12.703  17.436  1.00  0.00    -0.508 OA
ATOM     19  H   UNL     1      -4.971  13.513  17.294  1.00  0.00     0.293 HD
ENDBRANCH  15  18
ENDBRANCH   1  12
BRANCH   2  20
ATOM     20  O   UNL     1      -7.199   8.274  14.033  1.00  0.00    -0.502 OA
ATOM     21  H   UNL     1      -6.702   8.531  13.189  1.00  0.00     0.293 HD
ENDBRANCH   2  20
BRANCH   6  22
ATOM     22  O   UNL     1      -7.788   3.107  14.003  1.00  0.00    -0.507 OA
ATOM     23  H   UNL     1      -8.780   3.291  13.905  1.00  0.00     0.293 HD
ENDBRANCH   6  22
BRANCH   8  24
ATOM     24  O   UNL     1      -5.579   1.847  18.103  1.00  0.00    -0.508 OA
ATOM     25  H   UNL     1      -6.078   0.967  18.163  1.00  0.00     0.293 HD
ENDBRANCH   8  24
TORSDOF 5
ENDMDL
