MODEL 1
REMARK VINA RESULT:    -8.758      0.000      0.000
REMARK INTER + INTRA:         -10.240
REMARK INTER:                 -10.550
REMARK INTRA:                   0.310
REMARK UNBOUND:                 0.310
REMARK SMILES O=c1c(O)c(-c2ccc(O)c(O)c2)oc2cc(O)cc(O)c12
REMARK SMILES IDX 5 1 3 2 2 3 1 4 22 5 20 6 19 7 17 8 16 9 15 10 14 11 6 12
REMARK SMILES IDX 7 13 8 14 9 15 13 16 11 17 10 18 12 20 4 22 21 24 18 26
REMARK H PARENT 10 19 12 21 4 23 21 25 18 27
REMARK Flexibility Score: inf
ROOT
ATOM      1  C   UNL     1     -35.705  -5.864 -16.389  1.00  0.00     0.180 A 
ATOM      2  C   UNL     1     -36.315  -5.207 -17.470  1.00  0.00     0.208 A 
ATOM      3  C   UNL     1     -35.541  -4.356 -18.276  1.00  0.00     0.238 A 
ATOM      4  O   UNL     1     -36.076  -3.830 -19.286  1.00  0.00    -0.285 OA
ATOM      5  C   UNL     1     -34.179  -4.130 -17.958  1.00  0.00     0.111 A 
ATOM      6  C   UNL     1     -33.310  -3.254 -18.677  1.00  0.00     0.134 A 
ATOM      7  C   UNL     1     -31.955  -3.192 -18.334  1.00  0.00     0.093 A 
ATOM      8  C   UNL     1     -31.448  -3.921 -17.260  1.00  0.00     0.123 A 
ATOM      9  C   UNL     1     -32.299  -4.739 -16.514  1.00  0.00     0.094 A 
ATOM     10  C   UNL     1     -33.649  -4.852 -16.856  1.00  0.00     0.146 A 
ATOM     11  O   UNL     1     -34.419  -5.657 -16.134  1.00  0.00    -0.452 OA
ENDROOT
BRANCH   1  12
ATOM     12  C   UNL     1     -36.452  -6.786 -15.503  1.00  0.00     0.025 A 
ATOM     13  C   UNL     1     -35.969  -7.045 -14.211  1.00  0.00     0.016 A 
ATOM     14  C   UNL     1     -36.646  -7.928 -13.366  1.00  0.00     0.051 A 
ATOM     15  C   UNL     1     -37.807  -8.576 -13.806  1.00  0.00     0.157 A 
ATOM     16  C   UNL     1     -37.607  -7.454 -15.948  1.00  0.00     0.062 A 
ATOM     17  C   UNL     1     -38.286  -8.342 -15.105  1.00  0.00     0.158 A 
BRANCH  15  18
ATOM     18  O   UNL     1     -38.482  -9.456 -12.960  1.00  0.00    -0.504 OA
ATOM     19  H   UNL     1     -38.247 -10.441 -12.922  1.00  0.00     0.293 HD
ENDBRANCH  15  18
BRANCH  17  20
ATOM     20  O   UNL     1     -39.431  -8.982 -15.577  1.00  0.00    -0.504 OA
ATOM     21  H   UNL     1     -40.270  -9.069 -15.017  1.00  0.00     0.293 HD
ENDBRANCH  17  20
ENDBRANCH   1  12
BRANCH   2  22
ATOM     22  O   UNL     1     -37.678  -5.383 -17.723  1.00  0.00    -0.502 OA
ATOM     23  H   UNL     1     -38.108  -6.298 -17.779  1.00  0.00     0.293 HD
ENDBRANCH   2  22
BRANCH   6  24
ATOM     24  O   UNL     1     -33.729  -2.413 -19.712  1.00  0.00    -0.507 OA
ATOM     25  H   UNL     1     -34.188  -2.720 -20.557  1.00  0.00     0.293 HD
ENDBRANCH   6  24
BRANCH   8  26
ATOM     26  O   UNL     1     -30.097  -3.821 -16.936  1.00  0.00    -0.508 OA
ATOM     27  H   UNL     1     -29.383  -3.757 -17.653  1.00  0.00     0.293 HD
ENDBRANCH   8  26
TORSDOF 6
ENDMDL
MODEL 2
REMARK VINA RESULT:    -8.532      2.092      6.944
REMARK INTER + INTRA:          -9.968
REMARK INTER:                  -9.754
REMARK INTRA:                  -0.215
REMARK UNBOUND:                 0.310
REMARK SMILES O=c1c(O)c(-c2ccc(O)c(O)c2)oc2cc(O)cc(O)c12
REMARK SMILES IDX 5 1 3 2 2 3 1 4 22 5 20 6 19 7 17 8 16 9 15 10 14 11 6 12
REMARK SMILES IDX 7 13 8 14 9 15 13 16 11 17 10 18 12 20 4 22 21 24 18 26
REMARK H PARENT 10 19 12 21 4 23 21 25 18 27
REMARK Flexibility Score: inf
ROOT
ATOM      1  C   UNL     1     -34.775  -4.062 -16.790  1.00  0.00     0.180 A 
ATOM      2  C   UNL     1     -35.661  -3.165 -16.172  1.00  0.00     0.208 A 
ATOM      3  C   UNL     1     -36.691  -3.673 -15.363  1.00  0.00     0.238 A 
ATOM      4  O   UNL     1     -37.435  -2.862 -14.753  1.00  0.00    -0.285 OA
ATOM      5  C   UNL     1     -36.856  -5.073 -15.228  1.00  0.00     0.111 A 
ATOM      6  C   UNL     1     -37.891  -5.701 -14.470  1.00  0.00     0.134 A 
ATOM      7  C   UNL     1     -37.891  -7.092 -14.323  1.00  0.00     0.093 A 
ATOM      8  C   UNL     1     -36.935  -7.886 -14.954  1.00  0.00     0.123 A 
ATOM      9  C   UNL     1     -35.950  -7.287 -15.742  1.00  0.00     0.094 A 
ATOM     10  C   UNL     1     -35.901  -5.898 -15.878  1.00  0.00     0.146 A 
ATOM     11  O   UNL     1     -34.934  -5.369 -16.619  1.00  0.00    -0.452 OA
ENDROOT
BRANCH   1  12
ATOM     12  C   UNL     1     -33.657  -3.602 -17.645  1.00  0.00     0.025 A 
ATOM     13  C   UNL     1     -32.339  -3.705 -17.173  1.00  0.00     0.016 A 
ATOM     14  C   UNL     1     -31.270  -3.257 -17.953  1.00  0.00     0.051 A 
ATOM     15  C   UNL     1     -31.503  -2.686 -19.210  1.00  0.00     0.157 A 
ATOM     16  C   UNL     1     -33.888  -3.010 -18.900  1.00  0.00     0.062 A 
ATOM     17  C   UNL     1     -32.820  -2.558 -19.683  1.00  0.00     0.158 A 
BRANCH  15  18
ATOM     18  O   UNL     1     -30.435  -2.242 -19.987  1.00  0.00    -0.504 OA
ATOM     19  H   UNL     1     -30.573  -1.887 -20.927  1.00  0.00     0.293 HD
ENDBRANCH  15  18
BRANCH  17  20
ATOM     20  O   UNL     1     -33.086  -1.981 -20.923  1.00  0.00    -0.504 OA
ATOM     21  H   UNL     1     -33.855  -2.288 -21.507  1.00  0.00     0.293 HD
ENDBRANCH  17  20
ENDBRANCH   1  12
BRANCH   2  22
ATOM     22  O   UNL     1     -35.530  -1.789 -16.378  1.00  0.00    -0.502 OA
ATOM     23  H   UNL     1     -35.026  -1.403 -17.168  1.00  0.00     0.293 HD
ENDBRANCH   2  22
BRANCH   6  24
ATOM     24  O   UNL     1     -38.949  -5.012 -13.869  1.00  0.00    -0.507 OA
ATOM     25  H   UNL     1     -38.861  -4.399 -13.072  1.00  0.00     0.293 HD
ENDBRANCH   6  24
BRANCH   8  26
ATOM     26  O   UNL     1     -36.976  -9.269 -14.799  1.00  0.00    -0.508 OA
ATOM     27  H   UNL     1     -36.180  -9.853 -15.030  1.00  0.00     0.293 HD
ENDBRANCH   8  26
TORSDOF 6
ENDMDL
MODEL 3
REMARK VINA RESULT:    -8.494      0.921      1.153
REMARK INTER + INTRA:          -9.921
REMARK INTER:                  -9.665
REMARK INTRA:                  -0.257
REMARK UNBOUND:                 0.310
REMARK SMILES O=c1c(O)c(-c2ccc(O)c(O)c2)oc2cc(O)cc(O)c12
REMARK SMILES IDX 5 1 3 2 2 3 1 4 22 5 20 6 19 7 17 8 16 9 15 10 14 11 6 12
REMARK SMILES IDX 7 13 8 14 9 15 13 16 11 17 10 18 12 20 4 22 21 24 18 26
REMARK H PARENT 10 19 12 21 4 23 21 25 18 27
REMARK Flexibility Score: inf
ROOT
ATOM      1  C   UNL     1     -35.892  -5.903 -16.194  1.00  0.00     0.180 A 
ATOM      2  C   UNL     1     -36.465  -5.267 -17.308  1.00  0.00     0.208 A 
ATOM      3  C   UNL     1     -35.660  -4.443 -18.111  1.00  0.00     0.238 A 
ATOM      4  O   UNL     1     -36.160  -3.936 -19.148  1.00  0.00    -0.285 OA
ATOM      5  C   UNL     1     -34.306  -4.220 -17.758  1.00  0.00     0.111 A 
ATOM      6  C   UNL     1     -33.409  -3.369 -18.472  1.00  0.00     0.134 A 
ATOM      7  C   UNL     1     -32.064  -3.309 -18.091  1.00  0.00     0.093 A 
ATOM      8  C   UNL     1     -31.595  -4.016 -16.986  1.00  0.00     0.123 A 
ATOM      9  C   UNL     1     -32.474  -4.809 -16.246  1.00  0.00     0.094 A 
ATOM     10  C   UNL     1     -33.815  -4.919 -16.624  1.00  0.00     0.146 A 
ATOM     11  O   UNL     1     -34.612  -5.702 -15.907  1.00  0.00    -0.452 OA
ENDROOT
BRANCH   1  12
ATOM     12  C   UNL     1     -36.672  -6.798 -15.309  1.00  0.00     0.025 A 
ATOM     13  C   UNL     1     -36.517  -8.188 -15.422  1.00  0.00     0.016 A 
ATOM     14  C   UNL     1     -37.258  -9.052 -14.613  1.00  0.00     0.051 A 
ATOM     15  C   UNL     1     -38.178  -8.540 -13.689  1.00  0.00     0.157 A 
ATOM     16  C   UNL     1     -37.612  -6.288 -14.395  1.00  0.00     0.062 A 
ATOM     17  C   UNL     1     -38.359  -7.151 -13.584  1.00  0.00     0.158 A 
BRANCH  15  18
ATOM     18  O   UNL     1     -38.916  -9.404 -12.882  1.00  0.00    -0.504 OA
ATOM     19  H   UNL     1     -38.787  -9.432 -11.877  1.00  0.00     0.293 HD
ENDBRANCH  15  18
BRANCH  17  20
ATOM     20  O   UNL     1     -39.277  -6.610 -12.686  1.00  0.00    -0.504 OA
ATOM     21  H   UNL     1     -38.992  -6.012 -11.919  1.00  0.00     0.293 HD
ENDBRANCH  17  20
ENDBRANCH   1  12
BRANCH   2  22
ATOM     22  O   UNL     1     -37.821  -5.438 -17.596  1.00  0.00    -0.502 OA
ATOM     23  H   UNL     1     -38.528  -5.505 -16.873  1.00  0.00     0.293 HD
ENDBRANCH   2  22
BRANCH   6  24
ATOM     24  O   UNL     1     -33.790  -2.549 -19.539  1.00  0.00    -0.507 OA
ATOM     25  H   UNL     1     -33.710  -2.794 -20.514  1.00  0.00     0.293 HD
ENDBRANCH   6  24
BRANCH   8  26
ATOM     26  O   UNL     1     -30.253  -3.919 -16.625  1.00  0.00    -0.508 OA
ATOM     27  H   UNL     1     -29.934  -4.170 -15.696  1.00  0.00     0.293 HD
ENDBRANCH   8  26
TORSDOF 6
ENDMDL
MODEL 4
REMARK VINA RESULT:    -8.389      2.566      7.141
REMARK INTER + INTRA:          -9.795
REMARK INTER:                  -9.526
REMARK INTRA:                  -0.268
REMARK UNBOUND:                 0.310
REMARK SMILES O=c1c(O)c(-c2ccc(O)c(O)c2)oc2cc(O)cc(O)c12
REMARK SMILES IDX 5 1 3 2 2 3 1 4 22 5 20 6 19 7 17 8 16 9 15 10 14 11 6 12
REMARK SMILES IDX 7 13 8 14 9 15 13 16 11 17 10 18 12 20 4 22 21 24 18 26
REMARK H PARENT 10 19 12 21 4 23 21 25 18 27
REMARK Flexibility Score: inf
ROOT
ATOM      1  C   UNL     1     -34.230  -4.021 -16.929  1.00  0.00     0.180 A 
ATOM      2  C   UNL     1     -34.423  -5.394 -16.705  1.00  0.00     0.208 A 
ATOM      3  C   UNL     1     -35.432  -5.804 -15.818  1.00  0.00     0.238 A 
ATOM      4  O   UNL     1     -35.649  -7.036 -15.678  1.00  0.00    -0.285 OA
ATOM      5  C   UNL     1     -36.197  -4.835 -15.124  1.00  0.00     0.111 A 
ATOM      6  C   UNL     1     -37.215  -5.135 -14.168  1.00  0.00     0.134 A 
ATOM      7  C   UNL     1     -37.979  -4.096 -13.625  1.00  0.00     0.093 A 
ATOM      8  C   UNL     1     -37.723  -2.765 -13.950  1.00  0.00     0.123 A 
ATOM      9  C   UNL     1     -36.693  -2.455 -14.842  1.00  0.00     0.094 A 
ATOM     10  C   UNL     1     -35.939  -3.473 -15.430  1.00  0.00     0.146 A 
ATOM     11  O   UNL     1     -34.984  -3.136 -16.290  1.00  0.00    -0.452 OA
ENDROOT
BRANCH   1  12
ATOM     12  C   UNL     1     -33.197  -3.512 -17.860  1.00  0.00     0.025 A 
ATOM     13  C   UNL     1     -31.852  -3.496 -17.458  1.00  0.00     0.016 A 
ATOM     14  C   UNL     1     -30.863  -3.001 -18.311  1.00  0.00     0.051 A 
ATOM     15  C   UNL     1     -31.205  -2.502 -19.574  1.00  0.00     0.157 A 
ATOM     16  C   UNL     1     -33.538  -2.991 -19.122  1.00  0.00     0.062 A 
ATOM     17  C   UNL     1     -32.551  -2.492 -19.978  1.00  0.00     0.158 A 
BRANCH  15  18
ATOM     18  O   UNL     1     -30.216  -2.010 -20.425  1.00  0.00    -0.504 OA
ATOM     19  H   UNL     1     -30.433  -1.687 -21.361  1.00  0.00     0.293 HD
ENDBRANCH  15  18
BRANCH  17  20
ATOM     20  O   UNL     1     -32.925  -1.988 -21.223  1.00  0.00    -0.504 OA
ATOM     21  H   UNL     1     -33.745  -2.321 -21.715  1.00  0.00     0.293 HD
ENDBRANCH  17  20
ENDBRANCH   1  12
BRANCH   2  22
ATOM     22  O   UNL     1     -33.607  -6.334 -17.340  1.00  0.00    -0.502 OA
ATOM     23  H   UNL     1     -33.814  -7.325 -17.337  1.00  0.00     0.293 HD
ENDBRANCH   2  22
BRANCH   6  24
ATOM     24  O   UNL     1     -37.498  -6.423 -13.703  1.00  0.00    -0.507 OA
ATOM     25  H   UNL     1     -37.634  -7.232 -14.290  1.00  0.00     0.293 HD
ENDBRANCH   6  24
BRANCH   8  26
ATOM     26  O   UNL     1     -38.491  -1.755 -13.376  1.00  0.00    -0.508 OA
ATOM     27  H   UNL     1     -38.827  -0.969 -13.921  1.00  0.00     0.293 HD
ENDBRANCH   8  26
TORSDOF 6
ENDMDL
MODEL 5
REMARK VINA RESULT:    -8.360      1.848      3.100
REMARK INTER + INTRA:          -9.760
REMARK INTER:                  -9.429
REMARK INTRA:                  -0.331
REMARK UNBOUND:                 0.310
REMARK SMILES O=c1c(O)c(-c2ccc(O)c(O)c2)oc2cc(O)cc(O)c12
REMARK SMILES IDX 5 1 3 2 2 3 1 4 22 5 20 6 19 7 17 8 16 9 15 10 14 11 6 12
REMARK SMILES IDX 7 13 8 14 9 15 13 16 11 17 10 18 12 20 4 22 21 24 18 26
REMARK H PARENT 10 19 12 21 4 23 21 25 18 27
REMARK Flexibility Score: inf
ROOT
ATOM      1  C   UNL     1     -36.349  -6.390 -15.102  1.00  0.00     0.180 A 
ATOM      2  C   UNL     1     -35.467  -5.655 -14.292  1.00  0.00     0.208 A 
ATOM      3  C   UNL     1     -34.486  -4.857 -14.904  1.00  0.00     0.238 A 
ATOM      4  O   UNL     1     -33.748  -4.144 -14.175  1.00  0.00    -0.285 OA
ATOM      5  C   UNL     1     -34.363  -4.848 -16.315  1.00  0.00     0.111 A 
ATOM      6  C   UNL     1     -33.377  -4.112 -17.041  1.00  0.00     0.134 A 
ATOM      7  C   UNL     1     -33.420  -4.096 -18.439  1.00  0.00     0.093 A 
ATOM      8  C   UNL     1     -34.369  -4.838 -19.141  1.00  0.00     0.123 A 
ATOM      9  C   UNL     1     -35.303  -5.605 -18.443  1.00  0.00     0.094 A 
ATOM     10  C   UNL     1     -35.311  -5.611 -17.046  1.00  0.00     0.146 A 
ATOM     11  O   UNL     1     -36.231  -6.337 -16.422  1.00  0.00    -0.452 OA
ENDROOT
BRANCH   1  12
ATOM     12  C   UNL     1     -37.417  -7.242 -14.531  1.00  0.00     0.025 A 
ATOM     13  C   UNL     1     -37.161  -8.600 -14.287  1.00  0.00     0.016 A 
ATOM     14  C   UNL     1     -38.160  -9.427 -13.768  1.00  0.00     0.051 A 
ATOM     15  C   UNL     1     -39.436  -8.913 -13.501  1.00  0.00     0.157 A 
ATOM     16  C   UNL     1     -38.705  -6.733 -14.279  1.00  0.00     0.062 A 
ATOM     17  C   UNL     1     -39.709  -7.560 -13.763  1.00  0.00     0.158 A 
BRANCH  15  18
ATOM     18  O   UNL     1     -40.430  -9.740 -12.982  1.00  0.00    -0.504 OA
ATOM     19  H   UNL     1     -41.275  -9.360 -12.569  1.00  0.00     0.293 HD
ENDBRANCH  15  18
BRANCH  17  20
ATOM     20  O   UNL     1     -40.972  -7.021 -13.521  1.00  0.00    -0.504 OA
ATOM     21  H   UNL     1     -41.496  -7.233 -12.681  1.00  0.00     0.293 HD
ENDBRANCH  17  20
ENDBRANCH   1  12
BRANCH   2  22
ATOM     22  O   UNL     1     -35.554  -5.736 -12.900  1.00  0.00    -0.502 OA
ATOM     23  H   UNL     1     -35.776  -6.599 -12.418  1.00  0.00     0.293 HD
ENDBRANCH   2  22
BRANCH   6  24
ATOM     24  O   UNL     1     -32.329  -3.407 -16.442  1.00  0.00    -0.507 OA
ATOM     25  H   UNL     1     -32.442  -2.611 -15.832  1.00  0.00     0.293 HD
ENDBRANCH   6  24
BRANCH   8  26
ATOM     26  O   UNL     1     -34.370  -4.812 -20.534  1.00  0.00    -0.508 OA
ATOM     27  H   UNL     1     -34.393  -3.939 -21.049  1.00  0.00     0.293 HD
ENDBRANCH   8  26
TORSDOF 6
ENDMDL
MODEL 6
REMARK VINA RESULT:    -8.228      2.442      7.229
REMARK INTER + INTRA:          -9.602
REMARK INTER:                  -9.272
REMARK INTRA:                  -0.330
REMARK UNBOUND:                 0.310
REMARK SMILES O=c1c(O)c(-c2ccc(O)c(O)c2)oc2cc(O)cc(O)c12
REMARK SMILES IDX 5 1 3 2 2 3 1 4 22 5 20 6 19 7 17 8 16 9 15 10 14 11 6 12
REMARK SMILES IDX 7 13 8 14 9 15 13 16 11 17 10 18 12 20 4 22 21 24 18 26
REMARK H PARENT 10 19 12 21 4 23 21 25 18 27
REMARK Flexibility Score: inf
ROOT
ATOM      1  C   UNL     1     -37.102  -5.521 -16.045  1.00  0.00     0.180 A 
ATOM      2  C   UNL     1     -37.526  -4.458 -15.230  1.00  0.00     0.208 A 
ATOM      3  C   UNL     1     -38.405  -4.723 -14.167  1.00  0.00     0.238 A 
ATOM      4  O   UNL     1     -38.722  -3.781 -13.396  1.00  0.00    -0.285 OA
ATOM      5  C   UNL     1     -38.892  -6.038 -13.966  1.00  0.00     0.111 A 
ATOM      6  C   UNL     1     -39.821  -6.415 -12.949  1.00  0.00     0.134 A 
ATOM      7  C   UNL     1     -40.149  -7.765 -12.780  1.00  0.00     0.093 A 
ATOM      8  C   UNL     1     -39.636  -8.745 -13.628  1.00  0.00     0.123 A 
ATOM      9  C   UNL     1     -38.769  -8.382 -14.661  1.00  0.00     0.094 A 
ATOM     10  C   UNL     1     -38.393  -7.047 -14.832  1.00  0.00     0.146 A 
ATOM     11  O   UNL     1     -37.549  -6.748 -15.812  1.00  0.00    -0.452 OA
ENDROOT
BRANCH   1  12
ATOM     12  C   UNL     1     -36.166  -5.322 -17.175  1.00  0.00     0.025 A 
ATOM     13  C   UNL     1     -36.674  -5.173 -18.474  1.00  0.00     0.016 A 
ATOM     14  C   UNL     1     -35.809  -5.005 -19.558  1.00  0.00     0.051 A 
ATOM     15  C   UNL     1     -34.422  -5.000 -19.362  1.00  0.00     0.157 A 
ATOM     16  C   UNL     1     -34.772  -5.336 -16.984  1.00  0.00     0.062 A 
ATOM     17  C   UNL     1     -33.902  -5.171 -18.068  1.00  0.00     0.158 A 
BRANCH  15  18
ATOM     18  O   UNL     1     -33.562  -4.830 -20.445  1.00  0.00    -0.504 OA
ATOM     19  H   UNL     1     -32.956  -5.579 -20.764  1.00  0.00     0.293 HD
ENDBRANCH  15  18
BRANCH  17  20
ATOM     20  O   UNL     1     -32.527  -5.185 -17.841  1.00  0.00    -0.504 OA
ATOM     21  H   UNL     1     -32.017  -4.351 -17.574  1.00  0.00     0.293 HD
ENDBRANCH  17  20
ENDBRANCH   1  12
BRANCH   2  22
ATOM     22  O   UNL     1     -37.095  -3.155 -15.490  1.00  0.00    -0.502 OA
ATOM     23  H   UNL     1     -36.434  -2.671 -14.895  1.00  0.00     0.293 HD
ENDBRANCH   2  22
BRANCH   6  24
ATOM     24  O   UNL     1     -40.464  -5.508 -12.101  1.00  0.00    -0.507 OA
ATOM     25  H   UNL     1     -40.618  -4.533 -12.308  1.00  0.00     0.293 HD
ENDBRANCH   6  24
BRANCH   8  26
ATOM     26  O   UNL     1     -39.998 -10.077 -13.441  1.00  0.00    -0.508 OA
ATOM     27  H   UNL     1     -39.712 -10.593 -12.617  1.00  0.00     0.293 HD
ENDBRANCH   8  26
TORSDOF 6
ENDMDL
MODEL 7
REMARK VINA RESULT:    -7.978      4.711      8.024
REMARK INTER + INTRA:          -9.300
REMARK INTER:                  -8.992
REMARK INTRA:                  -0.308
REMARK UNBOUND:                 0.310
REMARK SMILES O=c1c(O)c(-c2ccc(O)c(O)c2)oc2cc(O)cc(O)c12
REMARK SMILES IDX 5 1 3 2 2 3 1 4 22 5 20 6 19 7 17 8 16 9 15 10 14 11 6 12
REMARK SMILES IDX 7 13 8 14 9 15 13 16 11 17 10 18 12 20 4 22 21 24 18 26
REMARK H PARENT 10 19 12 21 4 23 21 25 18 27
REMARK Flexibility Score: inf
ROOT
ATOM      1  C   UNL     1     -37.623  -4.440 -12.434  1.00  0.00     0.180 A 
ATOM      2  C   UNL     1     -36.488  -5.124 -12.900  1.00  0.00     0.208 A 
ATOM      3  C   UNL     1     -36.637  -6.428 -13.401  1.00  0.00     0.238 A 
ATOM      4  O   UNL     1     -35.630  -7.007 -13.886  1.00  0.00    -0.285 OA
ATOM      5  C   UNL     1     -37.908  -7.052 -13.376  1.00  0.00     0.111 A 
ATOM      6  C   UNL     1     -38.168  -8.386 -13.815  1.00  0.00     0.134 A 
ATOM      7  C   UNL     1     -39.484  -8.859 -13.843  1.00  0.00     0.093 A 
ATOM      8  C   UNL     1     -40.543  -8.075 -13.388  1.00  0.00     0.123 A 
ATOM      9  C   UNL     1     -40.295  -6.789 -12.905  1.00  0.00     0.094 A 
ATOM     10  C   UNL     1     -38.996  -6.274 -12.900  1.00  0.00     0.146 A 
ATOM     11  O   UNL     1     -38.807  -5.038 -12.453  1.00  0.00    -0.452 OA
ENDROOT
BRANCH   1  12
ATOM     12  C   UNL     1     -37.548  -3.058 -11.905  1.00  0.00     0.025 A 
ATOM     13  C   UNL     1     -37.586  -2.847 -10.519  1.00  0.00     0.016 A 
ATOM     14  C   UNL     1     -37.539  -1.551  -9.998  1.00  0.00     0.051 A 
ATOM     15  C   UNL     1     -37.468  -0.447 -10.857  1.00  0.00     0.157 A 
ATOM     16  C   UNL     1     -37.498  -1.946 -12.765  1.00  0.00     0.062 A 
ATOM     17  C   UNL     1     -37.453  -0.646 -12.248  1.00  0.00     0.158 A 
BRANCH  15  18
ATOM     18  O   UNL     1     -37.419   0.845 -10.335  1.00  0.00    -0.504 OA
ATOM     19  H   UNL     1     -37.366   1.659 -10.937  1.00  0.00     0.293 HD
ENDBRANCH  15  18
BRANCH  17  20
ATOM     20  O   UNL     1     -37.397   0.432 -13.129  1.00  0.00    -0.504 OA
ATOM     21  H   UNL     1     -37.759   1.346 -12.885  1.00  0.00     0.293 HD
ENDBRANCH  17  20
ENDBRANCH   1  12
BRANCH   2  22
ATOM     22  O   UNL     1     -35.229  -4.520 -12.846  1.00  0.00    -0.502 OA
ATOM     23  H   UNL     1     -34.599  -4.503 -13.638  1.00  0.00     0.293 HD
ENDBRANCH   2  22
BRANCH   6  24
ATOM     24  O   UNL     1     -37.174  -9.288 -14.208  1.00  0.00    -0.507 OA
ATOM     25  H   UNL     1     -36.356  -9.048 -14.747  1.00  0.00     0.293 HD
ENDBRANCH   6  24
BRANCH   8  26
ATOM     26  O   UNL     1     -41.839  -8.586 -13.413  1.00  0.00    -0.508 OA
ATOM     27  H   UNL     1     -42.273  -8.973 -12.583  1.00  0.00     0.293 HD
ENDBRANCH   8  26
TORSDOF 6
ENDMDL
MODEL 8
REMARK VINA RESULT:    -7.926      2.365      3.656
REMARK INTER + INTRA:          -9.237
REMARK INTER:                  -9.030
REMARK INTRA:                  -0.207
REMARK UNBOUND:                 0.310
REMARK SMILES O=c1c(O)c(-c2ccc(O)c(O)c2)oc2cc(O)cc(O)c12
REMARK SMILES IDX 5 1 3 2 2 3 1 4 22 5 20 6 19 7 17 8 16 9 15 10 14 11 6 12
REMARK SMILES IDX 7 13 8 14 9 15 13 16 11 17 10 18 12 20 4 22 21 24 18 26
REMARK H PARENT 10 19 12 21 4 23 21 25 18 27
REMARK Flexibility Score: inf
ROOT
ATOM      1  C   UNL     1     -36.641  -5.338 -15.077  1.00  0.00     0.180 A 
ATOM      2  C   UNL     1     -35.349  -4.975 -14.659  1.00  0.00     0.208 A 
ATOM      3  C   UNL     1     -34.357  -4.752 -15.629  1.00  0.00     0.238 A 
ATOM      4  O   UNL     1     -33.224  -4.355 -15.253  1.00  0.00    -0.285 OA
ATOM      5  C   UNL     1     -34.655  -4.948 -16.999  1.00  0.00     0.111 A 
ATOM      6  C   UNL     1     -33.717  -4.795 -18.065  1.00  0.00     0.134 A 
ATOM      7  C   UNL     1     -34.152  -4.912 -19.390  1.00  0.00     0.093 A 
ATOM      8  C   UNL     1     -35.473  -5.240 -19.690  1.00  0.00     0.123 A 
ATOM      9  C   UNL     1     -36.387  -5.447 -18.655  1.00  0.00     0.094 A 
ATOM     10  C   UNL     1     -35.992  -5.299 -17.323  1.00  0.00     0.146 A 
ATOM     11  O   UNL     1     -36.898  -5.483 -16.370  1.00  0.00    -0.452 OA
ENDROOT
BRANCH   1  12
ATOM     12  C   UNL     1     -37.741  -5.576 -14.115  1.00  0.00     0.025 A 
ATOM     13  C   UNL     1     -38.272  -4.497 -13.392  1.00  0.00     0.016 A 
ATOM     14  C   UNL     1     -39.296  -4.701 -12.464  1.00  0.00     0.051 A 
ATOM     15  C   UNL     1     -39.795  -5.989 -12.234  1.00  0.00     0.157 A 
ATOM     16  C   UNL     1     -38.231  -6.871 -13.867  1.00  0.00     0.062 A 
ATOM     17  C   UNL     1     -39.255  -7.080 -12.936  1.00  0.00     0.158 A 
BRANCH  15  18
ATOM     18  O   UNL     1     -40.818  -6.190 -11.308  1.00  0.00    -0.504 OA
ATOM     19  H   UNL     1     -41.551  -6.872 -11.467  1.00  0.00     0.293 HD
ENDBRANCH  15  18
BRANCH  17  20
ATOM     20  O   UNL     1     -39.720  -8.376 -12.719  1.00  0.00    -0.504 OA
ATOM     21  H   UNL     1     -40.604  -8.701 -13.092  1.00  0.00     0.293 HD
ENDBRANCH  17  20
ENDBRANCH   1  12
BRANCH   2  22
ATOM     22  O   UNL     1     -35.055  -4.861 -13.298  1.00  0.00    -0.502 OA
ATOM     23  H   UNL     1     -35.683  -4.415 -12.641  1.00  0.00     0.293 HD
ENDBRANCH   2  22
BRANCH   6  24
ATOM     24  O   UNL     1     -32.352  -4.553 -17.878  1.00  0.00    -0.507 OA
ATOM     25  H   UNL     1     -31.621  -4.845 -18.509  1.00  0.00     0.293 HD
ENDBRANCH   6  24
BRANCH   8  26
ATOM     26  O   UNL     1     -35.867  -5.366 -21.020  1.00  0.00    -0.508 OA
ATOM     27  H   UNL     1     -36.724  -4.947 -21.361  1.00  0.00     0.293 HD
ENDBRANCH   8  26
TORSDOF 6
ENDMDL
MODEL 9
REMARK VINA RESULT:    -7.910      2.275      2.459
REMARK INTER + INTRA:          -9.219
REMARK INTER:                  -8.901
REMARK INTRA:                  -0.317
REMARK UNBOUND:                 0.310
REMARK SMILES O=c1c(O)c(-c2ccc(O)c(O)c2)oc2cc(O)cc(O)c12
REMARK SMILES IDX 5 1 3 2 2 3 1 4 22 5 20 6 19 7 17 8 16 9 15 10 14 11 6 12
REMARK SMILES IDX 7 13 8 14 9 15 13 16 11 17 10 18 12 20 4 22 21 24 18 26
REMARK H PARENT 10 19 12 21 4 23 21 25 18 27
REMARK Flexibility Score: inf
ROOT
ATOM      1  C   UNL     1     -37.244  -5.181 -15.427  1.00  0.00     0.180 A 
ATOM      2  C   UNL     1     -37.640  -5.098 -16.772  1.00  0.00     0.208 A 
ATOM      3  C   UNL     1     -36.667  -4.847 -17.754  1.00  0.00     0.238 A 
ATOM      4  O   UNL     1     -37.016  -4.847 -18.963  1.00  0.00    -0.285 OA
ATOM      5  C   UNL     1     -35.321  -4.627 -17.373  1.00  0.00     0.111 A 
ATOM      6  C   UNL     1     -34.259  -4.320 -18.278  1.00  0.00     0.134 A 
ATOM      7  C   UNL     1     -32.948  -4.228 -17.798  1.00  0.00     0.093 A 
ATOM      8  C   UNL     1     -32.665  -4.367 -16.440  1.00  0.00     0.123 A 
ATOM      9  C   UNL     1     -33.702  -4.612 -15.538  1.00  0.00     0.094 A 
ATOM     10  C   UNL     1     -35.017  -4.748 -15.992  1.00  0.00     0.146 A 
ATOM     11  O   UNL     1     -35.969  -5.003 -15.103  1.00  0.00    -0.452 OA
ENDROOT
BRANCH   1  12
ATOM     12  C   UNL     1     -38.208  -5.457 -14.337  1.00  0.00     0.025 A 
ATOM     13  C   UNL     1     -38.684  -4.396 -13.552  1.00  0.00     0.016 A 
ATOM     14  C   UNL     1     -39.578  -4.635 -12.505  1.00  0.00     0.051 A 
ATOM     15  C   UNL     1     -39.998  -5.941 -12.219  1.00  0.00     0.157 A 
ATOM     16  C   UNL     1     -38.617  -6.769 -14.034  1.00  0.00     0.062 A 
ATOM     17  C   UNL     1     -39.510  -7.013 -12.984  1.00  0.00     0.158 A 
BRANCH  15  18
ATOM     18  O   UNL     1     -40.891  -6.176 -11.175  1.00  0.00    -0.504 OA
ATOM     19  H   UNL     1     -40.637  -6.747 -10.377  1.00  0.00     0.293 HD
ENDBRANCH  15  18
BRANCH  17  20
ATOM     20  O   UNL     1     -39.897  -8.324 -12.715  1.00  0.00    -0.504 OA
ATOM     21  H   UNL     1     -40.870  -8.598 -12.659  1.00  0.00     0.293 HD
ENDBRANCH  17  20
ENDBRANCH   1  12
BRANCH   2  22
ATOM     22  O   UNL     1     -38.985  -5.242 -17.121  1.00  0.00    -0.502 OA
ATOM     23  H   UNL     1     -39.737  -5.110 -16.455  1.00  0.00     0.293 HD
ENDBRANCH   2  22
BRANCH   6  24
ATOM     24  O   UNL     1     -34.441  -4.074 -19.642  1.00  0.00    -0.507 OA
ATOM     25  H   UNL     1     -33.891  -3.430 -20.192  1.00  0.00     0.293 HD
ENDBRANCH   6  24
BRANCH   8  26
ATOM     26  O   UNL     1     -31.350  -4.252 -15.995  1.00  0.00    -0.508 OA
ATOM     27  H   UNL     1     -30.593  -4.756 -16.441  1.00  0.00     0.293 HD
ENDBRANCH   8  26
TORSDOF 6
ENDMDL
