MODEL 1
REMARK VINA RESULT:    10.827      0.000      0.000
REMARK INTER + INTRA:          24.561
REMARK INTER:                  24.752
REMARK INTRA:                  -0.191
REMARK UNBOUND:                -0.191
REMARK SMILES CCCCCCCCCCCCCCCCCCCCCCCC(=O)[O-]
REMARK SMILES IDX 13 1 14 2 15 3 16 4 17 5 18 6 19 7 20 8 21 9 22 10 23 11
REMARK SMILES IDX 24 12 25 13 26 14 12 15 11 16 10 17 9 18 8 19 7 20 6 21 5 22
REMARK SMILES IDX 4 23 3 24 2 25 1 26
REMARK H PARENT
REMARK Flexibility Score: inf
ROOT
ATOM      1  C   UNL     1      53.371 146.665  -0.200  1.00  0.00     0.000 C 
ENDROOT
BRANCH   1   2
ATOM      2  C   UNL     1      54.202 147.048   1.030  1.00  0.00     0.000 C 
BRANCH   2   3
ATOM      3  C   UNL     1      53.341 147.766   2.076  1.00  0.00     0.000 C 
BRANCH   3   4
ATOM      4  C   UNL     1      51.853 147.675   1.718  1.00  0.00     0.000 C 
BRANCH   4   5
ATOM      5  C   UNL     1      51.227 146.391   2.283  1.00  0.00     0.000 C 
BRANCH   5   6
ATOM      6  C   UNL     1      49.691 146.442   2.295  1.00  0.00     0.000 C 
BRANCH   6   7
ATOM      7  C   UNL     1      49.108 147.008   0.991  1.00  0.00     0.000 C 
BRANCH   7   8
ATOM      8  C   UNL     1      47.653 147.484   1.149  1.00  0.00     0.000 C 
BRANCH   8   9
ATOM      9  C   UNL     1      47.005 147.927  -0.180  1.00  0.00     0.000 C 
BRANCH   9  10
ATOM     10  C   UNL     1      47.086 146.836  -1.260  1.00  0.00     0.006 C 
BRANCH  10  11
ATOM     11  C   UNL     1      47.481 147.432  -2.614  1.00  0.00     0.053 C 
BRANCH  11  12
ATOM     12  C   UNL     1      47.201 146.461  -3.716  1.00  0.00     0.041 C 
ATOM     13  O   UNL     1      46.880 146.879  -4.860  1.00  0.00    -0.550 OA
ATOM     14  O   UNL     1      47.241 145.096  -3.469  1.00  0.00    -0.550 OA
ENDBRANCH  11  12
ENDBRANCH  10  11
ENDBRANCH   9  10
ENDBRANCH   8   9
ENDBRANCH   7   8
ENDBRANCH   6   7
ENDBRANCH   5   6
ENDBRANCH   4   5
ENDBRANCH   3   4
ENDBRANCH   2   3
ENDBRANCH   1   2
BRANCH   1  15
ATOM     15  C   UNL     1      52.994 147.912  -1.016  1.00  0.00     0.000 C 
BRANCH  15  16
ATOM     16  C   UNL     1      51.474 148.092  -1.163  1.00  0.00     0.000 C 
BRANCH  16  17
ATOM     17  C   UNL     1      50.904 147.686  -2.535  1.00  0.00     0.000 C 
BRANCH  17  18
ATOM     18  C   UNL     1      51.779 148.122  -3.730  1.00  0.00    -0.000 C 
BRANCH  18  19
ATOM     19  C   UNL     1      51.424 147.368  -5.025  1.00  0.00    -0.000 C 
BRANCH  19  20
ATOM     20  C   UNL     1      52.617 146.555  -5.571  1.00  0.00    -0.000 C 
BRANCH  20  21
ATOM     21  C   UNL     1      52.724 146.577  -7.106  1.00  0.00    -0.000 C 
BRANCH  21  22
ATOM     22  C   UNL     1      51.366 146.408  -7.800  1.00  0.00    -0.000 C 
BRANCH  22  23
ATOM     23  C   UNL     1      50.704 147.770  -8.055  1.00  0.00    -0.000 C 
BRANCH  23  24
ATOM     24  C   UNL     1      49.171 147.708  -7.969  1.00  0.00    -0.000 C 
BRANCH  24  25
ATOM     25  C   UNL     1      48.668 146.470  -7.214  1.00  0.00    -0.003 C 
ATOM     26  C   UNL     1      47.421 145.891  -7.874  1.00  0.00     0.004 C 
ENDBRANCH  24  25
ENDBRANCH  23  24
ENDBRANCH  22  23
ENDBRANCH  21  22
ENDBRANCH  20  21
ENDBRANCH  19  20
ENDBRANCH  18  19
ENDBRANCH  17  18
ENDBRANCH  16  17
ENDBRANCH  15  16
ENDBRANCH   1  15
TORSDOF 22
ENDMDL
