MODEL 1
REMARK VINA RESULT:    -5.788      0.000      0.000
REMARK INTER + INTRA:          -9.089
REMARK INTER:                  -7.649
REMARK INTRA:                  -1.440
REMARK UNBOUND:                -1.440
REMARK SMILES CC[C@@H](C=C[C@H](C)[C@H]1CC[C@H]2[C@@H]3CC=C4C[C@@H](O)CC[C@]4(C)[C@@H]3CC[C@@]12C)C(C)C
REMARK SMILES IDX 6 1 7 2 5 3 4 4 3 5 2 6 1 7 28 8 29 9 30 10 8 11 9 12 26 13
REMARK SMILES IDX 10 14 11 15 25 16 27 17 12 18 24 19 23 20 13 21 21 22 14 23
REMARK SMILES IDX 15 24 20 25 22 26 16 27 19 28 17 29 18 30
REMARK H PARENT 18 31
REMARK Flexibility Score: inf
ROOT
ATOM      1  C   UNL     1     129.560 129.800 108.419  1.00  0.00     0.012 C 
ATOM      2  C   UNL     1     130.051 130.701 107.270  1.00  0.00     0.012 C 
ENDROOT
BRANCH   1   3
ATOM      3  C   UNL     1     130.573 128.695 108.633  1.00  0.00    -0.028 C 
ATOM      4  C   UNL     1     131.483 128.766 109.622  1.00  0.00    -0.027 C 
BRANCH   4   5
ATOM      5  C   UNL     1     132.548 127.711 109.866  1.00  0.00     0.014 C 
BRANCH   5   6
ATOM      6  C   UNL     1     132.419 127.031 111.256  1.00  0.00     0.004 C 
ATOM      7  C   UNL     1     131.394 127.729 112.152  1.00  0.00     0.004 C 
ENDBRANCH   5   6
BRANCH   5   8
ATOM      8  C   UNL     1     133.975 128.253 109.544  1.00  0.00    -0.011 C 
ATOM      9  C   UNL     1     133.998 129.697 109.015  1.00  0.00     0.008 C 
ATOM     10  C   UNL     1     134.920 128.124 110.750  1.00  0.00     0.008 C 
ENDBRANCH   5   8
ENDBRANCH   4   5
ENDBRANCH   1   3
BRANCH   1  11
ATOM     11  C   UNL     1     129.253 130.531 109.782  1.00  0.00     0.002 C 
ATOM     12  C   UNL     1     129.493 132.043 109.810  1.00  0.00     0.005 C 
ATOM     13  C   UNL     1     127.845 130.320 110.410  1.00  0.00    -0.026 C 
ATOM     14  C   UNL     1     128.688 132.573 110.995  1.00  0.00     0.005 C 
ATOM     15  C   UNL     1     127.838 131.403 111.530  1.00  0.00    -0.001 C 
ATOM     16  C   UNL     1     126.711 130.572 109.379  1.00  0.00     0.007 C 
ATOM     17  C   UNL     1     127.742 128.880 110.982  1.00  0.00     0.012 C 
ATOM     18  C   UNL     1     126.445 131.877 112.055  1.00  0.00     0.000 C 
ATOM     19  C   UNL     1     125.343 130.844 110.019  1.00  0.00     0.005 C 
ATOM     20  C   UNL     1     125.403 132.096 110.926  1.00  0.00     0.003 C 
ATOM     21  C   UNL     1     125.907 130.934 113.145  1.00  0.00     0.031 C 
ATOM     22  C   UNL     1     124.016 132.611 111.505  1.00  0.00    -0.008 C 
ATOM     23  C   UNL     1     124.520 131.282 113.593  1.00  0.00    -0.027 C 
ATOM     24  C   UNL     1     123.619 131.913 112.813  1.00  0.00    -0.065 C 
ATOM     25  C   UNL     1     122.855 132.416 110.476  1.00  0.00     0.014 C 
ATOM     26  C   UNL     1     124.163 134.130 111.801  1.00  0.00     0.016 C 
ATOM     27  C   UNL     1     122.222 132.142 113.363  1.00  0.00     0.063 C 
ATOM     28  C   UNL     1     121.467 132.774 111.032  1.00  0.00     0.033 C 
ATOM     29  C   UNL     1     121.153 131.940 112.280  1.00  0.00     0.118 C 
BRANCH  29  30
ATOM     30  O   UNL     1     119.894 132.316 112.776  1.00  0.00    -0.393 OA
ATOM     31  H   UNL     1     119.322 132.511 111.988  1.00  0.00     0.210 HD
ENDBRANCH  29  30
ENDBRANCH   1  11
TORSDOF 6
ENDMDL
MODEL 2
REMARK VINA RESULT:    -5.780      5.211     10.316
REMARK INTER + INTRA:          -9.079
REMARK INTER:                  -7.984
REMARK INTRA:                  -1.095
REMARK UNBOUND:                -1.440
REMARK SMILES CC[C@@H](C=C[C@H](C)[C@H]1CC[C@H]2[C@@H]3CC=C4C[C@@H](O)CC[C@]4(C)[C@@H]3CC[C@@]12C)C(C)C
REMARK SMILES IDX 6 1 7 2 5 3 4 4 3 5 2 6 1 7 28 8 29 9 30 10 8 11 9 12 26 13
REMARK SMILES IDX 10 14 11 15 25 16 27 17 12 18 24 19 23 20 13 21 21 22 14 23
REMARK SMILES IDX 15 24 20 25 22 26 16 27 19 28 17 29 18 30
REMARK H PARENT 18 31
REMARK Flexibility Score: inf
ROOT
ATOM      1  C   UNL     1     128.789 128.809 112.219  1.00  0.00     0.012 C 
ATOM      2  C   UNL     1     127.809 129.050 111.056  1.00  0.00     0.012 C 
ENDROOT
BRANCH   1   3
ATOM      3  C   UNL     1     128.034 128.951 113.524  1.00  0.00    -0.028 C 
ATOM      4  C   UNL     1     128.674 128.924 114.707  1.00  0.00    -0.027 C 
BRANCH   4   5
ATOM      5  C   UNL     1     127.972 129.024 116.049  1.00  0.00     0.014 C 
BRANCH   5   6
ATOM      6  C   UNL     1     126.555 129.651 115.947  1.00  0.00     0.004 C 
ATOM      7  C   UNL     1     125.473 128.742 116.533  1.00  0.00     0.004 C 
ENDBRANCH   5   6
BRANCH   5   8
ATOM      8  C   UNL     1     128.889 129.679 117.127  1.00  0.00    -0.011 C 
ATOM      9  C   UNL     1     128.267 129.746 118.532  1.00  0.00     0.008 C 
ATOM     10  C   UNL     1     130.265 128.996 117.198  1.00  0.00     0.008 C 
ENDBRANCH   5   8
ENDBRANCH   4   5
ENDBRANCH   1   3
BRANCH   1  11
ATOM     11  C   UNL     1     129.570 127.440 112.186  1.00  0.00     0.002 C 
ATOM     12  C   UNL     1     129.013 126.363 111.250  1.00  0.00     0.005 C 
ATOM     13  C   UNL     1     131.099 127.491 111.902  1.00  0.00    -0.026 C 
ATOM     14  C   UNL     1     130.158 125.379 111.016  1.00  0.00     0.005 C 
ATOM     15  C   UNL     1     131.422 125.986 111.659  1.00  0.00    -0.001 C 
ATOM     16  C   UNL     1     131.422 128.343 110.644  1.00  0.00     0.007 C 
ATOM     17  C   UNL     1     131.839 128.060 113.143  1.00  0.00     0.012 C 
ATOM     18  C   UNL     1     132.714 125.656 110.848  1.00  0.00     0.000 C 
ATOM     19  C   UNL     1     132.806 128.058 110.044  1.00  0.00     0.005 C 
ATOM     20  C   UNL     1     132.920 126.576 109.615  1.00  0.00     0.003 C 
ATOM     21  C   UNL     1     133.957 125.640 111.755  1.00  0.00     0.031 C 
ATOM     22  C   UNL     1     134.227 126.178 108.803  1.00  0.00    -0.008 C 
ATOM     23  C   UNL     1     135.236 125.445 110.999  1.00  0.00    -0.027 C 
ATOM     24  C   UNL     1     135.406 125.811 109.713  1.00  0.00    -0.065 C 
ATOM     25  C   UNL     1     134.684 127.330 107.850  1.00  0.00     0.014 C 
ATOM     26  C   UNL     1     133.884 124.931 107.940  1.00  0.00     0.016 C 
ATOM     27  C   UNL     1     136.777 125.625 109.084  1.00  0.00     0.063 C 
ATOM     28  C   UNL     1     136.018 127.052 107.138  1.00  0.00     0.033 C 
ATOM     29  C   UNL     1     137.134 126.797 108.158  1.00  0.00     0.118 C 
BRANCH  29  30
ATOM     30  O   UNL     1     138.326 126.517 107.472  1.00  0.00    -0.393 OA
ATOM     31  H   UNL     1     138.841 125.885 108.038  1.00  0.00     0.210 HD
ENDBRANCH  29  30
ENDBRANCH   1  11
TORSDOF 6
ENDMDL
MODEL 3
REMARK VINA RESULT:    -5.665      7.809     11.510
REMARK INTER + INTRA:          -8.926
REMARK INTER:                  -7.672
REMARK INTRA:                  -1.254
REMARK UNBOUND:                -1.440
REMARK SMILES CC[C@@H](C=C[C@H](C)[C@H]1CC[C@H]2[C@@H]3CC=C4C[C@@H](O)CC[C@]4(C)[C@@H]3CC[C@@]12C)C(C)C
REMARK SMILES IDX 6 1 7 2 5 3 4 4 3 5 2 6 1 7 28 8 29 9 30 10 8 11 9 12 26 13
REMARK SMILES IDX 10 14 11 15 25 16 27 17 12 18 24 19 23 20 13 21 21 22 14 23
REMARK SMILES IDX 15 24 20 25 22 26 16 27 19 28 17 29 18 30
REMARK H PARENT 18 31
REMARK Flexibility Score: inf
ROOT
ATOM      1  C   UNL     1     130.203 121.696 110.693  1.00  0.00     0.012 C 
ATOM      2  C   UNL     1     129.814 121.316 112.134  1.00  0.00     0.012 C 
ENDROOT
BRANCH   1   3
ATOM      3  C   UNL     1     129.226 121.040 109.740  1.00  0.00    -0.028 C 
ATOM      4  C   UNL     1     128.030 121.597 109.475  1.00  0.00    -0.027 C 
BRANCH   4   5
ATOM      5  C   UNL     1     126.993 120.972 108.559  1.00  0.00     0.014 C 
BRANCH   5   6
ATOM      6  C   UNL     1     126.023 122.015 107.941  1.00  0.00     0.004 C 
ATOM      7  C   UNL     1     126.351 123.444 108.378  1.00  0.00     0.004 C 
ENDBRANCH   5   6
BRANCH   5   8
ATOM      8  C   UNL     1     126.285 119.759 109.240  1.00  0.00    -0.011 C 
ATOM      9  C   UNL     1     125.607 120.094 110.580  1.00  0.00     0.008 C 
ATOM     10  C   UNL     1     125.274 119.085 108.297  1.00  0.00     0.008 C 
ENDBRANCH   5   8
ENDBRANCH   4   5
ENDBRANCH   1   3
BRANCH   1  11
ATOM     11  C   UNL     1     130.304 123.241 110.393  1.00  0.00     0.002 C 
ATOM     12  C   UNL     1     130.004 124.180 111.565  1.00  0.00     0.005 C 
ATOM     13  C   UNL     1     131.626 123.766 109.764  1.00  0.00    -0.026 C 
ATOM     14  C   UNL     1     130.629 125.524 111.195  1.00  0.00     0.005 C 
ATOM     15  C   UNL     1     131.448 125.308 109.906  1.00  0.00    -0.001 C 
ATOM     16  C   UNL     1     132.873 123.272 110.548  1.00  0.00     0.007 C 
ATOM     17  C   UNL     1     131.710 123.317 108.280  1.00  0.00     0.012 C 
ATOM     18  C   UNL     1     132.742 126.181 109.875  1.00  0.00     0.000 C 
ATOM     19  C   UNL     1     134.136 124.105 110.289  1.00  0.00     0.005 C 
ATOM     20  C   UNL     1     133.912 125.580 110.699  1.00  0.00     0.003 C 
ATOM     21  C   UNL     1     133.171 126.496 108.431  1.00  0.00     0.031 C 
ATOM     22  C   UNL     1     135.192 126.520 110.666  1.00  0.00    -0.008 C 
ATOM     23  C   UNL     1     134.475 127.231 108.352  1.00  0.00    -0.027 C 
ATOM     24  C   UNL     1     135.443 127.138 109.285  1.00  0.00    -0.065 C 
ATOM     25  C   UNL     1     136.482 125.751 111.099  1.00  0.00     0.014 C 
ATOM     26  C   UNL     1     134.949 127.682 111.671  1.00  0.00     0.016 C 
ATOM     27  C   UNL     1     136.748 127.878 109.047  1.00  0.00     0.063 C 
ATOM     28  C   UNL     1     137.772 126.575 110.960  1.00  0.00     0.033 C 
ATOM     29  C   UNL     1     137.955 127.052 109.513  1.00  0.00     0.118 C 
BRANCH  29  30
ATOM     30  O   UNL     1     139.124 127.825 109.431  1.00  0.00    -0.393 OA
ATOM     31  H   UNL     1     139.453 127.947 110.360  1.00  0.00     0.210 HD
ENDBRANCH  29  30
ENDBRANCH   1  11
TORSDOF 6
ENDMDL
MODEL 4
REMARK VINA RESULT:    -5.583      0.710      1.362
REMARK INTER + INTRA:          -8.818
REMARK INTER:                  -7.337
REMARK INTRA:                  -1.481
REMARK UNBOUND:                -1.440
REMARK SMILES CC[C@@H](C=C[C@H](C)[C@H]1CC[C@H]2[C@@H]3CC=C4C[C@@H](O)CC[C@]4(C)[C@@H]3CC[C@@]12C)C(C)C
REMARK SMILES IDX 6 1 7 2 5 3 4 4 3 5 2 6 1 7 28 8 29 9 30 10 8 11 9 12 26 13
REMARK SMILES IDX 10 14 11 15 25 16 27 17 12 18 24 19 23 20 13 21 21 22 14 23
REMARK SMILES IDX 15 24 20 25 22 26 16 27 19 28 17 29 18 30
REMARK H PARENT 18 31
REMARK Flexibility Score: inf
ROOT
ATOM      1  C   UNL     1     129.561 129.742 108.361  1.00  0.00     0.012 C 
ATOM      2  C   UNL     1     130.026 130.621 107.184  1.00  0.00     0.012 C 
ENDROOT
BRANCH   1   3
ATOM      3  C   UNL     1     130.588 128.653 108.586  1.00  0.00    -0.028 C 
ATOM      4  C   UNL     1     131.322 128.608 109.712  1.00  0.00    -0.027 C 
BRANCH   4   5
ATOM      5  C   UNL     1     132.392 127.565 109.981  1.00  0.00     0.014 C 
BRANCH   5   6
ATOM      6  C   UNL     1     132.292 126.337 109.037  1.00  0.00     0.004 C 
ATOM      7  C   UNL     1     131.825 125.077 109.769  1.00  0.00     0.004 C 
ENDBRANCH   5   6
BRANCH   5   8
ATOM      8  C   UNL     1     132.472 127.206 111.498  1.00  0.00    -0.011 C 
ATOM      9  C   UNL     1     133.831 127.511 112.150  1.00  0.00     0.008 C 
ATOM     10  C   UNL     1     131.345 127.875 112.302  1.00  0.00     0.008 C 
ENDBRANCH   5   8
ENDBRANCH   4   5
ENDBRANCH   1   3
BRANCH   1  11
ATOM     11  C   UNL     1     129.267 130.503 109.711  1.00  0.00     0.002 C 
ATOM     12  C   UNL     1     129.503 132.016 109.703  1.00  0.00     0.005 C 
ATOM     13  C   UNL     1     127.868 130.301 110.360  1.00  0.00    -0.026 C 
ATOM     14  C   UNL     1     128.710 132.570 110.884  1.00  0.00     0.005 C 
ATOM     15  C   UNL     1     127.870 131.409 111.456  1.00  0.00    -0.001 C 
ATOM     16  C   UNL     1     126.721 130.527 109.337  1.00  0.00     0.007 C 
ATOM     17  C   UNL     1     127.777 128.874 110.965  1.00  0.00     0.012 C 
ATOM     18  C   UNL     1     126.482 131.890 111.986  1.00  0.00     0.000 C 
ATOM     19  C   UNL     1     125.359 130.808 109.987  1.00  0.00     0.005 C 
ATOM     20  C   UNL     1     125.426 132.081 110.865  1.00  0.00     0.003 C 
ATOM     21  C   UNL     1     125.960 130.970 113.103  1.00  0.00     0.031 C 
ATOM     22  C   UNL     1     124.044 132.604 111.449  1.00  0.00    -0.008 C 
ATOM     23  C   UNL     1     124.577 131.324 113.559  1.00  0.00    -0.027 C 
ATOM     24  C   UNL     1     123.665 131.934 112.776  1.00  0.00    -0.065 C 
ATOM     25  C   UNL     1     122.872 132.382 110.438  1.00  0.00     0.014 C 
ATOM     26  C   UNL     1     124.189 134.130 111.710  1.00  0.00     0.016 C 
ATOM     27  C   UNL     1     122.273 132.171 113.338  1.00  0.00     0.063 C 
ATOM     28  C   UNL     1     121.489 132.749 111.003  1.00  0.00     0.033 C 
ATOM     29  C   UNL     1     121.192 131.942 112.272  1.00  0.00     0.118 C 
BRANCH  29  30
ATOM     30  O   UNL     1     119.938 132.324 112.775  1.00  0.00    -0.393 OA
ATOM     31  H   UNL     1     119.601 131.561 113.313  1.00  0.00     0.210 HD
ENDBRANCH  29  30
ENDBRANCH   1  11
TORSDOF 6
ENDMDL
MODEL 5
REMARK VINA RESULT:    -5.492      4.087      6.642
REMARK INTER + INTRA:          -8.698
REMARK INTER:                  -8.479
REMARK INTRA:                  -0.220
REMARK UNBOUND:                -1.440
REMARK SMILES CC[C@@H](C=C[C@H](C)[C@H]1CC[C@H]2[C@@H]3CC=C4C[C@@H](O)CC[C@]4(C)[C@@H]3CC[C@@]12C)C(C)C
REMARK SMILES IDX 6 1 7 2 5 3 4 4 3 5 2 6 1 7 28 8 29 9 30 10 8 11 9 12 26 13
REMARK SMILES IDX 10 14 11 15 25 16 27 17 12 18 24 19 23 20 13 21 21 22 14 23
REMARK SMILES IDX 15 24 20 25 22 26 16 27 19 28 17 29 18 30
REMARK H PARENT 18 31
REMARK Flexibility Score: inf
ROOT
ATOM      1  C   UNL     1     128.967 128.708 113.049  1.00  0.00     0.012 C 
ATOM      2  C   UNL     1     130.268 128.457 112.264  1.00  0.00     0.012 C 
ENDROOT
BRANCH   1   3
ATOM      3  C   UNL     1     129.305 129.462 114.318  1.00  0.00    -0.028 C 
ATOM      4  C   UNL     1     129.004 128.961 115.529  1.00  0.00    -0.027 C 
BRANCH   4   5
ATOM      5  C   UNL     1     129.283 129.683 116.835  1.00  0.00     0.014 C 
BRANCH   5   6
ATOM      6  C   UNL     1     130.354 128.971 117.704  1.00  0.00     0.004 C 
ATOM      7  C   UNL     1     131.740 128.996 117.056  1.00  0.00     0.004 C 
ENDBRANCH   5   6
BRANCH   5   8
ATOM      8  C   UNL     1     127.963 130.026 117.592  1.00  0.00    -0.011 C 
ATOM      9  C   UNL     1     126.705 129.367 117.001  1.00  0.00     0.008 C 
ATOM     10  C   UNL     1     128.065 129.702 119.093  1.00  0.00     0.008 C 
ENDBRANCH   5   8
ENDBRANCH   4   5
ENDBRANCH   1   3
BRANCH   1  11
ATOM     11  C   UNL     1     127.822 129.452 112.260  1.00  0.00     0.002 C 
ATOM     12  C   UNL     1     126.754 130.148 113.110  1.00  0.00     0.005 C 
ATOM     13  C   UNL     1     128.248 130.495 111.187  1.00  0.00    -0.026 C 
ATOM     14  C   UNL     1     126.086 131.168 112.190  1.00  0.00     0.005 C 
ATOM     15  C   UNL     1     126.890 131.192 110.874  1.00  0.00    -0.001 C 
ATOM     16  C   UNL     1     129.282 131.509 111.749  1.00  0.00     0.007 C 
ATOM     17  C   UNL     1     128.832 129.759 109.951  1.00  0.00     0.012 C 
ATOM     18  C   UNL     1     126.951 132.620 110.245  1.00  0.00     0.000 C 
ATOM     19  C   UNL     1     129.384 132.804 110.932  1.00  0.00     0.005 C 
ATOM     20  C   UNL     1     128.021 133.536 110.897  1.00  0.00     0.003 C 
ATOM     21  C   UNL     1     127.119 132.554 108.717  1.00  0.00     0.031 C 
ATOM     22  C   UNL     1     128.020 134.987 110.249  1.00  0.00    -0.008 C 
ATOM     23  C   UNL     1     127.302 133.900 108.086  1.00  0.00    -0.027 C 
ATOM     24  C   UNL     1     127.834 134.960 108.726  1.00  0.00    -0.065 C 
ATOM     25  C   UNL     1     129.341 135.759 110.566  1.00  0.00     0.014 C 
ATOM     26  C   UNL     1     126.828 135.775 110.861  1.00  0.00     0.016 C 
ATOM     27  C   UNL     1     128.031 136.250 107.948  1.00  0.00     0.063 C 
ATOM     28  C   UNL     1     129.451 137.117 109.854  1.00  0.00     0.033 C 
ATOM     29  C   UNL     1     129.346 136.942 108.334  1.00  0.00     0.118 C 
BRANCH  29  30
ATOM     30  O   UNL     1     129.420 138.203 107.721  1.00  0.00    -0.393 OA
ATOM     31  H   UNL     1     128.821 138.172 106.930  1.00  0.00     0.210 HD
ENDBRANCH  29  30
ENDBRANCH   1  11
TORSDOF 6
ENDMDL
MODEL 6
REMARK VINA RESULT:    -5.395      7.588     11.236
REMARK INTER + INTRA:          -8.569
REMARK INTER:                  -7.285
REMARK INTRA:                  -1.284
REMARK UNBOUND:                -1.440
REMARK SMILES CC[C@@H](C=C[C@H](C)[C@H]1CC[C@H]2[C@@H]3CC=C4C[C@@H](O)CC[C@]4(C)[C@@H]3CC[C@@]12C)C(C)C
REMARK SMILES IDX 6 1 7 2 5 3 4 4 3 5 2 6 1 7 28 8 29 9 30 10 8 11 9 12 26 13
REMARK SMILES IDX 10 14 11 15 25 16 27 17 12 18 24 19 23 20 13 21 21 22 14 23
REMARK SMILES IDX 15 24 20 25 22 26 16 27 19 28 17 29 18 30
REMARK H PARENT 18 31
REMARK Flexibility Score: inf
ROOT
ATOM      1  C   UNL     1     130.006 122.035 110.590  1.00  0.00     0.012 C 
ATOM      2  C   UNL     1     129.830 121.590 112.053  1.00  0.00     0.012 C 
ENDROOT
BRANCH   1   3
ATOM      3  C   UNL     1     128.847 121.495 109.778  1.00  0.00    -0.028 C 
ATOM      4  C   UNL     1     127.657 122.122 109.757  1.00  0.00    -0.027 C 
BRANCH   4   5
ATOM      5  C   UNL     1     126.448 121.612 108.994  1.00  0.00     0.014 C 
BRANCH   5   6
ATOM      6  C   UNL     1     126.641 120.172 108.446  1.00  0.00     0.004 C 
ATOM      7  C   UNL     1     125.653 119.179 109.061  1.00  0.00     0.004 C 
ENDBRANCH   5   6
BRANCH   5   8
ATOM      8  C   UNL     1     125.965 122.646 107.931  1.00  0.00    -0.011 C 
ATOM      9  C   UNL     1     126.544 124.060 108.115  1.00  0.00     0.008 C 
ATOM     10  C   UNL     1     126.229 122.157 106.497  1.00  0.00     0.008 C 
ENDBRANCH   5   8
ENDBRANCH   4   5
ENDBRANCH   1   3
BRANCH   1  11
ATOM     11  C   UNL     1     130.157 123.588 110.357  1.00  0.00     0.002 C 
ATOM     12  C   UNL     1     129.915 124.483 111.576  1.00  0.00     0.005 C 
ATOM     13  C   UNL     1     131.485 124.094 109.724  1.00  0.00    -0.026 C 
ATOM     14  C   UNL     1     130.582 125.819 111.254  1.00  0.00     0.005 C 
ATOM     15  C   UNL     1     131.366 125.633 109.939  1.00  0.00    -0.001 C 
ATOM     16  C   UNL     1     132.728 123.521 110.457  1.00  0.00     0.007 C 
ATOM     17  C   UNL     1     131.522 123.710 108.220  1.00  0.00     0.012 C 
ATOM     18  C   UNL     1     132.691 126.460 109.919  1.00  0.00     0.000 C 
ATOM     19  C   UNL     1     134.016 124.318 110.208  1.00  0.00     0.005 C 
ATOM     20  C   UNL     1     133.854 125.780 110.689  1.00  0.00     0.003 C 
ATOM     21  C   UNL     1     133.102 126.825 108.481  1.00  0.00     0.031 C 
ATOM     22  C   UNL     1     135.167 126.675 110.671  1.00  0.00    -0.008 C 
ATOM     23  C   UNL     1     134.430 127.516 108.407  1.00  0.00    -0.027 C 
ATOM     24  C   UNL     1     135.413 127.346 109.313  1.00  0.00    -0.065 C 
ATOM     25  C   UNL     1     136.436 125.841 111.041  1.00  0.00     0.014 C 
ATOM     26  C   UNL     1     134.987 127.798 111.732  1.00  0.00     0.016 C 
ATOM     27  C   UNL     1     136.739 128.049 109.081  1.00  0.00     0.063 C 
ATOM     28  C   UNL     1     137.752 126.625 110.910  1.00  0.00     0.033 C 
ATOM     29  C   UNL     1     137.924 127.160 109.483  1.00  0.00     0.118 C 
BRANCH  29  30
ATOM     30  O   UNL     1     139.119 127.893 109.410  1.00  0.00    -0.393 OA
ATOM     31  H   UNL     1     139.856 127.261 109.616  1.00  0.00     0.210 HD
ENDBRANCH  29  30
ENDBRANCH   1  11
TORSDOF 6
ENDMDL
MODEL 7
REMARK VINA RESULT:    -5.297      1.588      2.494
REMARK INTER + INTRA:          -8.441
REMARK INTER:                  -7.391
REMARK INTRA:                  -1.050
REMARK UNBOUND:                -1.440
REMARK SMILES CC[C@@H](C=C[C@H](C)[C@H]1CC[C@H]2[C@@H]3CC=C4C[C@@H](O)CC[C@]4(C)[C@@H]3CC[C@@]12C)C(C)C
REMARK SMILES IDX 6 1 7 2 5 3 4 4 3 5 2 6 1 7 28 8 29 9 30 10 8 11 9 12 26 13
REMARK SMILES IDX 10 14 11 15 25 16 27 17 12 18 24 19 23 20 13 21 21 22 14 23
REMARK SMILES IDX 15 24 20 25 22 26 16 27 19 28 17 29 18 30
REMARK H PARENT 18 31
REMARK Flexibility Score: inf
ROOT
ATOM      1  C   UNL     1     130.110 129.324 110.406  1.00  0.00     0.012 C 
ATOM      2  C   UNL     1     131.020 129.631 109.202  1.00  0.00     0.012 C 
ENDROOT
BRANCH   1   3
ATOM      3  C   UNL     1     130.956 128.723 111.509  1.00  0.00    -0.028 C 
ATOM      4  C   UNL     1     131.965 127.878 111.233  1.00  0.00    -0.027 C 
BRANCH   4   5
ATOM      5  C   UNL     1     132.825 127.214 112.294  1.00  0.00     0.014 C 
BRANCH   5   6
ATOM      6  C   UNL     1     134.308 127.673 112.246  1.00  0.00     0.004 C 
ATOM      7  C   UNL     1     134.700 128.229 110.876  1.00  0.00     0.004 C 
ENDBRANCH   5   6
BRANCH   5   8
ATOM      8  C   UNL     1     132.630 125.666 112.302  1.00  0.00    -0.011 C 
ATOM      9  C   UNL     1     131.869 125.118 111.083  1.00  0.00     0.008 C 
ATOM     10  C   UNL     1     133.968 124.923 112.459  1.00  0.00     0.008 C 
ENDBRANCH   5   8
ENDBRANCH   4   5
ENDBRANCH   1   3
BRANCH   1  11
ATOM     11  C   UNL     1     129.272 130.538 110.961  1.00  0.00     0.002 C 
ATOM     12  C   UNL     1     129.434 131.870 110.221  1.00  0.00     0.005 C 
ATOM     13  C   UNL     1     127.738 130.337 111.128  1.00  0.00    -0.026 C 
ATOM     14  C   UNL     1     128.213 132.708 110.594  1.00  0.00     0.005 C 
ATOM     15  C   UNL     1     127.259 131.797 111.393  1.00  0.00    -0.001 C 
ATOM     16  C   UNL     1     127.090 129.760 109.840  1.00  0.00     0.007 C 
ATOM     17  C   UNL     1     127.466 129.400 112.335  1.00  0.00     0.012 C 
ATOM     18  C   UNL     1     125.758 132.117 111.106  1.00  0.00     0.000 C 
ATOM     19  C   UNL     1     125.572 129.976 109.762  1.00  0.00     0.005 C 
ATOM     20  C   UNL     1     125.233 131.486 109.790  1.00  0.00     0.003 C 
ATOM     21  C   UNL     1     124.867 131.747 112.305  1.00  0.00     0.031 C 
ATOM     22  C   UNL     1     123.714 131.869 109.524  1.00  0.00    -0.008 C 
ATOM     23  C   UNL     1     123.405 131.927 112.029  1.00  0.00    -0.027 C 
ATOM     24  C   UNL     1     122.861 131.845 110.799  1.00  0.00    -0.065 C 
ATOM     25  C   UNL     1     123.055 130.914 108.477  1.00  0.00     0.014 C 
ATOM     26  C   UNL     1     123.686 133.317 108.958  1.00  0.00     0.016 C 
ATOM     27  C   UNL     1     121.353 131.974 110.666  1.00  0.00     0.063 C 
ATOM     28  C   UNL     1     121.549 131.156 108.280  1.00  0.00     0.033 C 
ATOM     29  C   UNL     1     120.799 131.009 109.609  1.00  0.00     0.118 C 
BRANCH  29  30
ATOM     30  O   UNL     1     119.435 131.265 109.396  1.00  0.00    -0.393 OA
ATOM     31  H   UNL     1     119.251 131.059 108.442  1.00  0.00     0.210 HD
ENDBRANCH  29  30
ENDBRANCH   1  11
TORSDOF 6
ENDMDL
MODEL 8
REMARK VINA RESULT:    -5.235      3.683      9.470
REMARK INTER + INTRA:          -8.358
REMARK INTER:                  -7.096
REMARK INTRA:                  -1.262
REMARK UNBOUND:                -1.440
REMARK SMILES CC[C@@H](C=C[C@H](C)[C@H]1CC[C@H]2[C@@H]3CC=C4C[C@@H](O)CC[C@]4(C)[C@@H]3CC[C@@]12C)C(C)C
REMARK SMILES IDX 6 1 7 2 5 3 4 4 3 5 2 6 1 7 28 8 29 9 30 10 8 11 9 12 26 13
REMARK SMILES IDX 10 14 11 15 25 16 27 17 12 18 24 19 23 20 13 21 21 22 14 23
REMARK SMILES IDX 15 24 20 25 22 26 16 27 19 28 17 29 18 30
REMARK H PARENT 18 31
REMARK Flexibility Score: inf
ROOT
ATOM      1  C   UNL     1     127.399 129.933 108.968  1.00  0.00     0.012 C 
ATOM      2  C   UNL     1     127.304 129.441 107.511  1.00  0.00     0.012 C 
ENDROOT
BRANCH   1   3
ATOM      3  C   UNL     1     126.046 130.466 109.387  1.00  0.00    -0.028 C 
ATOM      4  C   UNL     1     125.880 131.101 110.562  1.00  0.00    -0.027 C 
BRANCH   4   5
ATOM      5  C   UNL     1     124.543 131.626 111.056  1.00  0.00     0.014 C 
BRANCH   5   6
ATOM      6  C   UNL     1     124.064 132.885 110.284  1.00  0.00     0.004 C 
ATOM      7  C   UNL     1     124.574 134.183 110.914  1.00  0.00     0.004 C 
ENDBRANCH   5   6
BRANCH   5   8
ATOM      8  C   UNL     1     124.527 131.778 112.608  1.00  0.00    -0.011 C 
ATOM      9  C   UNL     1     123.152 131.537 113.254  1.00  0.00     0.008 C 
ATOM     10  C   UNL     1     125.583 130.885 113.281  1.00  0.00     0.008 C 
ENDBRANCH   5   8
ENDBRANCH   4   5
ENDBRANCH   1   3
BRANCH   1  11
ATOM     11  C   UNL     1     127.918 128.875 110.017  1.00  0.00     0.002 C 
ATOM     12  C   UNL     1     127.832 127.405 109.597  1.00  0.00     0.005 C 
ATOM     13  C   UNL     1     129.356 129.066 110.579  1.00  0.00    -0.026 C 
ATOM     14  C   UNL     1     128.805 126.653 110.503  1.00  0.00     0.005 C 
ATOM     15  C   UNL     1     129.587 127.709 111.311  1.00  0.00    -0.001 C 
ATOM     16  C   UNL     1     130.395 129.274 109.444  1.00  0.00     0.007 C 
ATOM     17  C   UNL     1     129.375 130.273 111.556  1.00  0.00     0.012 C 
ATOM     18  C   UNL     1     131.066 127.281 111.566  1.00  0.00     0.000 C 
ATOM     19  C   UNL     1     131.843 129.000 109.873  1.00  0.00     0.005 C 
ATOM     20  C   UNL     1     132.001 127.538 110.355  1.00  0.00     0.003 C 
ATOM     21  C   UNL     1     131.620 127.918 112.853  1.00  0.00     0.031 C 
ATOM     22  C   UNL     1     133.486 127.053 110.650  1.00  0.00    -0.008 C 
ATOM     23  C   UNL     1     133.074 127.630 113.074  1.00  0.00    -0.027 C 
ATOM     24  C   UNL     1     133.946 127.377 112.078  1.00  0.00    -0.065 C 
ATOM     25  C   UNL     1     134.507 127.688 109.652  1.00  0.00     0.014 C 
ATOM     26  C   UNL     1     133.520 125.509 110.477  1.00  0.00     0.016 C 
ATOM     27  C   UNL     1     135.409 127.172 112.433  1.00  0.00     0.063 C 
ATOM     28  C   UNL     1     135.974 127.358 109.973  1.00  0.00     0.033 C 
ATOM     29  C   UNL     1     136.334 127.818 111.392  1.00  0.00     0.118 C 
BRANCH  29  30
ATOM     30  O   UNL     1     137.668 127.474 111.660  1.00  0.00    -0.393 OA
ATOM     31  H   UNL     1     138.191 128.318 111.640  1.00  0.00     0.210 HD
ENDBRANCH  29  30
ENDBRANCH   1  11
TORSDOF 6
ENDMDL
MODEL 9
REMARK VINA RESULT:    -5.058      1.802      2.649
REMARK INTER + INTRA:          -8.124
REMARK INTER:                  -7.086
REMARK INTRA:                  -1.038
REMARK UNBOUND:                -1.440
REMARK SMILES CC[C@@H](C=C[C@H](C)[C@H]1CC[C@H]2[C@@H]3CC=C4C[C@@H](O)CC[C@]4(C)[C@@H]3CC[C@@]12C)C(C)C
REMARK SMILES IDX 6 1 7 2 5 3 4 4 3 5 2 6 1 7 28 8 29 9 30 10 8 11 9 12 26 13
REMARK SMILES IDX 10 14 11 15 25 16 27 17 12 18 24 19 23 20 13 21 21 22 14 23
REMARK SMILES IDX 15 24 20 25 22 26 16 27 19 28 17 29 18 30
REMARK H PARENT 18 31
REMARK Flexibility Score: inf
ROOT
ATOM      1  C   UNL     1     129.543 129.498 108.375  1.00  0.00     0.012 C 
ATOM      2  C   UNL     1     130.680 130.049 107.494  1.00  0.00     0.012 C 
ENDROOT
BRANCH   1   3
ATOM      3  C   UNL     1     129.815 128.035 108.655  1.00  0.00    -0.028 C 
ATOM      4  C   UNL     1     128.965 127.076 108.243  1.00  0.00    -0.027 C 
BRANCH   4   5
ATOM      5  C   UNL     1     129.162 125.597 108.524  1.00  0.00     0.014 C 
BRANCH   5   6
ATOM      6  C   UNL     1     127.846 124.780 108.417  1.00  0.00     0.004 C 
ATOM      7  C   UNL     1     126.608 125.677 108.354  1.00  0.00     0.004 C 
ENDBRANCH   5   6
BRANCH   5   8
ATOM      8  C   UNL     1     129.957 125.367 109.847  1.00  0.00    -0.011 C 
ATOM      9  C   UNL     1     129.200 124.546 110.905  1.00  0.00     0.008 C 
ATOM     10  C   UNL     1     131.334 124.735 109.583  1.00  0.00     0.008 C 
ENDBRANCH   5   8
ENDBRANCH   4   5
ENDBRANCH   1   3
BRANCH   1  11
ATOM     11  C   UNL     1     129.283 130.272 109.723  1.00  0.00     0.002 C 
ATOM     12  C   UNL     1     129.571 131.777 109.709  1.00  0.00     0.005 C 
ATOM     13  C   UNL     1     127.881 130.122 110.381  1.00  0.00    -0.026 C 
ATOM     14  C   UNL     1     128.804 132.362 110.893  1.00  0.00     0.005 C 
ATOM     15  C   UNL     1     127.927 131.233 111.472  1.00  0.00    -0.001 C 
ATOM     16  C   UNL     1     126.737 130.384 109.363  1.00  0.00     0.007 C 
ATOM     17  C   UNL     1     127.744 128.701 110.991  1.00  0.00     0.012 C 
ATOM     18  C   UNL     1     126.559 131.763 112.008  1.00  0.00     0.000 C 
ATOM     19  C   UNL     1     125.389 130.714 110.019  1.00  0.00     0.005 C 
ATOM     20  C   UNL     1     125.505 131.987 110.892  1.00  0.00     0.003 C 
ATOM     21  C   UNL     1     126.011 130.866 113.132  1.00  0.00     0.031 C 
ATOM     22  C   UNL     1     124.145 132.560 111.481  1.00  0.00    -0.008 C 
ATOM     23  C   UNL     1     124.644 131.269 113.593  1.00  0.00    -0.027 C 
ATOM     24  C   UNL     1     123.750 131.908 112.813  1.00  0.00    -0.065 C 
ATOM     25  C   UNL     1     122.961 132.375 110.477  1.00  0.00     0.014 C 
ATOM     26  C   UNL     1     124.345 134.080 111.735  1.00  0.00     0.016 C 
ATOM     27  C   UNL     1     122.370 132.195 113.381  1.00  0.00     0.063 C 
ATOM     28  C   UNL     1     121.595 132.791 111.047  1.00  0.00     0.033 C 
ATOM     29  C   UNL     1     121.276 132.000 112.321  1.00  0.00     0.118 C 
BRANCH  29  30
ATOM     30  O   UNL     1     120.039 132.427 112.829  1.00  0.00    -0.393 OA
ATOM     31  H   UNL     1     119.741 131.736 113.476  1.00  0.00     0.210 HD
ENDBRANCH  29  30
ENDBRANCH   1  11
TORSDOF 6
ENDMDL
