MODEL 1
REMARK VINA RESULT:    -5.006      0.000      0.000
REMARK INTER + INTRA:         -10.978
REMARK INTER:                  -9.103
REMARK INTRA:                  -1.874
REMARK UNBOUND:                -1.874
REMARK SMILES CCCCCCCCCCCCCCCC(=O)[O-]
REMARK SMILES IDX 9 1 10 2 11 3 12 4 13 5 14 6 15 7 16 8 17 9 18 10 8 11 7 12
REMARK SMILES IDX 6 13 5 14 4 15 3 16 2 17 1 18
REMARK H PARENT
REMARK Flexibility Score: inf
ROOT
ATOM      1  C   UNL     1      34.869   5.519   8.093  1.00  0.00     0.000 C 
ENDROOT
BRANCH   1   2
ATOM      2  C   UNL     1      34.606   4.245   8.917  1.00  0.00     0.000 C 
BRANCH   2   3
ATOM      3  C   UNL     1      33.139   3.776   8.950  1.00  0.00     0.000 C 
BRANCH   3   4
ATOM      4  C   UNL     1      32.843   2.822  10.118  1.00  0.00     0.000 C 
BRANCH   4   5
ATOM      5  C   UNL     1      33.263   3.392  11.483  1.00  0.00     0.000 C 
BRANCH   5   6
ATOM      6  C   UNL     1      32.374   4.529  12.029  1.00  0.00     0.006 C 
BRANCH   6   7
ATOM      7  C   UNL     1      32.517   4.767  13.544  1.00  0.00     0.053 C 
BRANCH   7   8
ATOM      8  C   UNL     1      33.850   4.329  14.074  1.00  0.00     0.041 C 
ATOM      9  O   UNL     1      34.824   5.127  14.081  1.00  0.00    -0.550 OA
ATOM     10  O   UNL     1      34.005   3.053  14.600  1.00  0.00    -0.550 OA
ENDBRANCH   7   8
ENDBRANCH   6   7
ENDBRANCH   5   6
ENDBRANCH   4   5
ENDBRANCH   3   4
ENDBRANCH   2   3
ENDBRANCH   1   2
BRANCH   1  11
ATOM     11  C   UNL     1      33.719   6.533   8.174  1.00  0.00     0.000 C 
BRANCH  11  12
ATOM     12  C   UNL     1      34.100   7.727   9.057  1.00  0.00    -0.000 C 
BRANCH  12  13
ATOM     13  C   UNL     1      33.398   7.652  10.417  1.00  0.00    -0.000 C 
BRANCH  13  14
ATOM     14  C   UNL     1      34.394   7.311  11.532  1.00  0.00    -0.000 C 
BRANCH  14  15
ATOM     15  C   UNL     1      35.836   7.614  11.095  1.00  0.00    -0.000 C 
BRANCH  15  16
ATOM     16  C   UNL     1      36.802   6.458  11.429  1.00  0.00    -0.000 C 
BRANCH  16  17
ATOM     17  C   UNL     1      38.177   6.589  10.753  1.00  0.00    -0.003 C 
ATOM     18  C   UNL     1      39.319   6.762  11.752  1.00  0.00     0.004 C 
ENDBRANCH  16  17
ENDBRANCH  15  16
ENDBRANCH  14  15
ENDBRANCH  13  14
ENDBRANCH  12  13
ENDBRANCH  11  12
ENDBRANCH   1  11
TORSDOF 14
ENDMDL
MODEL 2
REMARK VINA RESULT:    -4.840      1.558      3.445
REMARK INTER + INTRA:         -10.676
REMARK INTER:                  -8.539
REMARK INTRA:                  -2.137
REMARK UNBOUND:                -1.874
REMARK SMILES CCCCCCCCCCCCCCCC(=O)[O-]
REMARK SMILES IDX 9 1 10 2 11 3 12 4 13 5 14 6 15 7 16 8 17 9 18 10 8 11 7 12
REMARK SMILES IDX 6 13 5 14 4 15 3 16 2 17 1 18
REMARK H PARENT
REMARK Flexibility Score: inf
ROOT
ATOM      1  C   UNL     1      35.931   4.485   9.031  1.00  0.00     0.000 C 
ENDROOT
BRANCH   1   2
ATOM      2  C   UNL     1      35.118   5.428   8.125  1.00  0.00     0.000 C 
BRANCH   2   3
ATOM      3  C   UNL     1      33.656   5.651   8.554  1.00  0.00     0.000 C 
BRANCH   3   4
ATOM      4  C   UNL     1      32.756   4.440   8.262  1.00  0.00     0.000 C 
BRANCH   4   5
ATOM      5  C   UNL     1      32.539   3.542   9.491  1.00  0.00     0.000 C 
BRANCH   5   6
ATOM      6  C   UNL     1      32.512   4.272  10.850  1.00  0.00     0.006 C 
BRANCH   6   7
ATOM      7  C   UNL     1      33.315   3.566  11.959  1.00  0.00     0.053 C 
BRANCH   7   8
ATOM      8  C   UNL     1      33.161   4.231  13.295  1.00  0.00     0.041 C 
ATOM      9  O   UNL     1      34.165   4.422  14.030  1.00  0.00    -0.550 OA
ATOM     10  O   UNL     1      31.913   4.680  13.708  1.00  0.00    -0.550 OA
ENDBRANCH   7   8
ENDBRANCH   6   7
ENDBRANCH   5   6
ENDBRANCH   4   5
ENDBRANCH   3   4
ENDBRANCH   2   3
ENDBRANCH   1   2
BRANCH   1  11
ATOM     11  C   UNL     1      36.281   5.112  10.389  1.00  0.00     0.000 C 
BRANCH  11  12
ATOM     12  C   UNL     1      37.053   6.424  10.205  1.00  0.00    -0.000 C 
BRANCH  12  13
ATOM     13  C   UNL     1      36.541   7.503  11.164  1.00  0.00    -0.000 C 
BRANCH  13  14
ATOM     14  C   UNL     1      35.249   7.054  11.859  1.00  0.00    -0.000 C 
BRANCH  14  15
ATOM     15  C   UNL     1      34.243   8.212  11.954  1.00  0.00    -0.000 C 
BRANCH  15  16
ATOM     16  C   UNL     1      32.831   7.798  11.487  1.00  0.00    -0.000 C 
BRANCH  16  17
ATOM     17  C   UNL     1      31.710   8.259  12.433  1.00  0.00    -0.003 C 
ATOM     18  C   UNL     1      31.348   9.733  12.258  1.00  0.00     0.004 C 
ENDBRANCH  16  17
ENDBRANCH  15  16
ENDBRANCH  14  15
ENDBRANCH  13  14
ENDBRANCH  12  13
ENDBRANCH  11  12
ENDBRANCH   1  11
TORSDOF 14
ENDMDL
MODEL 3
REMARK VINA RESULT:    -4.826      1.980      5.271
REMARK INTER + INTRA:         -10.650
REMARK INTER:                  -8.380
REMARK INTRA:                  -2.270
REMARK UNBOUND:                -1.874
REMARK SMILES CCCCCCCCCCCCCCCC(=O)[O-]
REMARK SMILES IDX 9 1 10 2 11 3 12 4 13 5 14 6 15 7 16 8 17 9 18 10 8 11 7 12
REMARK SMILES IDX 6 13 5 14 4 15 3 16 2 17 1 18
REMARK H PARENT
REMARK Flexibility Score: inf
ROOT
ATOM      1  C   UNL     1      32.478   4.930  13.403  1.00  0.00     0.000 C 
ENDROOT
BRANCH   1   2
ATOM      2  C   UNL     1      31.696   5.512  12.211  1.00  0.00     0.000 C 
BRANCH   2   3
ATOM      3  C   UNL     1      31.640   7.050  12.151  1.00  0.00     0.000 C 
BRANCH   3   4
ATOM      4  C   UNL     1      32.938   7.714  12.640  1.00  0.00     0.000 C 
BRANCH   4   5
ATOM      5  C   UNL     1      34.020   7.795  11.550  1.00  0.00     0.000 C 
BRANCH   5   6
ATOM      6  C   UNL     1      35.365   7.128  11.902  1.00  0.00     0.006 C 
BRANCH   6   7
ATOM      7  C   UNL     1      36.536   7.559  10.999  1.00  0.00     0.053 C 
BRANCH   7   8
ATOM      8  C   UNL     1      37.635   6.539  10.951  1.00  0.00     0.041 C 
ATOM      9  O   UNL     1      37.447   5.429  10.386  1.00  0.00    -0.550 OA
ATOM     10  O   UNL     1      38.880   6.831  11.493  1.00  0.00    -0.550 OA
ENDBRANCH   7   8
ENDBRANCH   6   7
ENDBRANCH   5   6
ENDBRANCH   4   5
ENDBRANCH   3   4
ENDBRANCH   2   3
ENDBRANCH   1   2
BRANCH   1  11
ATOM     11  C   UNL     1      33.570   3.938  12.977  1.00  0.00     0.000 C 
BRANCH  11  12
ATOM     12  C   UNL     1      32.962   2.721  12.270  1.00  0.00    -0.000 C 
BRANCH  12  13
ATOM     13  C   UNL     1      33.567   2.537  10.874  1.00  0.00    -0.000 C 
BRANCH  13  14
ATOM     14  C   UNL     1      32.495   2.680   9.786  1.00  0.00    -0.000 C 
BRANCH  14  15
ATOM     15  C   UNL     1      32.845   3.818   8.814  1.00  0.00    -0.000 C 
BRANCH  15  16
ATOM     16  C   UNL     1      34.004   4.694   9.335  1.00  0.00    -0.000 C 
BRANCH  16  17
ATOM     17  C   UNL     1      34.646   5.574   8.249  1.00  0.00    -0.003 C 
ATOM     18  C   UNL     1      33.896   6.884   8.020  1.00  0.00     0.004 C 
ENDBRANCH  16  17
ENDBRANCH  15  16
ENDBRANCH  14  15
ENDBRANCH  13  14
ENDBRANCH  12  13
ENDBRANCH  11  12
ENDBRANCH   1  11
TORSDOF 14
ENDMDL
MODEL 4
REMARK VINA RESULT:    -4.797      2.028      4.608
REMARK INTER + INTRA:         -10.598
REMARK INTER:                  -8.472
REMARK INTRA:                  -2.127
REMARK UNBOUND:                -1.874
REMARK SMILES CCCCCCCCCCCCCCCC(=O)[O-]
REMARK SMILES IDX 9 1 10 2 11 3 12 4 13 5 14 6 15 7 16 8 17 9 18 10 8 11 7 12
REMARK SMILES IDX 6 13 5 14 4 15 3 16 2 17 1 18
REMARK H PARENT
REMARK Flexibility Score: inf
ROOT
ATOM      1  C   UNL     1      35.296   5.278   8.257  1.00  0.00     0.000 C 
ENDROOT
BRANCH   1   2
ATOM      2  C   UNL     1      35.886   4.752   9.578  1.00  0.00     0.000 C 
BRANCH   2   3
ATOM      3  C   UNL     1      36.964   5.648  10.218  1.00  0.00     0.000 C 
BRANCH   3   4
ATOM      4  C   UNL     1      36.465   6.377  11.475  1.00  0.00     0.000 C 
BRANCH   4   5
ATOM      5  C   UNL     1      35.679   7.660  11.156  1.00  0.00     0.000 C 
BRANCH   5   6
ATOM      6  C   UNL     1      34.393   7.872  11.980  1.00  0.00     0.006 C 
BRANCH   6   7
ATOM      7  C   UNL     1      33.152   8.215  11.134  1.00  0.00     0.053 C 
BRANCH   7   8
ATOM      8  C   UNL     1      31.900   8.302  11.955  1.00  0.00     0.041 C 
ATOM      9  O   UNL     1      31.401   9.424  12.236  1.00  0.00    -0.550 OA
ATOM     10  O   UNL     1      31.260   7.142  12.373  1.00  0.00    -0.550 OA
ENDBRANCH   7   8
ENDBRANCH   6   7
ENDBRANCH   5   6
ENDBRANCH   4   5
ENDBRANCH   3   4
ENDBRANCH   2   3
ENDBRANCH   1   2
BRANCH   1  11
ATOM     11  C   UNL     1      33.823   5.695   8.382  1.00  0.00     0.000 C 
BRANCH  11  12
ATOM     12  C   UNL     1      32.929   4.828   7.488  1.00  0.00    -0.000 C 
BRANCH  12  13
ATOM     13  C   UNL     1      32.534   3.529   8.199  1.00  0.00    -0.000 C 
BRANCH  13  14
ATOM     14  C   UNL     1      32.451   3.736   9.717  1.00  0.00    -0.000 C 
BRANCH  14  15
ATOM     15  C   UNL     1      32.910   2.478  10.471  1.00  0.00    -0.000 C 
BRANCH  15  16
ATOM     16  C   UNL     1      33.224   2.768  11.954  1.00  0.00    -0.000 C 
BRANCH  16  17
ATOM     17  C   UNL     1      33.217   4.266  12.303  1.00  0.00    -0.003 C 
ATOM     18  C   UNL     1      33.886   4.571  13.641  1.00  0.00     0.004 C 
ENDBRANCH  16  17
ENDBRANCH  15  16
ENDBRANCH  14  15
ENDBRANCH  13  14
ENDBRANCH  12  13
ENDBRANCH  11  12
ENDBRANCH   1  11
TORSDOF 14
ENDMDL
MODEL 5
REMARK VINA RESULT:    -4.773      2.545      5.016
REMARK INTER + INTRA:         -10.553
REMARK INTER:                  -8.727
REMARK INTRA:                  -1.827
REMARK UNBOUND:                -1.874
REMARK SMILES CCCCCCCCCCCCCCCC(=O)[O-]
REMARK SMILES IDX 9 1 10 2 11 3 12 4 13 5 14 6 15 7 16 8 17 9 18 10 8 11 7 12
REMARK SMILES IDX 6 13 5 14 4 15 3 16 2 17 1 18
REMARK H PARENT
REMARK Flexibility Score: inf
ROOT
ATOM      1  C   UNL     1      33.407   3.178  10.806  1.00  0.00     0.000 C 
ENDROOT
BRANCH   1   2
ATOM      2  C   UNL     1      32.803   2.884   9.421  1.00  0.00     0.000 C 
BRANCH   2   3
ATOM      3  C   UNL     1      32.480   4.127   8.569  1.00  0.00     0.000 C 
BRANCH   3   4
ATOM      4  C   UNL     1      33.726   4.739   7.909  1.00  0.00     0.000 C 
BRANCH   4   5
ATOM      5  C   UNL     1      33.769   6.273   8.014  1.00  0.00     0.000 C 
BRANCH   5   6
ATOM      6  C   UNL     1      34.532   6.833   9.232  1.00  0.00     0.006 C 
BRANCH   6   7
ATOM      7  C   UNL     1      35.804   6.044   9.595  1.00  0.00     0.053 C 
BRANCH   7   8
ATOM      8  C   UNL     1      36.672   6.769  10.579  1.00  0.00     0.041 C 
ATOM      9  O   UNL     1      36.249   7.805  11.158  1.00  0.00    -0.550 OA
ATOM     10  O   UNL     1      37.934   6.277  10.890  1.00  0.00    -0.550 OA
ENDBRANCH   7   8
ENDBRANCH   6   7
ENDBRANCH   5   6
ENDBRANCH   4   5
ENDBRANCH   3   4
ENDBRANCH   2   3
ENDBRANCH   1   2
BRANCH   1  11
ATOM     11  C   UNL     1      32.757   4.383  11.502  1.00  0.00     0.000 C 
BRANCH  11  12
ATOM     12  C   UNL     1      33.570   4.815  12.728  1.00  0.00    -0.000 C 
BRANCH  12  13
ATOM     13  C   UNL     1      33.588   6.341  12.866  1.00  0.00    -0.000 C 
BRANCH  13  14
ATOM     14  C   UNL     1      32.382   6.972  12.159  1.00  0.00    -0.000 C 
BRANCH  14  15
ATOM     15  C   UNL     1      32.616   8.469  11.902  1.00  0.00    -0.000 C 
BRANCH  15  16
ATOM     16  C   UNL     1      31.579   9.355  12.626  1.00  0.00    -0.000 C 
BRANCH  16  17
ATOM     17  C   UNL     1      31.390  10.736  11.977  1.00  0.00    -0.003 C 
ATOM     18  C   UNL     1      29.982  11.296  12.165  1.00  0.00     0.004 C 
ENDBRANCH  16  17
ENDBRANCH  15  16
ENDBRANCH  14  15
ENDBRANCH  13  14
ENDBRANCH  12  13
ENDBRANCH  11  12
ENDBRANCH   1  11
TORSDOF 14
ENDMDL
MODEL 6
REMARK VINA RESULT:    -4.763      2.637      4.124
REMARK INTER + INTRA:         -10.536
REMARK INTER:                  -8.594
REMARK INTRA:                  -1.942
REMARK UNBOUND:                -1.874
REMARK SMILES CCCCCCCCCCCCCCCC(=O)[O-]
REMARK SMILES IDX 9 1 10 2 11 3 12 4 13 5 14 6 15 7 16 8 17 9 18 10 8 11 7 12
REMARK SMILES IDX 6 13 5 14 4 15 3 16 2 17 1 18
REMARK H PARENT
REMARK Flexibility Score: inf
ROOT
ATOM      1  C   UNL     1      32.119   4.860  13.268  1.00  0.00     0.000 C 
ENDROOT
BRANCH   1   2
ATOM      2  C   UNL     1      33.412   4.060  13.022  1.00  0.00     0.000 C 
BRANCH   2   3
ATOM      3  C   UNL     1      33.218   2.694  12.338  1.00  0.00     0.000 C 
BRANCH   3   4
ATOM      4  C   UNL     1      33.629   2.704  10.856  1.00  0.00     0.000 C 
BRANCH   4   5
ATOM      5  C   UNL     1      32.433   2.574   9.899  1.00  0.00     0.000 C 
BRANCH   5   6
ATOM      6  C   UNL     1      32.349   3.646   8.793  1.00  0.00     0.006 C 
BRANCH   6   7
ATOM      7  C   UNL     1      33.564   4.592   8.741  1.00  0.00     0.053 C 
BRANCH   7   8
ATOM      8  C   UNL     1      33.488   5.566   7.603  1.00  0.00     0.041 C 
ATOM      9  O   UNL     1      33.751   6.784   7.789  1.00  0.00    -0.550 OA
ATOM     10  O   UNL     1      33.170   5.120   6.326  1.00  0.00    -0.550 OA
ENDBRANCH   7   8
ENDBRANCH   6   7
ENDBRANCH   5   6
ENDBRANCH   4   5
ENDBRANCH   3   4
ENDBRANCH   2   3
ENDBRANCH   1   2
BRANCH   1  11
ATOM     11  C   UNL     1      31.758   5.791  12.101  1.00  0.00     0.000 C 
BRANCH  11  12
ATOM     12  C   UNL     1      32.394   7.173  12.285  1.00  0.00    -0.000 C 
BRANCH  12  13
ATOM     13  C   UNL     1      33.464   7.433  11.219  1.00  0.00    -0.000 C 
BRANCH  13  14
ATOM     14  C   UNL     1      34.835   7.675  11.863  1.00  0.00    -0.000 C 
BRANCH  14  15
ATOM     15  C   UNL     1      35.741   6.442  11.712  1.00  0.00    -0.000 C 
BRANCH  15  16
ATOM     16  C   UNL     1      36.283   6.289  10.276  1.00  0.00    -0.000 C 
BRANCH  16  17
ATOM     17  C   UNL     1      37.727   6.789  10.106  1.00  0.00    -0.003 C 
ATOM     18  C   UNL     1      38.521   6.776  11.411  1.00  0.00     0.004 C 
ENDBRANCH  16  17
ENDBRANCH  15  16
ENDBRANCH  14  15
ENDBRANCH  13  14
ENDBRANCH  12  13
ENDBRANCH  11  12
ENDBRANCH   1  11
TORSDOF 14
ENDMDL
MODEL 7
REMARK VINA RESULT:    -4.757      3.840      5.733
REMARK INTER + INTRA:         -10.524
REMARK INTER:                  -8.565
REMARK INTRA:                  -1.960
REMARK UNBOUND:                -1.874
REMARK SMILES CCCCCCCCCCCCCCCC(=O)[O-]
REMARK SMILES IDX 9 1 10 2 11 3 12 4 13 5 14 6 15 7 16 8 17 9 18 10 8 11 7 12
REMARK SMILES IDX 6 13 5 14 4 15 3 16 2 17 1 18
REMARK H PARENT
REMARK Flexibility Score: inf
ROOT
ATOM      1  C   UNL     1      35.527   6.828  10.122  1.00  0.00     0.000 C 
ENDROOT
BRANCH   1   2
ATOM      2  C   UNL     1      36.206   5.449  10.025  1.00  0.00     0.000 C 
BRANCH   2   3
ATOM      3  C   UNL     1      35.592   4.487   8.991  1.00  0.00     0.000 C 
BRANCH   3   4
ATOM      4  C   UNL     1      34.406   5.103   8.232  1.00  0.00     0.000 C 
BRANCH   4   5
ATOM      5  C   UNL     1      33.064   4.433   8.567  1.00  0.00     0.000 C 
BRANCH   5   6
ATOM      6  C   UNL     1      32.133   4.173   7.365  1.00  0.00     0.006 C 
BRANCH   6   7
ATOM      7  C   UNL     1      32.486   4.992   6.108  1.00  0.00     0.053 C 
BRANCH   7   8
ATOM      8  C   UNL     1      31.656   4.609   4.919  1.00  0.00     0.041 C 
ATOM      9  O   UNL     1      31.246   5.491   4.119  1.00  0.00    -0.550 OA
ATOM     10  O   UNL     1      31.372   3.272   4.670  1.00  0.00    -0.550 OA
ENDBRANCH   7   8
ENDBRANCH   6   7
ENDBRANCH   5   6
ENDBRANCH   4   5
ENDBRANCH   3   4
ENDBRANCH   2   3
ENDBRANCH   1   2
BRANCH   1  11
ATOM     11  C   UNL     1      35.613   7.441  11.528  1.00  0.00     0.000 C 
BRANCH  11  12
ATOM     12  C   UNL     1      34.301   8.141  11.902  1.00  0.00    -0.000 C 
BRANCH  12  13
ATOM     13  C   UNL     1      33.099   7.431  11.270  1.00  0.00    -0.000 C 
BRANCH  13  14
ATOM     14  C   UNL     1      32.247   6.734  12.338  1.00  0.00    -0.000 C 
BRANCH  14  15
ATOM     15  C   UNL     1      32.077   5.240  12.021  1.00  0.00    -0.000 C 
BRANCH  15  16
ATOM     16  C   UNL     1      33.370   4.438  12.282  1.00  0.00    -0.000 C 
BRANCH  16  17
ATOM     17  C   UNL     1      33.121   2.953  12.594  1.00  0.00    -0.003 C 
ATOM     18  C   UNL     1      33.252   2.054  11.367  1.00  0.00     0.004 C 
ENDBRANCH  16  17
ENDBRANCH  15  16
ENDBRANCH  14  15
ENDBRANCH  13  14
ENDBRANCH  12  13
ENDBRANCH  11  12
ENDBRANCH   1  11
TORSDOF 14
ENDMDL
MODEL 8
REMARK VINA RESULT:    -4.706      1.565      4.780
REMARK INTER + INTRA:         -10.432
REMARK INTER:                  -8.552
REMARK INTRA:                  -1.880
REMARK UNBOUND:                -1.874
REMARK SMILES CCCCCCCCCCCCCCCC(=O)[O-]
REMARK SMILES IDX 9 1 10 2 11 3 12 4 13 5 14 6 15 7 16 8 17 9 18 10 8 11 7 12
REMARK SMILES IDX 6 13 5 14 4 15 3 16 2 17 1 18
REMARK H PARENT
REMARK Flexibility Score: inf
ROOT
ATOM      1  C   UNL     1      36.503   6.334  11.349  1.00  0.00     0.000 C 
ENDROOT
BRANCH   1   2
ATOM      2  C   UNL     1      35.761   7.653  11.065  1.00  0.00     0.000 C 
BRANCH   2   3
ATOM      3  C   UNL     1      34.492   7.886  11.905  1.00  0.00     0.000 C 
BRANCH   3   4
ATOM      4  C   UNL     1      33.230   7.289  11.260  1.00  0.00     0.000 C 
BRANCH   4   5
ATOM      5  C   UNL     1      32.142   6.930  12.285  1.00  0.00     0.000 C 
BRANCH   5   6
ATOM      6  C   UNL     1      31.803   5.430  12.394  1.00  0.00     0.006 C 
BRANCH   6   7
ATOM      7  C   UNL     1      33.019   4.497  12.237  1.00  0.00     0.053 C 
BRANCH   7   8
ATOM      8  C   UNL     1      33.652   4.148  13.551  1.00  0.00     0.041 C 
ATOM      9  O   UNL     1      34.450   4.950  14.105  1.00  0.00    -0.550 OA
ATOM     10  O   UNL     1      33.328   2.956  14.185  1.00  0.00    -0.550 OA
ENDBRANCH   7   8
ENDBRANCH   6   7
ENDBRANCH   5   6
ENDBRANCH   4   5
ENDBRANCH   3   4
ENDBRANCH   2   3
ENDBRANCH   1   2
BRANCH   1  11
ATOM     11  C   UNL     1      36.776   5.514  10.080  1.00  0.00     0.000 C 
BRANCH  11  12
ATOM     12  C   UNL     1      35.486   4.876   9.550  1.00  0.00    -0.000 C 
BRANCH  12  13
ATOM     13  C   UNL     1      35.123   5.435   8.170  1.00  0.00    -0.000 C 
BRANCH  13  14
ATOM     14  C   UNL     1      33.620   5.292   7.897  1.00  0.00    -0.000 C 
BRANCH  14  15
ATOM     15  C   UNL     1      33.040   4.073   8.631  1.00  0.00    -0.000 C 
BRANCH  15  16
ATOM     16  C   UNL     1      32.211   3.168   7.694  1.00  0.00    -0.000 C 
BRANCH  16  17
ATOM     17  C   UNL     1      31.529   3.931   6.546  1.00  0.00    -0.003 C 
ATOM     18  C   UNL     1      31.567   3.176   5.220  1.00  0.00     0.004 C 
ENDBRANCH  16  17
ENDBRANCH  15  16
ENDBRANCH  14  15
ENDBRANCH  13  14
ENDBRANCH  12  13
ENDBRANCH  11  12
ENDBRANCH   1  11
TORSDOF 14
ENDMDL
MODEL 9
REMARK VINA RESULT:    -4.648      3.891      5.585
REMARK INTER + INTRA:         -10.326
REMARK INTER:                  -8.305
REMARK INTRA:                  -2.021
REMARK UNBOUND:                -1.874
REMARK SMILES CCCCCCCCCCCCCCCC(=O)[O-]
REMARK SMILES IDX 9 1 10 2 11 3 12 4 13 5 14 6 15 7 16 8 17 9 18 10 8 11 7 12
REMARK SMILES IDX 6 13 5 14 4 15 3 16 2 17 1 18
REMARK H PARENT
REMARK Flexibility Score: inf
ROOT
ATOM      1  C   UNL     1      32.990   2.886  11.280  1.00  0.00     0.000 C 
ENDROOT
BRANCH   1   2
ATOM      2  C   UNL     1      33.263   3.398   9.853  1.00  0.00     0.000 C 
BRANCH   2   3
ATOM      3  C   UNL     1      34.633   4.071   9.649  1.00  0.00     0.000 C 
BRANCH   3   4
ATOM      4  C   UNL     1      34.719   4.866   8.337  1.00  0.00     0.000 C 
BRANCH   4   5
ATOM      5  C   UNL     1      33.374   5.479   7.915  1.00  0.00     0.000 C 
BRANCH   5   6
ATOM      6  C   UNL     1      32.999   5.298   6.430  1.00  0.00     0.006 C 
BRANCH   6   7
ATOM      7  C   UNL     1      32.098   4.080   6.152  1.00  0.00     0.053 C 
BRANCH   7   8
ATOM      8  C   UNL     1      31.419   4.157   4.818  1.00  0.00     0.041 C 
ATOM      9  O   UNL     1      30.744   3.184   4.390  1.00  0.00    -0.550 OA
ATOM     10  O   UNL     1      31.494   5.323   4.065  1.00  0.00    -0.550 OA
ENDBRANCH   7   8
ENDBRANCH   6   7
ENDBRANCH   5   6
ENDBRANCH   4   5
ENDBRANCH   3   4
ENDBRANCH   2   3
ENDBRANCH   1   2
BRANCH   1  11
ATOM     11  C   UNL     1      33.557   3.810  12.368  1.00  0.00     0.000 C 
BRANCH  11  12
ATOM     12  C   UNL     1      32.434   4.576  13.078  1.00  0.00    -0.000 C 
BRANCH  12  13
ATOM     13  C   UNL     1      31.937   5.745  12.221  1.00  0.00    -0.000 C 
BRANCH  13  14
ATOM     14  C   UNL     1      32.800   6.994  12.440  1.00  0.00    -0.000 C 
BRANCH  14  15
ATOM     15  C   UNL     1      33.418   7.475  11.117  1.00  0.00    -0.000 C 
BRANCH  15  16
ATOM     16  C   UNL     1      34.919   7.806  11.261  1.00  0.00    -0.000 C 
BRANCH  16  17
ATOM     17  C   UNL     1      35.740   6.676  11.903  1.00  0.00    -0.003 C 
ATOM     18  C   UNL     1      37.026   6.363  11.140  1.00  0.00     0.004 C 
ENDBRANCH  16  17
ENDBRANCH  15  16
ENDBRANCH  14  15
ENDBRANCH  13  14
ENDBRANCH  12  13
ENDBRANCH  11  12
ENDBRANCH   1  11
TORSDOF 14
ENDMDL
