MODEL 1
REMARK VINA RESULT:    -6.371      0.000      0.000
REMARK INTER + INTRA:          -7.758
REMARK INTER:                  -7.488
REMARK INTRA:                  -0.270
REMARK UNBOUND:                -0.270
REMARK SMILES O=c1c(O)c(-c2ccc(O)cc2)oc2cc(O)cc(O)c12
REMARK SMILES IDX 5 1 3 2 2 3 1 4 21 5 19 6 18 7 16 8 15 9 14 10 13 11 6 12
REMARK SMILES IDX 7 13 8 14 9 15 12 16 11 17 10 18 4 20 20 22 17 24
REMARK H PARENT 10 19 4 21 20 23 17 25
REMARK Flexibility Score: inf
ROOT
ATOM      1  C   UNL     1       3.463 -15.502   8.319  1.00  0.00     0.180 A 
ATOM      2  C   UNL     1       4.368 -16.173   9.161  1.00  0.00     0.208 A 
ATOM      3  C   UNL     1       5.733 -16.173   8.829  1.00  0.00     0.238 A 
ATOM      4  O   UNL     1       6.544 -16.729   9.614  1.00  0.00    -0.285 OA
ATOM      5  C   UNL     1       6.172 -15.519   7.654  1.00  0.00     0.111 A 
ATOM      6  C   UNL     1       7.525 -15.491   7.199  1.00  0.00     0.134 A 
ATOM      7  C   UNL     1       7.866 -14.703   6.094  1.00  0.00     0.093 A 
ATOM      8  C   UNL     1       6.895 -13.996   5.386  1.00  0.00     0.123 A 
ATOM      9  C   UNL     1       5.560 -14.064   5.785  1.00  0.00     0.094 A 
ATOM     10  C   UNL     1       5.194 -14.813   6.906  1.00  0.00     0.146 A 
ATOM     11  O   UNL     1       3.915 -14.843   7.259  1.00  0.00    -0.452 OA
ENDROOT
BRANCH   1  12
ATOM     12  C   UNL     1       2.006 -15.479   8.588  1.00  0.00     0.021 A 
ATOM     13  C   UNL     1       1.443 -14.564   9.497  1.00  0.00     0.016 A 
ATOM     14  C   UNL     1       0.069 -14.577   9.753  1.00  0.00     0.047 A 
ATOM     15  C   UNL     1      -0.757 -15.509   9.118  1.00  0.00     0.115 A 
ATOM     16  C   UNL     1       1.173 -16.426   7.969  1.00  0.00     0.016 A 
ATOM     17  C   UNL     1      -0.201 -16.435   8.227  1.00  0.00     0.047 A 
BRANCH  15  18
ATOM     18  O   UNL     1      -2.125 -15.509   9.382  1.00  0.00    -0.508 OA
ATOM     19  H   UNL     1      -2.776 -14.993   8.802  1.00  0.00     0.293 HD
ENDBRANCH  15  18
ENDBRANCH   1  12
BRANCH   2  20
ATOM     20  O   UNL     1       3.915 -16.794  10.328  1.00  0.00    -0.502 OA
ATOM     21  H   UNL     1       3.410 -16.294  11.048  1.00  0.00     0.293 HD
ENDBRANCH   2  20
BRANCH   6  22
ATOM     22  O   UNL     1       8.559 -16.233   7.779  1.00  0.00    -0.507 OA
ATOM     23  H   UNL     1       9.068 -16.970   7.312  1.00  0.00     0.293 HD
ENDBRANCH   6  22
BRANCH   8  24
ATOM     24  O   UNL     1       7.268 -13.235   4.280  1.00  0.00    -0.508 OA
ATOM     25  H   UNL     1       7.736 -13.652   3.484  1.00  0.00     0.293 HD
ENDBRANCH   8  24
TORSDOF 5
ENDMDL
MODEL 2
REMARK VINA RESULT:    -6.359      1.845      3.844
REMARK INTER + INTRA:          -7.744
REMARK INTER:                  -7.446
REMARK INTRA:                  -0.298
REMARK UNBOUND:                -0.270
REMARK SMILES O=c1c(O)c(-c2ccc(O)cc2)oc2cc(O)cc(O)c12
REMARK SMILES IDX 5 1 3 2 2 3 1 4 21 5 19 6 18 7 16 8 15 9 14 10 13 11 6 12
REMARK SMILES IDX 7 13 8 14 9 15 12 16 11 17 10 18 4 20 20 22 17 24
REMARK H PARENT 10 19 4 21 20 23 17 25
REMARK Flexibility Score: inf
ROOT
ATOM      1  C   UNL     1       5.679 -15.146   6.935  1.00  0.00     0.180 A 
ATOM      2  C   UNL     1       6.085 -14.222   5.956  1.00  0.00     0.208 A 
ATOM      3  C   UNL     1       7.440 -14.172   5.589  1.00  0.00     0.238 A 
ATOM      4  O   UNL     1       7.788 -13.381   4.674  1.00  0.00    -0.285 OA
ATOM      5  C   UNL     1       8.372 -15.032   6.216  1.00  0.00     0.111 A 
ATOM      6  C   UNL     1       9.775 -15.038   5.951  1.00  0.00     0.134 A 
ATOM      7  C   UNL     1      10.584 -16.022   6.534  1.00  0.00     0.093 A 
ATOM      8  C   UNL     1      10.054 -16.956   7.422  1.00  0.00     0.123 A 
ATOM      9  C   UNL     1       8.695 -16.922   7.735  1.00  0.00     0.094 A 
ATOM     10  C   UNL     1       7.855 -15.976   7.141  1.00  0.00     0.146 A 
ATOM     11  O   UNL     1       6.567 -15.984   7.457  1.00  0.00    -0.452 OA
ENDROOT
BRANCH   1  12
ATOM     12  C   UNL     1       4.273 -15.241   7.393  1.00  0.00     0.021 A 
ATOM     13  C   UNL     1       3.785 -14.431   8.434  1.00  0.00     0.016 A 
ATOM     14  C   UNL     1       2.461 -14.557   8.866  1.00  0.00     0.047 A 
ATOM     15  C   UNL     1       1.614 -15.499   8.275  1.00  0.00     0.115 A 
ATOM     16  C   UNL     1       3.423 -16.200   6.817  1.00  0.00     0.016 A 
ATOM     17  C   UNL     1       2.099 -16.322   7.251  1.00  0.00     0.047 A 
BRANCH  15  18
ATOM     18  O   UNL     1       0.297 -15.611   8.714  1.00  0.00    -0.508 OA
ATOM     19  H   UNL     1      -0.282 -14.794   8.865  1.00  0.00     0.293 HD
ENDBRANCH  15  18
ENDBRANCH   1  12
BRANCH   2  20
ATOM     20  O   UNL     1       5.144 -13.397   5.334  1.00  0.00    -0.502 OA
ATOM     21  H   UNL     1       4.725 -12.603   5.801  1.00  0.00     0.293 HD
ENDBRANCH   2  20
BRANCH   6  22
ATOM     22  O   UNL     1      10.422 -14.092   5.150  1.00  0.00    -0.507 OA
ATOM     23  H   UNL     1      11.356 -13.745   5.313  1.00  0.00     0.293 HD
ENDBRANCH   6  22
BRANCH   8  24
ATOM     24  O   UNL     1      10.891 -17.910   7.996  1.00  0.00    -0.508 OA
ATOM     25  H   UNL     1      11.641 -18.342   7.469  1.00  0.00     0.293 HD
ENDBRANCH   8  24
TORSDOF 5
ENDMDL
MODEL 3
REMARK VINA RESULT:    -6.069      6.795      8.533
REMARK INTER + INTRA:          -7.403
REMARK INTER:                  -7.117
REMARK INTRA:                  -0.286
REMARK UNBOUND:                -0.270
REMARK SMILES O=c1c(O)c(-c2ccc(O)cc2)oc2cc(O)cc(O)c12
REMARK SMILES IDX 5 1 3 2 2 3 1 4 21 5 19 6 18 7 16 8 15 9 14 10 13 11 6 12
REMARK SMILES IDX 7 13 8 14 9 15 12 16 11 17 10 18 4 20 20 22 17 24
REMARK H PARENT 10 19 4 21 20 23 17 25
REMARK Flexibility Score: inf
ROOT
ATOM      1  C   UNL     1       9.385 -14.766  12.200  1.00  0.00     0.180 A 
ATOM      2  C   UNL     1      10.660 -14.201  12.376  1.00  0.00     0.208 A 
ATOM      3  C   UNL     1      10.760 -12.847  12.737  1.00  0.00     0.238 A 
ATOM      4  O   UNL     1      11.902 -12.361  12.945  1.00  0.00    -0.285 OA
ATOM      5  C   UNL     1       9.586 -12.074  12.903  1.00  0.00     0.111 A 
ATOM      6  C   UNL     1       9.571 -10.684  13.227  1.00  0.00     0.134 A 
ATOM      7  C   UNL     1       8.351 -10.051  13.496  1.00  0.00     0.093 A 
ATOM      8  C   UNL     1       7.143 -10.739  13.385  1.00  0.00     0.123 A 
ATOM      9  C   UNL     1       7.142 -12.082  13.010  1.00  0.00     0.094 A 
ATOM     10  C   UNL     1       8.346 -12.751  12.771  1.00  0.00     0.146 A 
ATOM     11  O   UNL     1       8.303 -14.032  12.427  1.00  0.00    -0.452 OA
ENDROOT
BRANCH   1  12
ATOM     12  C   UNL     1       9.199 -16.179  11.795  1.00  0.00     0.021 A 
ATOM     13  C   UNL     1       9.049 -17.202  12.749  1.00  0.00     0.016 A 
ATOM     14  C   UNL     1       8.900 -18.532  12.342  1.00  0.00     0.047 A 
ATOM     15  C   UNL     1       8.912 -18.858  10.983  1.00  0.00     0.115 A 
ATOM     16  C   UNL     1       9.231 -16.517  10.431  1.00  0.00     0.016 A 
ATOM     17  C   UNL     1       9.080 -17.847  10.028  1.00  0.00     0.047 A 
BRANCH  15  18
ATOM     18  O   UNL     1       8.760 -20.187  10.592  1.00  0.00    -0.508 OA
ATOM     19  H   UNL     1       7.874 -20.668  10.688  1.00  0.00     0.293 HD
ENDBRANCH  15  18
ENDBRANCH   1  12
BRANCH   2  20
ATOM     20  O   UNL     1      11.805 -14.988  12.228  1.00  0.00    -0.502 OA
ATOM     21  H   UNL     1      12.647 -14.645  11.783  1.00  0.00     0.293 HD
ENDBRANCH   2  20
BRANCH   6  22
ATOM     22  O   UNL     1      10.714  -9.880  13.275  1.00  0.00    -0.507 OA
ATOM     23  H   UNL     1      11.326  -9.706  12.491  1.00  0.00     0.293 HD
ENDBRANCH   6  22
BRANCH   8  24
ATOM     24  O   UNL     1       5.947 -10.073  13.643  1.00  0.00    -0.508 OA
ATOM     25  H   UNL     1       5.932  -9.095  13.910  1.00  0.00     0.293 HD
ENDBRANCH   8  24
TORSDOF 5
ENDMDL
MODEL 4
REMARK VINA RESULT:    -6.064      2.661      3.896
REMARK INTER + INTRA:          -7.397
REMARK INTER:                  -7.282
REMARK INTRA:                  -0.115
REMARK UNBOUND:                -0.270
REMARK SMILES O=c1c(O)c(-c2ccc(O)cc2)oc2cc(O)cc(O)c12
REMARK SMILES IDX 5 1 3 2 2 3 1 4 21 5 19 6 18 7 16 8 15 9 14 10 13 11 6 12
REMARK SMILES IDX 7 13 8 14 9 15 12 16 11 17 10 18 4 20 20 22 17 24
REMARK H PARENT 10 19 4 21 20 23 17 25
REMARK Flexibility Score: inf
ROOT
ATOM      1  C   UNL     1       5.612 -15.921   8.404  1.00  0.00     0.180 A 
ATOM      2  C   UNL     1       5.056 -14.989   7.511  1.00  0.00     0.208 A 
ATOM      3  C   UNL     1       5.862 -14.462   6.489  1.00  0.00     0.238 A 
ATOM      4  O   UNL     1       5.344 -13.669   5.660  1.00  0.00    -0.285 OA
ATOM      5  C   UNL     1       7.216 -14.861   6.384  1.00  0.00     0.111 A 
ATOM      6  C   UNL     1       8.135 -14.360   5.413  1.00  0.00     0.134 A 
ATOM      7  C   UNL     1       9.414 -14.922   5.318  1.00  0.00     0.093 A 
ATOM      8  C   UNL     1       9.830 -15.918   6.200  1.00  0.00     0.123 A 
ATOM      9  C   UNL     1       8.961 -16.373   7.192  1.00  0.00     0.094 A 
ATOM     10  C   UNL     1       7.665 -15.858   7.288  1.00  0.00     0.146 A 
ATOM     11  O   UNL     1       6.866 -16.325   8.239  1.00  0.00    -0.452 OA
ENDROOT
BRANCH   1  12
ATOM     12  C   UNL     1       4.832 -16.502   9.522  1.00  0.00     0.021 A 
ATOM     13  C   UNL     1       5.197 -16.281  10.863  1.00  0.00     0.016 A 
ATOM     14  C   UNL     1       4.460 -16.861  11.901  1.00  0.00     0.047 A 
ATOM     15  C   UNL     1       3.362 -17.676  11.614  1.00  0.00     0.115 A 
ATOM     16  C   UNL     1       3.739 -17.339   9.241  1.00  0.00     0.016 A 
ATOM     17  C   UNL     1       3.004 -17.916  10.282  1.00  0.00     0.047 A 
BRANCH  15  18
ATOM     18  O   UNL     1       2.636 -18.245  12.658  1.00  0.00    -0.508 OA
ATOM     19  H   UNL     1       2.970 -19.066  13.149  1.00  0.00     0.293 HD
ENDBRANCH  15  18
ENDBRANCH   1  12
BRANCH   2  20
ATOM     20  O   UNL     1       3.711 -14.626   7.620  1.00  0.00    -0.502 OA
ATOM     21  H   UNL     1       3.406 -13.822   8.155  1.00  0.00     0.293 HD
ENDBRANCH   2  20
BRANCH   6  22
ATOM     22  O   UNL     1       7.852 -13.303   4.542  1.00  0.00    -0.507 OA
ATOM     23  H   UNL     1       6.999 -12.763   4.552  1.00  0.00     0.293 HD
ENDBRANCH   6  22
BRANCH   8  24
ATOM     24  O   UNL     1      11.115 -16.443   6.087  1.00  0.00    -0.508 OA
ATOM     25  H   UNL     1      11.289 -17.439   6.154  1.00  0.00     0.293 HD
ENDBRANCH   8  24
TORSDOF 5
ENDMDL
MODEL 5
REMARK VINA RESULT:    -6.010      2.171      6.746
REMARK INTER + INTRA:          -7.334
REMARK INTER:                  -7.090
REMARK INTRA:                  -0.244
REMARK UNBOUND:                -0.270
REMARK SMILES O=c1c(O)c(-c2ccc(O)cc2)oc2cc(O)cc(O)c12
REMARK SMILES IDX 5 1 3 2 2 3 1 4 21 5 19 6 18 7 16 8 15 9 14 10 13 11 6 12
REMARK SMILES IDX 7 13 8 14 9 15 12 16 11 17 10 18 4 20 20 22 17 24
REMARK H PARENT 10 19 4 21 20 23 17 25
REMARK Flexibility Score: inf
ROOT
ATOM      1  C   UNL     1       4.069 -15.501   7.032  1.00  0.00     0.180 A 
ATOM      2  C   UNL     1       3.230 -14.831   7.940  1.00  0.00     0.208 A 
ATOM      3  C   UNL     1       2.039 -15.451   8.350  1.00  0.00     0.238 A 
ATOM      4  O   UNL     1       1.319 -14.870   9.204  1.00  0.00    -0.285 OA
ATOM      5  C   UNL     1       1.693 -16.723   7.835  1.00  0.00     0.111 A 
ATOM      6  C   UNL     1       0.491 -17.425   8.150  1.00  0.00     0.134 A 
ATOM      7  C   UNL     1       0.314 -18.734   7.685  1.00  0.00     0.093 A 
ATOM      8  C   UNL     1       1.262 -19.341   6.864  1.00  0.00     0.123 A 
ATOM      9  C   UNL     1       2.413 -18.642   6.500  1.00  0.00     0.094 A 
ATOM     10  C   UNL     1       2.636 -17.348   6.978  1.00  0.00     0.146 A 
ATOM     11  O   UNL     1       3.749 -16.721   6.618  1.00  0.00    -0.452 OA
ENDROOT
BRANCH   1  12
ATOM     12  C   UNL     1       5.329 -14.902   6.534  1.00  0.00     0.021 A 
ATOM     13  C   UNL     1       5.322 -13.869   5.578  1.00  0.00     0.016 A 
ATOM     14  C   UNL     1       6.526 -13.337   5.105  1.00  0.00     0.047 A 
ATOM     15  C   UNL     1       7.746 -13.835   5.568  1.00  0.00     0.115 A 
ATOM     16  C   UNL     1       6.560 -15.411   6.980  1.00  0.00     0.016 A 
ATOM     17  C   UNL     1       7.761 -14.875   6.505  1.00  0.00     0.047 A 
BRANCH  15  18
ATOM     18  O   UNL     1       8.937 -13.293   5.088  1.00  0.00    -0.508 OA
ATOM     19  H   UNL     1       9.545 -13.816   4.469  1.00  0.00     0.293 HD
ENDBRANCH  15  18
ENDBRANCH   1  12
BRANCH   2  20
ATOM     20  O   UNL     1       3.602 -13.585   8.453  1.00  0.00    -0.502 OA
ATOM     21  H   UNL     1       2.926 -12.915   8.796  1.00  0.00     0.293 HD
ENDBRANCH   2  20
BRANCH   6  22
ATOM     22  O   UNL     1      -0.563 -16.877   8.887  1.00  0.00    -0.507 OA
ATOM     23  H   UNL     1      -1.534 -17.131   8.777  1.00  0.00     0.293 HD
ENDBRANCH   6  22
BRANCH   8  24
ATOM     24  O   UNL     1       1.045 -20.639   6.406  1.00  0.00    -0.508 OA
ATOM     25  H   UNL     1       1.106 -20.870   5.422  1.00  0.00     0.293 HD
ENDBRANCH   8  24
TORSDOF 5
ENDMDL
MODEL 6
REMARK VINA RESULT:    -5.818      2.393      4.390
REMARK INTER + INTRA:          -7.109
REMARK INTER:                  -7.058
REMARK INTRA:                  -0.051
REMARK UNBOUND:                -0.270
REMARK SMILES O=c1c(O)c(-c2ccc(O)cc2)oc2cc(O)cc(O)c12
REMARK SMILES IDX 5 1 3 2 2 3 1 4 21 5 19 6 18 7 16 8 15 9 14 10 13 11 6 12
REMARK SMILES IDX 7 13 8 14 9 15 12 16 11 17 10 18 4 20 20 22 17 24
REMARK H PARENT 10 19 4 21 20 23 17 25
REMARK Flexibility Score: inf
ROOT
ATOM      1  C   UNL     1       6.463 -15.650   7.596  1.00  0.00     0.180 A 
ATOM      2  C   UNL     1       6.962 -15.223   6.353  1.00  0.00     0.208 A 
ATOM      3  C   UNL     1       8.324 -15.410   6.067  1.00  0.00     0.238 A 
ATOM      4  O   UNL     1       8.754 -15.075   4.932  1.00  0.00    -0.285 OA
ATOM      5  C   UNL     1       9.171 -16.006   7.031  1.00  0.00     0.111 A 
ATOM      6  C   UNL     1      10.574 -16.208   6.863  1.00  0.00     0.134 A 
ATOM      7  C   UNL     1      11.289 -16.926   7.829  1.00  0.00     0.093 A 
ATOM      8  C   UNL     1      10.667 -17.392   8.987  1.00  0.00     0.123 A 
ATOM      9  C   UNL     1       9.309 -17.148   9.190  1.00  0.00     0.094 A 
ATOM     10  C   UNL     1       8.561 -16.466   8.227  1.00  0.00     0.146 A 
ATOM     11  O   UNL     1       7.269 -16.265   8.453  1.00  0.00    -0.452 OA
ENDROOT
BRANCH   1  12
ATOM     12  C   UNL     1       5.044 -15.463   7.981  1.00  0.00     0.021 A 
ATOM     13  C   UNL     1       4.436 -14.195   7.947  1.00  0.00     0.016 A 
ATOM     14  C   UNL     1       3.102 -14.041   8.338  1.00  0.00     0.047 A 
ATOM     15  C   UNL     1       2.365 -15.143   8.780  1.00  0.00     0.115 A 
ATOM     16  C   UNL     1       4.304 -16.564   8.444  1.00  0.00     0.016 A 
ATOM     17  C   UNL     1       2.970 -16.406   8.834  1.00  0.00     0.047 A 
BRANCH  15  18
ATOM     18  O   UNL     1       1.037 -14.974   9.165  1.00  0.00    -0.508 OA
ATOM     19  H   UNL     1       0.686 -15.357  10.034  1.00  0.00     0.293 HD
ENDBRANCH  15  18
ENDBRANCH   1  12
BRANCH   2  20
ATOM     20  O   UNL     1       6.104 -14.656   5.407  1.00  0.00    -0.502 OA
ATOM     21  H   UNL     1       5.097 -14.745   5.464  1.00  0.00     0.293 HD
ENDBRANCH   2  20
BRANCH   6  22
ATOM     22  O   UNL     1      11.312 -15.705   5.787  1.00  0.00    -0.507 OA
ATOM     23  H   UNL     1      12.114 -15.097   5.875  1.00  0.00     0.293 HD
ENDBRANCH   6  22
BRANCH   8  24
ATOM     24  O   UNL     1      11.413 -18.088   9.935  1.00  0.00    -0.508 OA
ATOM     25  H   UNL     1      11.212 -18.015  10.926  1.00  0.00     0.293 HD
ENDBRANCH   8  24
TORSDOF 5
ENDMDL
MODEL 7
REMARK VINA RESULT:    -5.798      4.759      6.103
REMARK INTER + INTRA:          -7.085
REMARK INTER:                  -6.795
REMARK INTRA:                  -0.290
REMARK UNBOUND:                -0.270
REMARK SMILES O=c1c(O)c(-c2ccc(O)cc2)oc2cc(O)cc(O)c12
REMARK SMILES IDX 5 1 3 2 2 3 1 4 21 5 19 6 18 7 16 8 15 9 14 10 13 11 6 12
REMARK SMILES IDX 7 13 8 14 9 15 12 16 11 17 10 18 4 20 20 22 17 24
REMARK H PARENT 10 19 4 21 20 23 17 25
REMARK Flexibility Score: inf
ROOT
ATOM      1  C   UNL     1       7.348 -14.415  10.500  1.00  0.00     0.180 A 
ATOM      2  C   UNL     1       8.414 -15.309  10.703  1.00  0.00     0.208 A 
ATOM      3  C   UNL     1       9.486 -14.914  11.520  1.00  0.00     0.238 A 
ATOM      4  O   UNL     1      10.412 -15.738  11.742  1.00  0.00    -0.285 OA
ATOM      5  C   UNL     1       9.486 -13.627  12.109  1.00  0.00     0.111 A 
ATOM      6  C   UNL     1      10.539 -13.107  12.920  1.00  0.00     0.134 A 
ATOM      7  C   UNL     1      10.374 -11.872  13.559  1.00  0.00     0.093 A 
ATOM      8  C   UNL     1       9.225 -11.108  13.362  1.00  0.00     0.123 A 
ATOM      9  C   UNL     1       8.215 -11.578  12.523  1.00  0.00     0.094 A 
ATOM     10  C   UNL     1       8.334 -12.824  11.901  1.00  0.00     0.146 A 
ATOM     11  O   UNL     1       7.346 -13.241  11.119  1.00  0.00    -0.452 OA
ENDROOT
BRANCH   1  12
ATOM     12  C   UNL     1       6.194 -14.750   9.632  1.00  0.00     0.021 A 
ATOM     13  C   UNL     1       6.250 -14.572   8.238  1.00  0.00     0.016 A 
ATOM     14  C   UNL     1       5.140 -14.871   7.442  1.00  0.00     0.047 A 
ATOM     15  C   UNL     1       3.960 -15.338   8.027  1.00  0.00     0.115 A 
ATOM     16  C   UNL     1       4.998 -15.200  10.216  1.00  0.00     0.016 A 
ATOM     17  C   UNL     1       3.890 -15.500   9.417  1.00  0.00     0.047 A 
BRANCH  15  18
ATOM     18  O   UNL     1       2.862 -15.634   7.222  1.00  0.00    -0.508 OA
ATOM     19  H   UNL     1       2.000 -15.105   7.287  1.00  0.00     0.293 HD
ENDBRANCH  15  18
ENDBRANCH   1  12
BRANCH   2  20
ATOM     20  O   UNL     1       8.383 -16.583  10.130  1.00  0.00    -0.502 OA
ATOM     21  H   UNL     1       9.220 -17.060   9.819  1.00  0.00     0.293 HD
ENDBRANCH   2  20
BRANCH   6  22
ATOM     22  O   UNL     1      11.768 -13.747  13.110  1.00  0.00    -0.507 OA
ATOM     23  H   UNL     1      11.886 -14.638  13.572  1.00  0.00     0.293 HD
ENDBRANCH   6  22
BRANCH   8  24
ATOM     24  O   UNL     1       9.101  -9.875  13.999  1.00  0.00    -0.508 OA
ATOM     25  H   UNL     1       8.944  -9.022  13.476  1.00  0.00     0.293 HD
ENDBRANCH   8  24
TORSDOF 5
ENDMDL
MODEL 8
REMARK VINA RESULT:    -5.653     13.723     14.950
REMARK INTER + INTRA:          -6.914
REMARK INTER:                  -6.649
REMARK INTRA:                  -0.266
REMARK UNBOUND:                -0.270
REMARK SMILES O=c1c(O)c(-c2ccc(O)cc2)oc2cc(O)cc(O)c12
REMARK SMILES IDX 5 1 3 2 2 3 1 4 21 5 19 6 18 7 16 8 15 9 14 10 13 11 6 12
REMARK SMILES IDX 7 13 8 14 9 15 12 16 11 17 10 18 4 20 20 22 17 24
REMARK H PARENT 10 19 4 21 20 23 17 25
REMARK Flexibility Score: inf
ROOT
ATOM      1  C   UNL     1      14.369 -23.338  14.926  1.00  0.00     0.180 A 
ATOM      2  C   UNL     1      15.025 -23.091  16.145  1.00  0.00     0.208 A 
ATOM      3  C   UNL     1      15.875 -21.977  16.246  1.00  0.00     0.238 A 
ATOM      4  O   UNL     1      16.418 -21.731  17.355  1.00  0.00    -0.285 OA
ATOM      5  C   UNL     1      16.069 -21.135  15.125  1.00  0.00     0.111 A 
ATOM      6  C   UNL     1      16.938 -20.003  15.104  1.00  0.00     0.134 A 
ATOM      7  C   UNL     1      16.953 -19.165  13.982  1.00  0.00     0.093 A 
ATOM      8  C   UNL     1      16.181 -19.454  12.858  1.00  0.00     0.123 A 
ATOM      9  C   UNL     1      15.374 -20.591  12.844  1.00  0.00     0.094 A 
ATOM     10  C   UNL     1      15.310 -21.427  13.962  1.00  0.00     0.146 A 
ATOM     11  O   UNL     1      14.520 -22.492  13.914  1.00  0.00    -0.452 OA
ENDROOT
BRANCH   1  12
ATOM     12  C   UNL     1      13.477 -24.506  14.734  1.00  0.00     0.021 A 
ATOM     13  C   UNL     1      12.142 -24.490  15.179  1.00  0.00     0.016 A 
ATOM     14  C   UNL     1      11.328 -25.614  15.009  1.00  0.00     0.047 A 
ATOM     15  C   UNL     1      11.837 -26.768  14.406  1.00  0.00     0.115 A 
ATOM     16  C   UNL     1      13.988 -25.675  14.148  1.00  0.00     0.016 A 
ATOM     17  C   UNL     1      13.170 -26.797  13.978  1.00  0.00     0.047 A 
BRANCH  15  18
ATOM     18  O   UNL     1      11.013 -27.879  14.241  1.00  0.00    -0.508 OA
ATOM     19  H   UNL     1      11.376 -28.822  14.313  1.00  0.00     0.293 HD
ENDBRANCH  15  18
ENDBRANCH   1  12
BRANCH   2  20
ATOM     20  O   UNL     1      14.802 -23.923  17.245  1.00  0.00    -0.502 OA
ATOM     21  H   UNL     1      14.861 -24.932  17.185  1.00  0.00     0.293 HD
ENDBRANCH   2  20
BRANCH   6  22
ATOM     22  O   UNL     1      17.819 -19.675  16.139  1.00  0.00    -0.507 OA
ATOM     23  H   UNL     1      18.816 -19.557  16.029  1.00  0.00     0.293 HD
ENDBRANCH   6  22
BRANCH   8  24
ATOM     24  O   UNL     1      16.233 -18.607  11.752  1.00  0.00    -0.508 OA
ATOM     25  H   UNL     1      16.990 -17.944  11.628  1.00  0.00     0.293 HD
ENDBRANCH   8  24
TORSDOF 5
ENDMDL
MODEL 9
REMARK VINA RESULT:    -5.643      8.922     10.185
REMARK INTER + INTRA:          -6.903
REMARK INTER:                  -6.611
REMARK INTRA:                  -0.292
REMARK UNBOUND:                -0.270
REMARK SMILES O=c1c(O)c(-c2ccc(O)cc2)oc2cc(O)cc(O)c12
REMARK SMILES IDX 5 1 3 2 2 3 1 4 21 5 19 6 18 7 16 8 15 9 14 10 13 11 6 12
REMARK SMILES IDX 7 13 8 14 9 15 12 16 11 17 10 18 4 20 20 22 17 24
REMARK H PARENT 10 19 4 21 20 23 17 25
REMARK Flexibility Score: inf
ROOT
ATOM      1  C   UNL     1       9.734 -14.712  14.745  1.00  0.00     0.180 A 
ATOM      2  C   UNL     1      10.757 -14.146  13.964  1.00  0.00     0.208 A 
ATOM      3  C   UNL     1      10.671 -12.789  13.612  1.00  0.00     0.238 A 
ATOM      4  O   UNL     1      11.616 -12.275  12.959  1.00  0.00    -0.285 OA
ATOM      5  C   UNL     1       9.558 -12.022  14.031  1.00  0.00     0.111 A 
ATOM      6  C   UNL     1       9.349 -10.650  13.697  1.00  0.00     0.134 A 
ATOM      7  C   UNL     1       8.280  -9.954  14.275  1.00  0.00     0.093 A 
ATOM      8  C   UNL     1       7.376 -10.596  15.119  1.00  0.00     0.123 A 
ATOM      9  C   UNL     1       7.535 -11.951  15.404  1.00  0.00     0.094 A 
ATOM     10  C   UNL     1       8.613 -12.664  14.872  1.00  0.00     0.146 A 
ATOM     11  O   UNL     1       8.736 -13.950  15.177  1.00  0.00    -0.452 OA
ENDROOT
BRANCH   1  12
ATOM     12  C   UNL     1       9.740 -16.142  15.135  1.00  0.00     0.021 A 
ATOM     13  C   UNL     1       9.249 -17.139  14.273  1.00  0.00     0.016 A 
ATOM     14  C   UNL     1       9.243 -18.479  14.674  1.00  0.00     0.047 A 
ATOM     15  C   UNL     1       9.713 -18.838  15.940  1.00  0.00     0.115 A 
ATOM     16  C   UNL     1      10.192 -16.507  16.414  1.00  0.00     0.016 A 
ATOM     17  C   UNL     1      10.186 -17.848  16.811  1.00  0.00     0.047 A 
BRANCH  15  18
ATOM     18  O   UNL     1       9.702 -20.177  16.325  1.00  0.00    -0.508 OA
ATOM     19  H   UNL     1      10.086 -20.901  15.730  1.00  0.00     0.293 HD
ENDBRANCH  15  18
ENDBRANCH   1  12
BRANCH   2  20
ATOM     20  O   UNL     1      11.857 -14.917  13.580  1.00  0.00    -0.502 OA
ATOM     21  H   UNL     1      12.662 -15.052  14.180  1.00  0.00     0.293 HD
ENDBRANCH   2  20
BRANCH   6  22
ATOM     22  O   UNL     1      10.141  -9.936  12.792  1.00  0.00    -0.507 OA
ATOM     23  H   UNL     1       9.864  -9.699  11.850  1.00  0.00     0.293 HD
ENDBRANCH   6  22
BRANCH   8  24
ATOM     24  O   UNL     1       6.313  -9.876  15.662  1.00  0.00    -0.508 OA
ATOM     25  H   UNL     1       5.452 -10.332  15.941  1.00  0.00     0.293 HD
ENDBRANCH   8  24
TORSDOF 5
ENDMDL
