MODEL 1
REMARK VINA RESULT:    13.635      0.000      0.000
REMARK INTER + INTRA:          28.263
REMARK INTER:                  29.577
REMARK INTRA:                  -1.314
REMARK UNBOUND:                -1.314
REMARK SMILES CCCCCCCCCCCCCCCCCCCCCC(=O)[O-]
REMARK SMILES IDX 12 1 11 2 10 3 9 4 8 5 7 6 6 7 5 8 4 9 3 10 2 11 1 12 13 13
REMARK SMILES IDX 14 14 15 15 16 16 17 17 18 18 19 19 20 20 21 21 22 22 23 23
REMARK SMILES IDX 24 24
REMARK H PARENT
REMARK Flexibility Score: inf
ROOT
ATOM      1  C   UNL     1     -30.369  21.601 -10.623  1.00  0.00     0.000 C 
ENDROOT
BRANCH   1   2
ATOM      2  C   UNL     1     -29.380  20.897 -11.577  1.00  0.00     0.000 C 
BRANCH   2   3
ATOM      3  C   UNL     1     -28.705  21.851 -12.581  1.00  0.00     0.000 C 
BRANCH   3   4
ATOM      4  C   UNL     1     -27.168  21.863 -12.523  1.00  0.00    -0.000 C 
BRANCH   4   5
ATOM      5  C   UNL     1     -26.609  23.122 -11.843  1.00  0.00    -0.000 C 
BRANCH   5   6
ATOM      6  C   UNL     1     -25.350  22.789 -11.029  1.00  0.00    -0.000 C 
BRANCH   6   7
ATOM      7  C   UNL     1     -25.583  22.853  -9.508  1.00  0.00    -0.000 C 
BRANCH   7   8
ATOM      8  C   UNL     1     -26.651  21.884  -8.968  1.00  0.00    -0.000 C 
BRANCH   8   9
ATOM      9  C   UNL     1     -26.198  21.136  -7.703  1.00  0.00    -0.000 C 
BRANCH   9  10
ATOM     10  C   UNL     1     -24.670  21.137  -7.534  1.00  0.00    -0.000 C 
BRANCH  10  11
ATOM     11  C   UNL     1     -24.231  21.655  -6.156  1.00  0.00    -0.003 C 
ATOM     12  C   UNL     1     -22.873  22.346  -6.235  1.00  0.00     0.004 C 
ENDBRANCH  10  11
ENDBRANCH   9  10
ENDBRANCH   8   9
ENDBRANCH   7   8
ENDBRANCH   6   7
ENDBRANCH   5   6
ENDBRANCH   4   5
ENDBRANCH   3   4
ENDBRANCH   2   3
ENDBRANCH   1   2
BRANCH   1  13
ATOM     13  C   UNL     1     -31.377  22.485 -11.379  1.00  0.00     0.000 C 
BRANCH  13  14
ATOM     14  C   UNL     1     -32.753  22.534 -10.695  1.00  0.00     0.000 C 
BRANCH  14  15
ATOM     15  C   UNL     1     -32.917  21.447  -9.618  1.00  0.00     0.000 C 
BRANCH  15  16
ATOM     16  C   UNL     1     -33.419  20.113 -10.194  1.00  0.00     0.000 C 
BRANCH  16  17
ATOM     17  C   UNL     1     -32.307  19.054 -10.307  1.00  0.00     0.000 C 
BRANCH  17  18
ATOM     18  C   UNL     1     -32.878  17.641 -10.552  1.00  0.00     0.000 C 
BRANCH  18  19
ATOM     19  C   UNL     1     -31.922  16.509 -10.133  1.00  0.00     0.000 C 
BRANCH  19  20
ATOM     20  C   UNL     1     -31.041  16.008 -11.287  1.00  0.00     0.006 C 
BRANCH  20  21
ATOM     21  C   UNL     1     -29.725  16.790 -11.352  1.00  0.00     0.053 C 
BRANCH  21  22
ATOM     22  C   UNL     1     -29.327  17.037 -12.773  1.00  0.00     0.041 C 
ATOM     23  O   UNL     1     -29.375  16.102 -13.617  1.00  0.00    -0.550 OA
ATOM     24  O   UNL     1     -28.875  18.292 -13.162  1.00  0.00    -0.550 OA
ENDBRANCH  21  22
ENDBRANCH  20  21
ENDBRANCH  19  20
ENDBRANCH  18  19
ENDBRANCH  17  18
ENDBRANCH  16  17
ENDBRANCH  15  16
ENDBRANCH  14  15
ENDBRANCH  13  14
ENDBRANCH   1  13
TORSDOF 20
ENDMDL
MODEL 2
REMARK VINA RESULT:    15.001      0.865      1.429
REMARK INTER + INTRA:          31.226
REMARK INTER:                  32.683
REMARK INTRA:                  -1.457
REMARK UNBOUND:                -1.314
REMARK SMILES CCCCCCCCCCCCCCCCCCCCCC(=O)[O-]
REMARK SMILES IDX 12 1 11 2 10 3 9 4 8 5 7 6 6 7 5 8 4 9 3 10 2 11 1 12 13 13
REMARK SMILES IDX 14 14 15 15 16 16 17 17 18 18 19 19 20 20 21 21 22 22 23 23
REMARK SMILES IDX 24 24
REMARK H PARENT
REMARK Flexibility Score: inf
ROOT
ATOM      1  C   UNL     1     -29.483  21.748 -11.380  1.00  0.00     0.000 C 
ENDROOT
BRANCH   1   2
ATOM      2  C   UNL     1     -28.795  21.030 -12.561  1.00  0.00     0.000 C 
BRANCH   2   3
ATOM      3  C   UNL     1     -27.435  21.641 -12.948  1.00  0.00     0.000 C 
BRANCH   3   4
ATOM      4  C   UNL     1     -27.092  22.956 -12.228  1.00  0.00    -0.000 C 
BRANCH   4   5
ATOM      5  C   UNL     1     -25.948  22.798 -11.214  1.00  0.00    -0.000 C 
BRANCH   5   6
ATOM      6  C   UNL     1     -26.498  22.495  -9.813  1.00  0.00    -0.000 C 
BRANCH   6   7
ATOM      7  C   UNL     1     -25.629  21.496  -9.028  1.00  0.00    -0.000 C 
BRANCH   7   8
ATOM      8  C   UNL     1     -25.990  21.343  -7.539  1.00  0.00    -0.000 C 
BRANCH   8   9
ATOM      9  C   UNL     1     -24.756  21.174  -6.636  1.00  0.00    -0.000 C 
BRANCH   9  10
ATOM     10  C   UNL     1     -23.471  21.707  -7.291  1.00  0.00    -0.000 C 
BRANCH  10  11
ATOM     11  C   UNL     1     -22.365  21.997  -6.265  1.00  0.00    -0.003 C 
ATOM     12  C   UNL     1     -22.772  23.125  -5.322  1.00  0.00     0.004 C 
ENDBRANCH  10  11
ENDBRANCH   9  10
ENDBRANCH   8   9
ENDBRANCH   7   8
ENDBRANCH   6   7
ENDBRANCH   5   6
ENDBRANCH   4   5
ENDBRANCH   3   4
ENDBRANCH   2   3
ENDBRANCH   1   2
BRANCH   1  13
ATOM     13  C   UNL     1     -30.962  22.060 -11.671  1.00  0.00     0.000 C 
BRANCH  13  14
ATOM     14  C   UNL     1     -31.708  22.600 -10.440  1.00  0.00     0.000 C 
BRANCH  14  15
ATOM     15  C   UNL     1     -32.676  21.568  -9.835  1.00  0.00     0.000 C 
BRANCH  15  16
ATOM     16  C   UNL     1     -32.940  20.381 -10.776  1.00  0.00     0.000 C 
BRANCH  16  17
ATOM     17  C   UNL     1     -33.132  19.052 -10.024  1.00  0.00     0.000 C 
BRANCH  17  18
ATOM     18  C   UNL     1     -32.225  17.934 -10.582  1.00  0.00     0.000 C 
BRANCH  18  19
ATOM     19  C   UNL     1     -30.794  18.405 -10.903  1.00  0.00     0.000 C 
BRANCH  19  20
ATOM     20  C   UNL     1     -29.728  17.348 -10.578  1.00  0.00     0.006 C 
BRANCH  20  21
ATOM     21  C   UNL     1     -29.782  16.189 -11.578  1.00  0.00     0.053 C 
BRANCH  21  22
ATOM     22  C   UNL     1     -29.418  16.659 -12.952  1.00  0.00     0.041 C 
ATOM     23  O   UNL     1     -28.917  17.803 -13.118  1.00  0.00    -0.550 OA
ATOM     24  O   UNL     1     -29.659  15.847 -14.053  1.00  0.00    -0.550 OA
ENDBRANCH  21  22
ENDBRANCH  20  21
ENDBRANCH  19  20
ENDBRANCH  18  19
ENDBRANCH  17  18
ENDBRANCH  16  17
ENDBRANCH  15  16
ENDBRANCH  14  15
ENDBRANCH  13  14
ENDBRANCH   1  13
TORSDOF 20
ENDMDL
MODEL 3
REMARK VINA RESULT:    15.041      3.012      7.895
REMARK INTER + INTRA:          31.313
REMARK INTER:                  32.497
REMARK INTRA:                  -1.183
REMARK UNBOUND:                -1.314
REMARK SMILES CCCCCCCCCCCCCCCCCCCCCC(=O)[O-]
REMARK SMILES IDX 12 1 11 2 10 3 9 4 8 5 7 6 6 7 5 8 4 9 3 10 2 11 1 12 13 13
REMARK SMILES IDX 14 14 15 15 16 16 17 17 18 18 19 19 20 20 21 21 22 22 23 23
REMARK SMILES IDX 24 24
REMARK H PARENT
REMARK Flexibility Score: inf
ROOT
ATOM      1  C   UNL     1     -30.122  21.637 -10.868  1.00  0.00     0.000 C 
ENDROOT
BRANCH   1   2
ATOM      2  C   UNL     1     -31.311  22.497 -10.391  1.00  0.00     0.000 C 
BRANCH   2   3
ATOM      3  C   UNL     1     -32.687  21.885 -10.716  1.00  0.00     0.000 C 
BRANCH   3   4
ATOM      4  C   UNL     1     -32.947  20.512 -10.074  1.00  0.00    -0.000 C 
BRANCH   4   5
ATOM      5  C   UNL     1     -32.736  19.348 -11.055  1.00  0.00    -0.000 C 
BRANCH   5   6
ATOM      6  C   UNL     1     -33.250  18.030 -10.457  1.00  0.00    -0.000 C 
BRANCH   6   7
ATOM      7  C   UNL     1     -32.116  17.085 -10.022  1.00  0.00    -0.000 C 
BRANCH   7   8
ATOM      8  C   UNL     1     -31.376  16.377 -11.171  1.00  0.00    -0.000 C 
BRANCH   8   9
ATOM      9  C   UNL     1     -29.856  16.619 -11.146  1.00  0.00    -0.000 C 
BRANCH   9  10
ATOM     10  C   UNL     1     -29.417  17.711 -12.135  1.00  0.00    -0.000 C 
BRANCH  10  11
ATOM     11  C   UNL     1     -29.277  17.181 -13.570  1.00  0.00    -0.003 C 
ATOM     12  C   UNL     1     -29.535  15.679 -13.629  1.00  0.00     0.004 C 
ENDBRANCH  10  11
ENDBRANCH   9  10
ENDBRANCH   8   9
ENDBRANCH   7   8
ENDBRANCH   6   7
ENDBRANCH   5   6
ENDBRANCH   4   5
ENDBRANCH   3   4
ENDBRANCH   2   3
ENDBRANCH   1   2
BRANCH   1  13
ATOM     13  C   UNL     1     -29.430  22.236 -12.106  1.00  0.00     0.000 C 
BRANCH  13  14
ATOM     14  C   UNL     1     -27.949  21.833 -12.212  1.00  0.00     0.000 C 
BRANCH  14  15
ATOM     15  C   UNL     1     -26.998  23.028 -12.023  1.00  0.00     0.000 C 
BRANCH  15  16
ATOM     16  C   UNL     1     -25.832  22.711 -11.071  1.00  0.00     0.000 C 
BRANCH  16  17
ATOM     17  C   UNL     1     -26.214  22.864  -9.587  1.00  0.00     0.000 C 
BRANCH  17  18
ATOM     18  C   UNL     1     -26.778  21.555  -8.997  1.00  0.00     0.000 C 
BRANCH  18  19
ATOM     19  C   UNL     1     -26.482  21.377  -7.496  1.00  0.00     0.000 C 
BRANCH  19  20
ATOM     20  C   UNL     1     -25.070  20.841  -7.222  1.00  0.00     0.006 C 
BRANCH  20  21
ATOM     21  C   UNL     1     -24.489  21.452  -5.943  1.00  0.00     0.053 C 
BRANCH  21  22
ATOM     22  C   UNL     1     -23.182  22.124  -6.226  1.00  0.00     0.041 C 
ATOM     23  O   UNL     1     -22.563  22.719  -5.304  1.00  0.00    -0.550 OA
ATOM     24  O   UNL     1     -22.661  22.121  -7.514  1.00  0.00    -0.550 OA
ENDBRANCH  21  22
ENDBRANCH  20  21
ENDBRANCH  19  20
ENDBRANCH  18  19
ENDBRANCH  17  18
ENDBRANCH  16  17
ENDBRANCH  15  16
ENDBRANCH  14  15
ENDBRANCH  13  14
ENDBRANCH   1  13
TORSDOF 20
ENDMDL
MODEL 4
REMARK VINA RESULT:    15.298      2.554      4.223
REMARK INTER + INTRA:          31.869
REMARK INTER:                  30.042
REMARK INTRA:                   1.828
REMARK UNBOUND:                -1.314
REMARK SMILES CCCCCCCCCCCCCCCCCCCCCC(=O)[O-]
REMARK SMILES IDX 12 1 11 2 10 3 9 4 8 5 7 6 6 7 5 8 4 9 3 10 2 11 1 12 13 13
REMARK SMILES IDX 14 14 15 15 16 16 17 17 18 18 19 19 20 20 21 21 22 22 23 23
REMARK SMILES IDX 24 24
REMARK H PARENT
REMARK Flexibility Score: inf
ROOT
ATOM      1  C   UNL     1     -29.687  18.573 -11.083  1.00  0.00     0.000 C 
ENDROOT
BRANCH   1   2
ATOM      2  C   UNL     1     -29.289  20.022 -11.437  1.00  0.00     0.000 C 
BRANCH   2   3
ATOM      3  C   UNL     1     -28.352  20.126 -12.655  1.00  0.00     0.000 C 
BRANCH   3   4
ATOM      4  C   UNL     1     -27.839  21.545 -12.952  1.00  0.00    -0.000 C 
BRANCH   4   5
ATOM      5  C   UNL     1     -27.557  22.354 -11.677  1.00  0.00    -0.000 C 
BRANCH   5   6
ATOM      6  C   UNL     1     -26.060  22.673 -11.552  1.00  0.00    -0.000 C 
BRANCH   6   7
ATOM      7  C   UNL     1     -25.556  22.630 -10.098  1.00  0.00    -0.000 C 
BRANCH   7   8
ATOM      8  C   UNL     1     -26.604  22.204  -9.054  1.00  0.00    -0.000 C 
BRANCH   8   9
ATOM      9  C   UNL     1     -26.084  21.125  -8.087  1.00  0.00    -0.000 C 
BRANCH   9  10
ATOM     10  C   UNL     1     -24.577  21.259  -7.812  1.00  0.00    -0.000 C 
BRANCH  10  11
ATOM     11  C   UNL     1     -24.267  21.441  -6.319  1.00  0.00    -0.003 C 
ATOM     12  C   UNL     1     -22.925  22.139  -6.118  1.00  0.00     0.004 C 
ENDBRANCH  10  11
ENDBRANCH   9  10
ENDBRANCH   8   9
ENDBRANCH   7   8
ENDBRANCH   6   7
ENDBRANCH   5   6
ENDBRANCH   4   5
ENDBRANCH   3   4
ENDBRANCH   2   3
ENDBRANCH   1   2
BRANCH   1  13
ATOM     13  C   UNL     1     -29.156  17.557 -12.110  1.00  0.00     0.000 C 
BRANCH  13  14
ATOM     14  C   UNL     1     -29.765  16.157 -11.929  1.00  0.00     0.000 C 
BRANCH  14  15
ATOM     15  C   UNL     1     -31.012  16.167 -11.027  1.00  0.00     0.000 C 
BRANCH  15  16
ATOM     16  C   UNL     1     -31.285  17.549 -10.411  1.00  0.00     0.000 C 
BRANCH  16  17
ATOM     17  C   UNL     1     -32.787  17.832 -10.221  1.00  0.00     0.000 C 
BRANCH  17  18
ATOM     18  C   UNL     1     -33.262  19.028 -11.073  1.00  0.00     0.000 C 
BRANCH  18  19
ATOM     19  C   UNL     1     -32.912  20.398 -10.464  1.00  0.00     0.000 C 
BRANCH  19  20
ATOM     20  C   UNL     1     -31.968  21.224 -11.349  1.00  0.00     0.006 C 
BRANCH  20  21
ATOM     21  C   UNL     1     -31.938  22.689 -10.902  1.00  0.00     0.053 C 
BRANCH  21  22
ATOM     22  C   UNL     1     -32.881  22.912  -9.761  1.00  0.00     0.041 C 
ATOM     23  O   UNL     1     -34.124  22.940  -9.963  1.00  0.00    -0.550 OA
ATOM     24  O   UNL     1     -32.387  23.120  -8.479  1.00  0.00    -0.550 OA
ENDBRANCH  21  22
ENDBRANCH  20  21
ENDBRANCH  19  20
ENDBRANCH  18  19
ENDBRANCH  17  18
ENDBRANCH  16  17
ENDBRANCH  15  16
ENDBRANCH  14  15
ENDBRANCH  13  14
ENDBRANCH   1  13
TORSDOF 20
ENDMDL
MODEL 5
REMARK VINA RESULT:    15.794      2.945      7.624
REMARK INTER + INTRA:          32.946
REMARK INTER:                  32.895
REMARK INTRA:                   0.051
REMARK UNBOUND:                -1.314
REMARK SMILES CCCCCCCCCCCCCCCCCCCCCC(=O)[O-]
REMARK SMILES IDX 12 1 11 2 10 3 9 4 8 5 7 6 6 7 5 8 4 9 3 10 2 11 1 12 13 13
REMARK SMILES IDX 14 14 15 15 16 16 17 17 18 18 19 19 20 20 21 21 22 22 23 23
REMARK SMILES IDX 24 24
REMARK H PARENT
REMARK Flexibility Score: inf
ROOT
ATOM      1  C   UNL     1     -29.164  17.823 -12.939  1.00  0.00     0.000 C 
ENDROOT
BRANCH   1   2
ATOM      2  C   UNL     1     -29.516  17.929 -11.440  1.00  0.00     0.000 C 
BRANCH   2   3
ATOM      3  C   UNL     1     -29.910  16.583 -10.801  1.00  0.00     0.000 C 
BRANCH   3   4
ATOM      4  C   UNL     1     -31.394  16.209 -10.954  1.00  0.00    -0.000 C 
BRANCH   4   5
ATOM      5  C   UNL     1     -32.337  17.260 -10.349  1.00  0.00    -0.000 C 
BRANCH   5   6
ATOM      6  C   UNL     1     -31.752  18.671 -10.501  1.00  0.00    -0.000 C 
BRANCH   6   7
ATOM      7  C   UNL     1     -32.816  19.729 -10.843  1.00  0.00    -0.000 C 
BRANCH   7   8
ATOM      8  C   UNL     1     -33.546  20.339  -9.632  1.00  0.00    -0.000 C 
BRANCH   8   9
ATOM      9  C   UNL     1     -33.159  21.806  -9.374  1.00  0.00    -0.000 C 
BRANCH   9  10
ATOM     10  C   UNL     1     -32.935  22.593 -10.675  1.00  0.00    -0.000 C 
BRANCH  10  11
ATOM     11  C   UNL     1     -31.477  22.534 -11.155  1.00  0.00    -0.003 C 
ATOM     12  C   UNL     1     -30.575  21.906 -10.096  1.00  0.00     0.004 C 
ENDBRANCH  10  11
ENDBRANCH   9  10
ENDBRANCH   8   9
ENDBRANCH   7   8
ENDBRANCH   6   7
ENDBRANCH   5   6
ENDBRANCH   4   5
ENDBRANCH   3   4
ENDBRANCH   2   3
ENDBRANCH   1   2
BRANCH   1  13
ATOM     13  C   UNL     1     -28.330  19.022 -13.426  1.00  0.00     0.000 C 
BRANCH  13  14
ATOM     14  C   UNL     1     -28.700  20.332 -12.712  1.00  0.00     0.000 C 
BRANCH  14  15
ATOM     15  C   UNL     1     -27.685  21.458 -12.979  1.00  0.00     0.000 C 
BRANCH  15  16
ATOM     16  C   UNL     1     -27.429  22.330 -11.738  1.00  0.00     0.000 C 
BRANCH  16  17
ATOM     17  C   UNL     1     -25.934  22.613 -11.504  1.00  0.00     0.000 C 
BRANCH  17  18
ATOM     18  C   UNL     1     -25.610  22.808 -10.008  1.00  0.00     0.000 C 
BRANCH  18  19
ATOM     19  C   UNL     1     -26.606  22.110  -9.065  1.00  0.00     0.000 C 
BRANCH  19  20
ATOM     20  C   UNL     1     -25.918  21.264  -7.983  1.00  0.00     0.006 C 
BRANCH  20  21
ATOM     21  C   UNL     1     -24.397  21.433  -8.040  1.00  0.00     0.053 C 
BRANCH  21  22
ATOM     22  C   UNL     1     -23.834  21.610  -6.665  1.00  0.00     0.041 C 
ATOM     23  O   UNL     1     -24.276  20.923  -5.705  1.00  0.00    -0.550 OA
ATOM     24  O   UNL     1     -22.842  22.555  -6.435  1.00  0.00    -0.550 OA
ENDBRANCH  21  22
ENDBRANCH  20  21
ENDBRANCH  19  20
ENDBRANCH  18  19
ENDBRANCH  17  18
ENDBRANCH  16  17
ENDBRANCH  15  16
ENDBRANCH  14  15
ENDBRANCH  13  14
ENDBRANCH   1  13
TORSDOF 20
ENDMDL
MODEL 6
REMARK VINA RESULT:    15.951      3.072      7.801
REMARK INTER + INTRA:          33.287
REMARK INTER:                  34.092
REMARK INTRA:                  -0.805
REMARK UNBOUND:                -1.314
REMARK SMILES CCCCCCCCCCCCCCCCCCCCCC(=O)[O-]
REMARK SMILES IDX 12 1 11 2 10 3 9 4 8 5 7 6 6 7 5 8 4 9 3 10 2 11 1 12 13 13
REMARK SMILES IDX 14 14 15 15 16 16 17 17 18 18 19 19 20 20 21 21 22 22 23 23
REMARK SMILES IDX 24 24
REMARK H PARENT
REMARK Flexibility Score: inf
ROOT
ATOM      1  C   UNL     1     -30.503  21.786 -10.643  1.00  0.00     0.000 C 
ENDROOT
BRANCH   1   2
ATOM      2  C   UNL     1     -31.743  22.657 -10.349  1.00  0.00     0.000 C 
BRANCH   2   3
ATOM      3  C   UNL     1     -32.993  21.843  -9.963  1.00  0.00     0.000 C 
BRANCH   3   4
ATOM      4  C   UNL     1     -33.201  20.558 -10.781  1.00  0.00    -0.000 C 
BRANCH   4   5
ATOM      5  C   UNL     1     -32.713  19.300 -10.046  1.00  0.00    -0.000 C 
BRANCH   5   6
ATOM      6  C   UNL     1     -32.534  18.130 -11.025  1.00  0.00    -0.000 C 
BRANCH   6   7
ATOM      7  C   UNL     1     -31.966  16.867 -10.354  1.00  0.00    -0.000 C 
BRANCH   7   8
ATOM      8  C   UNL     1     -30.952  16.076 -11.201  1.00  0.00    -0.000 C 
BRANCH   8   9
ATOM      9  C   UNL     1     -29.545  16.699 -11.190  1.00  0.00    -0.000 C 
BRANCH   9  10
ATOM     10  C   UNL     1     -29.316  17.653 -12.374  1.00  0.00    -0.000 C 
BRANCH  10  11
ATOM     11  C   UNL     1     -29.285  16.920 -13.723  1.00  0.00    -0.003 C 
ATOM     12  C   UNL     1     -29.475  15.417 -13.536  1.00  0.00     0.004 C 
ENDBRANCH  10  11
ENDBRANCH   9  10
ENDBRANCH   8   9
ENDBRANCH   7   8
ENDBRANCH   6   7
ENDBRANCH   5   6
ENDBRANCH   4   5
ENDBRANCH   3   4
ENDBRANCH   2   3
ENDBRANCH   1   2
BRANCH   1  13
ATOM     13  C   UNL     1     -29.721  22.282 -11.873  1.00  0.00     0.000 C 
BRANCH  13  14
ATOM     14  C   UNL     1     -28.870  21.178 -12.520  1.00  0.00     0.000 C 
BRANCH  14  15
ATOM     15  C   UNL     1     -27.411  21.613 -12.747  1.00  0.00     0.000 C 
BRANCH  15  16
ATOM     16  C   UNL     1     -27.054  22.904 -11.991  1.00  0.00     0.000 C 
BRANCH  16  17
ATOM     17  C   UNL     1     -25.647  22.861 -11.368  1.00  0.00     0.000 C 
BRANCH  17  18
ATOM     18  C   UNL     1     -25.679  23.124  -9.847  1.00  0.00     0.000 C 
BRANCH  18  19
ATOM     19  C   UNL     1     -26.006  21.872  -9.013  1.00  0.00     0.000 C 
BRANCH  19  20
ATOM     20  C   UNL     1     -24.757  21.075  -8.610  1.00  0.00     0.006 C 
BRANCH  20  21
ATOM     21  C   UNL     1     -24.781  20.733  -7.118  1.00  0.00     0.053 C 
BRANCH  21  22
ATOM     22  C   UNL     1     -23.930  21.690  -6.343  1.00  0.00     0.041 C 
ATOM     23  O   UNL     1     -22.959  22.269  -6.900  1.00  0.00    -0.550 OA
ATOM     24  O   UNL     1     -24.188  21.920  -4.998  1.00  0.00    -0.550 OA
ENDBRANCH  21  22
ENDBRANCH  20  21
ENDBRANCH  19  20
ENDBRANCH  18  19
ENDBRANCH  17  18
ENDBRANCH  16  17
ENDBRANCH  15  16
ENDBRANCH  14  15
ENDBRANCH  13  14
ENDBRANCH   1  13
TORSDOF 20
ENDMDL
MODEL 7
REMARK VINA RESULT:    16.250      6.360     10.047
REMARK INTER + INTRA:          33.935
REMARK INTER:                  35.189
REMARK INTRA:                  -1.254
REMARK UNBOUND:                -1.314
REMARK SMILES CCCCCCCCCCCCCCCCCCCCCC(=O)[O-]
REMARK SMILES IDX 12 1 11 2 10 3 9 4 8 5 7 6 6 7 5 8 4 9 3 10 2 11 1 12 13 13
REMARK SMILES IDX 14 14 15 15 16 16 17 17 18 18 19 19 20 20 21 21 22 22 23 23
REMARK SMILES IDX 24 24
REMARK H PARENT
REMARK Flexibility Score: inf
ROOT
ATOM      1  C   UNL     1     -28.524  14.913 -15.045  1.00  0.00     0.000 C 
ENDROOT
BRANCH   1   2
ATOM      2  C   UNL     1     -29.189  15.431 -13.752  1.00  0.00     0.000 C 
BRANCH   2   3
ATOM      3  C   UNL     1     -29.272  16.967 -13.672  1.00  0.00     0.000 C 
BRANCH   3   4
ATOM      4  C   UNL     1     -29.540  17.525 -12.264  1.00  0.00    -0.000 C 
BRANCH   4   5
ATOM      5  C   UNL     1     -29.888  16.427 -11.247  1.00  0.00    -0.000 C 
BRANCH   5   6
ATOM      6  C   UNL     1     -31.388  16.440 -10.922  1.00  0.00    -0.000 C 
BRANCH   6   7
ATOM      7  C   UNL     1     -31.827  17.703 -10.157  1.00  0.00    -0.000 C 
BRANCH   7   8
ATOM      8  C   UNL     1     -33.034  18.446 -10.758  1.00  0.00    -0.000 C 
BRANCH   8   9
ATOM      9  C   UNL     1     -33.072  19.936 -10.379  1.00  0.00    -0.000 C 
BRANCH   9  10
ATOM     10  C   UNL     1     -31.699  20.614 -10.520  1.00  0.00    -0.000 C 
BRANCH  10  11
ATOM     11  C   UNL     1     -31.812  22.120 -10.796  1.00  0.00    -0.003 C 
ATOM     12  C   UNL     1     -33.045  22.712 -10.120  1.00  0.00     0.004 C 
ENDBRANCH  10  11
ENDBRANCH   9  10
ENDBRANCH   8   9
ENDBRANCH   7   8
ENDBRANCH   6   7
ENDBRANCH   5   6
ENDBRANCH   4   5
ENDBRANCH   3   4
ENDBRANCH   2   3
ENDBRANCH   1   2
BRANCH   1  13
ATOM     13  C   UNL     1     -27.983  13.480 -14.887  1.00  0.00     0.000 C 
BRANCH  13  14
ATOM     14  C   UNL     1     -26.452  13.408 -15.010  1.00  0.00     0.000 C 
BRANCH  14  15
ATOM     15  C   UNL     1     -25.948  13.858 -16.393  1.00  0.00     0.000 C 
BRANCH  15  16
ATOM     16  C   UNL     1     -24.871  12.921 -16.964  1.00  0.00     0.000 C 
BRANCH  16  17
ATOM     17  C   UNL     1     -24.576  13.185 -18.452  1.00  0.00     0.000 C 
BRANCH  17  18
ATOM     18  C   UNL     1     -23.750  12.047 -19.089  1.00  0.00     0.000 C 
BRANCH  18  19
ATOM     19  C   UNL     1     -24.253  10.639 -18.720  1.00  0.00     0.000 C 
BRANCH  19  20
ATOM     20  C   UNL     1     -23.152   9.742 -18.136  1.00  0.00     0.006 C 
BRANCH  20  21
ATOM     21  C   UNL     1     -23.418   9.438 -16.658  1.00  0.00     0.053 C 
BRANCH  21  22
ATOM     22  C   UNL     1     -22.212   9.749 -15.829  1.00  0.00     0.041 C 
ATOM     23  O   UNL     1     -21.416  10.659 -16.185  1.00  0.00    -0.550 OA
ATOM     24  O   UNL     1     -21.949   9.016 -14.679  1.00  0.00    -0.550 OA
ENDBRANCH  21  22
ENDBRANCH  20  21
ENDBRANCH  19  20
ENDBRANCH  18  19
ENDBRANCH  17  18
ENDBRANCH  16  17
ENDBRANCH  15  16
ENDBRANCH  14  15
ENDBRANCH  13  14
ENDBRANCH   1  13
TORSDOF 20
ENDMDL
MODEL 8
REMARK VINA RESULT:    16.560      3.595      7.561
REMARK INTER + INTRA:          34.607
REMARK INTER:                  34.775
REMARK INTRA:                  -0.168
REMARK UNBOUND:                -1.314
REMARK SMILES CCCCCCCCCCCCCCCCCCCCCC(=O)[O-]
REMARK SMILES IDX 12 1 11 2 10 3 9 4 8 5 7 6 6 7 5 8 4 9 3 10 2 11 1 12 13 13
REMARK SMILES IDX 14 14 15 15 16 16 17 17 18 18 19 19 20 20 21 21 22 22 23 23
REMARK SMILES IDX 24 24
REMARK H PARENT
REMARK Flexibility Score: inf
ROOT
ATOM      1  C   UNL     1     -30.629  16.270 -10.790  1.00  0.00     0.000 C 
ENDROOT
BRANCH   1   2
ATOM      2  C   UNL     1     -29.682  17.405 -11.232  1.00  0.00     0.000 C 
BRANCH   2   3
ATOM      3  C   UNL     1     -29.326  17.366 -12.730  1.00  0.00     0.000 C 
BRANCH   3   4
ATOM      4  C   UNL     1     -29.483  15.987 -13.392  1.00  0.00    -0.000 C 
BRANCH   4   5
ATOM      5  C   UNL     1     -29.484  16.061 -14.927  1.00  0.00    -0.000 C 
BRANCH   5   6
ATOM      6  C   UNL     1     -30.175  17.343 -15.411  1.00  0.00    -0.000 C 
BRANCH   6   7
ATOM      7  C   UNL     1     -30.358  17.387 -16.939  1.00  0.00    -0.000 C 
BRANCH   7   8
ATOM      8  C   UNL     1     -31.506  18.285 -17.436  1.00  0.00    -0.000 C 
BRANCH   8   9
ATOM      9  C   UNL     1     -31.032  19.684 -17.866  1.00  0.00    -0.000 C 
BRANCH   9  10
ATOM     10  C   UNL     1     -29.539  19.712 -18.233  1.00  0.00    -0.000 C 
BRANCH  10  11
ATOM     11  C   UNL     1     -28.925  21.112 -18.090  1.00  0.00    -0.003 C 
ATOM     12  C   UNL     1     -29.157  21.945 -19.348  1.00  0.00     0.004 C 
ENDBRANCH  10  11
ENDBRANCH   9  10
ENDBRANCH   8   9
ENDBRANCH   7   8
ENDBRANCH   6   7
ENDBRANCH   5   6
ENDBRANCH   4   5
ENDBRANCH   3   4
ENDBRANCH   2   3
ENDBRANCH   1   2
BRANCH   1  13
ATOM     13  C   UNL     1     -32.017  16.796 -10.381  1.00  0.00     0.000 C 
BRANCH  13  14
ATOM     14  C   UNL     1     -32.360  18.142 -11.042  1.00  0.00     0.000 C 
BRANCH  14  15
ATOM     15  C   UNL     1     -33.139  19.079 -10.103  1.00  0.00     0.000 C 
BRANCH  15  16
ATOM     16  C   UNL     1     -32.968  20.562 -10.471  1.00  0.00     0.000 C 
BRANCH  16  17
ATOM     17  C   UNL     1     -33.669  21.509  -9.480  1.00  0.00     0.000 C 
BRANCH  17  18
ATOM     18  C   UNL     1     -33.230  22.976  -9.673  1.00  0.00     0.000 C 
BRANCH  18  19
ATOM     19  C   UNL     1     -31.781  23.125 -10.172  1.00  0.00     0.000 C 
BRANCH  19  20
ATOM     20  C   UNL     1     -31.513  22.359 -11.476  1.00  0.00     0.006 C 
BRANCH  20  21
ATOM     21  C   UNL     1     -30.049  22.498 -11.904  1.00  0.00     0.053 C 
BRANCH  21  22
ATOM     22  C   UNL     1     -29.328  21.196 -11.749  1.00  0.00     0.041 C 
ATOM     23  O   UNL     1     -28.457  20.850 -12.592  1.00  0.00    -0.550 OA
ATOM     24  O   UNL     1     -29.637  20.350 -10.692  1.00  0.00    -0.550 OA
ENDBRANCH  21  22
ENDBRANCH  20  21
ENDBRANCH  19  20
ENDBRANCH  18  19
ENDBRANCH  17  18
ENDBRANCH  16  17
ENDBRANCH  15  16
ENDBRANCH  14  15
ENDBRANCH  13  14
ENDBRANCH   1  13
TORSDOF 20
ENDMDL
