MODEL 1
REMARK VINA RESULT:    -4.087      0.000      0.000
REMARK INTER + INTRA:         -10.343
REMARK INTER:                  -7.670
REMARK INTRA:                  -2.673
REMARK UNBOUND:                -2.673
REMARK SMILES CCCCCCCCC=CCCCCCCCC(=O)[O-]
REMARK SMILES IDX 10 1 9 2 11 3 12 4 13 5 14 6 15 7 16 8 17 9 18 10 19 11
REMARK SMILES IDX 20 12 8 13 7 14 6 15 5 16 4 17 3 18 2 19 1 20
REMARK H PARENT
REMARK Flexibility Score: inf
ROOT
ATOM      1  C   UNL     1      29.791  35.990  22.194  1.00  0.00    -0.031 C 
ATOM      2  C   UNL     1      28.846  35.137  22.633  1.00  0.00    -0.031 C 
ENDROOT
BRANCH   1   3
ATOM      3  C   UNL     1      29.806  36.629  20.827  1.00  0.00     0.027 C 
BRANCH   3   4
ATOM      4  C   UNL     1      30.897  36.034  19.920  1.00  0.00     0.004 C 
BRANCH   4   5
ATOM      5  C   UNL     1      30.355  35.177  18.760  1.00  0.00     0.000 C 
BRANCH   5   6
ATOM      6  C   UNL     1      30.449  33.667  19.042  1.00  0.00     0.000 C 
BRANCH   6   7
ATOM      7  C   UNL     1      31.637  33.310  19.948  1.00  0.00     0.000 C 
BRANCH   7   8
ATOM      8  C   UNL     1      31.205  32.572  21.224  1.00  0.00     0.006 C 
BRANCH   8   9
ATOM      9  C   UNL     1      31.986  33.079  22.441  1.00  0.00     0.053 C 
BRANCH   9  10
ATOM     10  C   UNL     1      32.712  31.952  23.103  1.00  0.00     0.041 C 
ATOM     11  O   UNL     1      32.991  30.909  22.453  1.00  0.00    -0.550 OA
ATOM     12  O   UNL     1      33.125  32.069  24.423  1.00  0.00    -0.550 OA
ENDBRANCH   9  10
ENDBRANCH   8   9
ENDBRANCH   7   8
ENDBRANCH   6   7
ENDBRANCH   5   6
ENDBRANCH   4   5
ENDBRANCH   3   4
ENDBRANCH   1   3
BRANCH   2  13
ATOM     13  C   UNL     1      27.604  34.765  21.863  1.00  0.00     0.027 C 
BRANCH  13  14
ATOM     14  C   UNL     1      27.654  33.297  21.428  1.00  0.00     0.004 C 
BRANCH  14  15
ATOM     15  C   UNL     1      26.992  33.108  20.054  1.00  0.00     0.000 C 
BRANCH  15  16
ATOM     16  C   UNL     1      26.637  34.441  19.377  1.00  0.00     0.000 C 
BRANCH  16  17
ATOM     17  C   UNL     1      25.227  34.433  18.759  1.00  0.00    -0.000 C 
BRANCH  17  18
ATOM     18  C   UNL     1      24.157  33.928  19.739  1.00  0.00    -0.000 C 
BRANCH  18  19
ATOM     19  C   UNL     1      23.463  32.647  19.249  1.00  0.00    -0.003 C 
ATOM     20  C   UNL     1      22.033  32.562  19.777  1.00  0.00     0.004 C 
ENDBRANCH  18  19
ENDBRANCH  17  18
ENDBRANCH  16  17
ENDBRANCH  15  16
ENDBRANCH  14  15
ENDBRANCH  13  14
ENDBRANCH   2  13
TORSDOF 15
ENDMDL
MODEL 2
REMARK VINA RESULT:    -4.027     11.694     14.757
REMARK INTER + INTRA:         -10.231
REMARK INTER:                  -7.226
REMARK INTRA:                  -3.004
REMARK UNBOUND:                -2.673
REMARK SMILES CCCCCCCCC=CCCCCCCCC(=O)[O-]
REMARK SMILES IDX 10 1 9 2 11 3 12 4 13 5 14 6 15 7 16 8 17 9 18 10 19 11
REMARK SMILES IDX 20 12 8 13 7 14 6 15 5 16 4 17 3 18 2 19 1 20
REMARK H PARENT
REMARK Flexibility Score: inf
ROOT
ATOM      1  C   UNL     1      21.259  20.558  20.814  1.00  0.00    -0.031 C 
ATOM      2  C   UNL     1      21.656  21.241  19.724  1.00  0.00    -0.031 C 
ENDROOT
BRANCH   1   3
ATOM      3  C   UNL     1      20.053  19.653  20.871  1.00  0.00     0.027 C 
BRANCH   3   4
ATOM      4  C   UNL     1      18.987  20.166  21.854  1.00  0.00     0.004 C 
BRANCH   4   5
ATOM      5  C   UNL     1      18.281  21.458  21.403  1.00  0.00     0.000 C 
BRANCH   5   6
ATOM      6  C   UNL     1      18.673  22.679  22.255  1.00  0.00     0.000 C 
BRANCH   6   7
ATOM      7  C   UNL     1      18.933  22.313  23.725  1.00  0.00     0.000 C 
BRANCH   7   8
ATOM      8  C   UNL     1      19.757  23.379  24.462  1.00  0.00     0.006 C 
BRANCH   8   9
ATOM      9  C   UNL     1      19.288  24.789  24.089  1.00  0.00     0.053 C 
BRANCH   9  10
ATOM     10  C   UNL     1      20.171  25.818  24.721  1.00  0.00     0.041 C 
ATOM     11  O   UNL     1      21.365  25.537  25.008  1.00  0.00    -0.550 OA
ATOM     12  O   UNL     1      19.692  27.101  24.948  1.00  0.00    -0.550 OA
ENDBRANCH   9  10
ENDBRANCH   8   9
ENDBRANCH   7   8
ENDBRANCH   6   7
ENDBRANCH   5   6
ENDBRANCH   4   5
ENDBRANCH   3   4
ENDBRANCH   1   3
BRANCH   2  13
ATOM     13  C   UNL     1      21.016  21.130  18.363  1.00  0.00     0.027 C 
BRANCH  13  14
ATOM     14  C   UNL     1      19.967  22.229  18.166  1.00  0.00     0.004 C 
BRANCH  14  15
ATOM     15  C   UNL     1      20.568  23.618  18.433  1.00  0.00     0.000 C 
BRANCH  15  16
ATOM     16  C   UNL     1      19.698  24.473  19.368  1.00  0.00     0.000 C 
BRANCH  16  17
ATOM     17  C   UNL     1      20.534  25.320  20.344  1.00  0.00    -0.000 C 
BRANCH  17  18
ATOM     18  C   UNL     1      21.983  24.824  20.462  1.00  0.00    -0.000 C 
BRANCH  18  19
ATOM     19  C   UNL     1      22.513  24.884  21.903  1.00  0.00    -0.003 C 
ATOM     20  C   UNL     1      22.865  23.490  22.417  1.00  0.00     0.004 C 
ENDBRANCH  18  19
ENDBRANCH  17  18
ENDBRANCH  16  17
ENDBRANCH  15  16
ENDBRANCH  14  15
ENDBRANCH  13  14
ENDBRANCH   2  13
TORSDOF 15
ENDMDL
MODEL 3
REMARK VINA RESULT:    -3.941     11.591     14.453
REMARK INTER + INTRA:         -10.070
REMARK INTER:                  -6.823
REMARK INTRA:                  -3.248
REMARK UNBOUND:                -2.673
REMARK SMILES CCCCCCCCC=CCCCCCCCC(=O)[O-]
REMARK SMILES IDX 10 1 9 2 11 3 12 4 13 5 14 6 15 7 16 8 17 9 18 10 19 11
REMARK SMILES IDX 20 12 8 13 7 14 6 15 5 16 4 17 3 18 2 19 1 20
REMARK H PARENT
REMARK Flexibility Score: inf
ROOT
ATOM      1  C   UNL     1      20.225  25.908  20.873  1.00  0.00    -0.031 C 
ATOM      2  C   UNL     1      21.535  25.742  21.133  1.00  0.00    -0.031 C 
ENDROOT
BRANCH   1   3
ATOM      3  C   UNL     1      19.418  25.050  19.929  1.00  0.00     0.027 C 
BRANCH   3   4
ATOM      4  C   UNL     1      18.128  24.524  20.580  1.00  0.00     0.004 C 
BRANCH   4   5
ATOM      5  C   UNL     1      18.255  23.112  21.182  1.00  0.00     0.000 C 
BRANCH   5   6
ATOM      6  C   UNL     1      18.133  23.106  22.717  1.00  0.00     0.000 C 
BRANCH   6   7
ATOM      7  C   UNL     1      19.491  22.935  23.415  1.00  0.00     0.000 C 
BRANCH   7   8
ATOM      8  C   UNL     1      19.919  24.192  24.188  1.00  0.00     0.006 C 
BRANCH   8   9
ATOM      9  C   UNL     1      18.777  25.210  24.254  1.00  0.00     0.053 C 
BRANCH   9  10
ATOM     10  C   UNL     1      19.296  26.552  24.662  1.00  0.00     0.041 C 
ATOM     11  O   UNL     1      18.595  27.309  25.386  1.00  0.00    -0.550 OA
ATOM     12  O   UNL     1      20.572  26.950  24.285  1.00  0.00    -0.550 OA
ENDBRANCH   9  10
ENDBRANCH   8   9
ENDBRANCH   7   8
ENDBRANCH   6   7
ENDBRANCH   5   6
ENDBRANCH   4   5
ENDBRANCH   3   4
ENDBRANCH   1   3
BRANCH   2  13
ATOM     13  C   UNL     1      22.377  24.611  20.598  1.00  0.00     0.027 C 
BRANCH  13  14
ATOM     14  C   UNL     1      22.696  23.601  21.704  1.00  0.00     0.004 C 
BRANCH  14  15
ATOM     15  C   UNL     1      22.455  22.162  21.222  1.00  0.00     0.000 C 
BRANCH  15  16
ATOM     16  C   UNL     1      21.461  22.087  20.051  1.00  0.00     0.000 C 
BRANCH  16  17
ATOM     17  C   UNL     1      20.810  20.699  19.918  1.00  0.00    -0.000 C 
BRANCH  17  18
ATOM     18  C   UNL     1      21.188  19.756  21.071  1.00  0.00    -0.000 C 
BRANCH  18  19
ATOM     19  C   UNL     1      20.063  18.771  21.423  1.00  0.00    -0.003 C 
ATOM     20  C   UNL     1      18.863  19.500  22.023  1.00  0.00     0.004 C 
ENDBRANCH  18  19
ENDBRANCH  17  18
ENDBRANCH  16  17
ENDBRANCH  15  16
ENDBRANCH  14  15
ENDBRANCH  13  14
ENDBRANCH   2  13
TORSDOF 15
ENDMDL
MODEL 4
REMARK VINA RESULT:    -3.921      3.690      6.974
REMARK INTER + INTRA:         -10.032
REMARK INTER:                  -7.522
REMARK INTRA:                  -2.510
REMARK UNBOUND:                -2.673
REMARK SMILES CCCCCCCCC=CCCCCCCCC(=O)[O-]
REMARK SMILES IDX 10 1 9 2 11 3 12 4 13 5 14 6 15 7 16 8 17 9 18 10 19 11
REMARK SMILES IDX 20 12 8 13 7 14 6 15 5 16 4 17 3 18 2 19 1 20
REMARK H PARENT
REMARK Flexibility Score: inf
ROOT
ATOM      1  C   UNL     1      28.850  35.080  22.353  1.00  0.00    -0.031 C 
ATOM      2  C   UNL     1      29.850  35.957  22.563  1.00  0.00    -0.031 C 
ENDROOT
BRANCH   1   3
ATOM      3  C   UNL     1      27.931  35.092  21.156  1.00  0.00     0.027 C 
BRANCH   3   4
ATOM      4  C   UNL     1      28.180  33.897  20.220  1.00  0.00     0.004 C 
BRANCH   4   5
ATOM      5  C   UNL     1      27.697  32.546  20.779  1.00  0.00     0.000 C 
BRANCH   5   6
ATOM      6  C   UNL     1      26.378  32.075  20.140  1.00  0.00     0.000 C 
BRANCH   6   7
ATOM      7  C   UNL     1      26.207  32.581  18.699  1.00  0.00     0.000 C 
BRANCH   7   8
ATOM      8  C   UNL     1      24.853  33.272  18.473  1.00  0.00     0.006 C 
BRANCH   8   9
ATOM      9  C   UNL     1      24.253  33.750  19.798  1.00  0.00     0.053 C 
BRANCH   9  10
ATOM     10  C   UNL     1      22.844  33.268  19.938  1.00  0.00     0.041 C 
ATOM     11  O   UNL     1      21.904  33.888  19.374  1.00  0.00    -0.550 OA
ATOM     12  O   UNL     1      22.573  32.108  20.652  1.00  0.00    -0.550 OA
ENDBRANCH   9  10
ENDBRANCH   8   9
ENDBRANCH   7   8
ENDBRANCH   6   7
ENDBRANCH   5   6
ENDBRANCH   4   5
ENDBRANCH   3   4
ENDBRANCH   1   3
BRANCH   2  13
ATOM     13  C   UNL     1      30.271  37.026  21.586  1.00  0.00     0.027 C 
BRANCH  13  14
ATOM     14  C   UNL     1      31.458  36.553  20.742  1.00  0.00     0.004 C 
BRANCH  14  15
ATOM     15  C   UNL     1      31.007  36.169  19.324  1.00  0.00     0.000 C 
BRANCH  15  16
ATOM     16  C   UNL     1      31.570  34.813  18.868  1.00  0.00     0.000 C 
BRANCH  16  17
ATOM     17  C   UNL     1      32.320  34.077  19.991  1.00  0.00    -0.000 C 
BRANCH  17  18
ATOM     18  C   UNL     1      31.686  32.720  20.334  1.00  0.00    -0.000 C 
BRANCH  18  19
ATOM     19  C   UNL     1      31.499  32.519  21.845  1.00  0.00    -0.003 C 
ATOM     20  C   UNL     1      32.587  31.613  22.417  1.00  0.00     0.004 C 
ENDBRANCH  18  19
ENDBRANCH  17  18
ENDBRANCH  16  17
ENDBRANCH  15  16
ENDBRANCH  14  15
ENDBRANCH  13  14
ENDBRANCH   2  13
TORSDOF 15
ENDMDL
MODEL 5
REMARK VINA RESULT:    -3.836     11.605     14.009
REMARK INTER + INTRA:          -9.873
REMARK INTER:                  -7.148
REMARK INTRA:                  -2.725
REMARK UNBOUND:                -2.673
REMARK SMILES CCCCCCCCC=CCCCCCCCC(=O)[O-]
REMARK SMILES IDX 10 1 9 2 11 3 12 4 13 5 14 6 15 7 16 8 17 9 18 10 19 11
REMARK SMILES IDX 20 12 8 13 7 14 6 15 5 16 4 17 3 18 2 19 1 20
REMARK H PARENT
REMARK Flexibility Score: inf
ROOT
ATOM      1  C   UNL     1      22.728  24.956  21.602  1.00  0.00    -0.031 C 
ATOM      2  C   UNL     1      21.984  25.213  20.510  1.00  0.00    -0.031 C 
ENDROOT
BRANCH   1   3
ATOM      3  C   UNL     1      22.657  23.685  22.413  1.00  0.00     0.027 C 
BRANCH   3   4
ATOM      4  C   UNL     1      22.666  23.960  23.926  1.00  0.00     0.004 C 
BRANCH   4   5
ATOM      5  C   UNL     1      21.273  23.934  24.581  1.00  0.00     0.000 C 
BRANCH   5   6
ATOM      6  C   UNL     1      20.184  23.384  23.643  1.00  0.00     0.000 C 
BRANCH   6   7
ATOM      7  C   UNL     1      19.040  24.384  23.416  1.00  0.00     0.000 C 
BRANCH   7   8
ATOM      8  C   UNL     1      19.518  25.844  23.443  1.00  0.00     0.006 C 
BRANCH   8   9
ATOM      9  C   UNL     1      18.500  26.741  24.152  1.00  0.00     0.053 C 
BRANCH   9  10
ATOM     10  C   UNL     1      18.907  26.973  25.573  1.00  0.00     0.041 C 
ATOM     11  O   UNL     1      20.062  26.652  25.961  1.00  0.00    -0.550 OA
ATOM     12  O   UNL     1      18.030  27.587  26.457  1.00  0.00    -0.550 OA
ENDBRANCH   9  10
ENDBRANCH   8   9
ENDBRANCH   7   8
ENDBRANCH   6   7
ENDBRANCH   5   6
ENDBRANCH   4   5
ENDBRANCH   3   4
ENDBRANCH   1   3
BRANCH   2  13
ATOM     13  C   UNL     1      21.036  24.232  19.869  1.00  0.00     0.027 C 
BRANCH  13  14
ATOM     14  C   UNL     1      19.598  24.761  19.908  1.00  0.00     0.004 C 
BRANCH  14  15
ATOM     15  C   UNL     1      18.774  24.200  18.739  1.00  0.00     0.000 C 
BRANCH  15  16
ATOM     16  C   UNL     1      18.620  22.671  18.800  1.00  0.00     0.000 C 
BRANCH  16  17
ATOM     17  C   UNL     1      18.022  22.190  20.133  1.00  0.00    -0.000 C 
BRANCH  17  18
ATOM     18  C   UNL     1      18.946  21.211  20.875  1.00  0.00    -0.000 C 
BRANCH  18  19
ATOM     19  C   UNL     1      20.063  20.656  19.977  1.00  0.00    -0.003 C 
ATOM     20  C   UNL     1      21.392  20.604  20.726  1.00  0.00     0.004 C 
ENDBRANCH  18  19
ENDBRANCH  17  18
ENDBRANCH  16  17
ENDBRANCH  15  16
ENDBRANCH  14  15
ENDBRANCH  13  14
ENDBRANCH   2  13
TORSDOF 15
ENDMDL
MODEL 6
REMARK VINA RESULT:    -3.818     11.365     13.959
REMARK INTER + INTRA:          -9.840
REMARK INTER:                  -6.736
REMARK INTRA:                  -3.104
REMARK UNBOUND:                -2.673
REMARK SMILES CCCCCCCCC=CCCCCCCCC(=O)[O-]
REMARK SMILES IDX 10 1 9 2 11 3 12 4 13 5 14 6 15 7 16 8 17 9 18 10 19 11
REMARK SMILES IDX 20 12 8 13 7 14 6 15 5 16 4 17 3 18 2 19 1 20
REMARK H PARENT
REMARK Flexibility Score: inf
ROOT
ATOM      1  C   UNL     1      22.554  25.087  22.249  1.00  0.00    -0.031 C 
ATOM      2  C   UNL     1      22.392  23.806  22.627  1.00  0.00    -0.031 C 
ENDROOT
BRANCH   1   3
ATOM      3  C   UNL     1      21.950  25.702  21.010  1.00  0.00     0.027 C 
BRANCH   3   4
ATOM      4  C   UNL     1      20.635  26.443  21.311  1.00  0.00     0.004 C 
BRANCH   4   5
ATOM      5  C   UNL     1      19.398  25.837  20.622  1.00  0.00     0.000 C 
BRANCH   5   6
ATOM      6  C   UNL     1      18.221  25.627  21.592  1.00  0.00     0.000 C 
BRANCH   6   7
ATOM      7  C   UNL     1      18.351  24.330  22.405  1.00  0.00     0.000 C 
BRANCH   7   8
ATOM      8  C   UNL     1      18.630  24.592  23.893  1.00  0.00     0.006 C 
BRANCH   8   9
ATOM      9  C   UNL     1      18.350  26.055  24.254  1.00  0.00     0.053 C 
BRANCH   9  10
ATOM     10  C   UNL     1      19.471  26.615  25.071  1.00  0.00     0.041 C 
ATOM     11  O   UNL     1      19.262  27.576  25.858  1.00  0.00    -0.550 OA
ATOM     12  O   UNL     1      20.736  26.046  25.000  1.00  0.00    -0.550 OA
ENDBRANCH   9  10
ENDBRANCH   8   9
ENDBRANCH   7   8
ENDBRANCH   6   7
ENDBRANCH   5   6
ENDBRANCH   4   5
ENDBRANCH   3   4
ENDBRANCH   1   3
BRANCH   2  13
ATOM     13  C   UNL     1      21.502  22.811  21.926  1.00  0.00     0.027 C 
BRANCH  13  14
ATOM     14  C   UNL     1      22.293  22.012  20.886  1.00  0.00     0.004 C 
BRANCH  14  15
ATOM     15  C   UNL     1      21.365  21.466  19.790  1.00  0.00     0.000 C 
BRANCH  15  16
ATOM     16  C   UNL     1      20.508  22.562  19.136  1.00  0.00     0.000 C 
BRANCH  16  17
ATOM     17  C   UNL     1      18.999  22.294  19.277  1.00  0.00    -0.000 C 
BRANCH  17  18
ATOM     18  C   UNL     1      18.696  20.866  19.757  1.00  0.00    -0.000 C 
BRANCH  18  19
ATOM     19  C   UNL     1      17.875  20.840  21.056  1.00  0.00    -0.003 C 
ATOM     20  C   UNL     1      18.767  20.555  22.262  1.00  0.00     0.004 C 
ENDBRANCH  18  19
ENDBRANCH  17  18
ENDBRANCH  16  17
ENDBRANCH  15  16
ENDBRANCH  14  15
ENDBRANCH  13  14
ENDBRANCH   2  13
TORSDOF 15
ENDMDL
MODEL 7
REMARK VINA RESULT:    -3.778     13.787     16.130
REMARK INTER + INTRA:          -9.765
REMARK INTER:                  -7.751
REMARK INTRA:                  -2.014
REMARK UNBOUND:                -2.673
REMARK SMILES CCCCCCCCC=CCCCCCCCC(=O)[O-]
REMARK SMILES IDX 10 1 9 2 11 3 12 4 13 5 14 6 15 7 16 8 17 9 18 10 19 11
REMARK SMILES IDX 20 12 8 13 7 14 6 15 5 16 4 17 3 18 2 19 1 20
REMARK H PARENT
REMARK Flexibility Score: inf
ROOT
ATOM      1  C   UNL     1      35.465  26.160  30.323  1.00  0.00    -0.031 C 
ATOM      2  C   UNL     1      35.488  25.378  29.227  1.00  0.00    -0.031 C 
ENDROOT
BRANCH   1   3
ATOM      3  C   UNL     1      36.633  26.975  30.823  1.00  0.00     0.027 C 
BRANCH   3   4
ATOM      4  C   UNL     1      37.637  26.124  31.619  1.00  0.00     0.004 C 
BRANCH   4   5
ATOM      5  C   UNL     1      36.997  25.257  32.719  1.00  0.00     0.000 C 
BRANCH   5   6
ATOM      6  C   UNL     1      37.370  23.768  32.596  1.00  0.00     0.000 C 
BRANCH   6   7
ATOM      7  C   UNL     1      36.136  22.857  32.512  1.00  0.00     0.000 C 
BRANCH   7   8
ATOM      8  C   UNL     1      34.869  23.525  33.069  1.00  0.00     0.006 C 
BRANCH   8   9
ATOM      9  C   UNL     1      34.795  23.376  34.591  1.00  0.00     0.053 C 
BRANCH   9  10
ATOM     10  C   UNL     1      33.385  23.540  35.065  1.00  0.00     0.041 C 
ATOM     11  O   UNL     1      32.434  23.038  34.409  1.00  0.00    -0.550 OA
ATOM     12  O   UNL     1      33.123  24.206  36.254  1.00  0.00    -0.550 OA
ENDBRANCH   9  10
ENDBRANCH   8   9
ENDBRANCH   7   8
ENDBRANCH   6   7
ENDBRANCH   5   6
ENDBRANCH   4   5
ENDBRANCH   3   4
ENDBRANCH   1   3
BRANCH   2  13
ATOM     13  C   UNL     1      36.652  25.272  28.275  1.00  0.00     0.027 C 
BRANCH  13  14
ATOM     14  C   UNL     1      37.199  23.841  28.243  1.00  0.00     0.004 C 
BRANCH  14  15
ATOM     15  C   UNL     1      36.305  22.892  29.056  1.00  0.00     0.000 C 
BRANCH  15  16
ATOM     16  C   UNL     1      36.337  21.448  28.531  1.00  0.00     0.000 C 
BRANCH  16  17
ATOM     17  C   UNL     1      35.022  21.040  27.844  1.00  0.00    -0.000 C 
BRANCH  17  18
ATOM     18  C   UNL     1      34.972  21.461  26.367  1.00  0.00    -0.000 C 
BRANCH  18  19
ATOM     19  C   UNL     1      34.102  22.705  26.134  1.00  0.00    -0.003 C 
ATOM     20  C   UNL     1      32.851  22.358  25.331  1.00  0.00     0.004 C 
ENDBRANCH  18  19
ENDBRANCH  17  18
ENDBRANCH  16  17
ENDBRANCH  15  16
ENDBRANCH  14  15
ENDBRANCH  13  14
ENDBRANCH   2  13
TORSDOF 15
ENDMDL
MODEL 8
REMARK VINA RESULT:    -3.761      1.355      2.960
REMARK INTER + INTRA:          -9.733
REMARK INTER:                  -7.555
REMARK INTRA:                  -2.178
REMARK UNBOUND:                -2.673
REMARK SMILES CCCCCCCCC=CCCCCCCCC(=O)[O-]
REMARK SMILES IDX 10 1 9 2 11 3 12 4 13 5 14 6 15 7 16 8 17 9 18 10 19 11
REMARK SMILES IDX 20 12 8 13 7 14 6 15 5 16 4 17 3 18 2 19 1 20
REMARK H PARENT
REMARK Flexibility Score: inf
ROOT
ATOM      1  C   UNL     1      27.537  33.154  21.255  1.00  0.00    -0.031 C 
ATOM      2  C   UNL     1      27.466  32.526  20.067  1.00  0.00    -0.031 C 
ENDROOT
BRANCH   1   3
ATOM      3  C   UNL     1      27.477  34.650  21.444  1.00  0.00     0.027 C 
BRANCH   3   4
ATOM      4  C   UNL     1      28.386  35.128  22.589  1.00  0.00     0.004 C 
BRANCH   4   5
ATOM      5  C   UNL     1      29.700  35.782  22.121  1.00  0.00     0.000 C 
BRANCH   5   6
ATOM      6  C   UNL     1      30.880  34.794  22.097  1.00  0.00     0.000 C 
BRANCH   6   7
ATOM      7  C   UNL     1      31.714  34.902  20.811  1.00  0.00     0.000 C 
BRANCH   7   8
ATOM      8  C   UNL     1      31.226  33.950  19.709  1.00  0.00     0.006 C 
BRANCH   8   9
ATOM      9  C   UNL     1      31.059  32.526  20.250  1.00  0.00     0.053 C 
BRANCH   9  10
ATOM     10  C   UNL     1      32.395  31.896  20.486  1.00  0.00     0.041 C 
ATOM     11  O   UNL     1      33.120  31.564  19.511  1.00  0.00    -0.550 OA
ATOM     12  O   UNL     1      32.862  31.719  21.781  1.00  0.00    -0.550 OA
ENDBRANCH   9  10
ENDBRANCH   8   9
ENDBRANCH   7   8
ENDBRANCH   6   7
ENDBRANCH   5   6
ENDBRANCH   4   5
ENDBRANCH   3   4
ENDBRANCH   1   3
BRANCH   2  13
ATOM     13  C   UNL     1      27.216  33.214  18.748  1.00  0.00     0.027 C 
BRANCH  13  14
ATOM     14  C   UNL     1      25.762  33.025  18.304  1.00  0.00     0.004 C 
BRANCH  14  15
ATOM     15  C   UNL     1      25.009  34.365  18.304  1.00  0.00     0.000 C 
BRANCH  15  16
ATOM     16  C   UNL     1      23.697  34.310  19.103  1.00  0.00     0.000 C 
BRANCH  16  17
ATOM     17  C   UNL     1      23.727  33.247  20.216  1.00  0.00    -0.000 C 
BRANCH  17  18
ATOM     18  C   UNL     1      22.450  32.394  20.251  1.00  0.00    -0.000 C 
BRANCH  18  19
ATOM     19  C   UNL     1      21.665  32.449  18.931  1.00  0.00    -0.003 C 
ATOM     20  C   UNL     1      21.771  31.128  18.174  1.00  0.00     0.004 C 
ENDBRANCH  18  19
ENDBRANCH  17  18
ENDBRANCH  16  17
ENDBRANCH  15  16
ENDBRANCH  14  15
ENDBRANCH  13  14
ENDBRANCH   2  13
TORSDOF 15
ENDMDL
MODEL 9
REMARK VINA RESULT:    -3.710     11.324     14.333
REMARK INTER + INTRA:          -9.637
REMARK INTER:                  -6.748
REMARK INTRA:                  -2.888
REMARK UNBOUND:                -2.673
REMARK SMILES CCCCCCCCC=CCCCCCCCC(=O)[O-]
REMARK SMILES IDX 10 1 9 2 11 3 12 4 13 5 14 6 15 7 16 8 17 9 18 10 19 11
REMARK SMILES IDX 20 12 8 13 7 14 6 15 5 16 4 17 3 18 2 19 1 20
REMARK H PARENT
REMARK Flexibility Score: inf
ROOT
ATOM      1  C   UNL     1      22.121  23.586  21.117  1.00  0.00    -0.031 C 
ATOM      2  C   UNL     1      21.196  22.699  20.707  1.00  0.00    -0.031 C 
ENDROOT
BRANCH   1   3
ATOM      3  C   UNL     1      22.280  24.982  20.563  1.00  0.00     0.027 C 
BRANCH   3   4
ATOM      4  C   UNL     1      21.629  26.043  21.465  1.00  0.00     0.004 C 
BRANCH   4   5
ATOM      5  C   UNL     1      20.210  26.456  21.031  1.00  0.00     0.000 C 
BRANCH   5   6
ATOM      6  C   UNL     1      19.190  26.380  22.181  1.00  0.00     0.000 C 
BRANCH   6   7
ATOM      7  C   UNL     1      18.799  24.935  22.527  1.00  0.00     0.000 C 
BRANCH   7   8
ATOM      8  C   UNL     1      18.981  24.615  24.019  1.00  0.00     0.006 C 
BRANCH   8   9
ATOM      9  C   UNL     1      20.155  23.656  24.235  1.00  0.00     0.053 C 
BRANCH   9  10
ATOM     10  C   UNL     1      21.391  24.416  24.601  1.00  0.00     0.041 C 
ATOM     11  O   UNL     1      21.306  25.607  25.002  1.00  0.00    -0.550 OA
ATOM     12  O   UNL     1      22.632  23.796  24.545  1.00  0.00    -0.550 OA
ENDBRANCH   9  10
ENDBRANCH   8   9
ENDBRANCH   7   8
ENDBRANCH   6   7
ENDBRANCH   5   6
ENDBRANCH   4   5
ENDBRANCH   3   4
ENDBRANCH   1   3
BRANCH   2  13
ATOM     13  C   UNL     1      20.112  22.994  19.701  1.00  0.00     0.027 C 
BRANCH  13  14
ATOM     14  C   UNL     1      20.490  22.450  18.320  1.00  0.00     0.004 C 
BRANCH  14  15
ATOM     15  C   UNL     1      20.873  20.964  18.399  1.00  0.00     0.000 C 
BRANCH  15  16
ATOM     16  C   UNL     1      19.683  20.028  18.135  1.00  0.00     0.000 C 
BRANCH  16  17
ATOM     17  C   UNL     1      19.380  19.107  19.330  1.00  0.00    -0.000 C 
BRANCH  17  18
ATOM     18  C   UNL     1      20.501  19.116  20.382  1.00  0.00    -0.000 C 
BRANCH  18  19
ATOM     19  C   UNL     1      19.964  19.231  21.817  1.00  0.00    -0.003 C 
ATOM     20  C   UNL     1      18.783  20.196  21.885  1.00  0.00     0.004 C 
ENDBRANCH  18  19
ENDBRANCH  17  18
ENDBRANCH  16  17
ENDBRANCH  15  16
ENDBRANCH  14  15
ENDBRANCH  13  14
ENDBRANCH   2  13
TORSDOF 15
ENDMDL
