MODEL 1
REMARK VINA RESULT:    -6.634      0.000      0.000
REMARK INTER + INTRA:         -19.966
REMARK INTER:                 -16.717
REMARK INTRA:                  -3.248
REMARK UNBOUND:                -3.248
REMARK SMILES CCCCCCCCCCCCCCCCCCCCCCCCCCCC(=O)[O-]
REMARK SMILES IDX 15 1 16 2 17 3 18 4 19 5 20 6 21 7 22 8 23 9 24 10 25 11
REMARK SMILES IDX 26 12 27 13 28 14 29 15 30 16 14 17 13 18 12 19 11 20 10 21
REMARK SMILES IDX 9 22 8 23 7 24 6 25 5 26 4 27 3 28 2 29 1 30
REMARK H PARENT
REMARK Flexibility Score: inf
ROOT
ATOM      1  C   UNL     1      33.418  -9.699  19.478  1.00  0.00     0.000 C 
ENDROOT
BRANCH   1   2
ATOM      2  C   UNL     1      32.032  -9.284  19.996  1.00  0.00     0.000 C 
BRANCH   2   3
ATOM      3  C   UNL     1      32.065  -9.007  21.506  1.00  0.00     0.000 C 
BRANCH   3   4
ATOM      4  C   UNL     1      30.683  -9.155  22.166  1.00  0.00     0.000 C 
BRANCH   4   5
ATOM      5  C   UNL     1      29.587  -9.546  21.157  1.00  0.00     0.000 C 
BRANCH   5   6
ATOM      6  C   UNL     1      28.341 -10.133  21.840  1.00  0.00     0.000 C 
BRANCH   6   7
ATOM      7  C   UNL     1      27.631 -11.190  20.975  1.00  0.00     0.000 C 
BRANCH   7   8
ATOM      8  C   UNL     1      26.660 -10.572  19.954  1.00  0.00     0.000 C 
BRANCH   8   9
ATOM      9  C   UNL     1      26.448  -9.055  20.098  1.00  0.00     0.000 C 
BRANCH   9  10
ATOM     10  C   UNL     1      25.917  -8.400  18.814  1.00  0.00     0.000 C 
BRANCH  10  11
ATOM     11  C   UNL     1      25.589  -6.920  19.046  1.00  0.00     0.000 C 
BRANCH  11  12
ATOM     12  C   UNL     1      26.674  -6.244  19.895  1.00  0.00     0.006 C 
BRANCH  12  13
ATOM     13  C   UNL     1      26.487  -4.724  19.917  1.00  0.00     0.053 C 
BRANCH  13  14
ATOM     14  C   UNL     1      27.183  -4.093  18.752  1.00  0.00     0.041 C 
ATOM     15  O   UNL     1      28.014  -4.756  18.076  1.00  0.00    -0.550 OA
ATOM     16  O   UNL     1      26.874  -2.791  18.379  1.00  0.00    -0.550 OA
ENDBRANCH  13  14
ENDBRANCH  12  13
ENDBRANCH  11  12
ENDBRANCH  10  11
ENDBRANCH   9  10
ENDBRANCH   8   9
ENDBRANCH   7   8
ENDBRANCH   6   7
ENDBRANCH   5   6
ENDBRANCH   4   5
ENDBRANCH   3   4
ENDBRANCH   2   3
ENDBRANCH   1   2
BRANCH   1  17
ATOM     17  C   UNL     1      34.532  -9.432  20.501  1.00  0.00     0.000 C 
BRANCH  17  18
ATOM     18  C   UNL     1      35.708 -10.416  20.368  1.00  0.00     0.000 C 
BRANCH  18  19
ATOM     19  C   UNL     1      36.826 -10.160  21.395  1.00  0.00     0.000 C 
BRANCH  19  20
ATOM     20  C   UNL     1      36.400  -9.335  22.624  1.00  0.00     0.000 C 
BRANCH  20  21
ATOM     21  C   UNL     1      37.334  -8.144  22.906  1.00  0.00     0.000 C 
BRANCH  21  22
ATOM     22  C   UNL     1      36.560  -6.859  23.274  1.00  0.00    -0.000 C 
BRANCH  22  23
ATOM     23  C   UNL     1      35.036  -6.966  23.066  1.00  0.00    -0.000 C 
BRANCH  23  24
ATOM     24  C   UNL     1      34.492  -6.263  21.811  1.00  0.00    -0.000 C 
BRANCH  24  25
ATOM     25  C   UNL     1      33.852  -4.882  22.055  1.00  0.00    -0.000 C 
BRANCH  25  26
ATOM     26  C   UNL     1      32.311  -4.865  21.922  1.00  0.00    -0.000 C 
BRANCH  26  27
ATOM     27  C   UNL     1      31.569  -5.522  23.099  1.00  0.00    -0.000 C 
BRANCH  27  28
ATOM     28  C   UNL     1      30.105  -5.059  23.216  1.00  0.00    -0.000 C 
BRANCH  28  29
ATOM     29  C   UNL     1      29.132  -6.002  22.491  1.00  0.00    -0.003 C 
ATOM     30  C   UNL     1      28.182  -6.723  23.452  1.00  0.00     0.004 C 
ENDBRANCH  28  29
ENDBRANCH  27  28
ENDBRANCH  26  27
ENDBRANCH  25  26
ENDBRANCH  24  25
ENDBRANCH  23  24
ENDBRANCH  22  23
ENDBRANCH  21  22
ENDBRANCH  20  21
ENDBRANCH  19  20
ENDBRANCH  18  19
ENDBRANCH  17  18
ENDBRANCH   1  17
TORSDOF 26
ENDMDL
MODEL 2
REMARK VINA RESULT:    -6.617      3.942      9.253
REMARK INTER + INTRA:         -19.924
REMARK INTER:                 -16.527
REMARK INTRA:                  -3.397
REMARK UNBOUND:                -3.248
REMARK SMILES CCCCCCCCCCCCCCCCCCCCCCCCCCCC(=O)[O-]
REMARK SMILES IDX 15 1 16 2 17 3 18 4 19 5 20 6 21 7 22 8 23 9 24 10 25 11
REMARK SMILES IDX 26 12 27 13 28 14 29 15 30 16 14 17 13 18 12 19 11 20 10 21
REMARK SMILES IDX 9 22 8 23 7 24 6 25 5 26 4 27 3 28 2 29 1 30
REMARK H PARENT
REMARK Flexibility Score: inf
ROOT
ATOM      1  C   UNL     1      25.884  -6.021  22.890  1.00  0.00     0.000 C 
ENDROOT
BRANCH   1   2
ATOM      2  C   UNL     1      26.208  -5.511  24.303  1.00  0.00     0.000 C 
BRANCH   2   3
ATOM      3  C   UNL     1      27.481  -6.172  24.853  1.00  0.00     0.000 C 
BRANCH   3   4
ATOM      4  C   UNL     1      28.276  -6.919  23.769  1.00  0.00     0.000 C 
BRANCH   4   5
ATOM      5  C   UNL     1      29.703  -6.366  23.599  1.00  0.00     0.000 C 
BRANCH   5   6
ATOM      6  C   UNL     1      30.132  -6.288  22.125  1.00  0.00     0.000 C 
BRANCH   6   7
ATOM      7  C   UNL     1      31.594  -6.717  21.908  1.00  0.00     0.000 C 
BRANCH   7   8
ATOM      8  C   UNL     1      31.734  -8.213  21.576  1.00  0.00     0.000 C 
BRANCH   8   9
ATOM      9  C   UNL     1      33.071  -8.847  21.995  1.00  0.00     0.000 C 
BRANCH   9  10
ATOM     10  C   UNL     1      33.978  -9.179  20.800  1.00  0.00     0.000 C 
BRANCH  10  11
ATOM     11  C   UNL     1      35.458  -9.113  21.196  1.00  0.00     0.000 C 
BRANCH  11  12
ATOM     12  C   UNL     1      36.007 -10.512  21.502  1.00  0.00     0.006 C 
BRANCH  12  13
ATOM     13  C   UNL     1      37.233 -10.822  20.640  1.00  0.00     0.053 C 
BRANCH  13  14
ATOM     14  C   UNL     1      38.456 -10.952  21.494  1.00  0.00     0.041 C 
ATOM     15  O   UNL     1      39.374 -10.093  21.421  1.00  0.00    -0.550 OA
ATOM     16  O   UNL     1      38.557 -11.992  22.409  1.00  0.00    -0.550 OA
ENDBRANCH  13  14
ENDBRANCH  12  13
ENDBRANCH  11  12
ENDBRANCH  10  11
ENDBRANCH   9  10
ENDBRANCH   8   9
ENDBRANCH   7   8
ENDBRANCH   6   7
ENDBRANCH   5   6
ENDBRANCH   4   5
ENDBRANCH   3   4
ENDBRANCH   2   3
ENDBRANCH   1   2
BRANCH   1  17
ATOM     17  C   UNL     1      25.856  -4.892  21.850  1.00  0.00     0.000 C 
BRANCH  17  18
ATOM     18  C   UNL     1      27.175  -4.100  21.798  1.00  0.00     0.000 C 
BRANCH  18  19
ATOM     19  C   UNL     1      27.615  -3.755  20.364  1.00  0.00     0.000 C 
BRANCH  19  20
ATOM     20  C   UNL     1      26.795  -4.440  19.253  1.00  0.00     0.000 C 
BRANCH  20  21
ATOM     21  C   UNL     1      27.672  -5.158  18.211  1.00  0.00     0.000 C 
BRANCH  21  22
ATOM     22  C   UNL     1      27.817  -6.668  18.497  1.00  0.00    -0.000 C 
BRANCH  22  23
ATOM     23  C   UNL     1      26.503  -7.351  18.930  1.00  0.00    -0.000 C 
BRANCH  23  24
ATOM     24  C   UNL     1      26.666  -8.539  19.892  1.00  0.00    -0.000 C 
BRANCH  24  25
ATOM     25  C   UNL     1      28.075  -8.713  20.492  1.00  0.00    -0.000 C 
BRANCH  25  26
ATOM     26  C   UNL     1      28.227  -9.949  21.409  1.00  0.00    -0.000 C 
BRANCH  26  27
ATOM     27  C   UNL     1      27.361 -11.152  20.994  1.00  0.00    -0.000 C 
BRANCH  27  28
ATOM     28  C   UNL     1      28.168 -12.250  20.277  1.00  0.00    -0.000 C 
BRANCH  28  29
ATOM     29  C   UNL     1      27.270 -13.221  19.496  1.00  0.00    -0.003 C 
ATOM     30  C   UNL     1      26.468 -12.526  18.392  1.00  0.00     0.004 C 
ENDBRANCH  28  29
ENDBRANCH  27  28
ENDBRANCH  26  27
ENDBRANCH  25  26
ENDBRANCH  24  25
ENDBRANCH  23  24
ENDBRANCH  22  23
ENDBRANCH  21  22
ENDBRANCH  20  21
ENDBRANCH  19  20
ENDBRANCH  18  19
ENDBRANCH  17  18
ENDBRANCH   1  17
TORSDOF 26
ENDMDL
MODEL 3
REMARK VINA RESULT:    -6.612      2.986      7.379
REMARK INTER + INTRA:         -19.910
REMARK INTER:                 -15.221
REMARK INTRA:                  -4.689
REMARK UNBOUND:                -3.248
REMARK SMILES CCCCCCCCCCCCCCCCCCCCCCCCCCCC(=O)[O-]
REMARK SMILES IDX 15 1 16 2 17 3 18 4 19 5 20 6 21 7 22 8 23 9 24 10 25 11
REMARK SMILES IDX 26 12 27 13 28 14 29 15 30 16 14 17 13 18 12 19 11 20 10 21
REMARK SMILES IDX 9 22 8 23 7 24 6 25 5 26 4 27 3 28 2 29 1 30
REMARK H PARENT
REMARK Flexibility Score: inf
ROOT
ATOM      1  C   UNL     1      27.687  -2.621  19.659  1.00  0.00     0.000 C 
ENDROOT
BRANCH   1   2
ATOM      2  C   UNL     1      26.987  -3.652  18.758  1.00  0.00     0.000 C 
BRANCH   2   3
ATOM      3  C   UNL     1      27.987  -4.685  18.217  1.00  0.00     0.000 C 
BRANCH   3   4
ATOM      4  C   UNL     1      27.503  -6.133  18.406  1.00  0.00     0.000 C 
BRANCH   4   5
ATOM      5  C   UNL     1      26.085  -6.208  19.001  1.00  0.00     0.000 C 
BRANCH   5   6
ATOM      6  C   UNL     1      25.523  -7.638  19.004  1.00  0.00     0.000 C 
BRANCH   6   7
ATOM      7  C   UNL     1      26.608  -8.703  19.251  1.00  0.00     0.000 C 
BRANCH   7   8
ATOM      8  C   UNL     1      26.217  -9.711  20.346  1.00  0.00     0.000 C 
BRANCH   8   9
ATOM      9  C   UNL     1      26.874 -11.095  20.217  1.00  0.00     0.000 C 
BRANCH   9  10
ATOM     10  C   UNL     1      28.272 -11.156  20.851  1.00  0.00     0.000 C 
BRANCH  10  11
ATOM     11  C   UNL     1      28.350 -10.264  22.096  1.00  0.00     0.000 C 
BRANCH  11  12
ATOM     12  C   UNL     1      29.735  -9.615  22.221  1.00  0.00     0.006 C 
BRANCH  12  13
ATOM     13  C   UNL     1      30.294  -9.245  20.844  1.00  0.00     0.053 C 
BRANCH  13  14
ATOM     14  C   UNL     1      31.780  -9.073  20.911  1.00  0.00     0.041 C 
ATOM     15  O   UNL     1      32.310  -8.533  21.917  1.00  0.00    -0.550 OA
ATOM     16  O   UNL     1      32.583  -9.559  19.887  1.00  0.00    -0.550 OA
ENDBRANCH  13  14
ENDBRANCH  12  13
ENDBRANCH  11  12
ENDBRANCH  10  11
ENDBRANCH   9  10
ENDBRANCH   8   9
ENDBRANCH   7   8
ENDBRANCH   6   7
ENDBRANCH   5   6
ENDBRANCH   4   5
ENDBRANCH   3   4
ENDBRANCH   2   3
ENDBRANCH   1   2
BRANCH   1  17
ATOM     17  C   UNL     1      26.843  -2.243  20.885  1.00  0.00     0.000 C 
BRANCH  17  18
ATOM     18  C   UNL     1      26.065  -3.440  21.461  1.00  0.00     0.000 C 
BRANCH  18  19
ATOM     19  C   UNL     1      24.980  -3.022  22.471  1.00  0.00     0.000 C 
BRANCH  19  20
ATOM     20  C   UNL     1      24.717  -4.041  23.596  1.00  0.00     0.000 C 
BRANCH  20  21
ATOM     21  C   UNL     1      25.304  -5.434  23.299  1.00  0.00     0.000 C 
BRANCH  21  22
ATOM     22  C   UNL     1      26.379  -5.854  24.324  1.00  0.00    -0.000 C 
BRANCH  22  23
ATOM     23  C   UNL     1      27.566  -6.621  23.705  1.00  0.00    -0.000 C 
BRANCH  23  24
ATOM     24  C   UNL     1      27.734  -6.459  22.185  1.00  0.00    -0.000 C 
BRANCH  24  25
ATOM     25  C   UNL     1      29.151  -6.075  21.716  1.00  0.00    -0.000 C 
BRANCH  25  26
ATOM     26  C   UNL     1      29.624  -4.685  22.201  1.00  0.00    -0.000 C 
BRANCH  26  27
ATOM     27  C   UNL     1      30.605  -4.730  23.385  1.00  0.00    -0.000 C 
BRANCH  27  28
ATOM     28  C   UNL     1      31.997  -5.257  22.989  1.00  0.00    -0.000 C 
BRANCH  28  29
ATOM     29  C   UNL     1      32.559  -4.550  21.746  1.00  0.00    -0.003 C 
ATOM     30  C   UNL     1      33.689  -5.338  21.079  1.00  0.00     0.004 C 
ENDBRANCH  28  29
ENDBRANCH  27  28
ENDBRANCH  26  27
ENDBRANCH  25  26
ENDBRANCH  24  25
ENDBRANCH  23  24
ENDBRANCH  22  23
ENDBRANCH  21  22
ENDBRANCH  20  21
ENDBRANCH  19  20
ENDBRANCH  18  19
ENDBRANCH  17  18
ENDBRANCH   1  17
TORSDOF 26
ENDMDL
MODEL 4
REMARK VINA RESULT:    -6.597      2.054      5.931
REMARK INTER + INTRA:         -19.872
REMARK INTER:                 -15.702
REMARK INTRA:                  -4.170
REMARK UNBOUND:                -3.248
REMARK SMILES CCCCCCCCCCCCCCCCCCCCCCCCCCCC(=O)[O-]
REMARK SMILES IDX 15 1 16 2 17 3 18 4 19 5 20 6 21 7 22 8 23 9 24 10 25 11
REMARK SMILES IDX 26 12 27 13 28 14 29 15 30 16 14 17 13 18 12 19 11 20 10 21
REMARK SMILES IDX 9 22 8 23 7 24 6 25 5 26 4 27 3 28 2 29 1 30
REMARK H PARENT
REMARK Flexibility Score: inf
ROOT
ATOM      1  C   UNL     1      29.851  -5.257  23.001  1.00  0.00     0.000 C 
ENDROOT
BRANCH   1   2
ATOM      2  C   UNL     1      29.294  -6.672  23.225  1.00  0.00     0.000 C 
BRANCH   2   3
ATOM      3  C   UNL     1      27.830  -6.626  23.685  1.00  0.00     0.000 C 
BRANCH   3   4
ATOM      4  C   UNL     1      27.599  -5.621  24.827  1.00  0.00     0.000 C 
BRANCH   4   5
ATOM      5  C   UNL     1      26.834  -4.368  24.364  1.00  0.00     0.000 C 
BRANCH   5   6
ATOM      6  C   UNL     1      25.584  -4.712  23.539  1.00  0.00     0.000 C 
BRANCH   6   7
ATOM      7  C   UNL     1      25.391  -3.778  22.331  1.00  0.00     0.000 C 
BRANCH   7   8
ATOM      8  C   UNL     1      26.629  -2.910  22.045  1.00  0.00     0.000 C 
BRANCH   8   9
ATOM      9  C   UNL     1      27.486  -3.375  20.856  1.00  0.00     0.000 C 
BRANCH   9  10
ATOM     10  C   UNL     1      26.820  -4.491  20.037  1.00  0.00     0.000 C 
BRANCH  10  11
ATOM     11  C   UNL     1      27.781  -5.667  19.824  1.00  0.00     0.000 C 
BRANCH  11  12
ATOM     12  C   UNL     1      27.477  -6.392  18.507  1.00  0.00     0.006 C 
BRANCH  12  13
ATOM     13  C   UNL     1      26.842  -7.761  18.767  1.00  0.00     0.053 C 
BRANCH  13  14
ATOM     14  C   UNL     1      25.424  -7.603  19.223  1.00  0.00     0.041 C 
ATOM     15  O   UNL     1      24.633  -6.860  18.584  1.00  0.00    -0.550 OA
ATOM     16  O   UNL     1      24.963  -8.319  20.319  1.00  0.00    -0.550 OA
ENDBRANCH  13  14
ENDBRANCH  12  13
ENDBRANCH  11  12
ENDBRANCH  10  11
ENDBRANCH   9  10
ENDBRANCH   8   9
ENDBRANCH   7   8
ENDBRANCH   6   7
ENDBRANCH   5   6
ENDBRANCH   4   5
ENDBRANCH   3   4
ENDBRANCH   2   3
ENDBRANCH   1   2
BRANCH   1  17
ATOM     17  C   UNL     1      30.716  -5.160  21.736  1.00  0.00     0.000 C 
BRANCH  17  18
ATOM     18  C   UNL     1      32.207  -4.939  22.052  1.00  0.00     0.000 C 
BRANCH  18  19
ATOM     19  C   UNL     1      32.911  -6.213  22.554  1.00  0.00     0.000 C 
BRANCH  19  20
ATOM     20  C   UNL     1      34.006  -6.759  21.618  1.00  0.00     0.000 C 
BRANCH  20  21
ATOM     21  C   UNL     1      33.759  -8.216  21.185  1.00  0.00     0.000 C 
BRANCH  21  22
ATOM     22  C   UNL     1      32.390  -8.751  21.659  1.00  0.00    -0.000 C 
BRANCH  22  23
ATOM     23  C   UNL     1      31.415  -9.077  20.509  1.00  0.00    -0.000 C 
BRANCH  23  24
ATOM     24  C   UNL     1      29.922  -8.923  20.849  1.00  0.00    -0.000 C 
BRANCH  24  25
ATOM     25  C   UNL     1      29.274 -10.144  21.533  1.00  0.00    -0.000 C 
BRANCH  25  26
ATOM     26  C   UNL     1      27.734 -10.198  21.405  1.00  0.00    -0.000 C 
BRANCH  26  27
ATOM     27  C   UNL     1      27.226 -11.096  20.264  1.00  0.00    -0.000 C 
BRANCH  27  28
ATOM     28  C   UNL     1      27.960 -12.449  20.195  1.00  0.00    -0.000 C 
BRANCH  28  29
ATOM     29  C   UNL     1      27.343 -13.397  19.156  1.00  0.00    -0.003 C 
ATOM     30  C   UNL     1      26.310 -12.704  18.263  1.00  0.00     0.004 C 
ENDBRANCH  28  29
ENDBRANCH  27  28
ENDBRANCH  26  27
ENDBRANCH  25  26
ENDBRANCH  24  25
ENDBRANCH  23  24
ENDBRANCH  22  23
ENDBRANCH  21  22
ENDBRANCH  20  21
ENDBRANCH  19  20
ENDBRANCH  18  19
ENDBRANCH  17  18
ENDBRANCH   1  17
TORSDOF 26
ENDMDL
MODEL 5
REMARK VINA RESULT:    -6.583      2.439      7.540
REMARK INTER + INTRA:         -19.837
REMARK INTER:                 -16.098
REMARK INTRA:                  -3.739
REMARK UNBOUND:                -3.248
REMARK SMILES CCCCCCCCCCCCCCCCCCCCCCCCCCCC(=O)[O-]
REMARK SMILES IDX 15 1 16 2 17 3 18 4 19 5 20 6 21 7 22 8 23 9 24 10 25 11
REMARK SMILES IDX 26 12 27 13 28 14 29 15 30 16 14 17 13 18 12 19 11 20 10 21
REMARK SMILES IDX 9 22 8 23 7 24 6 25 5 26 4 27 3 28 2 29 1 30
REMARK H PARENT
REMARK Flexibility Score: inf
ROOT
ATOM      1  C   UNL     1      34.170  -8.926  20.991  1.00  0.00     0.000 C 
ENDROOT
BRANCH   1   2
ATOM      2  C   UNL     1      35.155  -9.999  20.499  1.00  0.00     0.000 C 
BRANCH   2   3
ATOM      3  C   UNL     1      36.427 -10.020  21.360  1.00  0.00     0.000 C 
BRANCH   3   4
ATOM      4  C   UNL     1      36.679  -8.684  22.078  1.00  0.00     0.000 C 
BRANCH   4   5
ATOM      5  C   UNL     1      36.868  -8.857  23.596  1.00  0.00     0.000 C 
BRANCH   5   6
ATOM      6  C   UNL     1      36.496  -7.591  24.385  1.00  0.00     0.000 C 
BRANCH   6   7
ATOM      7  C   UNL     1      35.316  -6.826  23.759  1.00  0.00     0.000 C 
BRANCH   7   8
ATOM      8  C   UNL     1      35.460  -5.299  23.888  1.00  0.00     0.000 C 
BRANCH   8   9
ATOM      9  C   UNL     1      34.586  -4.483  22.920  1.00  0.00     0.000 C 
BRANCH   9  10
ATOM     10  C   UNL     1      34.116  -5.297  21.706  1.00  0.00     0.000 C 
BRANCH  10  11
ATOM     11  C   UNL     1      32.593  -5.209  21.540  1.00  0.00     0.000 C 
BRANCH  11  12
ATOM     12  C   UNL     1      31.874  -5.733  22.790  1.00  0.00     0.006 C 
BRANCH  12  13
ATOM     13  C   UNL     1      30.859  -4.711  23.309  1.00  0.00     0.053 C 
BRANCH  13  14
ATOM     14  C   UNL     1      30.940  -4.603  24.801  1.00  0.00     0.041 C 
ATOM     15  O   UNL     1      29.891  -4.465  25.483  1.00  0.00    -0.550 OA
ATOM     16  O   UNL     1      32.168  -4.712  25.440  1.00  0.00    -0.550 OA
ENDBRANCH  13  14
ENDBRANCH  12  13
ENDBRANCH  11  12
ENDBRANCH  10  11
ENDBRANCH   9  10
ENDBRANCH   8   9
ENDBRANCH   7   8
ENDBRANCH   6   7
ENDBRANCH   5   6
ENDBRANCH   4   5
ENDBRANCH   3   4
ENDBRANCH   2   3
ENDBRANCH   1   2
BRANCH   1  17
ATOM     17  C   UNL     1      32.757  -9.121  20.422  1.00  0.00     0.000 C 
BRANCH  17  18
ATOM     18  C   UNL     1      31.657  -8.896  21.475  1.00  0.00     0.000 C 
BRANCH  18  19
ATOM     19  C   UNL     1      30.252  -9.269  20.967  1.00  0.00     0.000 C 
BRANCH  19  20
ATOM     20  C   UNL     1      29.190  -9.439  22.069  1.00  0.00     0.000 C 
BRANCH  20  21
ATOM     21  C   UNL     1      28.489  -8.120  22.443  1.00  0.00     0.000 C 
BRANCH  21  22
ATOM     22  C   UNL     1      28.648  -7.036  21.355  1.00  0.00    -0.000 C 
BRANCH  22  23
ATOM     23  C   UNL     1      27.343  -6.280  21.031  1.00  0.00    -0.000 C 
BRANCH  23  24
ATOM     24  C   UNL     1      26.371  -7.017  20.092  1.00  0.00    -0.000 C 
BRANCH  24  25
ATOM     25  C   UNL     1      27.012  -8.097  19.198  1.00  0.00    -0.000 C 
BRANCH  25  26
ATOM     26  C   UNL     1      26.152  -9.371  19.029  1.00  0.00    -0.000 C 
BRANCH  26  27
ATOM     27  C   UNL     1      26.281 -10.377  20.186  1.00  0.00    -0.000 C 
BRANCH  27  28
ATOM     28  C   UNL     1      27.089 -11.631  19.802  1.00  0.00    -0.000 C 
BRANCH  28  29
ATOM     29  C   UNL     1      26.276 -12.611  18.943  1.00  0.00    -0.003 C 
ATOM     30  C   UNL     1      27.142 -13.708  18.318  1.00  0.00     0.004 C 
ENDBRANCH  28  29
ENDBRANCH  27  28
ENDBRANCH  26  27
ENDBRANCH  25  26
ENDBRANCH  24  25
ENDBRANCH  23  24
ENDBRANCH  22  23
ENDBRANCH  21  22
ENDBRANCH  20  21
ENDBRANCH  19  20
ENDBRANCH  18  19
ENDBRANCH  17  18
ENDBRANCH   1  17
TORSDOF 26
ENDMDL
MODEL 6
REMARK VINA RESULT:    -6.516      1.622      4.826
REMARK INTER + INTRA:         -19.669
REMARK INTER:                 -16.671
REMARK INTRA:                  -2.998
REMARK UNBOUND:                -3.248
REMARK SMILES CCCCCCCCCCCCCCCCCCCCCCCCCCCC(=O)[O-]
REMARK SMILES IDX 15 1 16 2 17 3 18 4 19 5 20 6 21 7 22 8 23 9 24 10 25 11
REMARK SMILES IDX 26 12 27 13 28 14 29 15 30 16 14 17 13 18 12 19 11 20 10 21
REMARK SMILES IDX 9 22 8 23 7 24 6 25 5 26 4 27 3 28 2 29 1 30
REMARK H PARENT
REMARK Flexibility Score: inf
ROOT
ATOM      1  C   UNL     1      32.139  -9.255  20.151  1.00  0.00     0.000 C 
ENDROOT
BRANCH   1   2
ATOM      2  C   UNL     1      31.185  -8.976  21.323  1.00  0.00     0.000 C 
BRANCH   2   3
ATOM      3  C   UNL     1      29.745  -9.382  20.975  1.00  0.00     0.000 C 
BRANCH   3   4
ATOM      4  C   UNL     1      28.889  -9.657  22.223  1.00  0.00     0.000 C 
BRANCH   4   5
ATOM      5  C   UNL     1      27.794 -10.708  21.967  1.00  0.00     0.000 C 
BRANCH   5   6
ATOM      6  C   UNL     1      27.447 -10.845  20.476  1.00  0.00     0.000 C 
BRANCH   6   7
ATOM      7  C   UNL     1      26.128 -10.144  20.106  1.00  0.00     0.000 C 
BRANCH   7   8
ATOM      8  C   UNL     1      26.250  -9.274  18.842  1.00  0.00     0.000 C 
BRANCH   8   9
ATOM      9  C   UNL     1      25.914  -7.786  19.046  1.00  0.00     0.000 C 
BRANCH   9  10
ATOM     10  C   UNL     1      25.391  -7.478  20.456  1.00  0.00     0.000 C 
BRANCH  10  11
ATOM     11  C   UNL     1      26.388  -6.612  21.237  1.00  0.00     0.000 C 
BRANCH  11  12
ATOM     12  C   UNL     1      27.565  -6.193  20.346  1.00  0.00     0.006 C 
BRANCH  12  13
ATOM     13  C   UNL     1      27.679  -4.667  20.269  1.00  0.00     0.053 C 
BRANCH  13  14
ATOM     14  C   UNL     1      27.472  -4.197  18.863  1.00  0.00     0.041 C 
ATOM     15  O   UNL     1      27.995  -4.821  17.902  1.00  0.00    -0.550 OA
ATOM     16  O   UNL     1      26.656  -3.102  18.609  1.00  0.00    -0.550 OA
ENDBRANCH  13  14
ENDBRANCH  12  13
ENDBRANCH  11  12
ENDBRANCH  10  11
ENDBRANCH   9  10
ENDBRANCH   8   9
ENDBRANCH   7   8
ENDBRANCH   6   7
ENDBRANCH   5   6
ENDBRANCH   4   5
ENDBRANCH   3   4
ENDBRANCH   2   3
ENDBRANCH   1   2
BRANCH   1  17
ATOM     17  C   UNL     1      33.609  -9.003  20.517  1.00  0.00     0.000 C 
BRANCH  17  18
ATOM     18  C   UNL     1      33.807  -8.717  22.017  1.00  0.00     0.000 C 
BRANCH  18  19
ATOM     19  C   UNL     1      34.150  -7.245  22.310  1.00  0.00     0.000 C 
BRANCH  19  20
ATOM     20  C   UNL     1      35.643  -6.967  22.566  1.00  0.00     0.000 C 
BRANCH  20  21
ATOM     21  C   UNL     1      35.971  -6.759  24.056  1.00  0.00     0.000 C 
BRANCH  21  22
ATOM     22  C   UNL     1      37.456  -6.406  24.292  1.00  0.00    -0.000 C 
BRANCH  22  23
ATOM     23  C   UNL     1      38.252  -7.506  25.023  1.00  0.00    -0.000 C 
BRANCH  23  24
ATOM     24  C   UNL     1      37.584  -8.892  25.053  1.00  0.00    -0.000 C 
BRANCH  24  25
ATOM     25  C   UNL     1      38.221  -9.949  24.129  1.00  0.00    -0.000 C 
BRANCH  25  26
ATOM     26  C   UNL     1      38.146  -9.603  22.624  1.00  0.00    -0.000 C 
BRANCH  26  27
ATOM     27  C   UNL     1      37.059 -10.371  21.853  1.00  0.00    -0.000 C 
BRANCH  27  28
ATOM     28  C   UNL     1      37.631 -11.241  20.718  1.00  0.00    -0.000 C 
BRANCH  28  29
ATOM     29  C   UNL     1      38.866 -12.041  21.160  1.00  0.00    -0.003 C 
ATOM     30  C   UNL     1      40.107 -11.722  20.323  1.00  0.00     0.004 C 
ENDBRANCH  28  29
ENDBRANCH  27  28
ENDBRANCH  26  27
ENDBRANCH  25  26
ENDBRANCH  24  25
ENDBRANCH  23  24
ENDBRANCH  22  23
ENDBRANCH  21  22
ENDBRANCH  20  21
ENDBRANCH  19  20
ENDBRANCH  18  19
ENDBRANCH  17  18
ENDBRANCH   1  17
TORSDOF 26
ENDMDL
MODEL 7
REMARK VINA RESULT:    -6.503      2.100      7.614
REMARK INTER + INTRA:         -19.636
REMARK INTER:                 -15.744
REMARK INTRA:                  -3.892
REMARK UNBOUND:                -3.248
REMARK SMILES CCCCCCCCCCCCCCCCCCCCCCCCCCCC(=O)[O-]
REMARK SMILES IDX 15 1 16 2 17 3 18 4 19 5 20 6 21 7 22 8 23 9 24 10 25 11
REMARK SMILES IDX 26 12 27 13 28 14 29 15 30 16 14 17 13 18 12 19 11 20 10 21
REMARK SMILES IDX 9 22 8 23 7 24 6 25 5 26 4 27 3 28 2 29 1 30
REMARK H PARENT
REMARK Flexibility Score: inf
ROOT
ATOM      1  C   UNL     1      32.592  -8.845  20.219  1.00  0.00     0.000 C 
ENDROOT
BRANCH   1   2
ATOM      2  C   UNL     1      33.744  -9.693  19.658  1.00  0.00     0.000 C 
BRANCH   2   3
ATOM      3  C   UNL     1      34.963  -9.660  20.591  1.00  0.00     0.000 C 
BRANCH   3   4
ATOM      4  C   UNL     1      36.015 -10.723  20.229  1.00  0.00     0.000 C 
BRANCH   4   5
ATOM      5  C   UNL     1      36.904 -11.105  21.427  1.00  0.00     0.000 C 
BRANCH   5   6
ATOM      6  C   UNL     1      37.860  -9.973  21.835  1.00  0.00     0.000 C 
BRANCH   6   7
ATOM      7  C   UNL     1      38.261 -10.039  23.320  1.00  0.00     0.000 C 
BRANCH   7   8
ATOM      8  C   UNL     1      37.674  -8.883  24.148  1.00  0.00     0.000 C 
BRANCH   8   9
ATOM      9  C   UNL     1      36.878  -7.845  23.339  1.00  0.00     0.000 C 
BRANCH   9  10
ATOM     10  C   UNL     1      35.367  -7.904  23.611  1.00  0.00     0.000 C 
BRANCH  10  11
ATOM     11  C   UNL     1      34.743  -6.504  23.559  1.00  0.00     0.000 C 
BRANCH  11  12
ATOM     12  C   UNL     1      34.613  -6.015  22.110  1.00  0.00     0.006 C 
BRANCH  12  13
ATOM     13  C   UNL     1      33.210  -5.467  21.839  1.00  0.00     0.053 C 
BRANCH  13  14
ATOM     14  C   UNL     1      32.972  -4.219  22.630  1.00  0.00     0.041 C 
ATOM     15  O   UNL     1      33.828  -3.295  22.628  1.00  0.00    -0.550 OA
ATOM     16  O   UNL     1      31.781  -4.052  23.325  1.00  0.00    -0.550 OA
ENDBRANCH  13  14
ENDBRANCH  12  13
ENDBRANCH  11  12
ENDBRANCH  10  11
ENDBRANCH   9  10
ENDBRANCH   8   9
ENDBRANCH   7   8
ENDBRANCH   6   7
ENDBRANCH   5   6
ENDBRANCH   4   5
ENDBRANCH   3   4
ENDBRANCH   2   3
ENDBRANCH   1   2
BRANCH   1  17
ATOM     17  C   UNL     1      32.378  -9.067  21.724  1.00  0.00     0.000 C 
BRANCH  17  18
ATOM     18  C   UNL     1      30.896  -8.982  22.131  1.00  0.00     0.000 C 
BRANCH  18  19
ATOM     19  C   UNL     1      29.935  -9.080  20.933  1.00  0.00     0.000 C 
BRANCH  19  20
ATOM     20  C   UNL     1      28.890 -10.208  21.031  1.00  0.00     0.000 C 
BRANCH  20  21
ATOM     21  C   UNL     1      27.443  -9.686  21.111  1.00  0.00     0.000 C 
BRANCH  21  22
ATOM     22  C   UNL     1      26.641  -9.965  19.821  1.00  0.00    -0.000 C 
BRANCH  22  23
ATOM     23  C   UNL     1      26.150  -8.691  19.103  1.00  0.00    -0.000 C 
BRANCH  23  24
ATOM     24  C   UNL     1      27.227  -7.625  18.843  1.00  0.00    -0.000 C 
BRANCH  24  25
ATOM     25  C   UNL     1      27.057  -6.312  19.634  1.00  0.00    -0.000 C 
BRANCH  25  26
ATOM     26  C   UNL     1      25.829  -6.292  20.573  1.00  0.00    -0.000 C 
BRANCH  26  27
ATOM     27  C   UNL     1      26.180  -6.216  22.069  1.00  0.00    -0.000 C 
BRANCH  27  28
ATOM     28  C   UNL     1      27.696  -6.135  22.325  1.00  0.00    -0.000 C 
BRANCH  28  29
ATOM     29  C   UNL     1      28.129  -6.964  23.544  1.00  0.00    -0.003 C 
ATOM     30  C   UNL     1      28.164  -6.142  24.835  1.00  0.00     0.004 C 
ENDBRANCH  28  29
ENDBRANCH  27  28
ENDBRANCH  26  27
ENDBRANCH  25  26
ENDBRANCH  24  25
ENDBRANCH  23  24
ENDBRANCH  22  23
ENDBRANCH  21  22
ENDBRANCH  20  21
ENDBRANCH  19  20
ENDBRANCH  18  19
ENDBRANCH  17  18
ENDBRANCH   1  17
TORSDOF 26
ENDMDL
MODEL 8
REMARK VINA RESULT:    -6.499      1.213      3.316
REMARK INTER + INTRA:         -19.626
REMARK INTER:                 -16.284
REMARK INTRA:                  -3.343
REMARK UNBOUND:                -3.248
REMARK SMILES CCCCCCCCCCCCCCCCCCCCCCCCCCCC(=O)[O-]
REMARK SMILES IDX 15 1 16 2 17 3 18 4 19 5 20 6 21 7 22 8 23 9 24 10 25 11
REMARK SMILES IDX 26 12 27 13 28 14 29 15 30 16 14 17 13 18 12 19 11 20 10 21
REMARK SMILES IDX 9 22 8 23 7 24 6 25 5 26 4 27 3 28 2 29 1 30
REMARK H PARENT
REMARK Flexibility Score: inf
ROOT
ATOM      1  C   UNL     1      31.075  -8.140  21.731  1.00  0.00     0.000 C 
ENDROOT
BRANCH   1   2
ATOM      2  C   UNL     1      29.900  -9.023  21.281  1.00  0.00     0.000 C 
BRANCH   2   3
ATOM      3  C   UNL     1      29.017  -9.421  22.473  1.00  0.00     0.000 C 
BRANCH   3   4
ATOM      4  C   UNL     1      28.084 -10.601  22.151  1.00  0.00     0.000 C 
BRANCH   4   5
ATOM      5  C   UNL     1      27.927 -10.832  20.637  1.00  0.00     0.000 C 
BRANCH   5   6
ATOM      6  C   UNL     1      26.552 -10.388  20.114  1.00  0.00     0.000 C 
BRANCH   6   7
ATOM      7  C   UNL     1      26.574  -8.972  19.511  1.00  0.00     0.000 C 
BRANCH   7   8
ATOM      8  C   UNL     1      25.284  -8.183  19.793  1.00  0.00     0.000 C 
BRANCH   8   9
ATOM      9  C   UNL     1      25.373  -7.195  20.969  1.00  0.00     0.000 C 
BRANCH   9  10
ATOM     10  C   UNL     1      26.820  -6.863  21.364  1.00  0.00     0.000 C 
BRANCH  10  11
ATOM     11  C   UNL     1      27.108  -5.367  21.193  1.00  0.00     0.000 C 
BRANCH  11  12
ATOM     12  C   UNL     1      28.562  -5.134  20.761  1.00  0.00     0.006 C 
BRANCH  12  13
ATOM     13  C   UNL     1      28.673  -3.916  19.839  1.00  0.00     0.053 C 
BRANCH  13  14
ATOM     14  C   UNL     1      27.795  -4.085  18.638  1.00  0.00     0.041 C 
ATOM     15  O   UNL     1      27.080  -3.128  18.237  1.00  0.00    -0.550 OA
ATOM     16  O   UNL     1      27.808  -5.279  17.930  1.00  0.00    -0.550 OA
ENDBRANCH  13  14
ENDBRANCH  12  13
ENDBRANCH  11  12
ENDBRANCH  10  11
ENDBRANCH   9  10
ENDBRANCH   8   9
ENDBRANCH   7   8
ENDBRANCH   6   7
ENDBRANCH   5   6
ENDBRANCH   4   5
ENDBRANCH   3   4
ENDBRANCH   2   3
ENDBRANCH   1   2
BRANCH   1  17
ATOM     17  C   UNL     1      32.436  -8.819  21.516  1.00  0.00     0.000 C 
BRANCH  17  18
ATOM     18  C   UNL     1      32.649  -9.274  20.061  1.00  0.00     0.000 C 
BRANCH  18  19
ATOM     19  C   UNL     1      34.108  -9.661  19.759  1.00  0.00     0.000 C 
BRANCH  19  20
ATOM     20  C   UNL     1      35.101  -9.385  20.904  1.00  0.00     0.000 C 
BRANCH  20  21
ATOM     21  C   UNL     1      35.999 -10.593  21.230  1.00  0.00     0.000 C 
BRANCH  21  22
ATOM     22  C   UNL     1      37.442 -10.178  21.590  1.00  0.00    -0.000 C 
BRANCH  22  23
ATOM     23  C   UNL     1      37.539  -8.831  22.335  1.00  0.00    -0.000 C 
BRANCH  23  24
ATOM     24  C   UNL     1      37.533  -8.926  23.870  1.00  0.00    -0.000 C 
BRANCH  24  25
ATOM     25  C   UNL     1      37.120  -7.636  24.608  1.00  0.00    -0.000 C 
BRANCH  25  26
ATOM     26  C   UNL     1      36.358  -6.619  23.728  1.00  0.00    -0.000 C 
BRANCH  26  27
ATOM     27  C   UNL     1      34.842  -6.868  23.645  1.00  0.00    -0.000 C 
BRANCH  27  28
ATOM     28  C   UNL     1      34.028  -5.566  23.517  1.00  0.00    -0.000 C 
BRANCH  28  29
ATOM     29  C   UNL     1      34.111  -4.960  22.107  1.00  0.00    -0.003 C 
ATOM     30  C   UNL     1      32.745  -4.874  21.421  1.00  0.00     0.004 C 
ENDBRANCH  28  29
ENDBRANCH  27  28
ENDBRANCH  26  27
ENDBRANCH  25  26
ENDBRANCH  24  25
ENDBRANCH  23  24
ENDBRANCH  22  23
ENDBRANCH  21  22
ENDBRANCH  20  21
ENDBRANCH  19  20
ENDBRANCH  18  19
ENDBRANCH  17  18
ENDBRANCH   1  17
TORSDOF 26
ENDMDL
MODEL 9
REMARK VINA RESULT:    -6.499      2.017      4.233
REMARK INTER + INTRA:         -19.625
REMARK INTER:                 -17.023
REMARK INTRA:                  -2.602
REMARK UNBOUND:                -3.248
REMARK SMILES CCCCCCCCCCCCCCCCCCCCCCCCCCCC(=O)[O-]
REMARK SMILES IDX 15 1 16 2 17 3 18 4 19 5 20 6 21 7 22 8 23 9 24 10 25 11
REMARK SMILES IDX 26 12 27 13 28 14 29 15 30 16 14 17 13 18 12 19 11 20 10 21
REMARK SMILES IDX 9 22 8 23 7 24 6 25 5 26 4 27 3 28 2 29 1 30
REMARK H PARENT
REMARK Flexibility Score: inf
ROOT
ATOM      1  C   UNL     1      34.801 -10.379  19.899  1.00  0.00     0.000 C 
ENDROOT
BRANCH   1   2
ATOM      2  C   UNL     1      33.478  -9.649  19.618  1.00  0.00     0.000 C 
BRANCH   2   3
ATOM      3  C   UNL     1      33.258  -8.499  20.611  1.00  0.00     0.000 C 
BRANCH   3   4
ATOM      4  C   UNL     1      32.165  -8.813  21.648  1.00  0.00     0.000 C 
BRANCH   4   5
ATOM      5  C   UNL     1      30.765  -8.915  21.017  1.00  0.00     0.000 C 
BRANCH   5   6
ATOM      6  C   UNL     1      29.761  -9.640  21.926  1.00  0.00     0.000 C 
BRANCH   6   7
ATOM      7  C   UNL     1      28.488 -10.077  21.178  1.00  0.00     0.000 C 
BRANCH   7   8
ATOM      8  C   UNL     1      27.522  -8.909  20.913  1.00  0.00     0.000 C 
BRANCH   8   9
ATOM      9  C   UNL     1      26.424  -9.200  19.875  1.00  0.00     0.000 C 
BRANCH   9  10
ATOM     10  C   UNL     1      26.370  -8.153  18.752  1.00  0.00     0.000 C 
BRANCH  10  11
ATOM     11  C   UNL     1      27.439  -7.072  18.955  1.00  0.00     0.000 C 
BRANCH  11  12
ATOM     12  C   UNL     1      26.853  -5.672  18.735  1.00  0.00     0.006 C 
BRANCH  12  13
ATOM     13  C   UNL     1      27.915  -4.710  18.194  1.00  0.00     0.053 C 
BRANCH  13  14
ATOM     14  C   UNL     1      28.394  -3.796  19.278  1.00  0.00     0.041 C 
ATOM     15  O   UNL     1      29.302  -4.170  20.067  1.00  0.00    -0.550 OA
ATOM     16  O   UNL     1      27.879  -2.510  19.382  1.00  0.00    -0.550 OA
ENDBRANCH  13  14
ENDBRANCH  12  13
ENDBRANCH  11  12
ENDBRANCH  10  11
ENDBRANCH   9  10
ENDBRANCH   8   9
ENDBRANCH   7   8
ENDBRANCH   6   7
ENDBRANCH   5   6
ENDBRANCH   4   5
ENDBRANCH   3   4
ENDBRANCH   2   3
ENDBRANCH   1   2
BRANCH   1  17
ATOM     17  C   UNL     1      35.625  -9.698  21.001  1.00  0.00     0.000 C 
BRANCH  17  18
ATOM     18  C   UNL     1      36.627 -10.655  21.671  1.00  0.00     0.000 C 
BRANCH  18  19
ATOM     19  C   UNL     1      37.740 -11.126  20.717  1.00  0.00     0.000 C 
BRANCH  19  20
ATOM     20  C   UNL     1      38.610 -12.278  21.255  1.00  0.00     0.000 C 
BRANCH  20  21
ATOM     21  C   UNL     1      40.120 -12.008  21.124  1.00  0.00     0.000 C 
BRANCH  21  22
ATOM     22  C   UNL     1      40.838 -11.982  22.491  1.00  0.00    -0.000 C 
BRANCH  22  23
ATOM     23  C   UNL     1      41.271 -10.573  22.944  1.00  0.00    -0.000 C 
BRANCH  23  24
ATOM     24  C   UNL     1      40.121  -9.593  23.233  1.00  0.00    -0.000 C 
BRANCH  24  25
ATOM     25  C   UNL     1      39.113 -10.059  24.302  1.00  0.00    -0.000 C 
BRANCH  25  26
ATOM     26  C   UNL     1      38.438  -8.907  25.083  1.00  0.00    -0.000 C 
BRANCH  26  27
ATOM     27  C   UNL     1      37.002  -8.593  24.629  1.00  0.00    -0.000 C 
BRANCH  27  28
ATOM     28  C   UNL     1      36.918  -7.345  23.731  1.00  0.00    -0.000 C 
BRANCH  28  29
ATOM     29  C   UNL     1      35.631  -6.540  23.968  1.00  0.00    -0.003 C 
ATOM     30  C   UNL     1      34.889  -6.217  22.668  1.00  0.00     0.004 C 
ENDBRANCH  28  29
ENDBRANCH  27  28
ENDBRANCH  26  27
ENDBRANCH  25  26
ENDBRANCH  24  25
ENDBRANCH  23  24
ENDBRANCH  22  23
ENDBRANCH  21  22
ENDBRANCH  20  21
ENDBRANCH  19  20
ENDBRANCH  18  19
ENDBRANCH  17  18
ENDBRANCH   1  17
TORSDOF 26
ENDMDL
