MODEL 1
REMARK VINA RESULT:    -1.388      0.000      0.000
REMARK INTER + INTRA:          -4.032
REMARK INTER:                  -3.174
REMARK INTRA:                  -0.858
REMARK UNBOUND:                -0.858
REMARK SMILES CCCCCCCCCCCCCCCCCCCCCCCC(=O)[O-]
REMARK SMILES IDX 13 1 14 2 15 3 16 4 17 5 18 6 19 7 20 8 21 9 22 10 23 11
REMARK SMILES IDX 24 12 25 13 26 14 12 15 11 16 10 17 9 18 8 19 7 20 6 21 5 22
REMARK SMILES IDX 4 23 3 24 2 25 1 26
REMARK H PARENT
REMARK Flexibility Score: inf
ROOT
ATOM      1  C   UNL     1     -12.180 -11.795 -10.635  1.00  0.00     0.000 C 
ENDROOT
BRANCH   1   2
ATOM      2  C   UNL     1     -12.584 -10.763  -9.565  1.00  0.00     0.000 C 
BRANCH   2   3
ATOM      3  C   UNL     1     -12.063  -9.332  -9.804  1.00  0.00     0.000 C 
BRANCH   3   4
ATOM      4  C   UNL     1     -11.508  -9.066 -11.218  1.00  0.00     0.000 C 
BRANCH   4   5
ATOM      5  C   UNL     1     -12.294  -8.025 -12.042  1.00  0.00     0.000 C 
BRANCH   5   6
ATOM      6  C   UNL     1     -13.799  -7.954 -11.726  1.00  0.00     0.000 C 
BRANCH   6   7
ATOM      7  C   UNL     1     -14.402  -6.566 -12.005  1.00  0.00     0.000 C 
BRANCH   7   8
ATOM      8  C   UNL     1     -13.582  -5.431 -11.372  1.00  0.00     0.000 C 
BRANCH   8   9
ATOM      9  C   UNL     1     -14.421  -4.165 -11.126  1.00  0.00     0.000 C 
BRANCH   9  10
ATOM     10  C   UNL     1     -15.583  -4.008 -12.124  1.00  0.00     0.006 C 
BRANCH  10  11
ATOM     11  C   UNL     1     -16.917  -3.610 -11.469  1.00  0.00     0.053 C 
BRANCH  11  12
ATOM     12  C   UNL     1     -17.978  -4.655 -11.645  1.00  0.00     0.041 C 
ATOM     13  O   UNL     1     -19.183  -4.316 -11.779  1.00  0.00    -0.550 OA
ATOM     14  O   UNL     1     -17.641  -6.003 -11.627  1.00  0.00    -0.550 OA
ENDBRANCH  11  12
ENDBRANCH  10  11
ENDBRANCH   9  10
ENDBRANCH   8   9
ENDBRANCH   7   8
ENDBRANCH   6   7
ENDBRANCH   5   6
ENDBRANCH   4   5
ENDBRANCH   3   4
ENDBRANCH   2   3
ENDBRANCH   1   2
BRANCH   1  15
ATOM     15  C   UNL     1     -13.190 -12.947 -10.764  1.00  0.00     0.000 C 
BRANCH  15  16
ATOM     16  C   UNL     1     -14.414 -12.575 -11.621  1.00  0.00     0.000 C 
BRANCH  16  17
ATOM     17  C   UNL     1     -15.782 -12.804 -10.946  1.00  0.00     0.000 C 
BRANCH  17  18
ATOM     18  C   UNL     1     -17.007 -12.392 -11.786  1.00  0.00    -0.000 C 
BRANCH  18  19
ATOM     19  C   UNL     1     -18.336 -13.039 -11.359  1.00  0.00    -0.000 C 
BRANCH  19  20
ATOM     20  C   UNL     1     -19.561 -12.351 -11.978  1.00  0.00    -0.000 C 
BRANCH  20  21
ATOM     21  C   UNL     1     -20.321 -11.534 -10.927  1.00  0.00    -0.000 C 
BRANCH  21  22
ATOM     22  C   UNL     1     -20.598 -12.370  -9.671  1.00  0.00    -0.000 C 
BRANCH  22  23
ATOM     23  C   UNL     1     -19.323 -12.547  -8.834  1.00  0.00    -0.000 C 
BRANCH  23  24
ATOM     24  C   UNL     1     -19.276 -11.605  -7.621  1.00  0.00    -0.000 C 
BRANCH  24  25
ATOM     25  C   UNL     1     -20.674 -11.159  -7.164  1.00  0.00    -0.003 C 
ATOM     26  C   UNL     1     -20.981 -11.672  -5.760  1.00  0.00     0.004 C 
ENDBRANCH  24  25
ENDBRANCH  23  24
ENDBRANCH  22  23
ENDBRANCH  21  22
ENDBRANCH  20  21
ENDBRANCH  19  20
ENDBRANCH  18  19
ENDBRANCH  17  18
ENDBRANCH  16  17
ENDBRANCH  15  16
ENDBRANCH   1  15
TORSDOF 22
ENDMDL
MODEL 2
REMARK VINA RESULT:    -0.697      6.273      8.550
REMARK INTER + INTRA:          -2.450
REMARK INTER:                  -1.330
REMARK INTRA:                  -1.120
REMARK UNBOUND:                -0.858
REMARK SMILES CCCCCCCCCCCCCCCCCCCCCCCC(=O)[O-]
REMARK SMILES IDX 13 1 14 2 15 3 16 4 17 5 18 6 19 7 20 8 21 9 22 10 23 11
REMARK SMILES IDX 24 12 25 13 26 14 12 15 11 16 10 17 9 18 8 19 7 20 6 21 5 22
REMARK SMILES IDX 4 23 3 24 2 25 1 26
REMARK H PARENT
REMARK Flexibility Score: inf
ROOT
ATOM      1  C   UNL     1     -12.138  -9.695  -9.973  1.00  0.00     0.000 C 
ENDROOT
BRANCH   1   2
ATOM      2  C   UNL     1     -11.217  -9.687 -11.207  1.00  0.00     0.000 C 
BRANCH   2   3
ATOM      3  C   UNL     1     -11.250 -10.972 -12.058  1.00  0.00     0.000 C 
BRANCH   3   4
ATOM      4  C   UNL     1      -9.919 -11.749 -12.120  1.00  0.00     0.000 C 
BRANCH   4   5
ATOM      5  C   UNL     1      -8.651 -10.871 -12.107  1.00  0.00     0.000 C 
BRANCH   5   6
ATOM      6  C   UNL     1      -7.331 -11.643 -11.924  1.00  0.00     0.000 C 
BRANCH   6   7
ATOM      7  C   UNL     1      -6.104 -10.719 -11.862  1.00  0.00     0.000 C 
BRANCH   7   8
ATOM      8  C   UNL     1      -5.196 -11.026 -10.660  1.00  0.00     0.000 C 
BRANCH   8   9
ATOM      9  C   UNL     1      -3.721 -11.196 -11.064  1.00  0.00     0.000 C 
BRANCH   9  10
ATOM     10  C   UNL     1      -2.853 -11.787  -9.939  1.00  0.00     0.006 C 
BRANCH  10  11
ATOM     11  C   UNL     1      -1.528 -11.037  -9.715  1.00  0.00     0.053 C 
BRANCH  11  12
ATOM     12  C   UNL     1      -1.697  -9.547  -9.759  1.00  0.00     0.041 C 
ATOM     13  O   UNL     1      -2.465  -8.974  -8.943  1.00  0.00    -0.550 OA
ATOM     14  O   UNL     1      -1.033  -8.797 -10.722  1.00  0.00    -0.550 OA
ENDBRANCH  11  12
ENDBRANCH  10  11
ENDBRANCH   9  10
ENDBRANCH   8   9
ENDBRANCH   7   8
ENDBRANCH   6   7
ENDBRANCH   5   6
ENDBRANCH   4   5
ENDBRANCH   3   4
ENDBRANCH   2   3
ENDBRANCH   1   2
BRANCH   1  15
ATOM     15  C   UNL     1     -13.629  -9.769 -10.341  1.00  0.00     0.000 C 
BRANCH  15  16
ATOM     16  C   UNL     1     -14.233 -11.167 -10.111  1.00  0.00     0.000 C 
BRANCH  16  17
ATOM     17  C   UNL     1     -14.902 -11.804 -11.346  1.00  0.00     0.000 C 
BRANCH  17  18
ATOM     18  C   UNL     1     -15.910 -12.930 -11.040  1.00  0.00    -0.000 C 
BRANCH  18  19
ATOM     19  C   UNL     1     -17.024 -13.107 -12.086  1.00  0.00    -0.000 C 
BRANCH  19  20
ATOM     20  C   UNL     1     -18.431 -13.074 -11.472  1.00  0.00    -0.000 C 
BRANCH  20  21
ATOM     21  C   UNL     1     -18.462 -12.189 -10.221  1.00  0.00    -0.000 C 
BRANCH  21  22
ATOM     22  C   UNL     1     -19.904 -11.881  -9.798  1.00  0.00    -0.000 C 
BRANCH  22  23
ATOM     23  C   UNL     1     -20.523 -13.069  -9.045  1.00  0.00    -0.000 C 
BRANCH  23  24
ATOM     24  C   UNL     1     -20.190 -13.057  -7.546  1.00  0.00    -0.000 C 
BRANCH  24  25
ATOM     25  C   UNL     1     -20.290 -11.654  -6.928  1.00  0.00    -0.003 C 
ATOM     26  C   UNL     1     -20.870 -11.716  -5.518  1.00  0.00     0.004 C 
ENDBRANCH  24  25
ENDBRANCH  23  24
ENDBRANCH  22  23
ENDBRANCH  21  22
ENDBRANCH  20  21
ENDBRANCH  19  20
ENDBRANCH  18  19
ENDBRANCH  17  18
ENDBRANCH  16  17
ENDBRANCH  15  16
ENDBRANCH   1  15
TORSDOF 22
ENDMDL
MODEL 3
REMARK VINA RESULT:    -0.445      5.482     11.145
REMARK INTER + INTRA:          -1.875
REMARK INTER:                  -0.804
REMARK INTRA:                  -1.071
REMARK UNBOUND:                -0.858
REMARK SMILES CCCCCCCCCCCCCCCCCCCCCCCC(=O)[O-]
REMARK SMILES IDX 13 1 14 2 15 3 16 4 17 5 18 6 19 7 20 8 21 9 22 10 23 11
REMARK SMILES IDX 24 12 25 13 26 14 12 15 11 16 10 17 9 18 8 19 7 20 6 21 5 22
REMARK SMILES IDX 4 23 3 24 2 25 1 26
REMARK H PARENT
REMARK Flexibility Score: inf
ROOT
ATOM      1  C   UNL     1     -11.883 -10.219 -10.109  1.00  0.00     0.000 C 
ENDROOT
BRANCH   1   2
ATOM      2  C   UNL     1     -13.350 -10.680 -10.024  1.00  0.00     0.000 C 
BRANCH   2   3
ATOM      3  C   UNL     1     -13.919 -11.299 -11.316  1.00  0.00     0.000 C 
BRANCH   3   4
ATOM      4  C   UNL     1     -15.458 -11.378 -11.380  1.00  0.00     0.000 C 
BRANCH   4   5
ATOM      5  C   UNL     1     -16.025 -12.766 -11.744  1.00  0.00     0.000 C 
BRANCH   5   6
ATOM      6  C   UNL     1     -17.517 -12.777 -12.121  1.00  0.00     0.000 C 
BRANCH   6   7
ATOM      7  C   UNL     1     -18.321 -11.680 -11.403  1.00  0.00     0.000 C 
BRANCH   7   8
ATOM      8  C   UNL     1     -19.132 -12.225 -10.218  1.00  0.00     0.000 C 
BRANCH   8   9
ATOM      9  C   UNL     1     -18.458 -11.943  -8.864  1.00  0.00     0.000 C 
BRANCH   9  10
ATOM     10  C   UNL     1     -19.139 -12.667  -7.689  1.00  0.00     0.006 C 
BRANCH  10  11
ATOM     11  C   UNL     1     -20.635 -12.342  -7.540  1.00  0.00     0.053 C 
BRANCH  11  12
ATOM     12  C   UNL     1     -20.900 -11.336  -6.460  1.00  0.00     0.041 C 
ATOM     13  O   UNL     1     -21.039 -11.711  -5.266  1.00  0.00    -0.550 OA
ATOM     14  O   UNL     1     -21.027  -9.988  -6.776  1.00  0.00    -0.550 OA
ENDBRANCH  11  12
ENDBRANCH  10  11
ENDBRANCH   9  10
ENDBRANCH   8   9
ENDBRANCH   7   8
ENDBRANCH   6   7
ENDBRANCH   5   6
ENDBRANCH   4   5
ENDBRANCH   3   4
ENDBRANCH   2   3
ENDBRANCH   1   2
BRANCH   1  15
ATOM     15  C   UNL     1     -11.446  -9.881 -11.544  1.00  0.00     0.000 C 
BRANCH  15  16
ATOM     16  C   UNL     1     -10.398 -10.865 -12.097  1.00  0.00     0.000 C 
BRANCH  16  17
ATOM     17  C   UNL     1      -8.949 -10.337 -12.112  1.00  0.00     0.000 C 
BRANCH  17  18
ATOM     18  C   UNL     1      -7.912 -11.245 -11.421  1.00  0.00    -0.000 C 
BRANCH  18  19
ATOM     19  C   UNL     1      -6.463 -11.063 -11.906  1.00  0.00    -0.000 C 
BRANCH  19  20
ATOM     20  C   UNL     1      -5.434 -11.189 -10.773  1.00  0.00    -0.000 C 
BRANCH  20  21
ATOM     21  C   UNL     1      -4.226 -12.020 -11.219  1.00  0.00    -0.000 C 
BRANCH  21  22
ATOM     22  C   UNL     1      -3.026 -11.794 -10.291  1.00  0.00    -0.000 C 
BRANCH  22  23
ATOM     23  C   UNL     1      -2.008 -10.837 -10.929  1.00  0.00    -0.000 C 
BRANCH  23  24
ATOM     24  C   UNL     1      -2.390  -9.360 -10.747  1.00  0.00    -0.000 C 
BRANCH  24  25
ATOM     25  C   UNL     1      -2.111  -8.847  -9.326  1.00  0.00    -0.003 C 
ATOM     26  C   UNL     1      -1.013  -7.788  -9.330  1.00  0.00     0.004 C 
ENDBRANCH  24  25
ENDBRANCH  23  24
ENDBRANCH  22  23
ENDBRANCH  21  22
ENDBRANCH  20  21
ENDBRANCH  19  20
ENDBRANCH  18  19
ENDBRANCH  17  18
ENDBRANCH  16  17
ENDBRANCH  15  16
ENDBRANCH   1  15
TORSDOF 22
ENDMDL
MODEL 4
REMARK VINA RESULT:     0.144      6.748      9.061
REMARK INTER + INTRA:          -0.529
REMARK INTER:                   0.410
REMARK INTRA:                  -0.939
REMARK UNBOUND:                -0.858
REMARK SMILES CCCCCCCCCCCCCCCCCCCCCCCC(=O)[O-]
REMARK SMILES IDX 13 1 14 2 15 3 16 4 17 5 18 6 19 7 20 8 21 9 22 10 23 11
REMARK SMILES IDX 24 12 25 13 26 14 12 15 11 16 10 17 9 18 8 19 7 20 6 21 5 22
REMARK SMILES IDX 4 23 3 24 2 25 1 26
REMARK H PARENT
REMARK Flexibility Score: inf
ROOT
ATOM      1  C   UNL     1     -10.889  -9.265 -10.985  1.00  0.00     0.000 C 
ENDROOT
BRANCH   1   2
ATOM      2  C   UNL     1      -9.838  -9.838 -11.953  1.00  0.00     0.000 C 
BRANCH   2   3
ATOM      3  C   UNL     1      -9.807 -11.376 -12.051  1.00  0.00     0.000 C 
BRANCH   3   4
ATOM      4  C   UNL     1      -8.397 -12.000 -12.099  1.00  0.00     0.000 C 
BRANCH   4   5
ATOM      5  C   UNL     1      -7.235 -10.995 -11.960  1.00  0.00     0.000 C 
BRANCH   5   6
ATOM      6  C   UNL     1      -5.954 -11.572 -11.330  1.00  0.00     0.000 C 
BRANCH   6   7
ATOM      7  C   UNL     1      -5.209 -10.551 -10.453  1.00  0.00     0.000 C 
BRANCH   7   8
ATOM      8  C   UNL     1      -4.254  -9.663 -11.265  1.00  0.00     0.000 C 
BRANCH   8   9
ATOM      9  C   UNL     1      -2.933  -9.390 -10.526  1.00  0.00     0.000 C 
BRANCH   9  10
ATOM     10  C   UNL     1      -1.720  -9.307 -11.470  1.00  0.00     0.006 C 
BRANCH  10  11
ATOM     11  C   UNL     1      -0.963 -10.637 -11.630  1.00  0.00     0.053 C 
BRANCH  11  12
ATOM     12  C   UNL     1      -1.487 -11.709 -10.721  1.00  0.00     0.041 C 
ATOM     13  O   UNL     1      -1.099 -11.768  -9.525  1.00  0.00    -0.550 OA
ATOM     14  O   UNL     1      -2.376 -12.661 -11.203  1.00  0.00    -0.550 OA
ENDBRANCH  11  12
ENDBRANCH  10  11
ENDBRANCH   9  10
ENDBRANCH   8   9
ENDBRANCH   7   8
ENDBRANCH   6   7
ENDBRANCH   5   6
ENDBRANCH   4   5
ENDBRANCH   3   4
ENDBRANCH   2   3
ENDBRANCH   1   2
BRANCH   1  15
ATOM     15  C   UNL     1     -12.332  -9.521 -11.450  1.00  0.00     0.000 C 
BRANCH  15  16
ATOM     16  C   UNL     1     -13.344  -9.515 -10.290  1.00  0.00     0.000 C 
BRANCH  16  17
ATOM     17  C   UNL     1     -14.494 -10.535 -10.418  1.00  0.00     0.000 C 
BRANCH  17  18
ATOM     18  C   UNL     1     -14.108 -11.999 -10.129  1.00  0.00    -0.000 C 
BRANCH  18  19
ATOM     19  C   UNL     1     -14.788 -13.041 -11.034  1.00  0.00    -0.000 C 
BRANCH  19  20
ATOM     20  C   UNL     1     -16.272 -12.736 -11.284  1.00  0.00    -0.000 C 
BRANCH  20  21
ATOM     21  C   UNL     1     -17.095 -12.927 -10.005  1.00  0.00    -0.000 C 
BRANCH  21  22
ATOM     22  C   UNL     1     -18.320 -12.004  -9.993  1.00  0.00    -0.000 C 
BRANCH  22  23
ATOM     23  C   UNL     1     -19.511 -12.680  -9.298  1.00  0.00    -0.000 C 
BRANCH  23  24
ATOM     24  C   UNL     1     -19.414 -12.620  -7.766  1.00  0.00    -0.000 C 
BRANCH  24  25
ATOM     25  C   UNL     1     -20.791 -12.621  -7.085  1.00  0.00    -0.003 C 
ATOM     26  C   UNL     1     -20.688 -12.153  -5.637  1.00  0.00     0.004 C 
ENDBRANCH  24  25
ENDBRANCH  23  24
ENDBRANCH  22  23
ENDBRANCH  21  22
ENDBRANCH  20  21
ENDBRANCH  19  20
ENDBRANCH  18  19
ENDBRANCH  17  18
ENDBRANCH  16  17
ENDBRANCH  15  16
ENDBRANCH   1  15
TORSDOF 22
ENDMDL
MODEL 5
REMARK VINA RESULT:     0.743      1.112      2.201
REMARK INTER + INTRA:           0.840
REMARK INTER:                  -2.881
REMARK INTRA:                   3.722
REMARK UNBOUND:                -0.858
REMARK SMILES CCCCCCCCCCCCCCCCCCCCCCCC(=O)[O-]
REMARK SMILES IDX 13 1 14 2 15 3 16 4 17 5 18 6 19 7 20 8 21 9 22 10 23 11
REMARK SMILES IDX 24 12 25 13 26 14 12 15 11 16 10 17 9 18 8 19 7 20 6 21 5 22
REMARK SMILES IDX 4 23 3 24 2 25 1 26
REMARK H PARENT
REMARK Flexibility Score: inf
ROOT
ATOM      1  C   UNL     1     -12.093  -9.585 -10.350  1.00  0.00     0.000 C 
ENDROOT
BRANCH   1   2
ATOM      2  C   UNL     1     -12.337  -8.206 -10.990  1.00  0.00     0.000 C 
BRANCH   2   3
ATOM      3  C   UNL     1     -13.382  -8.184 -12.123  1.00  0.00     0.000 C 
BRANCH   3   4
ATOM      4  C   UNL     1     -14.552  -9.175 -11.953  1.00  0.00     0.000 C 
BRANCH   4   5
ATOM      5  C   UNL     1     -15.949  -8.526 -11.877  1.00  0.00     0.000 C 
BRANCH   5   6
ATOM      6  C   UNL     1     -15.966  -7.000 -12.077  1.00  0.00     0.000 C 
BRANCH   6   7
ATOM      7  C   UNL     1     -14.574  -6.364 -11.921  1.00  0.00     0.000 C 
BRANCH   7   8
ATOM      8  C   UNL     1     -14.569  -5.196 -10.923  1.00  0.00     0.000 C 
BRANCH   8   9
ATOM      9  C   UNL     1     -14.589  -3.825 -11.620  1.00  0.00     0.000 C 
BRANCH   9  10
ATOM     10  C   UNL     1     -15.988  -3.425 -12.123  1.00  0.00     0.006 C 
BRANCH  10  11
ATOM     11  C   UNL     1     -17.121  -3.741 -11.131  1.00  0.00     0.053 C 
BRANCH  11  12
ATOM     12  C   UNL     1     -18.316  -4.353 -11.799  1.00  0.00     0.041 C 
ATOM     13  O   UNL     1     -19.303  -3.637 -12.108  1.00  0.00    -0.550 OA
ATOM     14  O   UNL     1     -18.353  -5.719 -12.049  1.00  0.00    -0.550 OA
ENDBRANCH  11  12
ENDBRANCH  10  11
ENDBRANCH   9  10
ENDBRANCH   8   9
ENDBRANCH   7   8
ENDBRANCH   6   7
ENDBRANCH   5   6
ENDBRANCH   4   5
ENDBRANCH   3   4
ENDBRANCH   2   3
ENDBRANCH   1   2
BRANCH   1  15
ATOM     15  C   UNL     1     -13.283 -10.071  -9.507  1.00  0.00     0.000 C 
BRANCH  15  16
ATOM     16  C   UNL     1     -13.756 -11.483  -9.899  1.00  0.00     0.000 C 
BRANCH  16  17
ATOM     17  C   UNL     1     -13.563 -11.851 -11.384  1.00  0.00     0.000 C 
BRANCH  17  18
ATOM     18  C   UNL     1     -14.489 -12.966 -11.910  1.00  0.00    -0.000 C 
BRANCH  18  19
ATOM     19  C   UNL     1     -15.990 -12.731 -11.671  1.00  0.00    -0.000 C 
BRANCH  19  20
ATOM     20  C   UNL     1     -16.266 -11.812 -10.472  1.00  0.00    -0.000 C 
BRANCH  20  21
ATOM     21  C   UNL     1     -17.250 -12.466  -9.494  1.00  0.00    -0.000 C 
BRANCH  21  22
ATOM     22  C   UNL     1     -18.560 -11.673  -9.416  1.00  0.00    -0.000 C 
BRANCH  22  23
ATOM     23  C   UNL     1     -19.768 -12.574  -9.716  1.00  0.00    -0.000 C 
BRANCH  23  24
ATOM     24  C   UNL     1     -20.833 -12.522  -8.610  1.00  0.00    -0.000 C 
BRANCH  24  25
ATOM     25  C   UNL     1     -20.223 -12.422  -7.204  1.00  0.00    -0.003 C 
ATOM     26  C   UNL     1     -20.959 -11.387  -6.359  1.00  0.00     0.004 C 
ENDBRANCH  24  25
ENDBRANCH  23  24
ENDBRANCH  22  23
ENDBRANCH  21  22
ENDBRANCH  20  21
ENDBRANCH  19  20
ENDBRANCH  18  19
ENDBRANCH  17  18
ENDBRANCH  16  17
ENDBRANCH  15  16
ENDBRANCH   1  15
TORSDOF 22
ENDMDL
MODEL 6
REMARK VINA RESULT:     1.073      1.640      2.785
REMARK INTER + INTRA:           1.594
REMARK INTER:                   2.618
REMARK INTRA:                  -1.024
REMARK UNBOUND:                -0.858
REMARK SMILES CCCCCCCCCCCCCCCCCCCCCCCC(=O)[O-]
REMARK SMILES IDX 13 1 14 2 15 3 16 4 17 5 18 6 19 7 20 8 21 9 22 10 23 11
REMARK SMILES IDX 24 12 25 13 26 14 12 15 11 16 10 17 9 18 8 19 7 20 6 21 5 22
REMARK SMILES IDX 4 23 3 24 2 25 1 26
REMARK H PARENT
REMARK Flexibility Score: inf
ROOT
ATOM      1  C   UNL     1     -12.548  -8.934  -8.502  1.00  0.00     0.000 C 
ENDROOT
BRANCH   1   2
ATOM      2  C   UNL     1     -12.718  -7.912  -9.641  1.00  0.00     0.000 C 
BRANCH   2   3
ATOM      3  C   UNL     1     -12.022  -8.283 -10.965  1.00  0.00     0.000 C 
BRANCH   3   4
ATOM      4  C   UNL     1     -12.971  -8.679 -12.114  1.00  0.00     0.000 C 
BRANCH   4   5
ATOM      5  C   UNL     1     -14.326  -7.940 -12.124  1.00  0.00     0.000 C 
BRANCH   5   6
ATOM      6  C   UNL     1     -15.557  -8.844 -11.932  1.00  0.00     0.000 C 
BRANCH   6   7
ATOM      7  C   UNL     1     -16.878  -8.056 -11.913  1.00  0.00     0.000 C 
BRANCH   7   8
ATOM      8  C   UNL     1     -16.702  -6.625 -11.381  1.00  0.00     0.000 C 
BRANCH   8   9
ATOM      9  C   UNL     1     -17.589  -5.608 -12.121  1.00  0.00     0.000 C 
BRANCH   9  10
ATOM     10  C   UNL     1     -17.947  -4.383 -11.260  1.00  0.00     0.006 C 
BRANCH  10  11
ATOM     11  C   UNL     1     -16.796  -3.894 -10.364  1.00  0.00     0.053 C 
BRANCH  11  12
ATOM     12  C   UNL     1     -15.543  -3.612 -11.139  1.00  0.00     0.041 C 
ATOM     13  O   UNL     1     -15.569  -2.817 -12.114  1.00  0.00    -0.550 OA
ATOM     14  O   UNL     1     -14.356  -4.253 -10.807  1.00  0.00    -0.550 OA
ENDBRANCH  11  12
ENDBRANCH  10  11
ENDBRANCH   9  10
ENDBRANCH   8   9
ENDBRANCH   7   8
ENDBRANCH   6   7
ENDBRANCH   5   6
ENDBRANCH   4   5
ENDBRANCH   3   4
ENDBRANCH   2   3
ENDBRANCH   1   2
BRANCH   1  15
ATOM     15  C   UNL     1     -11.855 -10.227  -8.959  1.00  0.00     0.000 C 
BRANCH  15  16
ATOM     16  C   UNL     1     -12.848 -11.299  -9.444  1.00  0.00     0.000 C 
BRANCH  16  17
ATOM     17  C   UNL     1     -13.057 -11.358 -10.971  1.00  0.00     0.000 C 
BRANCH  17  18
ATOM     18  C   UNL     1     -13.895 -12.550 -11.474  1.00  0.00    -0.000 C 
BRANCH  18  19
ATOM     19  C   UNL     1     -15.000 -13.019 -10.512  1.00  0.00    -0.000 C 
BRANCH  19  20
ATOM     20  C   UNL     1     -16.174 -12.033 -10.424  1.00  0.00    -0.000 C 
BRANCH  20  21
ATOM     21  C   UNL     1     -17.516 -12.774 -10.441  1.00  0.00    -0.000 C 
BRANCH  21  22
ATOM     22  C   UNL     1     -18.286 -12.553  -9.133  1.00  0.00    -0.000 C 
BRANCH  22  23
ATOM     23  C   UNL     1     -19.772 -12.903  -9.303  1.00  0.00    -0.000 C 
BRANCH  23  24
ATOM     24  C   UNL     1     -20.691 -11.685  -9.118  1.00  0.00    -0.000 C 
BRANCH  24  25
ATOM     25  C   UNL     1     -20.156 -10.694  -8.074  1.00  0.00    -0.003 C 
ATOM     26  C   UNL     1     -20.882 -10.855  -6.742  1.00  0.00     0.004 C 
ENDBRANCH  24  25
ENDBRANCH  23  24
ENDBRANCH  22  23
ENDBRANCH  21  22
ENDBRANCH  20  21
ENDBRANCH  19  20
ENDBRANCH  18  19
ENDBRANCH  17  18
ENDBRANCH  16  17
ENDBRANCH  15  16
ENDBRANCH   1  15
TORSDOF 22
ENDMDL
MODEL 7
REMARK VINA RESULT:     1.372      5.682      7.783
REMARK INTER + INTRA:           2.280
REMARK INTER:                   3.233
REMARK INTRA:                  -0.954
REMARK UNBOUND:                -0.858
REMARK SMILES CCCCCCCCCCCCCCCCCCCCCCCC(=O)[O-]
REMARK SMILES IDX 13 1 14 2 15 3 16 4 17 5 18 6 19 7 20 8 21 9 22 10 23 11
REMARK SMILES IDX 24 12 25 13 26 14 12 15 11 16 10 17 9 18 8 19 7 20 6 21 5 22
REMARK SMILES IDX 4 23 3 24 2 25 1 26
REMARK H PARENT
REMARK Flexibility Score: inf
ROOT
ATOM      1  C   UNL     1     -12.424 -11.970 -10.911  1.00  0.00     0.000 C 
ENDROOT
BRANCH   1   2
ATOM      2  C   UNL     1     -12.573 -10.848  -9.867  1.00  0.00     0.000 C 
BRANCH   2   3
ATOM      3  C   UNL     1     -11.902  -9.511 -10.239  1.00  0.00     0.000 C 
BRANCH   3   4
ATOM      4  C   UNL     1     -11.507  -9.369 -11.723  1.00  0.00     0.000 C 
BRANCH   4   5
ATOM      5  C   UNL     1     -10.154 -10.008 -12.101  1.00  0.00     0.000 C 
BRANCH   5   6
ATOM      6  C   UNL     1      -8.938  -9.072 -11.971  1.00  0.00     0.000 C 
BRANCH   6   7
ATOM      7  C   UNL     1      -7.622  -9.833 -11.741  1.00  0.00     0.000 C 
BRANCH   7   8
ATOM      8  C   UNL     1      -7.726 -11.317 -12.125  1.00  0.00     0.000 C 
BRANCH   8   9
ATOM      9  C   UNL     1      -6.495 -12.128 -11.685  1.00  0.00     0.000 C 
BRANCH   9  10
ATOM     10  C   UNL     1      -5.165 -11.490 -12.124  1.00  0.00     0.006 C 
BRANCH  10  11
ATOM     11  C   UNL     1      -4.358 -10.872 -10.969  1.00  0.00     0.053 C 
BRANCH  11  12
ATOM     12  C   UNL     1      -2.886 -11.129 -11.093  1.00  0.00     0.041 C 
ATOM     13  O   UNL     1      -2.385 -12.182 -10.617  1.00  0.00    -0.550 OA
ATOM     14  O   UNL     1      -2.062 -10.193 -11.706  1.00  0.00    -0.550 OA
ENDBRANCH  11  12
ENDBRANCH  10  11
ENDBRANCH   9  10
ENDBRANCH   8   9
ENDBRANCH   7   8
ENDBRANCH   6   7
ENDBRANCH   5   6
ENDBRANCH   4   5
ENDBRANCH   3   4
ENDBRANCH   2   3
ENDBRANCH   1   2
BRANCH   1  15
ATOM     15  C   UNL     1     -13.522 -13.041 -10.797  1.00  0.00     0.000 C 
BRANCH  15  16
ATOM     16  C   UNL     1     -14.893 -12.546 -11.294  1.00  0.00     0.000 C 
BRANCH  16  17
ATOM     17  C   UNL     1     -16.093 -12.950 -10.413  1.00  0.00     0.000 C 
BRANCH  17  18
ATOM     18  C   UNL     1     -17.479 -12.749 -11.059  1.00  0.00    -0.000 C 
BRANCH  18  19
ATOM     19  C   UNL     1     -18.673 -12.959 -10.112  1.00  0.00    -0.000 C 
BRANCH  19  20
ATOM     20  C   UNL     1     -19.652 -11.775 -10.115  1.00  0.00    -0.000 C 
BRANCH  20  21
ATOM     21  C   UNL     1     -19.334 -10.798  -8.978  1.00  0.00    -0.000 C 
BRANCH  21  22
ATOM     22  C   UNL     1     -20.597 -10.451  -8.179  1.00  0.00    -0.000 C 
BRANCH  22  23
ATOM     23  C   UNL     1     -20.919 -11.550  -7.154  1.00  0.00    -0.000 C 
BRANCH  23  24
ATOM     24  C   UNL     1     -19.657 -12.154  -6.519  1.00  0.00    -0.000 C 
BRANCH  24  25
ATOM     25  C   UNL     1     -19.978 -13.092  -5.345  1.00  0.00    -0.003 C 
ATOM     26  C   UNL     1     -20.549 -12.316  -4.163  1.00  0.00     0.004 C 
ENDBRANCH  24  25
ENDBRANCH  23  24
ENDBRANCH  22  23
ENDBRANCH  21  22
ENDBRANCH  20  21
ENDBRANCH  19  20
ENDBRANCH  18  19
ENDBRANCH  17  18
ENDBRANCH  16  17
ENDBRANCH  15  16
ENDBRANCH   1  15
TORSDOF 22
ENDMDL
MODEL 8
REMARK VINA RESULT:     1.476      5.924      8.180
REMARK INTER + INTRA:           2.517
REMARK INTER:                   2.730
REMARK INTRA:                  -0.214
REMARK UNBOUND:                -0.858
REMARK SMILES CCCCCCCCCCCCCCCCCCCCCCCC(=O)[O-]
REMARK SMILES IDX 13 1 14 2 15 3 16 4 17 5 18 6 19 7 20 8 21 9 22 10 23 11
REMARK SMILES IDX 24 12 25 13 26 14 12 15 11 16 10 17 9 18 8 19 7 20 6 21 5 22
REMARK SMILES IDX 4 23 3 24 2 25 1 26
REMARK H PARENT
REMARK Flexibility Score: inf
ROOT
ATOM      1  C   UNL     1     -12.297  -9.474  -9.394  1.00  0.00     0.000 C 
ENDROOT
BRANCH   1   2
ATOM      2  C   UNL     1     -11.729  -9.239 -10.806  1.00  0.00     0.000 C 
BRANCH   2   3
ATOM      3  C   UNL     1     -11.884 -10.422 -11.781  1.00  0.00     0.000 C 
BRANCH   3   4
ATOM      4  C   UNL     1     -10.938 -11.612 -11.520  1.00  0.00     0.000 C 
BRANCH   4   5
ATOM      5  C   UNL     1      -9.526 -11.468 -12.125  1.00  0.00     0.000 C 
BRANCH   5   6
ATOM      6  C   UNL     1      -8.965 -10.034 -12.120  1.00  0.00     0.000 C 
BRANCH   6   7
ATOM      7  C   UNL     1      -7.436  -9.994 -11.950  1.00  0.00     0.000 C 
BRANCH   7   8
ATOM      8  C   UNL     1      -6.862 -11.338 -11.478  1.00  0.00     0.000 C 
BRANCH   8   9
ATOM      9  C   UNL     1      -5.419 -11.212 -10.956  1.00  0.00     0.000 C 
BRANCH   9  10
ATOM     10  C   UNL     1      -4.361 -11.475 -12.042  1.00  0.00     0.006 C 
BRANCH  10  11
ATOM     11  C   UNL     1      -2.999 -11.927 -11.488  1.00  0.00     0.053 C 
BRANCH  11  12
ATOM     12  C   UNL     1      -2.007 -10.805 -11.413  1.00  0.00     0.041 C 
ATOM     13  O   UNL     1      -0.942 -10.856 -12.083  1.00  0.00    -0.550 OA
ATOM     14  O   UNL     1      -2.242  -9.719 -10.578  1.00  0.00    -0.550 OA
ENDBRANCH  11  12
ENDBRANCH  10  11
ENDBRANCH   9  10
ENDBRANCH   8   9
ENDBRANCH   7   8
ENDBRANCH   6   7
ENDBRANCH   5   6
ENDBRANCH   4   5
ENDBRANCH   3   4
ENDBRANCH   2   3
ENDBRANCH   1   2
BRANCH   1  15
ATOM     15  C   UNL     1     -13.408 -10.537  -9.367  1.00  0.00     0.000 C 
BRANCH  15  16
ATOM     16  C   UNL     1     -14.597 -10.183 -10.279  1.00  0.00     0.000 C 
BRANCH  16  17
ATOM     17  C   UNL     1     -15.645 -11.300 -10.454  1.00  0.00     0.000 C 
BRANCH  17  18
ATOM     18  C   UNL     1     -16.232 -11.435 -11.873  1.00  0.00    -0.000 C 
BRANCH  18  19
ATOM     19  C   UNL     1     -17.451 -12.367 -11.986  1.00  0.00    -0.000 C 
BRANCH  19  20
ATOM     20  C   UNL     1     -18.777 -11.603 -12.107  1.00  0.00    -0.000 C 
BRANCH  20  21
ATOM     21  C   UNL     1     -19.847 -12.212 -11.193  1.00  0.00    -0.000 C 
BRANCH  21  22
ATOM     22  C   UNL     1     -20.150 -11.289 -10.006  1.00  0.00    -0.000 C 
BRANCH  22  23
ATOM     23  C   UNL     1     -19.394 -11.743  -8.748  1.00  0.00    -0.000 C 
BRANCH  23  24
ATOM     24  C   UNL     1     -20.324 -12.352  -7.687  1.00  0.00    -0.000 C 
BRANCH  24  25
ATOM     25  C   UNL     1     -20.994 -11.287  -6.806  1.00  0.00    -0.003 C 
ATOM     26  C   UNL     1     -20.700  -9.882  -7.324  1.00  0.00     0.004 C 
ENDBRANCH  24  25
ENDBRANCH  23  24
ENDBRANCH  22  23
ENDBRANCH  21  22
ENDBRANCH  20  21
ENDBRANCH  19  20
ENDBRANCH  18  19
ENDBRANCH  17  18
ENDBRANCH  16  17
ENDBRANCH  15  16
ENDBRANCH   1  15
TORSDOF 22
ENDMDL
