MODEL 1
REMARK VINA RESULT:    -3.761      0.000      0.000
REMARK INTER + INTRA:         -10.628
REMARK INTER:                  -7.279
REMARK INTRA:                  -3.348
REMARK UNBOUND:                -3.348
REMARK SMILES CCCCCCCCCCCCCCCCCC(=O)[O-]
REMARK SMILES IDX 10 1 11 2 12 3 13 4 14 5 15 6 16 7 17 8 18 9 19 10 20 11
REMARK SMILES IDX 9 12 8 13 7 14 6 15 5 16 4 17 3 18 2 19 1 20
REMARK H PARENT
REMARK Flexibility Score: inf
ROOT
ATOM      1  C   UNL     1      -4.211  -7.237 -18.532  1.00  0.00     0.000 C 
ENDROOT
BRANCH   1   2
ATOM      2  C   UNL     1      -3.694  -6.842 -17.144  1.00  0.00     0.000 C 
BRANCH   2   3
ATOM      3  C   UNL     1      -2.164  -6.713 -17.144  1.00  0.00     0.000 C 
BRANCH   3   4
ATOM      4  C   UNL     1      -1.475  -7.811 -16.317  1.00  0.00     0.000 C 
BRANCH   4   5
ATOM      5  C   UNL     1      -2.333  -8.295 -15.139  1.00  0.00     0.000 C 
BRANCH   5   6
ATOM      6  C   UNL     1      -2.438  -9.826 -15.129  1.00  0.00     0.000 C 
BRANCH   6   7
ATOM      7  C   UNL     1      -3.785 -10.327 -14.584  1.00  0.00     0.006 C 
BRANCH   7   8
ATOM      8  C   UNL     1      -4.926  -9.328 -14.818  1.00  0.00     0.053 C 
BRANCH   8   9
ATOM      9  C   UNL     1      -6.155 -10.040 -15.288  1.00  0.00     0.041 C 
ATOM     10  O   UNL     1      -6.071 -10.937 -16.168  1.00  0.00    -0.550 OA
ATOM     11  O   UNL     1      -7.389  -9.744 -14.721  1.00  0.00    -0.550 OA
ENDBRANCH   8   9
ENDBRANCH   7   8
ENDBRANCH   6   7
ENDBRANCH   5   6
ENDBRANCH   4   5
ENDBRANCH   3   4
ENDBRANCH   2   3
ENDBRANCH   1   2
BRANCH   1  12
ATOM     12  C   UNL     1      -4.800  -8.653 -18.522  1.00  0.00     0.000 C 
BRANCH  12  13
ATOM     13  C   UNL     1      -3.964  -9.602 -19.390  1.00  0.00    -0.000 C 
BRANCH  13  14
ATOM     14  C   UNL     1      -3.087 -10.515 -18.519  1.00  0.00    -0.000 C 
BRANCH  14  15
ATOM     15  C   UNL     1      -1.597 -10.440 -18.893  1.00  0.00    -0.000 C 
BRANCH  15  16
ATOM     16  C   UNL     1      -1.356 -10.605 -20.404  1.00  0.00    -0.000 C 
BRANCH  16  17
ATOM     17  C   UNL     1      -0.637  -9.394 -21.020  1.00  0.00    -0.000 C 
BRANCH  17  18
ATOM     18  C   UNL     1      -0.574  -8.191 -20.062  1.00  0.00    -0.000 C 
BRANCH  18  19
ATOM     19  C   UNL     1      -1.076  -6.893 -20.715  1.00  0.00    -0.003 C 
ATOM     20  C   UNL     1      -2.266  -7.123 -21.645  1.00  0.00     0.004 C 
ENDBRANCH  18  19
ENDBRANCH  17  18
ENDBRANCH  16  17
ENDBRANCH  15  16
ENDBRANCH  14  15
ENDBRANCH  13  14
ENDBRANCH  12  13
ENDBRANCH   1  12
TORSDOF 16
ENDMDL
MODEL 2
REMARK VINA RESULT:    -3.757      3.196      5.543
REMARK INTER + INTRA:         -10.619
REMARK INTER:                  -7.590
REMARK INTRA:                  -3.029
REMARK UNBOUND:                -3.348
REMARK SMILES CCCCCCCCCCCCCCCCCC(=O)[O-]
REMARK SMILES IDX 10 1 11 2 12 3 13 4 14 5 15 6 16 7 17 8 18 9 19 10 20 11
REMARK SMILES IDX 9 12 8 13 7 14 6 15 5 16 4 17 3 18 2 19 1 20
REMARK H PARENT
REMARK Flexibility Score: inf
ROOT
ATOM      1  C   UNL     1      -5.740  -8.902 -14.495  1.00  0.00     0.000 C 
ENDROOT
BRANCH   1   2
ATOM      2  C   UNL     1      -4.730  -8.033 -15.252  1.00  0.00     0.000 C 
BRANCH   2   3
ATOM      3  C   UNL     1      -5.419  -7.245 -16.376  1.00  0.00     0.000 C 
BRANCH   3   4
ATOM      4  C   UNL     1      -4.452  -6.851 -17.505  1.00  0.00     0.000 C 
BRANCH   4   5
ATOM      5  C   UNL     1      -2.978  -7.050 -17.121  1.00  0.00     0.000 C 
BRANCH   5   6
ATOM      6  C   UNL     1      -2.098  -7.181 -18.373  1.00  0.00     0.000 C 
BRANCH   6   7
ATOM      7  C   UNL     1      -2.843  -7.811 -19.560  1.00  0.00     0.006 C 
BRANCH   7   8
ATOM      8  C   UNL     1      -1.891  -8.355 -20.633  1.00  0.00     0.053 C 
BRANCH   8   9
ATOM      9  C   UNL     1      -2.059  -7.598 -21.913  1.00  0.00     0.041 C 
ATOM     10  O   UNL     1      -1.806  -6.365 -21.958  1.00  0.00    -0.550 OA
ATOM     11  O   UNL     1      -2.451  -8.263 -23.068  1.00  0.00    -0.550 OA
ENDBRANCH   8   9
ENDBRANCH   7   8
ENDBRANCH   6   7
ENDBRANCH   5   6
ENDBRANCH   4   5
ENDBRANCH   3   4
ENDBRANCH   2   3
ENDBRANCH   1   2
BRANCH   1  12
ATOM     12  C   UNL     1      -5.397 -10.391 -14.627  1.00  0.00     0.000 C 
BRANCH  12  13
ATOM     13  C   UNL     1      -6.349 -11.088 -15.608  1.00  0.00    -0.000 C 
BRANCH  13  14
ATOM     14  C   UNL     1      -5.569 -11.733 -16.764  1.00  0.00    -0.000 C 
BRANCH  14  15
ATOM     15  C   UNL     1      -4.948 -10.696 -17.715  1.00  0.00    -0.000 C 
BRANCH  15  16
ATOM     16  C   UNL     1      -3.492 -11.028 -18.086  1.00  0.00    -0.000 C 
BRANCH  16  17
ATOM     17  C   UNL     1      -2.638 -11.379 -16.857  1.00  0.00    -0.000 C 
BRANCH  17  18
ATOM     18  C   UNL     1      -1.558 -10.321 -16.563  1.00  0.00    -0.000 C 
BRANCH  18  19
ATOM     19  C   UNL     1      -1.577  -9.852 -15.100  1.00  0.00    -0.003 C 
ATOM     20  C   UNL     1      -1.875 -10.987 -14.122  1.00  0.00     0.004 C 
ENDBRANCH  18  19
ENDBRANCH  17  18
ENDBRANCH  16  17
ENDBRANCH  15  16
ENDBRANCH  14  15
ENDBRANCH  13  14
ENDBRANCH  12  13
ENDBRANCH   1  12
TORSDOF 16
ENDMDL
MODEL 3
REMARK VINA RESULT:    -3.741      2.816      5.174
REMARK INTER + INTRA:         -10.588
REMARK INTER:                  -7.679
REMARK INTRA:                  -2.909
REMARK UNBOUND:                -3.348
REMARK SMILES CCCCCCCCCCCCCCCCCC(=O)[O-]
REMARK SMILES IDX 10 1 11 2 12 3 13 4 14 5 15 6 16 7 17 8 18 9 19 10 20 11
REMARK SMILES IDX 9 12 8 13 7 14 6 15 5 16 4 17 3 18 2 19 1 20
REMARK H PARENT
REMARK Flexibility Score: inf
ROOT
ATOM      1  C   UNL     1      -4.986  -7.621 -16.078  1.00  0.00     0.000 C 
ENDROOT
BRANCH   1   2
ATOM      2  C   UNL     1      -4.254  -8.224 -14.873  1.00  0.00     0.000 C 
BRANCH   2   3
ATOM      3  C   UNL     1      -3.169  -9.211 -15.329  1.00  0.00     0.000 C 
BRANCH   3   4
ATOM      4  C   UNL     1      -1.948  -9.224 -14.395  1.00  0.00     0.000 C 
BRANCH   4   5
ATOM      5  C   UNL     1      -1.372  -7.822 -14.148  1.00  0.00     0.000 C 
BRANCH   5   6
ATOM      6  C   UNL     1      -0.740  -7.256 -15.427  1.00  0.00     0.000 C 
BRANCH   6   7
ATOM      7  C   UNL     1       0.125  -8.286 -16.170  1.00  0.00     0.006 C 
BRANCH   7   8
ATOM      8  C   UNL     1      -0.312  -8.484 -17.628  1.00  0.00     0.053 C 
BRANCH   8   9
ATOM      9  C   UNL     1      -0.374  -9.941 -17.961  1.00  0.00     0.041 C 
ATOM     10  O   UNL     1      -0.339 -10.804 -17.043  1.00  0.00    -0.550 OA
ATOM     11  O   UNL     1      -0.515 -10.347 -19.282  1.00  0.00    -0.550 OA
ENDBRANCH   8   9
ENDBRANCH   7   8
ENDBRANCH   6   7
ENDBRANCH   5   6
ENDBRANCH   4   5
ENDBRANCH   3   4
ENDBRANCH   2   3
ENDBRANCH   1   2
BRANCH   1  12
ATOM     12  C   UNL     1      -3.994  -7.079 -17.114  1.00  0.00     0.000 C 
BRANCH  12  13
ATOM     13  C   UNL     1      -4.416  -7.471 -18.536  1.00  0.00    -0.000 C 
BRANCH  13  14
ATOM     14  C   UNL     1      -3.786  -8.810 -18.947  1.00  0.00    -0.000 C 
BRANCH  14  15
ATOM     15  C   UNL     1      -4.729 -10.004 -18.724  1.00  0.00    -0.000 C 
BRANCH  15  16
ATOM     16  C   UNL     1      -3.985 -11.268 -18.257  1.00  0.00    -0.000 C 
BRANCH  16  17
ATOM     17  C   UNL     1      -4.758 -12.040 -17.176  1.00  0.00    -0.000 C 
BRANCH  17  18
ATOM     18  C   UNL     1      -5.890 -11.207 -16.547  1.00  0.00    -0.000 C 
BRANCH  18  19
ATOM     19  C   UNL     1      -6.519 -11.896 -15.326  1.00  0.00    -0.003 C 
ATOM     20  C   UNL     1      -6.399 -11.060 -14.053  1.00  0.00     0.004 C 
ENDBRANCH  18  19
ENDBRANCH  17  18
ENDBRANCH  16  17
ENDBRANCH  15  16
ENDBRANCH  14  15
ENDBRANCH  13  14
ENDBRANCH  12  13
ENDBRANCH   1  12
TORSDOF 16
ENDMDL
MODEL 4
REMARK VINA RESULT:    -3.719      2.937      5.786
REMARK INTER + INTRA:         -10.545
REMARK INTER:                  -7.633
REMARK INTRA:                  -2.913
REMARK UNBOUND:                -3.348
REMARK SMILES CCCCCCCCCCCCCCCCCC(=O)[O-]
REMARK SMILES IDX 10 1 11 2 12 3 13 4 14 5 15 6 16 7 17 8 18 9 19 10 20 11
REMARK SMILES IDX 9 12 8 13 7 14 6 15 5 16 4 17 3 18 2 19 1 20
REMARK H PARENT
REMARK Flexibility Score: inf
ROOT
ATOM      1  C   UNL     1      -3.710  -6.841 -17.346  1.00  0.00     0.000 C 
ENDROOT
BRANCH   1   2
ATOM      2  C   UNL     1      -2.195  -6.611 -17.300  1.00  0.00     0.000 C 
BRANCH   2   3
ATOM      3  C   UNL     1      -1.532  -7.532 -16.266  1.00  0.00     0.000 C 
BRANCH   3   4
ATOM      4  C   UNL     1      -0.834  -8.742 -16.910  1.00  0.00     0.000 C 
BRANCH   4   5
ATOM      5  C   UNL     1      -0.211  -8.413 -18.274  1.00  0.00     0.000 C 
BRANCH   5   6
ATOM      6  C   UNL     1      -0.504  -9.523 -19.294  1.00  0.00     0.000 C 
BRANCH   6   7
ATOM      7  C   UNL     1      -0.868  -8.976 -20.682  1.00  0.00     0.006 C 
BRANCH   7   8
ATOM      8  C   UNL     1      -1.066  -7.454 -20.685  1.00  0.00     0.053 C 
BRANCH   8   9
ATOM      9  C   UNL     1      -1.758  -7.020 -21.938  1.00  0.00     0.041 C 
ATOM     10  O   UNL     1      -2.477  -7.832 -22.580  1.00  0.00    -0.550 OA
ATOM     11  O   UNL     1      -1.647  -5.705 -22.374  1.00  0.00    -0.550 OA
ENDBRANCH   8   9
ENDBRANCH   7   8
ENDBRANCH   6   7
ENDBRANCH   5   6
ENDBRANCH   4   5
ENDBRANCH   3   4
ENDBRANCH   2   3
ENDBRANCH   1   2
BRANCH   1  12
ATOM     12  C   UNL     1      -4.133  -7.470 -18.680  1.00  0.00     0.000 C 
BRANCH  12  13
ATOM     13  C   UNL     1      -4.869  -8.797 -18.452  1.00  0.00    -0.000 C 
BRANCH  13  14
ATOM     14  C   UNL     1      -3.917  -9.990 -18.626  1.00  0.00    -0.000 C 
BRANCH  14  15
ATOM     15  C   UNL     1      -4.159 -11.099 -17.588  1.00  0.00    -0.000 C 
BRANCH  15  16
ATOM     16  C   UNL     1      -5.624 -11.165 -17.121  1.00  0.00    -0.000 C 
BRANCH  16  17
ATOM     17  C   UNL     1      -5.763 -11.001 -15.599  1.00  0.00    -0.000 C 
BRANCH  17  18
ATOM     18  C   UNL     1      -6.617  -9.779 -15.210  1.00  0.00    -0.000 C 
BRANCH  18  19
ATOM     19  C   UNL     1      -5.762  -8.582 -14.764  1.00  0.00    -0.003 C 
ATOM     20  C   UNL     1      -4.293  -8.950 -14.564  1.00  0.00     0.004 C 
ENDBRANCH  18  19
ENDBRANCH  17  18
ENDBRANCH  16  17
ENDBRANCH  15  16
ENDBRANCH  14  15
ENDBRANCH  13  14
ENDBRANCH  12  13
ENDBRANCH   1  12
TORSDOF 16
ENDMDL
MODEL 5
REMARK VINA RESULT:    -3.704      2.837      5.768
REMARK INTER + INTRA:         -10.517
REMARK INTER:                  -7.630
REMARK INTRA:                  -2.887
REMARK UNBOUND:                -3.348
REMARK SMILES CCCCCCCCCCCCCCCCCC(=O)[O-]
REMARK SMILES IDX 10 1 11 2 12 3 13 4 14 5 15 6 16 7 17 8 18 9 19 10 20 11
REMARK SMILES IDX 9 12 8 13 7 14 6 15 5 16 4 17 3 18 2 19 1 20
REMARK H PARENT
REMARK Flexibility Score: inf
ROOT
ATOM      1  C   UNL     1      -1.773  -7.181 -17.751  1.00  0.00     0.000 C 
ENDROOT
BRANCH   1   2
ATOM      2  C   UNL     1      -3.135  -6.710 -17.229  1.00  0.00     0.000 C 
BRANCH   2   3
ATOM      3  C   UNL     1      -4.274  -7.241 -18.112  1.00  0.00     0.000 C 
BRANCH   3   4
ATOM      4  C   UNL     1      -3.846  -8.435 -18.980  1.00  0.00     0.000 C 
BRANCH   4   5
ATOM      5  C   UNL     1      -4.873  -9.577 -18.969  1.00  0.00     0.000 C 
BRANCH   5   6
ATOM      6  C   UNL     1      -4.379 -10.752 -18.113  1.00  0.00     0.000 C 
BRANCH   6   7
ATOM      7  C   UNL     1      -2.847 -10.804 -18.003  1.00  0.00     0.006 C 
BRANCH   7   8
ATOM      8  C   UNL     1      -2.203 -11.646 -19.113  1.00  0.00     0.053 C 
BRANCH   8   9
ATOM      9  C   UNL     1      -1.244 -10.816 -19.907  1.00  0.00     0.041 C 
ATOM     10  O   UNL     1      -1.537 -10.455 -21.079  1.00  0.00    -0.550 OA
ATOM     11  O   UNL     1      -0.046 -10.402 -19.339  1.00  0.00    -0.550 OA
ENDBRANCH   8   9
ENDBRANCH   7   8
ENDBRANCH   6   7
ENDBRANCH   5   6
ENDBRANCH   4   5
ENDBRANCH   3   4
ENDBRANCH   2   3
ENDBRANCH   1   2
BRANCH   1  12
ATOM     12  C   UNL     1      -1.023  -7.993 -16.687  1.00  0.00     0.000 C 
BRANCH  12  13
ATOM     13  C   UNL     1      -1.031  -7.267 -15.336  1.00  0.00    -0.000 C 
BRANCH  13  14
ATOM     14  C   UNL     1      -1.685  -8.135 -14.250  1.00  0.00    -0.000 C 
BRANCH  14  15
ATOM     15  C   UNL     1      -2.049  -9.542 -14.753  1.00  0.00    -0.000 C 
BRANCH  15  16
ATOM     16  C   UNL     1      -3.551  -9.850 -14.615  1.00  0.00    -0.000 C 
BRANCH  16  17
ATOM     17  C   UNL     1      -4.419  -8.583 -14.680  1.00  0.00    -0.000 C 
BRANCH  17  18
ATOM     18  C   UNL     1      -5.792  -8.838 -15.328  1.00  0.00    -0.000 C 
BRANCH  18  19
ATOM     19  C   UNL     1      -6.647  -9.830 -14.524  1.00  0.00    -0.003 C 
ATOM     20  C   UNL     1      -6.836 -11.164 -15.245  1.00  0.00     0.004 C 
ENDBRANCH  18  19
ENDBRANCH  17  18
ENDBRANCH  16  17
ENDBRANCH  15  16
ENDBRANCH  14  15
ENDBRANCH  13  14
ENDBRANCH  12  13
ENDBRANCH   1  12
TORSDOF 16
ENDMDL
MODEL 6
REMARK VINA RESULT:    -3.694      2.616      4.803
REMARK INTER + INTRA:         -10.497
REMARK INTER:                  -7.813
REMARK INTRA:                  -2.684
REMARK UNBOUND:                -3.348
REMARK SMILES CCCCCCCCCCCCCCCCCC(=O)[O-]
REMARK SMILES IDX 10 1 11 2 12 3 13 4 14 5 15 6 16 7 17 8 18 9 19 10 20 11
REMARK SMILES IDX 9 12 8 13 7 14 6 15 5 16 4 17 3 18 2 19 1 20
REMARK H PARENT
REMARK Flexibility Score: inf
ROOT
ATOM      1  C   UNL     1      -4.139  -7.212 -18.567  1.00  0.00     0.000 C 
ENDROOT
BRANCH   1   2
ATOM      2  C   UNL     1      -3.653  -6.853 -17.158  1.00  0.00     0.000 C 
BRANCH   2   3
ATOM      3  C   UNL     1      -2.163  -6.479 -17.171  1.00  0.00     0.000 C 
BRANCH   3   4
ATOM      4  C   UNL     1      -1.361  -7.198 -16.075  1.00  0.00     0.000 C 
BRANCH   4   5
ATOM      5  C   UNL     1      -0.573  -8.404 -16.608  1.00  0.00     0.000 C 
BRANCH   5   6
ATOM      6  C   UNL     1      -1.291  -9.719 -16.273  1.00  0.00     0.000 C 
BRANCH   6   7
ATOM      7  C   UNL     1      -2.281  -9.576 -15.106  1.00  0.00     0.006 C 
BRANCH   7   8
ATOM      8  C   UNL     1      -2.128 -10.690 -14.061  1.00  0.00     0.053 C 
BRANCH   8   9
ATOM      9  C   UNL     1      -1.083 -10.321 -13.055  1.00  0.00     0.041 C 
ATOM     10  O   UNL     1      -0.695  -9.126 -12.953  1.00  0.00    -0.550 OA
ATOM     11  O   UNL     1      -0.570 -11.288 -12.200  1.00  0.00    -0.550 OA
ENDBRANCH   8   9
ENDBRANCH   7   8
ENDBRANCH   6   7
ENDBRANCH   5   6
ENDBRANCH   4   5
ENDBRANCH   3   4
ENDBRANCH   2   3
ENDBRANCH   1   2
BRANCH   1  12
ATOM     12  C   UNL     1      -2.974  -7.669 -19.455  1.00  0.00     0.000 C 
BRANCH  12  13
ATOM     13  C   UNL     1      -2.955  -9.197 -19.592  1.00  0.00    -0.000 C 
BRANCH  13  14
ATOM     14  C   UNL     1      -4.338  -9.793 -19.288  1.00  0.00    -0.000 C 
BRANCH  14  15
ATOM     15  C   UNL     1      -4.316 -10.772 -18.103  1.00  0.00    -0.000 C 
BRANCH  15  16
ATOM     16  C   UNL     1      -5.625 -10.754 -17.293  1.00  0.00    -0.000 C 
BRANCH  16  17
ATOM     17  C   UNL     1      -5.441 -11.292 -15.866  1.00  0.00    -0.000 C 
BRANCH  17  18
ATOM     18  C   UNL     1      -6.657 -11.011 -14.964  1.00  0.00    -0.000 C 
BRANCH  18  19
ATOM     19  C   UNL     1      -6.977  -9.511 -14.860  1.00  0.00    -0.003 C 
ATOM     20  C   UNL     1      -5.755  -8.672 -14.492  1.00  0.00     0.004 C 
ENDBRANCH  18  19
ENDBRANCH  17  18
ENDBRANCH  16  17
ENDBRANCH  15  16
ENDBRANCH  14  15
ENDBRANCH  13  14
ENDBRANCH  12  13
ENDBRANCH   1  12
TORSDOF 16
ENDMDL
MODEL 7
REMARK VINA RESULT:    -3.666      2.741      6.094
REMARK INTER + INTRA:         -10.444
REMARK INTER:                  -7.119
REMARK INTRA:                  -3.325
REMARK UNBOUND:                -3.348
REMARK SMILES CCCCCCCCCCCCCCCCCC(=O)[O-]
REMARK SMILES IDX 10 1 11 2 12 3 13 4 14 5 15 6 16 7 17 8 18 9 19 10 20 11
REMARK SMILES IDX 9 12 8 13 7 14 6 15 5 16 4 17 3 18 2 19 1 20
REMARK H PARENT
REMARK Flexibility Score: inf
ROOT
ATOM      1  C   UNL     1      -3.930  -7.650 -18.613  1.00  0.00     0.000 C 
ENDROOT
BRANCH   1   2
ATOM      2  C   UNL     1      -4.831  -8.862 -18.350  1.00  0.00     0.000 C 
BRANCH   2   3
ATOM      3  C   UNL     1      -4.002 -10.152 -18.256  1.00  0.00     0.000 C 
BRANCH   3   4
ATOM      4  C   UNL     1      -2.819 -10.171 -19.238  1.00  0.00     0.000 C 
BRANCH   4   5
ATOM      5  C   UNL     1      -1.470 -10.391 -18.539  1.00  0.00     0.000 C 
BRANCH   5   6
ATOM      6  C   UNL     1      -0.455  -9.315 -18.952  1.00  0.00     0.000 C 
BRANCH   6   7
ATOM      7  C   UNL     1      -0.509  -8.992 -20.453  1.00  0.00     0.006 C 
BRANCH   7   8
ATOM      8  C   UNL     1      -0.777  -7.507 -20.729  1.00  0.00     0.053 C 
BRANCH   8   9
ATOM      9  C   UNL     1      -1.885  -7.352 -21.722  1.00  0.00     0.041 C 
ATOM     10  O   UNL     1      -2.286  -6.203 -22.052  1.00  0.00    -0.550 OA
ATOM     11  O   UNL     1      -2.447  -8.474 -22.318  1.00  0.00    -0.550 OA
ENDBRANCH   8   9
ENDBRANCH   7   8
ENDBRANCH   6   7
ENDBRANCH   5   6
ENDBRANCH   4   5
ENDBRANCH   3   4
ENDBRANCH   2   3
ENDBRANCH   1   2
BRANCH   1  12
ATOM     12  C   UNL     1      -3.649  -6.878 -17.318  1.00  0.00     0.000 C 
BRANCH  12  13
ATOM     13  C   UNL     1      -2.144  -6.648 -17.132  1.00  0.00    -0.000 C 
BRANCH  13  14
ATOM     14  C   UNL     1      -1.577  -7.575 -16.046  1.00  0.00    -0.000 C 
BRANCH  14  15
ATOM     15  C   UNL     1      -2.649  -8.048 -15.050  1.00  0.00    -0.000 C 
BRANCH  15  16
ATOM     16  C   UNL     1      -2.675  -9.579 -14.891  1.00  0.00    -0.000 C 
BRANCH  16  17
ATOM     17  C   UNL     1      -4.089 -10.117 -14.617  1.00  0.00    -0.000 C 
BRANCH  17  18
ATOM     18  C   UNL     1      -5.162  -9.014 -14.663  1.00  0.00    -0.000 C 
BRANCH  18  19
ATOM     19  C   UNL     1      -6.576  -9.578 -14.874  1.00  0.00    -0.003 C 
ATOM     20  C   UNL     1      -6.566 -11.013 -15.399  1.00  0.00     0.004 C 
ENDBRANCH  18  19
ENDBRANCH  17  18
ENDBRANCH  16  17
ENDBRANCH  15  16
ENDBRANCH  14  15
ENDBRANCH  13  14
ENDBRANCH  12  13
ENDBRANCH   1  12
TORSDOF 16
ENDMDL
MODEL 8
REMARK VINA RESULT:    -3.658      2.942      5.787
REMARK INTER + INTRA:         -10.427
REMARK INTER:                  -7.842
REMARK INTRA:                  -2.585
REMARK UNBOUND:                -3.348
REMARK SMILES CCCCCCCCCCCCCCCCCC(=O)[O-]
REMARK SMILES IDX 10 1 11 2 12 3 13 4 14 5 15 6 16 7 17 8 18 9 19 10 20 11
REMARK SMILES IDX 9 12 8 13 7 14 6 15 5 16 4 17 3 18 2 19 1 20
REMARK H PARENT
REMARK Flexibility Score: inf
ROOT
ATOM      1  C   UNL     1      -5.462  -7.618 -16.306  1.00  0.00     0.000 C 
ENDROOT
BRANCH   1   2
ATOM      2  C   UNL     1      -4.270  -6.838 -16.874  1.00  0.00     0.000 C 
BRANCH   2   3
ATOM      3  C   UNL     1      -3.888  -7.359 -18.267  1.00  0.00     0.000 C 
BRANCH   3   4
ATOM      4  C   UNL     1      -3.669  -8.880 -18.294  1.00  0.00     0.000 C 
BRANCH   4   5
ATOM      5  C   UNL     1      -2.223  -9.266 -18.640  1.00  0.00     0.000 C 
BRANCH   5   6
ATOM      6  C   UNL     1      -1.353  -8.017 -18.835  1.00  0.00     0.000 C 
BRANCH   6   7
ATOM      7  C   UNL     1      -0.705  -7.954 -20.227  1.00  0.00     0.006 C 
BRANCH   7   8
ATOM      8  C   UNL     1      -1.425  -8.838 -21.254  1.00  0.00     0.053 C 
BRANCH   8   9
ATOM      9  C   UNL     1      -2.202  -7.994 -22.215  1.00  0.00     0.041 C 
ATOM     10  O   UNL     1      -2.544  -8.460 -23.335  1.00  0.00    -0.550 OA
ATOM     11  O   UNL     1      -2.588  -6.709 -21.857  1.00  0.00    -0.550 OA
ENDBRANCH   8   9
ENDBRANCH   7   8
ENDBRANCH   6   7
ENDBRANCH   5   6
ENDBRANCH   4   5
ENDBRANCH   3   4
ENDBRANCH   2   3
ENDBRANCH   1   2
BRANCH   1  12
ATOM     12  C   UNL     1      -5.160  -8.140 -14.896  1.00  0.00     0.000 C 
BRANCH  12  13
ATOM     13  C   UNL     1      -6.166  -9.223 -14.485  1.00  0.00    -0.000 C 
BRANCH  13  14
ATOM     14  C   UNL     1      -5.451 -10.550 -14.185  1.00  0.00    -0.000 C 
BRANCH  14  15
ATOM     15  C   UNL     1      -4.163 -10.730 -15.005  1.00  0.00    -0.000 C 
BRANCH  15  16
ATOM     16  C   UNL     1      -3.021 -11.357 -14.185  1.00  0.00    -0.000 C 
BRANCH  16  17
ATOM     17  C   UNL     1      -1.894 -10.356 -13.887  1.00  0.00    -0.000 C 
BRANCH  17  18
ATOM     18  C   UNL     1      -1.745  -9.285 -14.983  1.00  0.00    -0.000 C 
BRANCH  18  19
ATOM     19  C   UNL     1      -1.473  -7.887 -14.407  1.00  0.00    -0.003 C 
ATOM     20  C   UNL     1      -0.724  -6.983 -15.384  1.00  0.00     0.004 C 
ENDBRANCH  18  19
ENDBRANCH  17  18
ENDBRANCH  16  17
ENDBRANCH  15  16
ENDBRANCH  14  15
ENDBRANCH  13  14
ENDBRANCH  12  13
ENDBRANCH   1  12
TORSDOF 16
ENDMDL
MODEL 9
REMARK VINA RESULT:    -3.627      3.252      6.212
REMARK INTER + INTRA:         -10.368
REMARK INTER:                  -7.454
REMARK INTRA:                  -2.915
REMARK UNBOUND:                -3.348
REMARK SMILES CCCCCCCCCCCCCCCCCC(=O)[O-]
REMARK SMILES IDX 10 1 11 2 12 3 13 4 14 5 15 6 16 7 17 8 18 9 19 10 20 11
REMARK SMILES IDX 9 12 8 13 7 14 6 15 5 16 4 17 3 18 2 19 1 20
REMARK H PARENT
REMARK Flexibility Score: inf
ROOT
ATOM      1  C   UNL     1      -2.132  -7.820 -16.150  1.00  0.00     0.000 C 
ENDROOT
BRANCH   1   2
ATOM      2  C   UNL     1      -0.654  -8.187 -16.325  1.00  0.00     0.000 C 
BRANCH   2   3
ATOM      3  C   UNL     1      -0.472  -9.203 -17.463  1.00  0.00     0.000 C 
BRANCH   3   4
ATOM      4  C   UNL     1       0.103  -8.568 -18.740  1.00  0.00     0.000 C 
BRANCH   4   5
ATOM      5  C   UNL     1      -0.840  -8.698 -19.945  1.00  0.00     0.000 C 
BRANCH   5   6
ATOM      6  C   UNL     1      -0.864  -7.401 -20.765  1.00  0.00     0.000 C 
BRANCH   6   7
ATOM      7  C   UNL     1      -1.948  -7.405 -21.854  1.00  0.00     0.006 C 
BRANCH   7   8
ATOM      8  C   UNL     1      -2.447  -8.817 -22.187  1.00  0.00     0.053 C 
BRANCH   8   9
ATOM      9  C   UNL     1      -2.312  -9.086 -23.653  1.00  0.00     0.041 C 
ATOM     10  O   UNL     1      -1.424  -8.500 -24.326  1.00  0.00    -0.550 OA
ATOM     11  O   UNL     1      -3.139 -10.019 -24.267  1.00  0.00    -0.550 OA
ENDBRANCH   8   9
ENDBRANCH   7   8
ENDBRANCH   6   7
ENDBRANCH   5   6
ENDBRANCH   4   5
ENDBRANCH   3   4
ENDBRANCH   2   3
ENDBRANCH   1   2
BRANCH   1  12
ATOM     12  C   UNL     1      -2.541  -6.699 -17.114  1.00  0.00     0.000 C 
BRANCH  12  13
ATOM     13  C   UNL     1      -3.999  -6.865 -17.561  1.00  0.00    -0.000 C 
BRANCH  13  14
ATOM     14  C   UNL     1      -4.082  -7.636 -18.887  1.00  0.00    -0.000 C 
BRANCH  14  15
ATOM     15  C   UNL     1      -4.848  -8.963 -18.756  1.00  0.00    -0.000 C 
BRANCH  15  16
ATOM     16  C   UNL     1      -3.923 -10.153 -18.445  1.00  0.00    -0.000 C 
BRANCH  16  17
ATOM     17  C   UNL     1      -4.255 -10.820 -17.100  1.00  0.00    -0.000 C 
BRANCH  17  18
ATOM     18  C   UNL     1      -5.718 -10.599 -16.673  1.00  0.00    -0.000 C 
BRANCH  18  19
ATOM     19  C   UNL     1      -5.843 -10.176 -15.201  1.00  0.00    -0.003 C 
ATOM     20  C   UNL     1      -5.836  -8.659 -15.021  1.00  0.00     0.004 C 
ENDBRANCH  18  19
ENDBRANCH  17  18
ENDBRANCH  16  17
ENDBRANCH  15  16
ENDBRANCH  14  15
ENDBRANCH  13  14
ENDBRANCH  12  13
ENDBRANCH   1  12
TORSDOF 16
ENDMDL
