MODEL 1
REMARK VINA RESULT:    -3.551      0.000      0.000
REMARK INTER + INTRA:          -8.613
REMARK INTER:                  -6.457
REMARK INTRA:                  -2.157
REMARK UNBOUND:                -2.157
REMARK SMILES CCCCCCCCCCCCCCCC(=O)[O-]
REMARK SMILES IDX 9 1 10 2 11 3 12 4 13 5 14 6 15 7 16 8 17 9 18 10 8 11 7 12
REMARK SMILES IDX 6 13 5 14 4 15 3 16 2 17 1 18
REMARK H PARENT
REMARK Flexibility Score: inf
ROOT
ATOM      1  C   UNL     1      40.692  22.527 222.824  1.00  0.00     0.000 C 
ENDROOT
BRANCH   1   2
ATOM      2  C   UNL     1      40.513  24.026 223.104  1.00  0.00     0.000 C 
BRANCH   2   3
ATOM      3  C   UNL     1      40.649  24.325 224.603  1.00  0.00     0.000 C 
BRANCH   3   4
ATOM      4  C   UNL     1      39.408  25.055 225.134  1.00  0.00     0.000 C 
BRANCH   4   5
ATOM      5  C   UNL     1      38.193  24.936 224.196  1.00  0.00     0.000 C 
BRANCH   5   6
ATOM      6  C   UNL     1      37.104  23.954 224.663  1.00  0.00     0.006 C 
BRANCH   6   7
ATOM      7  C   UNL     1      36.825  22.842 223.644  1.00  0.00     0.053 C 
BRANCH   7   8
ATOM      8  C   UNL     1      36.346  23.427 222.353  1.00  0.00     0.041 C 
ATOM      9  O   UNL     1      35.229  24.008 222.296  1.00  0.00    -0.550 OA
ATOM     10  O   UNL     1      37.152  23.374 221.223  1.00  0.00    -0.550 OA
ENDBRANCH   7   8
ENDBRANCH   6   7
ENDBRANCH   5   6
ENDBRANCH   4   5
ENDBRANCH   3   4
ENDBRANCH   2   3
ENDBRANCH   1   2
BRANCH   1  11
ATOM     11  C   UNL     1      41.780  21.888 223.703  1.00  0.00     0.000 C 
BRANCH  11  12
ATOM     12  C   UNL     1      41.257  20.686 224.510  1.00  0.00    -0.000 C 
BRANCH  12  13
ATOM     13  C   UNL     1      41.660  20.746 225.991  1.00  0.00    -0.000 C 
BRANCH  13  14
ATOM     14  C   UNL     1      40.452  20.937 226.924  1.00  0.00    -0.000 C 
BRANCH  14  15
ATOM     15  C   UNL     1      39.168  21.327 226.169  1.00  0.00    -0.000 C 
BRANCH  15  16
ATOM     16  C   UNL     1      37.918  20.496 226.523  1.00  0.00    -0.000 C 
BRANCH  16  17
ATOM     17  C   UNL     1      37.866  19.095 225.890  1.00  0.00    -0.003 C 
ATOM     18  C   UNL     1      36.448  18.662 225.517  1.00  0.00     0.004 C 
ENDBRANCH  16  17
ENDBRANCH  15  16
ENDBRANCH  14  15
ENDBRANCH  13  14
ENDBRANCH  12  13
ENDBRANCH  11  12
ENDBRANCH   1  11
TORSDOF 14
ENDMDL
MODEL 2
REMARK VINA RESULT:    -3.548      2.592      4.050
REMARK INTER + INTRA:          -8.609
REMARK INTER:                  -7.153
REMARK INTRA:                  -1.457
REMARK UNBOUND:                -2.157
REMARK SMILES CCCCCCCCCCCCCCCC(=O)[O-]
REMARK SMILES IDX 9 1 10 2 11 3 12 4 13 5 14 6 15 7 16 8 17 9 18 10 8 11 7 12
REMARK SMILES IDX 6 13 5 14 4 15 3 16 2 17 1 18
REMARK H PARENT
REMARK Flexibility Score: inf
ROOT
ATOM      1  C   UNL     1      39.153  26.463 225.629  1.00  0.00     0.000 C 
ENDROOT
BRANCH   1   2
ATOM      2  C   UNL     1      38.283  26.116 224.412  1.00  0.00     0.000 C 
BRANCH   2   3
ATOM      3  C   UNL     1      36.967  25.460 224.847  1.00  0.00     0.000 C 
BRANCH   3   4
ATOM      4  C   UNL     1      36.758  24.117 224.133  1.00  0.00     0.000 C 
BRANCH   4   5
ATOM      5  C   UNL     1      38.073  23.488 223.640  1.00  0.00     0.000 C 
BRANCH   5   6
ATOM      6  C   UNL     1      38.214  23.390 222.110  1.00  0.00     0.006 C 
BRANCH   6   7
ATOM      7  C   UNL     1      36.884  23.591 221.373  1.00  0.00     0.053 C 
BRANCH   7   8
ATOM      8  C   UNL     1      37.108  23.631 219.894  1.00  0.00     0.041 C 
ATOM      9  O   UNL     1      37.878  22.798 219.347  1.00  0.00    -0.550 OA
ATOM     10  O   UNL     1      36.430  24.558 219.112  1.00  0.00    -0.550 OA
ENDBRANCH   7   8
ENDBRANCH   6   7
ENDBRANCH   5   6
ENDBRANCH   4   5
ENDBRANCH   3   4
ENDBRANCH   2   3
ENDBRANCH   1   2
BRANCH   1  11
ATOM     11  C   UNL     1      39.991  25.270 226.115  1.00  0.00     0.000 C 
BRANCH  11  12
ATOM     12  C   UNL     1      41.505  25.534 226.021  1.00  0.00    -0.000 C 
BRANCH  12  13
ATOM     13  C   UNL     1      42.277  24.353 225.413  1.00  0.00    -0.000 C 
BRANCH  13  14
ATOM     14  C   UNL     1      41.390  23.115 225.199  1.00  0.00    -0.000 C 
BRANCH  14  15
ATOM     15  C   UNL     1      41.645  22.423 223.848  1.00  0.00    -0.000 C 
BRANCH  15  16
ATOM     16  C   UNL     1      41.179  20.955 223.763  1.00  0.00    -0.000 C 
BRANCH  16  17
ATOM     17  C   UNL     1      42.006  20.062 222.821  1.00  0.00    -0.003 C 
ATOM     18  C   UNL     1      43.135  20.820 222.122  1.00  0.00     0.004 C 
ENDBRANCH  16  17
ENDBRANCH  15  16
ENDBRANCH  14  15
ENDBRANCH  13  14
ENDBRANCH  12  13
ENDBRANCH  11  12
ENDBRANCH   1  11
TORSDOF 14
ENDMDL
MODEL 3
REMARK VINA RESULT:    -3.515      1.506      3.558
REMARK INTER + INTRA:          -8.549
REMARK INTER:                  -5.921
REMARK INTRA:                  -2.628
REMARK UNBOUND:                -2.157
REMARK SMILES CCCCCCCCCCCCCCCC(=O)[O-]
REMARK SMILES IDX 9 1 10 2 11 3 12 4 13 5 14 6 15 7 16 8 17 9 18 10 8 11 7 12
REMARK SMILES IDX 6 13 5 14 4 15 3 16 2 17 1 18
REMARK H PARENT
REMARK Flexibility Score: inf
ROOT
ATOM      1  C   UNL     1      38.707  25.281 226.286  1.00  0.00     0.000 C 
ENDROOT
BRANCH   1   2
ATOM      2  C   UNL     1      38.863  23.790 226.617  1.00  0.00     0.000 C 
BRANCH   2   3
ATOM      3  C   UNL     1      37.618  23.001 226.190  1.00  0.00     0.000 C 
BRANCH   3   4
ATOM      4  C   UNL     1      37.914  22.126 224.964  1.00  0.00     0.000 C 
BRANCH   4   5
ATOM      5  C   UNL     1      37.012  22.453 223.760  1.00  0.00     0.000 C 
BRANCH   5   6
ATOM      6  C   UNL     1      36.379  23.856 223.785  1.00  0.00     0.006 C 
BRANCH   6   7
ATOM      7  C   UNL     1      36.718  24.686 222.540  1.00  0.00     0.053 C 
BRANCH   7   8
ATOM      8  C   UNL     1      35.982  24.162 221.347  1.00  0.00     0.041 C 
ATOM      9  O   UNL     1      36.614  23.828 220.310  1.00  0.00    -0.550 OA
ATOM     10  O   UNL     1      34.604  23.997 221.397  1.00  0.00    -0.550 OA
ENDBRANCH   7   8
ENDBRANCH   6   7
ENDBRANCH   5   6
ENDBRANCH   4   5
ENDBRANCH   3   4
ENDBRANCH   2   3
ENDBRANCH   1   2
BRANCH   1  11
ATOM     11  C   UNL     1      39.333  25.655 224.932  1.00  0.00     0.000 C 
BRANCH  11  12
ATOM     12  C   UNL     1      40.508  24.735 224.551  1.00  0.00    -0.000 C 
BRANCH  12  13
ATOM     13  C   UNL     1      40.378  24.165 223.131  1.00  0.00    -0.000 C 
BRANCH  13  14
ATOM     14  C   UNL     1      41.002  22.765 222.996  1.00  0.00    -0.000 C 
BRANCH  14  15
ATOM     15  C   UNL     1      41.626  22.260 224.310  1.00  0.00    -0.000 C 
BRANCH  15  16
ATOM     16  C   UNL     1      41.351  20.779 224.641  1.00  0.00    -0.000 C 
BRANCH  16  17
ATOM     17  C   UNL     1      41.483  20.410 226.129  1.00  0.00    -0.003 C 
ATOM     18  C   UNL     1      40.201  19.813 226.710  1.00  0.00     0.004 C 
ENDBRANCH  16  17
ENDBRANCH  15  16
ENDBRANCH  14  15
ENDBRANCH  13  14
ENDBRANCH  12  13
ENDBRANCH  11  12
ENDBRANCH   1  11
TORSDOF 14
ENDMDL
MODEL 4
REMARK VINA RESULT:    -3.491      3.391      6.166
REMARK INTER + INTRA:          -8.505
REMARK INTER:                  -6.957
REMARK INTRA:                  -1.548
REMARK UNBOUND:                -2.157
REMARK SMILES CCCCCCCCCCCCCCCC(=O)[O-]
REMARK SMILES IDX 9 1 10 2 11 3 12 4 13 5 14 6 15 7 16 8 17 9 18 10 8 11 7 12
REMARK SMILES IDX 6 13 5 14 4 15 3 16 2 17 1 18
REMARK H PARENT
REMARK Flexibility Score: inf
ROOT
ATOM      1  C   UNL     1      39.780  23.476 224.820  1.00  0.00     0.000 C 
ENDROOT
BRANCH   1   2
ATOM      2  C   UNL     1      39.006  23.712 226.126  1.00  0.00     0.000 C 
BRANCH   2   3
ATOM      3  C   UNL     1      38.473  22.391 226.694  1.00  0.00     0.000 C 
BRANCH   3   4
ATOM      4  C   UNL     1      38.523  21.277 225.639  1.00  0.00     0.000 C 
BRANCH   4   5
ATOM      5  C   UNL     1      37.147  20.643 225.368  1.00  0.00     0.000 C 
BRANCH   5   6
ATOM      6  C   UNL     1      37.059  19.133 225.650  1.00  0.00     0.006 C 
BRANCH   6   7
ATOM      7  C   UNL     1      38.286  18.592 226.394  1.00  0.00     0.053 C 
BRANCH   7   8
ATOM      8  C   UNL     1      37.896  17.456 227.287  1.00  0.00     0.041 C 
ATOM      9  O   UNL     1      38.733  16.561 227.577  1.00  0.00    -0.550 OA
ATOM     10  O   UNL     1      36.622  17.410 227.839  1.00  0.00    -0.550 OA
ENDBRANCH   7   8
ENDBRANCH   6   7
ENDBRANCH   5   6
ENDBRANCH   4   5
ENDBRANCH   3   4
ENDBRANCH   2   3
ENDBRANCH   1   2
BRANCH   1  11
ATOM     11  C   UNL     1      39.366  24.449 223.704  1.00  0.00     0.000 C 
BRANCH  11  12
ATOM     12  C   UNL     1      38.302  25.460 224.167  1.00  0.00    -0.000 C 
BRANCH  12  13
ATOM     13  C   UNL     1      36.965  25.296 223.427  1.00  0.00    -0.000 C 
BRANCH  13  14
ATOM     14  C   UNL     1      36.402  23.869 223.535  1.00  0.00    -0.000 C 
BRANCH  14  15
ATOM     15  C   UNL     1      36.106  23.238 222.162  1.00  0.00    -0.000 C 
BRANCH  15  16
ATOM     16  C   UNL     1      37.128  23.563 221.054  1.00  0.00    -0.000 C 
BRANCH  16  17
ATOM     17  C   UNL     1      36.530  23.744 219.648  1.00  0.00    -0.003 C 
ATOM     18  C   UNL     1      35.092  24.262 219.675  1.00  0.00     0.004 C 
ENDBRANCH  16  17
ENDBRANCH  15  16
ENDBRANCH  14  15
ENDBRANCH  13  14
ENDBRANCH  12  13
ENDBRANCH  11  12
ENDBRANCH   1  11
TORSDOF 14
ENDMDL
MODEL 5
REMARK VINA RESULT:    -3.427      2.449      4.979
REMARK INTER + INTRA:          -8.388
REMARK INTER:                  -6.629
REMARK INTRA:                  -1.759
REMARK UNBOUND:                -2.157
REMARK SMILES CCCCCCCCCCCCCCCC(=O)[O-]
REMARK SMILES IDX 9 1 10 2 11 3 12 4 13 5 14 6 15 7 16 8 17 9 18 10 8 11 7 12
REMARK SMILES IDX 6 13 5 14 4 15 3 16 2 17 1 18
REMARK H PARENT
REMARK Flexibility Score: inf
ROOT
ATOM      1  C   UNL     1      41.280  22.481 222.956  1.00  0.00     0.000 C 
ENDROOT
BRANCH   1   2
ATOM      2  C   UNL     1      41.443  22.074 224.428  1.00  0.00     0.000 C 
BRANCH   2   3
ATOM      3  C   UNL     1      40.541  20.882 224.771  1.00  0.00     0.000 C 
BRANCH   3   4
ATOM      4  C   UNL     1      40.173  20.882 226.262  1.00  0.00     0.000 C 
BRANCH   4   5
ATOM      5  C   UNL     1      39.095  21.922 226.616  1.00  0.00     0.000 C 
BRANCH   5   6
ATOM      6  C   UNL     1      37.779  21.335 227.160  1.00  0.00     0.006 C 
BRANCH   6   7
ATOM      7  C   UNL     1      37.899  19.856 227.547  1.00  0.00     0.053 C 
BRANCH   7   8
ATOM      8  C   UNL     1      37.016  19.017 226.679  1.00  0.00     0.041 C 
ATOM      9  O   UNL     1      35.768  19.024 226.850  1.00  0.00    -0.550 OA
ATOM     10  O   UNL     1      37.565  18.263 225.650  1.00  0.00    -0.550 OA
ENDBRANCH   7   8
ENDBRANCH   6   7
ENDBRANCH   5   6
ENDBRANCH   4   5
ENDBRANCH   3   4
ENDBRANCH   2   3
ENDBRANCH   1   2
BRANCH   1  11
ATOM     11  C   UNL     1      40.187  23.543 222.755  1.00  0.00     0.000 C 
BRANCH  11  12
ATOM     12  C   UNL     1      39.914  24.359 224.031  1.00  0.00    -0.000 C 
BRANCH  12  13
ATOM     13  C   UNL     1      38.644  25.218 223.927  1.00  0.00    -0.000 C 
BRANCH  13  14
ATOM     14  C   UNL     1      37.502  24.692 224.813  1.00  0.00    -0.000 C 
BRANCH  14  15
ATOM     15  C   UNL     1      36.243  24.323 224.008  1.00  0.00    -0.000 C 
BRANCH  15  16
ATOM     16  C   UNL     1      36.467  23.315 222.862  1.00  0.00    -0.000 C 
BRANCH  16  17
ATOM     17  C   UNL     1      36.119  23.838 221.457  1.00  0.00    -0.003 C 
ATOM     18  C   UNL     1      37.189  23.509 220.417  1.00  0.00     0.004 C 
ENDBRANCH  16  17
ENDBRANCH  15  16
ENDBRANCH  14  15
ENDBRANCH  13  14
ENDBRANCH  12  13
ENDBRANCH  11  12
ENDBRANCH   1  11
TORSDOF 14
ENDMDL
MODEL 6
REMARK VINA RESULT:    -3.418      1.717      2.445
REMARK INTER + INTRA:          -8.372
REMARK INTER:                  -6.153
REMARK INTRA:                  -2.220
REMARK UNBOUND:                -2.157
REMARK SMILES CCCCCCCCCCCCCCCC(=O)[O-]
REMARK SMILES IDX 9 1 10 2 11 3 12 4 13 5 14 6 15 7 16 8 17 9 18 10 8 11 7 12
REMARK SMILES IDX 6 13 5 14 4 15 3 16 2 17 1 18
REMARK H PARENT
REMARK Flexibility Score: inf
ROOT
ATOM      1  C   UNL     1      42.427  21.342 222.649  1.00  0.00     0.000 C 
ENDROOT
BRANCH   1   2
ATOM      2  C   UNL     1      41.312  22.326 223.029  1.00  0.00     0.000 C 
BRANCH   2   3
ATOM      3  C   UNL     1      41.630  23.034 224.352  1.00  0.00     0.000 C 
BRANCH   3   4
ATOM      4  C   UNL     1      40.356  23.602 224.993  1.00  0.00     0.000 C 
BRANCH   4   5
ATOM      5  C   UNL     1      39.697  22.628 225.986  1.00  0.00     0.000 C 
BRANCH   5   6
ATOM      6  C   UNL     1      38.196  22.377 225.751  1.00  0.00     0.006 C 
BRANCH   6   7
ATOM      7  C   UNL     1      37.812  22.400 224.266  1.00  0.00     0.053 C 
BRANCH   7   8
ATOM      8  C   UNL     1      36.779  23.452 224.011  1.00  0.00     0.041 C 
ATOM      9  O   UNL     1      36.641  24.412 224.815  1.00  0.00    -0.550 OA
ATOM     10  O   UNL     1      36.001  23.401 222.862  1.00  0.00    -0.550 OA
ENDBRANCH   7   8
ENDBRANCH   6   7
ENDBRANCH   5   6
ENDBRANCH   4   5
ENDBRANCH   3   4
ENDBRANCH   2   3
ENDBRANCH   1   2
BRANCH   1  11
ATOM     11  C   UNL     1      42.077  19.887 223.000  1.00  0.00     0.000 C 
BRANCH  11  12
ATOM     12  C   UNL     1      42.642  19.456 224.365  1.00  0.00    -0.000 C 
BRANCH  12  13
ATOM     13  C   UNL     1      41.567  19.398 225.461  1.00  0.00    -0.000 C 
BRANCH  13  14
ATOM     14  C   UNL     1      40.180  19.027 224.909  1.00  0.00    -0.000 C 
BRANCH  14  15
ATOM     15  C   UNL     1      39.277  18.358 225.961  1.00  0.00    -0.000 C 
BRANCH  15  16
ATOM     16  C   UNL     1      39.547  18.777 227.421  1.00  0.00    -0.000 C 
BRANCH  16  17
ATOM     17  C   UNL     1      38.400  19.546 228.101  1.00  0.00    -0.003 C 
ATOM     18  C   UNL     1      38.892  20.549 229.144  1.00  0.00     0.004 C 
ENDBRANCH  16  17
ENDBRANCH  15  16
ENDBRANCH  14  15
ENDBRANCH  13  14
ENDBRANCH  12  13
ENDBRANCH  11  12
ENDBRANCH   1  11
TORSDOF 14
ENDMDL
MODEL 7
REMARK VINA RESULT:    -3.410      1.321      2.437
REMARK INTER + INTRA:          -8.358
REMARK INTER:                  -6.567
REMARK INTRA:                  -1.791
REMARK UNBOUND:                -2.157
REMARK SMILES CCCCCCCCCCCCCCCC(=O)[O-]
REMARK SMILES IDX 9 1 10 2 11 3 12 4 13 5 14 6 15 7 16 8 17 9 18 10 8 11 7 12
REMARK SMILES IDX 6 13 5 14 4 15 3 16 2 17 1 18
REMARK H PARENT
REMARK Flexibility Score: inf
ROOT
ATOM      1  C   UNL     1      39.860  25.097 225.169  1.00  0.00     0.000 C 
ENDROOT
BRANCH   1   2
ATOM      2  C   UNL     1      38.588  25.924 224.931  1.00  0.00     0.000 C 
BRANCH   2   3
ATOM      3  C   UNL     1      37.369  25.253 225.577  1.00  0.00     0.000 C 
BRANCH   3   4
ATOM      4  C   UNL     1      36.371  24.780 224.510  1.00  0.00     0.000 C 
BRANCH   4   5
ATOM      5  C   UNL     1      36.672  23.362 223.993  1.00  0.00     0.000 C 
BRANCH   5   6
ATOM      6  C   UNL     1      36.918  23.260 222.476  1.00  0.00     0.006 C 
BRANCH   6   7
ATOM      7  C   UNL     1      35.893  24.048 221.651  1.00  0.00     0.053 C 
BRANCH   7   8
ATOM      8  C   UNL     1      36.272  24.039 220.203  1.00  0.00     0.041 C 
ATOM      9  O   UNL     1      37.399  23.605 219.846  1.00  0.00    -0.550 OA
ATOM     10  O   UNL     1      35.363  24.465 219.243  1.00  0.00    -0.550 OA
ENDBRANCH   7   8
ENDBRANCH   6   7
ENDBRANCH   5   6
ENDBRANCH   4   5
ENDBRANCH   3   4
ENDBRANCH   2   3
ENDBRANCH   1   2
BRANCH   1  11
ATOM     11  C   UNL     1      40.328  24.357 223.905  1.00  0.00     0.000 C 
BRANCH  11  12
ATOM     12  C   UNL     1      40.377  22.830 224.098  1.00  0.00    -0.000 C 
BRANCH  12  13
ATOM     13  C   UNL     1      41.270  22.410 225.276  1.00  0.00    -0.000 C 
BRANCH  13  14
ATOM     14  C   UNL     1      40.516  21.563 226.316  1.00  0.00    -0.000 C 
BRANCH  14  15
ATOM     15  C   UNL     1      38.993  21.555 226.089  1.00  0.00    -0.000 C 
BRANCH  15  16
ATOM     16  C   UNL     1      38.408  20.213 225.604  1.00  0.00    -0.000 C 
BRANCH  16  17
ATOM     17  C   UNL     1      37.052  19.831 226.223  1.00  0.00    -0.003 C 
ATOM     18  C   UNL     1      36.440  18.581 225.592  1.00  0.00     0.004 C 
ENDBRANCH  16  17
ENDBRANCH  15  16
ENDBRANCH  14  15
ENDBRANCH  13  14
ENDBRANCH  12  13
ENDBRANCH  11  12
ENDBRANCH   1  11
TORSDOF 14
ENDMDL
MODEL 8
REMARK VINA RESULT:    -3.386      2.883      5.712
REMARK INTER + INTRA:          -8.314
REMARK INTER:                  -6.993
REMARK INTRA:                  -1.322
REMARK UNBOUND:                -2.157
REMARK SMILES CCCCCCCCCCCCCCCC(=O)[O-]
REMARK SMILES IDX 9 1 10 2 11 3 12 4 13 5 14 6 15 7 16 8 17 9 18 10 8 11 7 12
REMARK SMILES IDX 6 13 5 14 4 15 3 16 2 17 1 18
REMARK H PARENT
REMARK Flexibility Score: inf
ROOT
ATOM      1  C   UNL     1      39.222  26.451 225.767  1.00  0.00     0.000 C 
ENDROOT
BRANCH   1   2
ATOM      2  C   UNL     1      40.364  25.542 226.245  1.00  0.00     0.000 C 
BRANCH   2   3
ATOM      3  C   UNL     1      40.901  24.683 225.093  1.00  0.00     0.000 C 
BRANCH   3   4
ATOM      4  C   UNL     1      42.004  23.733 225.583  1.00  0.00     0.000 C 
BRANCH   4   5
ATOM      5  C   UNL     1      41.495  22.303 225.839  1.00  0.00     0.000 C 
BRANCH   5   6
ATOM      6  C   UNL     1      40.519  21.759 224.779  1.00  0.00     0.006 C 
BRANCH   6   7
ATOM      7  C   UNL     1      39.525  20.740 225.349  1.00  0.00     0.053 C 
BRANCH   7   8
ATOM      8  C   UNL     1      40.021  19.346 225.124  1.00  0.00     0.041 C 
ATOM      9  O   UNL     1      40.910  19.122 224.260  1.00  0.00    -0.550 OA
ATOM     10  O   UNL     1      39.537  18.301 225.900  1.00  0.00    -0.550 OA
ENDBRANCH   7   8
ENDBRANCH   6   7
ENDBRANCH   5   6
ENDBRANCH   4   5
ENDBRANCH   3   4
ENDBRANCH   2   3
ENDBRANCH   1   2
BRANCH   1  11
ATOM     11  C   UNL     1      38.578  25.953 224.463  1.00  0.00     0.000 C 
BRANCH  11  12
ATOM     12  C   UNL     1      37.226  25.257 224.700  1.00  0.00    -0.000 C 
BRANCH  12  13
ATOM     13  C   UNL     1      37.308  23.731 224.541  1.00  0.00    -0.000 C 
BRANCH  13  14
ATOM     14  C   UNL     1      36.563  23.226 223.294  1.00  0.00    -0.000 C 
BRANCH  14  15
ATOM     15  C   UNL     1      36.124  24.366 222.357  1.00  0.00    -0.000 C 
BRANCH  15  16
ATOM     16  C   UNL     1      35.235  23.938 221.171  1.00  0.00    -0.000 C 
BRANCH  16  17
ATOM     17  C   UNL     1      35.815  24.244 219.779  1.00  0.00    -0.003 C 
ATOM     18  C   UNL     1      37.123  23.503 219.502  1.00  0.00     0.004 C 
ENDBRANCH  16  17
ENDBRANCH  15  16
ENDBRANCH  14  15
ENDBRANCH  13  14
ENDBRANCH  12  13
ENDBRANCH  11  12
ENDBRANCH   1  11
TORSDOF 14
ENDMDL
MODEL 9
REMARK VINA RESULT:    -3.343      1.341      2.254
REMARK INTER + INTRA:          -8.236
REMARK INTER:                  -6.499
REMARK INTRA:                  -1.737
REMARK UNBOUND:                -2.157
REMARK SMILES CCCCCCCCCCCCCCCC(=O)[O-]
REMARK SMILES IDX 9 1 10 2 11 3 12 4 13 5 14 6 15 7 16 8 17 9 18 10 8 11 7 12
REMARK SMILES IDX 6 13 5 14 4 15 3 16 2 17 1 18
REMARK H PARENT
REMARK Flexibility Score: inf
ROOT
ATOM      1  C   UNL     1      41.586  21.745 224.145  1.00  0.00     0.000 C 
ENDROOT
BRANCH   1   2
ATOM      2  C   UNL     1      40.896  22.527 223.018  1.00  0.00     0.000 C 
BRANCH   2   3
ATOM      3  C   UNL     1      40.903  24.033 223.310  1.00  0.00     0.000 C 
BRANCH   3   4
ATOM      4  C   UNL     1      39.847  24.395 224.364  1.00  0.00     0.000 C 
BRANCH   4   5
ATOM      5  C   UNL     1      38.611  25.088 223.763  1.00  0.00     0.000 C 
BRANCH   5   6
ATOM      6  C   UNL     1      37.405  24.165 223.513  1.00  0.00     0.006 C 
BRANCH   6   7
ATOM      7  C   UNL     1      37.343  23.641 222.073  1.00  0.00     0.053 C 
BRANCH   7   8
ATOM      8  C   UNL     1      36.043  24.020 221.436  1.00  0.00     0.041 C 
ATOM      9  O   UNL     1      34.975  23.979 222.102  1.00  0.00    -0.550 OA
ATOM     10  O   UNL     1      36.016  24.464 220.120  1.00  0.00    -0.550 OA
ENDBRANCH   7   8
ENDBRANCH   6   7
ENDBRANCH   5   6
ENDBRANCH   4   5
ENDBRANCH   3   4
ENDBRANCH   2   3
ENDBRANCH   1   2
BRANCH   1  11
ATOM     11  C   UNL     1      40.698  20.631 224.721  1.00  0.00     0.000 C 
BRANCH  11  12
ATOM     12  C   UNL     1      39.717  21.149 225.789  1.00  0.00    -0.000 C 
BRANCH  12  13
ATOM     13  C   UNL     1      38.252  21.081 225.332  1.00  0.00    -0.000 C 
BRANCH  13  14
ATOM     14  C   UNL     1      37.403  20.146 226.208  1.00  0.00    -0.000 C 
BRANCH  14  15
ATOM     15  C   UNL     1      37.646  18.656 225.904  1.00  0.00    -0.000 C 
BRANCH  15  16
ATOM     16  C   UNL     1      38.016  17.788 227.124  1.00  0.00    -0.000 C 
BRANCH  16  17
ATOM     17  C   UNL     1      39.522  17.700 227.428  1.00  0.00    -0.003 C 
ATOM     18  C   UNL     1      40.349  17.260 226.220  1.00  0.00     0.004 C 
ENDBRANCH  16  17
ENDBRANCH  15  16
ENDBRANCH  14  15
ENDBRANCH  13  14
ENDBRANCH  12  13
ENDBRANCH  11  12
ENDBRANCH   1  11
TORSDOF 14
ENDMDL
