MODEL 1
REMARK VINA RESULT:    -6.730      0.000      0.000
REMARK INTER + INTRA:          -8.555
REMARK INTER:                  -8.304
REMARK INTRA:                  -0.251
REMARK UNBOUND:                -0.251
REMARK SMILES Oc1cc(O)c2cc(O)c(-c3cc(O)c(O)c(O)c3)[o+]c2c1
REMARK SMILES IDX 10 1 20 2 21 3 22 4 2 5 3 6 4 7 6 8 7 9 8 10 11 11 12 12
REMARK SMILES IDX 13 13 19 14 15 15 17 16 14 17 16 19 18 21 9 23 1 25 5 27
REMARK H PARENT 14 18 16 20 18 22 9 24 1 26 5 28
REMARK Flexibility Score: inf
ROOT
ATOM      1  C   UNL     1      -0.991  20.665  49.844  1.00  0.00     0.402 A 
ATOM      2  O   UNL     1      -0.174  21.272  50.702  1.00  0.00    -0.202 OA
ATOM      3  C   UNL     1      -0.538  22.312  51.445  1.00  0.00     0.368 A 
ATOM      4  C   UNL     1       0.391  22.880  52.319  1.00  0.00     0.162 A 
ATOM      5  C   UNL     1       0.036  23.971  53.114  1.00  0.00     0.128 A 
ATOM      6  C   UNL     1      -1.258  24.498  53.035  1.00  0.00     0.093 A 
ATOM      7  C   UNL     1      -2.207  23.947  52.166  1.00  0.00     0.136 A 
ATOM      8  C   UNL     1      -1.849  22.839  51.355  1.00  0.00     0.125 A 
ATOM      9  C   UNL     1      -2.730  22.231  50.446  1.00  0.00     0.078 A 
ATOM     10  C   UNL     1      -2.303  21.144  49.676  1.00  0.00     0.223 A 
ENDROOT
BRANCH   1  11
ATOM     11  C   UNL     1      -0.470  19.508  49.080  1.00  0.00     0.091 A 
ATOM     12  C   UNL     1       0.522  19.667  48.098  1.00  0.00     0.068 A 
ATOM     13  C   UNL     1       0.986  18.563  47.369  1.00  0.00     0.162 A 
ATOM     14  C   UNL     1      -1.017  18.234  49.298  1.00  0.00     0.068 A 
ATOM     15  C   UNL     1       0.449  17.287  47.610  1.00  0.00     0.200 A 
ATOM     16  C   UNL     1      -0.559  17.127  48.577  1.00  0.00     0.162 A 
BRANCH  13  17
ATOM     17  O   UNL     1       1.976  18.731  46.402  1.00  0.00    -0.504 OA
ATOM     18  H   UNL     1       1.771  19.140  45.497  1.00  0.00     0.293 HD
ENDBRANCH  13  17
BRANCH  15  19
ATOM     19  O   UNL     1       0.902  16.176  46.897  1.00  0.00    -0.502 OA
ATOM     20  H   UNL     1       0.348  15.741  46.169  1.00  0.00     0.293 HD
ENDBRANCH  15  19
BRANCH  16  21
ATOM     21  O   UNL     1      -1.119  15.875  48.834  1.00  0.00    -0.504 OA
ATOM     22  H   UNL     1      -2.106  15.755  49.024  1.00  0.00     0.293 HD
ENDBRANCH  16  21
ENDBRANCH   1  11
BRANCH  10  23
ATOM     23  O   UNL     1      -3.162  20.572  48.737  1.00  0.00    -0.500 OA
ATOM     24  H   UNL     1      -2.862  19.817  48.131  1.00  0.00     0.294 HD
ENDBRANCH  10  23
BRANCH   5  25
ATOM     25  O   UNL     1       0.977  24.524  53.980  1.00  0.00    -0.507 OA
ATOM     26  H   UNL     1       0.745  25.303  54.586  1.00  0.00     0.293 HD
ENDBRANCH   5  25
BRANCH   7  27
ATOM     27  O   UNL     1      -3.478  24.529  52.148  1.00  0.00    -0.507 OA
ATOM     28  H   UNL     1      -3.868  25.021  51.357  1.00  0.00     0.293 HD
ENDBRANCH   7  27
TORSDOF 7
ENDMDL
MODEL 2
REMARK VINA RESULT:    -6.563      4.269      6.122
REMARK INTER + INTRA:          -8.348
REMARK INTER:                  -7.974
REMARK INTRA:                  -0.374
REMARK UNBOUND:                -0.251
REMARK SMILES Oc1cc(O)c2cc(O)c(-c3cc(O)c(O)c(O)c3)[o+]c2c1
REMARK SMILES IDX 10 1 20 2 21 3 22 4 2 5 3 6 4 7 6 8 7 9 8 10 11 11 12 12
REMARK SMILES IDX 13 13 19 14 15 15 17 16 14 17 16 19 18 21 9 23 1 25 5 27
REMARK H PARENT 14 18 16 20 18 22 9 24 1 26 5 28
REMARK Flexibility Score: inf
ROOT
ATOM      1  C   UNL     1       1.975  18.407  47.236  1.00  0.00     0.402 A 
ATOM      2  O   UNL     1       1.011  17.714  47.837  1.00  0.00    -0.202 OA
ATOM      3  C   UNL     1      -0.235  18.158  47.965  1.00  0.00     0.368 A 
ATOM      4  C   UNL     1      -1.180  17.356  48.611  1.00  0.00     0.162 A 
ATOM      5  C   UNL     1      -2.496  17.795  48.756  1.00  0.00     0.128 A 
ATOM      6  C   UNL     1      -2.873  19.046  48.253  1.00  0.00     0.093 A 
ATOM      7  C   UNL     1      -1.946  19.868  47.603  1.00  0.00     0.136 A 
ATOM      8  C   UNL     1      -0.605  19.426  47.455  1.00  0.00     0.125 A 
ATOM      9  C   UNL     1       0.395  20.189  46.829  1.00  0.00     0.078 A 
ATOM     10  C   UNL     1       1.696  19.687  46.725  1.00  0.00     0.223 A 
ENDROOT
BRANCH   1  11
ATOM     11  C   UNL     1       3.323  17.799  47.148  1.00  0.00     0.091 A 
ATOM     12  C   UNL     1       4.256  17.935  48.189  1.00  0.00     0.068 A 
ATOM     13  C   UNL     1       5.536  17.372  48.077  1.00  0.00     0.162 A 
ATOM     14  C   UNL     1       3.698  17.121  45.978  1.00  0.00     0.068 A 
ATOM     15  C   UNL     1       5.895  16.675  46.911  1.00  0.00     0.200 A 
ATOM     16  C   UNL     1       4.971  16.554  45.858  1.00  0.00     0.162 A 
BRANCH  13  17
ATOM     17  O   UNL     1       6.451  17.508  49.119  1.00  0.00    -0.504 OA
ATOM     18  H   UNL     1       7.275  16.920  49.182  1.00  0.00     0.293 HD
ENDBRANCH  13  17
BRANCH  15  19
ATOM     19  O   UNL     1       7.162  16.103  46.785  1.00  0.00    -0.502 OA
ATOM     20  H   UNL     1       7.295  15.105  46.674  1.00  0.00     0.293 HD
ENDBRANCH  15  19
BRANCH  16  21
ATOM     21  O   UNL     1       5.301  15.875  44.685  1.00  0.00    -0.504 OA
ATOM     22  H   UNL     1       4.690  15.867  43.877  1.00  0.00     0.293 HD
ENDBRANCH  16  21
ENDBRANCH   1  11
BRANCH  10  23
ATOM     23  O   UNL     1       2.701  20.465  46.148  1.00  0.00    -0.500 OA
ATOM     24  H   UNL     1       2.527  21.040  45.332  1.00  0.00     0.294 HD
ENDBRANCH  10  23
BRANCH   5  25
ATOM     25  O   UNL     1      -3.423  16.981  49.404  1.00  0.00    -0.507 OA
ATOM     26  H   UNL     1      -4.305  17.349  49.742  1.00  0.00     0.293 HD
ENDBRANCH   5  25
BRANCH   7  27
ATOM     27  O   UNL     1      -2.401  21.101  47.126  1.00  0.00    -0.507 OA
ATOM     28  H   UNL     1      -1.799  21.851  46.820  1.00  0.00     0.293 HD
ENDBRANCH   7  27
TORSDOF 7
ENDMDL
MODEL 3
REMARK VINA RESULT:    -6.513      1.632      7.246
REMARK INTER + INTRA:          -8.287
REMARK INTER:                  -8.126
REMARK INTRA:                  -0.161
REMARK UNBOUND:                -0.251
REMARK SMILES Oc1cc(O)c2cc(O)c(-c3cc(O)c(O)c(O)c3)[o+]c2c1
REMARK SMILES IDX 10 1 20 2 21 3 22 4 2 5 3 6 4 7 6 8 7 9 8 10 11 11 12 12
REMARK SMILES IDX 13 13 19 14 15 15 17 16 14 17 16 19 18 21 9 23 1 25 5 27
REMARK H PARENT 14 18 16 20 18 22 9 24 1 26 5 28
REMARK Flexibility Score: inf
ROOT
ATOM      1  C   UNL     1      -1.790  21.823  49.684  1.00  0.00     0.402 A 
ATOM      2  O   UNL     1      -1.720  20.561  50.100  1.00  0.00    -0.202 OA
ATOM      3  C   UNL     1      -1.472  19.538  49.289  1.00  0.00     0.368 A 
ATOM      4  C   UNL     1      -1.415  18.247  49.820  1.00  0.00     0.162 A 
ATOM      5  C   UNL     1      -1.152  17.155  48.993  1.00  0.00     0.128 A 
ATOM      6  C   UNL     1      -0.945  17.353  47.623  1.00  0.00     0.093 A 
ATOM      7  C   UNL     1      -0.997  18.635  47.066  1.00  0.00     0.136 A 
ATOM      8  C   UNL     1      -1.266  19.749  47.904  1.00  0.00     0.125 A 
ATOM      9  C   UNL     1      -1.350  21.069  47.431  1.00  0.00     0.078 A 
ATOM     10  C   UNL     1      -1.623  22.115  48.318  1.00  0.00     0.223 A 
ENDROOT
BRANCH   1  11
ATOM     11  C   UNL     1      -2.064  22.877  50.688  1.00  0.00     0.091 A 
ATOM     12  C   UNL     1      -3.191  23.709  50.586  1.00  0.00     0.068 A 
ATOM     13  C   UNL     1      -3.421  24.717  51.534  1.00  0.00     0.162 A 
ATOM     14  C   UNL     1      -1.150  23.089  51.732  1.00  0.00     0.068 A 
ATOM     15  C   UNL     1      -2.513  24.907  52.589  1.00  0.00     0.200 A 
ATOM     16  C   UNL     1      -1.372  24.090  52.683  1.00  0.00     0.162 A 
BRANCH  13  17
ATOM     17  O   UNL     1      -4.546  25.532  51.427  1.00  0.00    -0.504 OA
ATOM     18  H   UNL     1      -4.468  26.520  51.216  1.00  0.00     0.293 HD
ENDBRANCH  13  17
BRANCH  15  19
ATOM     19  O   UNL     1      -2.728  25.902  53.544  1.00  0.00    -0.502 OA
ATOM     20  H   UNL     1      -2.198  26.766  53.552  1.00  0.00     0.293 HD
ENDBRANCH  15  19
BRANCH  16  21
ATOM     21  O   UNL     1      -0.448  24.259  53.714  1.00  0.00    -0.504 OA
ATOM     22  H   UNL     1      -0.104  23.481  54.263  1.00  0.00     0.293 HD
ENDBRANCH  16  21
ENDBRANCH   1  11
BRANCH  10  23
ATOM     23  O   UNL     1      -1.757  23.419  47.841  1.00  0.00    -0.500 OA
ATOM     24  H   UNL     1      -2.612  23.742  47.406  1.00  0.00     0.294 HD
ENDBRANCH  10  23
BRANCH   5  25
ATOM     25  O   UNL     1      -1.100  15.875  49.542  1.00  0.00    -0.507 OA
ATOM     26  H   UNL     1      -1.217  15.048  48.968  1.00  0.00     0.293 HD
ENDBRANCH   5  25
BRANCH   7  27
ATOM     27  O   UNL     1      -0.776  18.750  45.691  1.00  0.00    -0.507 OA
ATOM     28  H   UNL     1      -0.805  19.620  45.179  1.00  0.00     0.293 HD
ENDBRANCH   7  27
TORSDOF 7
ENDMDL
MODEL 4
REMARK VINA RESULT:    -6.478      3.088      5.663
REMARK INTER + INTRA:          -8.244
REMARK INTER:                  -8.392
REMARK INTRA:                   0.149
REMARK UNBOUND:                -0.251
REMARK SMILES Oc1cc(O)c2cc(O)c(-c3cc(O)c(O)c(O)c3)[o+]c2c1
REMARK SMILES IDX 10 1 20 2 21 3 22 4 2 5 3 6 4 7 6 8 7 9 8 10 11 11 12 12
REMARK SMILES IDX 13 13 19 14 15 15 17 16 14 17 16 19 18 21 9 23 1 25 5 27
REMARK H PARENT 14 18 16 20 18 22 9 24 1 26 5 28
REMARK Flexibility Score: inf
ROOT
ATOM      1  C   UNL     1       1.327  17.595  47.217  1.00  0.00     0.402 A 
ATOM      2  O   UNL     1       0.978  18.575  48.047  1.00  0.00    -0.202 OA
ATOM      3  C   UNL     1      -0.286  18.897  48.305  1.00  0.00     0.368 A 
ATOM      4  C   UNL     1      -0.554  19.940  49.193  1.00  0.00     0.162 A 
ATOM      5  C   UNL     1      -1.870  20.298  49.485  1.00  0.00     0.128 A 
ATOM      6  C   UNL     1      -2.929  19.607  48.884  1.00  0.00     0.093 A 
ATOM      7  C   UNL     1      -2.688  18.558  47.990  1.00  0.00     0.136 A 
ATOM      8  C   UNL     1      -1.350  18.193  47.689  1.00  0.00     0.125 A 
ATOM      9  C   UNL     1      -1.012  17.163  46.795  1.00  0.00     0.078 A 
ATOM     10  C   UNL     1       0.331  16.863  46.545  1.00  0.00     0.223 A 
ENDROOT
BRANCH   1  11
ATOM     11  C   UNL     1       2.770  17.325  47.020  1.00  0.00     0.091 A 
ATOM     12  C   UNL     1       3.275  16.917  45.775  1.00  0.00     0.068 A 
ATOM     13  C   UNL     1       4.641  16.644  45.613  1.00  0.00     0.162 A 
ATOM     14  C   UNL     1       3.646  17.424  48.113  1.00  0.00     0.068 A 
ATOM     15  C   UNL     1       5.514  16.769  46.707  1.00  0.00     0.200 A 
ATOM     16  C   UNL     1       5.010  17.157  47.961  1.00  0.00     0.162 A 
BRANCH  13  17
ATOM     17  O   UNL     1       5.131  16.247  44.371  1.00  0.00    -0.504 OA
ATOM     18  H   UNL     1       5.306  15.272  44.156  1.00  0.00     0.293 HD
ENDBRANCH  13  17
BRANCH  15  19
ATOM     19  O   UNL     1       6.878  16.506  46.564  1.00  0.00    -0.502 OA
ATOM     20  H   UNL     1       7.254  16.038  45.748  1.00  0.00     0.293 HD
ENDBRANCH  15  19
BRANCH  16  21
ATOM     21  O   UNL     1       5.850  17.281  49.068  1.00  0.00    -0.504 OA
ATOM     22  H   UNL     1       6.115  16.485  49.635  1.00  0.00     0.293 HD
ENDBRANCH  16  21
ENDBRANCH   1  11
BRANCH  10  23
ATOM     23  O   UNL     1       0.666  15.875  45.620  1.00  0.00    -0.500 OA
ATOM     24  H   UNL     1       0.196  15.801  44.726  1.00  0.00     0.294 HD
ENDBRANCH  10  23
BRANCH   5  25
ATOM     25  O   UNL     1      -2.117  21.343  50.374  1.00  0.00    -0.507 OA
ATOM     26  H   UNL     1      -2.812  21.260  51.108  1.00  0.00     0.293 HD
ENDBRANCH   5  25
BRANCH   7  27
ATOM     27  O   UNL     1      -3.798  17.916  47.435  1.00  0.00    -0.507 OA
ATOM     28  H   UNL     1      -4.359  18.293  46.685  1.00  0.00     0.293 HD
ENDBRANCH   7  27
TORSDOF 7
ENDMDL
MODEL 5
REMARK VINA RESULT:    -6.424      1.658      7.214
REMARK INTER + INTRA:          -8.178
REMARK INTER:                  -8.016
REMARK INTRA:                  -0.162
REMARK UNBOUND:                -0.251
REMARK SMILES Oc1cc(O)c2cc(O)c(-c3cc(O)c(O)c(O)c3)[o+]c2c1
REMARK SMILES IDX 10 1 20 2 21 3 22 4 2 5 3 6 4 7 6 8 7 9 8 10 11 11 12 12
REMARK SMILES IDX 13 13 19 14 15 15 17 16 14 17 16 19 18 21 9 23 1 25 5 27
REMARK H PARENT 14 18 16 20 18 22 9 24 1 26 5 28
REMARK Flexibility Score: inf
ROOT
ATOM      1  C   UNL     1      -1.720  21.835  49.618  1.00  0.00     0.402 A 
ATOM      2  O   UNL     1      -1.677  20.562  50.005  1.00  0.00    -0.202 OA
ATOM      3  C   UNL     1      -1.471  19.551  49.167  1.00  0.00     0.368 A 
ATOM      4  C   UNL     1      -1.439  18.248  49.670  1.00  0.00     0.162 A 
ATOM      5  C   UNL     1      -1.222  17.167  48.814  1.00  0.00     0.128 A 
ATOM      6  C   UNL     1      -1.035  17.390  47.445  1.00  0.00     0.093 A 
ATOM      7  C   UNL     1      -1.063  18.686  46.917  1.00  0.00     0.136 A 
ATOM      8  C   UNL     1      -1.286  19.787  47.784  1.00  0.00     0.125 A 
ATOM      9  C   UNL     1      -1.343  21.119  47.341  1.00  0.00     0.078 A 
ATOM     10  C   UNL     1      -1.571  22.153  48.256  1.00  0.00     0.223 A 
ENDROOT
BRANCH   1  11
ATOM     11  C   UNL     1      -1.946  22.873  50.650  1.00  0.00     0.091 A 
ATOM     12  C   UNL     1      -1.066  23.031  51.733  1.00  0.00     0.068 A 
ATOM     13  C   UNL     1      -1.309  24.005  52.712  1.00  0.00     0.162 A 
ATOM     14  C   UNL     1      -3.092  23.680  50.577  1.00  0.00     0.068 A 
ATOM     15  C   UNL     1      -2.447  24.825  52.619  1.00  0.00     0.200 A 
ATOM     16  C   UNL     1      -3.342  24.656  51.547  1.00  0.00     0.162 A 
BRANCH  13  17
ATOM     17  O   UNL     1      -0.426  24.158  53.780  1.00  0.00    -0.504 OA
ATOM     18  H   UNL     1       0.551  23.902  53.701  1.00  0.00     0.293 HD
ENDBRANCH  13  17
BRANCH  15  19
ATOM     19  O   UNL     1      -2.703  25.803  53.581  1.00  0.00    -0.502 OA
ATOM     20  H   UNL     1      -2.614  25.618  54.574  1.00  0.00     0.293 HD
ENDBRANCH  15  19
BRANCH  16  21
ATOM     21  O   UNL     1      -4.484  25.447  51.431  1.00  0.00    -0.504 OA
ATOM     22  H   UNL     1      -5.110  25.609  52.210  1.00  0.00     0.293 HD
ENDBRANCH  16  21
ENDBRANCH   1  11
BRANCH  10  23
ATOM     23  O   UNL     1      -1.678  23.470  47.810  1.00  0.00    -0.500 OA
ATOM     24  H   UNL     1      -0.877  23.977  47.452  1.00  0.00     0.294 HD
ENDBRANCH  10  23
BRANCH   5  25
ATOM     25  O   UNL     1      -1.195  15.875  49.334  1.00  0.00    -0.507 OA
ATOM     26  H   UNL     1      -0.374  15.512  49.806  1.00  0.00     0.293 HD
ENDBRANCH   5  25
BRANCH   7  27
ATOM     27  O   UNL     1      -0.864  18.825  45.540  1.00  0.00    -0.507 OA
ATOM     28  H   UNL     1      -0.663  18.059  44.913  1.00  0.00     0.293 HD
ENDBRANCH   7  27
TORSDOF 7
ENDMDL
MODEL 6
REMARK VINA RESULT:    -6.388      2.146      2.701
REMARK INTER + INTRA:          -8.133
REMARK INTER:                  -7.779
REMARK INTRA:                  -0.354
REMARK UNBOUND:                -0.251
REMARK SMILES Oc1cc(O)c2cc(O)c(-c3cc(O)c(O)c(O)c3)[o+]c2c1
REMARK SMILES IDX 10 1 20 2 21 3 22 4 2 5 3 6 4 7 6 8 7 9 8 10 11 11 12 12
REMARK SMILES IDX 13 13 19 14 15 15 17 16 14 17 16 19 18 21 9 23 1 25 5 27
REMARK H PARENT 14 18 16 20 18 22 9 24 1 26 5 28
REMARK Flexibility Score: inf
ROOT
ATOM      1  C   UNL     1      -1.727  21.626  49.011  1.00  0.00     0.402 A 
ATOM      2  O   UNL     1      -2.089  21.994  50.238  1.00  0.00    -0.202 OA
ATOM      3  C   UNL     1      -2.119  23.260  50.641  1.00  0.00     0.368 A 
ATOM      4  C   UNL     1      -2.516  23.547  51.949  1.00  0.00     0.162 A 
ATOM      5  C   UNL     1      -2.561  24.868  52.399  1.00  0.00     0.128 A 
ATOM      6  C   UNL     1      -2.205  25.910  51.535  1.00  0.00     0.093 A 
ATOM      7  C   UNL     1      -1.805  25.649  50.220  1.00  0.00     0.136 A 
ATOM      8  C   UNL     1      -1.756  24.307  49.760  1.00  0.00     0.125 A 
ATOM      9  C   UNL     1      -1.353  23.949  48.462  1.00  0.00     0.078 A 
ATOM     10  C   UNL     1      -1.326  22.604  48.082  1.00  0.00     0.223 A 
ENDROOT
BRANCH   1  11
ATOM     11  C   UNL     1      -1.744  20.183  48.679  1.00  0.00     0.091 A 
ATOM     12  C   UNL     1      -0.570  19.413  48.705  1.00  0.00     0.068 A 
ATOM     13  C   UNL     1      -0.601  18.053  48.365  1.00  0.00     0.162 A 
ATOM     14  C   UNL     1      -2.946  19.582  48.276  1.00  0.00     0.068 A 
ATOM     15  C   UNL     1      -1.814  17.454  47.984  1.00  0.00     0.200 A 
ATOM     16  C   UNL     1      -2.989  18.226  47.937  1.00  0.00     0.162 A 
BRANCH  13  17
ATOM     17  O   UNL     1       0.569  17.297  48.400  1.00  0.00    -0.504 OA
ATOM     18  H   UNL     1       0.923  16.906  49.266  1.00  0.00     0.293 HD
ENDBRANCH  13  17
BRANCH  15  19
ATOM     19  O   UNL     1      -1.866  16.100  47.647  1.00  0.00    -0.502 OA
ATOM     20  H   UNL     1      -2.157  15.391  48.310  1.00  0.00     0.293 HD
ENDBRANCH  15  19
BRANCH  16  21
ATOM     21  O   UNL     1      -4.206  17.663  47.555  1.00  0.00    -0.504 OA
ATOM     22  H   UNL     1      -4.773  17.118  48.194  1.00  0.00     0.293 HD
ENDBRANCH  16  21
ENDBRANCH   1  11
BRANCH  10  23
ATOM     23  O   UNL     1      -0.879  22.245  46.811  1.00  0.00    -0.500 OA
ATOM     24  H   UNL     1       0.103  22.274  46.564  1.00  0.00     0.294 HD
ENDBRANCH  10  23
BRANCH   5  25
ATOM     25  O   UNL     1      -2.958  25.134  53.708  1.00  0.00    -0.507 OA
ATOM     26  H   UNL     1      -2.673  24.540  54.479  1.00  0.00     0.293 HD
ENDBRANCH   5  25
BRANCH   7  27
ATOM     27  O   UNL     1      -1.469  26.744  49.419  1.00  0.00    -0.507 OA
ATOM     28  H   UNL     1      -1.021  27.583  49.758  1.00  0.00     0.293 HD
ENDBRANCH   7  27
TORSDOF 7
ENDMDL
MODEL 7
REMARK VINA RESULT:    -6.312      2.004      7.627
REMARK INTER + INTRA:          -8.039
REMARK INTER:                  -7.655
REMARK INTRA:                  -0.385
REMARK UNBOUND:                -0.251
REMARK SMILES Oc1cc(O)c2cc(O)c(-c3cc(O)c(O)c(O)c3)[o+]c2c1
REMARK SMILES IDX 10 1 20 2 21 3 22 4 2 5 3 6 4 7 6 8 7 9 8 10 11 11 12 12
REMARK SMILES IDX 13 13 19 14 15 15 17 16 14 17 16 19 18 21 9 23 1 25 5 27
REMARK H PARENT 14 18 16 20 18 22 9 24 1 26 5 28
REMARK Flexibility Score: inf
ROOT
ATOM      1  C   UNL     1      -1.559  22.176  50.143  1.00  0.00     0.402 A 
ATOM      2  O   UNL     1      -2.533  21.475  49.567  1.00  0.00    -0.202 OA
ATOM      3  C   UNL     1      -2.351  20.267  49.042  1.00  0.00     0.368 A 
ATOM      4  C   UNL     1      -3.436  19.608  48.461  1.00  0.00     0.162 A 
ATOM      5  C   UNL     1      -3.275  18.338  47.905  1.00  0.00     0.128 A 
ATOM      6  C   UNL     1      -2.018  17.722  47.929  1.00  0.00     0.093 A 
ATOM      7  C   UNL     1      -0.915  18.362  48.504  1.00  0.00     0.136 A 
ATOM      8  C   UNL     1      -1.075  19.654  49.069  1.00  0.00     0.125 A 
ATOM      9  C   UNL     1      -0.022  20.376  49.655  1.00  0.00     0.078 A 
ATOM     10  C   UNL     1      -0.256  21.648  50.188  1.00  0.00     0.223 A 
ENDROOT
BRANCH   1  11
ATOM     11  C   UNL     1      -1.891  23.507  50.701  1.00  0.00     0.091 A 
ATOM     12  C   UNL     1      -2.214  23.671  52.058  1.00  0.00     0.068 A 
ATOM     13  C   UNL     1      -2.548  24.935  52.564  1.00  0.00     0.162 A 
ATOM     14  C   UNL     1      -1.938  24.620  49.848  1.00  0.00     0.068 A 
ATOM     15  C   UNL     1      -2.570  26.049  51.707  1.00  0.00     0.200 A 
ATOM     16  C   UNL     1      -2.267  25.886  50.344  1.00  0.00     0.162 A 
BRANCH  13  17
ATOM     17  O   UNL     1      -2.861  25.087  53.914  1.00  0.00    -0.504 OA
ATOM     18  H   UNL     1      -2.613  25.926  54.425  1.00  0.00     0.293 HD
ENDBRANCH  13  17
BRANCH  15  19
ATOM     19  O   UNL     1      -2.895  27.316  52.194  1.00  0.00    -0.502 OA
ATOM     20  H   UNL     1      -2.243  27.867  52.741  1.00  0.00     0.293 HD
ENDBRANCH  15  19
BRANCH  16  21
ATOM     21  O   UNL     1      -2.289  26.970  49.467  1.00  0.00    -0.504 OA
ATOM     22  H   UNL     1      -2.641  27.879  49.741  1.00  0.00     0.293 HD
ENDBRANCH  16  21
ENDBRANCH   1  11
BRANCH  10  23
ATOM     23  O   UNL     1       0.799  22.386  50.724  1.00  0.00    -0.500 OA
ATOM     24  H   UNL     1       1.574  21.939  51.200  1.00  0.00     0.294 HD
ENDBRANCH  10  23
BRANCH   5  25
ATOM     25  O   UNL     1      -4.370  17.697  47.330  1.00  0.00    -0.507 OA
ATOM     26  H   UNL     1      -4.867  16.959  47.817  1.00  0.00     0.293 HD
ENDBRANCH   5  25
BRANCH   7  27
ATOM     27  O   UNL     1       0.305  17.679  48.491  1.00  0.00    -0.507 OA
ATOM     28  H   UNL     1       1.190  18.088  48.751  1.00  0.00     0.293 HD
ENDBRANCH   7  27
TORSDOF 7
ENDMDL
MODEL 8
REMARK VINA RESULT:    -6.203     10.029     12.447
REMARK INTER + INTRA:          -7.904
REMARK INTER:                  -7.899
REMARK INTRA:                  -0.005
REMARK UNBOUND:                -0.251
REMARK SMILES Oc1cc(O)c2cc(O)c(-c3cc(O)c(O)c(O)c3)[o+]c2c1
REMARK SMILES IDX 10 1 20 2 21 3 22 4 2 5 3 6 4 7 6 8 7 9 8 10 11 11 12 12
REMARK SMILES IDX 13 13 19 14 15 15 17 16 14 17 16 19 18 21 9 23 1 25 5 27
REMARK H PARENT 14 18 16 20 18 22 9 24 1 26 5 28
REMARK Flexibility Score: inf
ROOT
ATOM      1  C   UNL     1       3.601  23.017  39.800  1.00  0.00     0.402 A 
ATOM      2  O   UNL     1       3.997  22.950  41.068  1.00  0.00    -0.202 OA
ATOM      3  C   UNL     1       5.046  22.238  41.469  1.00  0.00     0.368 A 
ATOM      4  C   UNL     1       5.386  22.233  42.824  1.00  0.00     0.162 A 
ATOM      5  C   UNL     1       6.483  21.498  43.273  1.00  0.00     0.128 A 
ATOM      6  C   UNL     1       7.248  20.762  42.361  1.00  0.00     0.093 A 
ATOM      7  C   UNL     1       6.929  20.751  40.998  1.00  0.00     0.136 A 
ATOM      8  C   UNL     1       5.812  21.496  40.539  1.00  0.00     0.125 A 
ATOM      9  C   UNL     1       5.409  21.533  39.193  1.00  0.00     0.078 A 
ATOM     10  C   UNL     1       4.293  22.287  38.816  1.00  0.00     0.223 A 
ENDROOT
BRANCH   1  11
ATOM     11  C   UNL     1       2.422  23.853  39.477  1.00  0.00     0.091 A 
ATOM     12  C   UNL     1       2.409  24.696  38.354  1.00  0.00     0.068 A 
ATOM     13  C   UNL     1       1.292  25.498  38.077  1.00  0.00     0.162 A 
ATOM     14  C   UNL     1       1.316  23.847  40.340  1.00  0.00     0.068 A 
ATOM     15  C   UNL     1       0.179  25.469  38.934  1.00  0.00     0.200 A 
ATOM     16  C   UNL     1       0.196  24.641  40.071  1.00  0.00     0.162 A 
BRANCH  13  17
ATOM     17  O   UNL     1       1.288  26.326  36.956  1.00  0.00    -0.504 OA
ATOM     18  H   UNL     1       0.423  26.617  36.514  1.00  0.00     0.293 HD
ENDBRANCH  13  17
BRANCH  15  19
ATOM     19  O   UNL     1      -0.943  26.256  38.672  1.00  0.00    -0.502 OA
ATOM     20  H   UNL     1      -1.344  26.873  39.369  1.00  0.00     0.293 HD
ENDBRANCH  15  19
BRANCH  16  21
ATOM     21  O   UNL     1      -0.890  24.596  40.946  1.00  0.00    -0.504 OA
ATOM     22  H   UNL     1      -1.824  24.363  40.634  1.00  0.00     0.293 HD
ENDBRANCH  16  21
ENDBRANCH   1  11
BRANCH  10  23
ATOM     23  O   UNL     1       3.864  22.283  37.489  1.00  0.00    -0.500 OA
ATOM     24  H   UNL     1       2.880  22.256  37.248  1.00  0.00     0.294 HD
ENDBRANCH  10  23
BRANCH   5  25
ATOM     25  O   UNL     1       6.806  21.504  44.629  1.00  0.00    -0.507 OA
ATOM     26  H   UNL     1       6.342  20.887  45.286  1.00  0.00     0.293 HD
ENDBRANCH   5  25
BRANCH   7  27
ATOM     27  O   UNL     1       7.744  19.994  40.152  1.00  0.00    -0.507 OA
ATOM     28  H   UNL     1       7.801  18.986  40.166  1.00  0.00     0.293 HD
ENDBRANCH   7  27
TORSDOF 7
ENDMDL
MODEL 9
REMARK VINA RESULT:    -6.080      4.315      7.703
REMARK INTER + INTRA:          -7.752
REMARK INTER:                  -7.486
REMARK INTRA:                  -0.266
REMARK UNBOUND:                -0.251
REMARK SMILES Oc1cc(O)c2cc(O)c(-c3cc(O)c(O)c(O)c3)[o+]c2c1
REMARK SMILES IDX 10 1 20 2 21 3 22 4 2 5 3 6 4 7 6 8 7 9 8 10 11 11 12 12
REMARK SMILES IDX 13 13 19 14 15 15 17 16 14 17 16 19 18 21 9 23 1 25 5 27
REMARK H PARENT 14 18 16 20 18 22 9 24 1 26 5 28
REMARK Flexibility Score: inf
ROOT
ATOM      1  C   UNL     1       1.629  17.934  46.966  1.00  0.00     0.402 A 
ATOM      2  O   UNL     1       2.674  18.655  47.365  1.00  0.00    -0.202 OA
ATOM      3  C   UNL     1       3.930  18.363  47.039  1.00  0.00     0.368 A 
ATOM      4  C   UNL     1       4.960  19.183  47.504  1.00  0.00     0.162 A 
ATOM      5  C   UNL     1       6.287  18.904  47.175  1.00  0.00     0.128 A 
ATOM      6  C   UNL     1       6.587  17.796  46.374  1.00  0.00     0.093 A 
ATOM      7  C   UNL     1       5.573  16.959  45.895  1.00  0.00     0.136 A 
ATOM      8  C   UNL     1       4.222  17.239  46.230  1.00  0.00     0.125 A 
ATOM      9  C   UNL     1       3.141  16.448  45.806  1.00  0.00     0.078 A 
ATOM     10  C   UNL     1       1.837  16.785  46.181  1.00  0.00     0.223 A 
ENDROOT
BRANCH   1  11
ATOM     11  C   UNL     1       0.277  18.367  47.387  1.00  0.00     0.091 A 
ATOM     12  C   UNL     1      -0.476  17.619  48.307  1.00  0.00     0.068 A 
ATOM     13  C   UNL     1      -1.764  18.033  48.677  1.00  0.00     0.162 A 
ATOM     14  C   UNL     1      -0.288  19.517  46.815  1.00  0.00     0.068 A 
ATOM     15  C   UNL     1      -2.314  19.199  48.117  1.00  0.00     0.200 A 
ATOM     16  C   UNL     1      -1.571  19.939  47.180  1.00  0.00     0.162 A 
BRANCH  13  17
ATOM     17  O   UNL     1      -2.500  17.287  49.596  1.00  0.00    -0.504 OA
ATOM     18  H   UNL     1      -3.109  17.731  50.274  1.00  0.00     0.293 HD
ENDBRANCH  13  17
BRANCH  15  19
ATOM     19  O   UNL     1      -3.592  19.629  48.476  1.00  0.00    -0.502 OA
ATOM     20  H   UNL     1      -4.021  19.367  49.356  1.00  0.00     0.293 HD
ENDBRANCH  15  19
BRANCH  16  21
ATOM     21  O   UNL     1      -2.092  21.095  46.599  1.00  0.00    -0.504 OA
ATOM     22  H   UNL     1      -2.256  21.940  47.133  1.00  0.00     0.293 HD
ENDBRANCH  16  21
ENDBRANCH   1  11
BRANCH  10  23
ATOM     23  O   UNL     1       0.769  15.971  45.802  1.00  0.00    -0.500 OA
ATOM     24  H   UNL     1       0.635  15.049  46.199  1.00  0.00     0.294 HD
ENDBRANCH  10  23
BRANCH   5  25
ATOM     25  O   UNL     1       7.301  19.733  47.650  1.00  0.00    -0.507 OA
ATOM     26  H   UNL     1       7.485  19.829  48.642  1.00  0.00     0.293 HD
ENDBRANCH   5  25
BRANCH   7  27
ATOM     27  O   UNL     1       5.954  15.875  45.099  1.00  0.00    -0.507 OA
ATOM     28  H   UNL     1       6.090  14.935  45.442  1.00  0.00     0.293 HD
ENDBRANCH   7  27
TORSDOF 7
ENDMDL
