MODEL 1
REMARK VINA RESULT:    -7.857      0.000      0.000
REMARK INTER + INTRA:          -8.746
REMARK INTER:                  -8.546
REMARK INTRA:                  -0.200
REMARK UNBOUND:                -0.200
REMARK SMILES C[C@H]1[C@H](C)CC[C@@]2(C(=O)[O-])CC[C@@]3(C)C(=CC[C@@H]4[C@]5(C)CC[C@@H](O)C(C)(C)[C@H]5CC[C@@]43C)[C@@H]12
REMARK SMILES IDX 7 1 6 2 11 3 33 4 5 5 12 6 15 7 2 8 3 9 13 10 16 11 1 12
REMARK SMILES IDX 4 13 14 14 31 15 17 16 18 17 30 18 32 19 19 20 29 21 28 22
REMARK SMILES IDX 21 23 20 24 25 25 22 26 23 27 26 28 27 29 8 30 9 31 10 32
REMARK SMILES IDX 24 33
REMARK H PARENT 24 34
REMARK Flexibility Score: inf
ROOT
ATOM      1  C   UNL     1      11.829 -23.285  -3.542  1.00  0.00     0.017 C 
ATOM      2  C   UNL     1      10.607 -23.656  -2.646  1.00  0.00     0.014 C 
ATOM      3  C   UNL     1      12.487 -22.012  -2.982  1.00  0.00     0.014 C 
ATOM      4  C   UNL     1      12.845 -24.489  -3.596  1.00  0.00     0.030 C 
ATOM      5  C   UNL     1      10.150 -25.091  -2.901  1.00  0.00     0.004 C 
ATOM      6  C   UNL     1      13.817 -21.670  -3.679  1.00  0.00     0.013 C 
ATOM      7  C   UNL     1      14.304 -24.097  -3.950  1.00  0.00    -0.063 C 
ATOM      8  C   UNL     1      12.686 -25.608  -2.514  1.00  0.00    -0.003 C 
ATOM      9  C   UNL     1      11.201 -26.118  -2.411  1.00  0.00    -0.011 C 
ATOM     10  C   UNL     1      14.952 -22.749  -3.531  1.00  0.00    -0.006 C 
ATOM     11  C   UNL     1      14.891 -24.906  -4.842  1.00  0.00    -0.027 C 
ATOM     12  C   UNL     1      13.243 -25.257  -1.127  1.00  0.00     0.008 C 
ATOM     13  C   UNL     1      11.014 -27.443  -3.164  1.00  0.00     0.008 C 
ATOM     14  C   UNL     1      15.329 -22.813  -2.022  1.00  0.00     0.017 C 
ATOM     15  C   UNL     1      16.303 -22.348  -4.388  1.00  0.00    -0.020 C 
ATOM     16  C   UNL     1      16.015 -24.521  -5.723  1.00  0.00     0.032 C 
ATOM     17  C   UNL     1      16.279 -22.992  -5.840  1.00  0.00     0.006 C 
ATOM     18  C   UNL     1      17.636 -22.839  -3.715  1.00  0.00     0.008 C 
ATOM     19  C   UNL     1      16.391 -20.783  -4.423  1.00  0.00     0.012 C 
ATOM     20  C   UNL     1      17.585 -22.710  -6.746  1.00  0.00    -0.025 C 
ATOM     21  C   UNL     1      18.925 -22.559  -4.522  1.00  0.00     0.005 C 
ATOM     22  C   UNL     1      18.881 -23.143  -5.952  1.00  0.00     0.003 C 
ATOM     23  C   UNL     1      17.553 -23.560  -8.067  1.00  0.00     0.010 C 
ATOM     24  C   UNL     1      17.586 -21.207  -7.181  1.00  0.00     0.012 C 
ATOM     25  C   UNL     1      20.248 -23.068  -6.758  1.00  0.00    -0.006 C 
ATOM     26  C   UNL     1      18.839 -23.467  -8.909  1.00  0.00     0.033 C 
ATOM     27  C   UNL     1      20.080 -23.876  -8.089  1.00  0.00     0.120 C 
ATOM     28  C   UNL     1      20.727 -21.619  -7.042  1.00  0.00     0.014 C 
ATOM     29  C   UNL     1      21.374 -23.762  -5.942  1.00  0.00     0.014 C 
ENDROOT
BRANCH   1  30
ATOM     30  C   UNL     1      11.332 -22.946  -4.955  1.00  0.00     0.048 C 
ATOM     31  O   UNL     1      10.397 -22.116  -5.126  1.00  0.00    -0.550 OA
ATOM     32  O   UNL     1      11.967 -23.468  -6.078  1.00  0.00    -0.550 OA
ENDBRANCH   1  30
BRANCH  27  33
ATOM     33  O   UNL     1      21.242 -23.830  -8.884  1.00  0.00    -0.393 OA
ATOM     34  H   UNL     1      21.911 -23.260  -8.423  1.00  0.00     0.210 HD
ENDBRANCH  27  33
TORSDOF 2
ENDMDL
MODEL 2
REMARK VINA RESULT:    -7.788      2.747      4.793
REMARK INTER + INTRA:          -8.671
REMARK INTER:                  -8.432
REMARK INTRA:                  -0.239
REMARK UNBOUND:                -0.200
REMARK SMILES C[C@H]1[C@H](C)CC[C@@]2(C(=O)[O-])CC[C@@]3(C)C(=CC[C@@H]4[C@]5(C)CC[C@@H](O)C(C)(C)[C@H]5CC[C@@]43C)[C@@H]12
REMARK SMILES IDX 7 1 6 2 11 3 33 4 5 5 12 6 15 7 2 8 3 9 13 10 16 11 1 12
REMARK SMILES IDX 4 13 14 14 31 15 17 16 18 17 30 18 32 19 19 20 29 21 28 22
REMARK SMILES IDX 21 23 20 24 25 25 22 26 23 27 26 28 27 29 8 30 9 31 10 32
REMARK SMILES IDX 24 33
REMARK H PARENT 24 34
REMARK Flexibility Score: inf
ROOT
ATOM      1  C   UNL     1       9.148 -27.286  -1.381  1.00  0.00     0.017 C 
ATOM      2  C   UNL     1       8.385 -28.173  -0.350  1.00  0.00     0.014 C 
ATOM      3  C   UNL     1       9.416 -25.910  -0.750  1.00  0.00     0.014 C 
ATOM      4  C   UNL     1      10.487 -27.996  -1.819  1.00  0.00     0.030 C 
ATOM      5  C   UNL     1       8.427 -29.647  -0.750  1.00  0.00     0.004 C 
ATOM      6  C   UNL     1      10.334 -25.024  -1.613  1.00  0.00     0.013 C 
ATOM      7  C   UNL     1      11.582 -27.043  -2.365  1.00  0.00    -0.063 C 
ATOM      8  C   UNL     1      10.996 -29.175  -0.926  1.00  0.00    -0.003 C 
ATOM      9  C   UNL     1       9.860 -30.225  -0.637  1.00  0.00    -0.011 C 
ATOM     10  C   UNL     1      11.781 -25.589  -1.856  1.00  0.00    -0.006 C 
ATOM     11  C   UNL     1      12.196 -27.485  -3.471  1.00  0.00    -0.027 C 
ATOM     12  C   UNL     1      11.695 -28.753   0.373  1.00  0.00     0.008 C 
ATOM     13  C   UNL     1       9.992 -31.453  -1.551  1.00  0.00     0.008 C 
ATOM     14  C   UNL     1      12.496 -25.628  -0.473  1.00  0.00     0.017 C 
ATOM     15  C   UNL     1      12.660 -24.627  -2.868  1.00  0.00    -0.020 C 
ATOM     16  C   UNL     1      12.869 -26.624  -4.468  1.00  0.00     0.032 C 
ATOM     17  C   UNL     1      12.531 -25.108  -4.377  1.00  0.00     0.006 C 
ATOM     18  C   UNL     1      14.198 -24.620  -2.542  1.00  0.00     0.008 C 
ATOM     19  C   UNL     1      12.170 -23.153  -2.661  1.00  0.00     0.012 C 
ATOM     20  C   UNL     1      13.400 -24.270  -5.448  1.00  0.00    -0.025 C 
ATOM     21  C   UNL     1      15.075 -23.798  -3.514  1.00  0.00     0.005 C 
ATOM     22  C   UNL     1      14.912 -24.233  -4.989  1.00  0.00     0.003 C 
ATOM     23  C   UNL     1      13.369 -24.952  -6.863  1.00  0.00     0.010 C 
ATOM     24  C   UNL     1      12.761 -22.851  -5.622  1.00  0.00     0.012 C 
ATOM     25  C   UNL     1      15.933 -23.569  -6.009  1.00  0.00    -0.006 C 
ATOM     26  C   UNL     1      14.303 -24.300  -7.900  1.00  0.00     0.033 C 
ATOM     27  C   UNL     1      15.762 -24.265  -7.400  1.00  0.00     0.120 C 
ATOM     28  C   UNL     1      15.780 -22.029  -6.133  1.00  0.00     0.014 C 
ATOM     29  C   UNL     1      17.390 -23.839  -5.539  1.00  0.00     0.014 C 
ENDROOT
BRANCH   1  30
ATOM     30  C   UNL     1       8.249 -27.050  -2.604  1.00  0.00     0.048 C 
ATOM     31  O   UNL     1       8.657 -27.325  -3.766  1.00  0.00    -0.550 OA
ATOM     32  O   UNL     1       6.932 -26.625  -2.447  1.00  0.00    -0.550 OA
ENDBRANCH   1  30
BRANCH  27  33
ATOM     33  O   UNL     1      16.612 -23.708  -8.377  1.00  0.00    -0.393 OA
ATOM     34  H   UNL     1      17.453 -24.235  -8.393  1.00  0.00     0.210 HD
ENDBRANCH  27  33
TORSDOF 2
ENDMDL
MODEL 3
REMARK VINA RESULT:    -7.689      6.784      9.983
REMARK INTER + INTRA:          -8.564
REMARK INTER:                  -8.698
REMARK INTRA:                   0.134
REMARK UNBOUND:                -0.200
REMARK SMILES C[C@H]1[C@H](C)CC[C@@]2(C(=O)[O-])CC[C@@]3(C)C(=CC[C@@H]4[C@]5(C)CC[C@@H](O)C(C)(C)[C@H]5CC[C@@]43C)[C@@H]12
REMARK SMILES IDX 7 1 6 2 11 3 33 4 5 5 12 6 15 7 2 8 3 9 13 10 16 11 1 12
REMARK SMILES IDX 4 13 14 14 31 15 17 16 18 17 30 18 32 19 19 20 29 21 28 22
REMARK SMILES IDX 21 23 20 24 25 25 22 26 23 27 26 28 27 29 8 30 9 31 10 32
REMARK SMILES IDX 24 33
REMARK H PARENT 24 34
REMARK Flexibility Score: inf
ROOT
ATOM      1  C   UNL     1      18.083 -16.416   3.266  1.00  0.00     0.017 C 
ATOM      2  C   UNL     1      19.261 -15.786   4.071  1.00  0.00     0.014 C 
ATOM      3  C   UNL     1      17.329 -15.295   2.530  1.00  0.00     0.014 C 
ATOM      4  C   UNL     1      18.632 -17.503   2.265  1.00  0.00     0.030 C 
ATOM      5  C   UNL     1      20.267 -16.851   4.504  1.00  0.00     0.004 C 
ATOM      6  C   UNL     1      16.267 -15.831   1.552  1.00  0.00     0.013 C 
ATOM      7  C   UNL     1      17.713 -17.794   1.050  1.00  0.00    -0.063 C 
ATOM      8  C   UNL     1      20.168 -17.490   1.968  1.00  0.00    -0.003 C 
ATOM      9  C   UNL     1      21.021 -17.447   3.289  1.00  0.00    -0.011 C 
ATOM     10  C   UNL     1      16.819 -16.717   0.377  1.00  0.00    -0.006 C 
ATOM     11  C   UNL     1      17.569 -19.096   0.767  1.00  0.00    -0.027 C 
ATOM     12  C   UNL     1      20.630 -16.409   0.981  1.00  0.00     0.008 C 
ATOM     13  C   UNL     1      21.558 -18.840   3.650  1.00  0.00     0.008 C 
ATOM     14  C   UNL     1      17.710 -15.798  -0.510  1.00  0.00     0.017 C 
ATOM     15  C   UNL     1      15.606 -17.327  -0.561  1.00  0.00    -0.020 C 
ATOM     16  C   UNL     1      16.417 -19.685   0.049  1.00  0.00     0.032 C 
ATOM     17  C   UNL     1      15.164 -18.770  -0.066  1.00  0.00     0.006 C 
ATOM     18  C   UNL     1      16.009 -17.489  -2.072  1.00  0.00     0.008 C 
ATOM     19  C   UNL     1      14.428 -16.294  -0.539  1.00  0.00     0.012 C 
ATOM     20  C   UNL     1      14.020 -19.487  -0.951  1.00  0.00    -0.025 C 
ATOM     21  C   UNL     1      14.933 -18.134  -2.976  1.00  0.00     0.005 C 
ATOM     22  C   UNL     1      14.467 -19.517  -2.467  1.00  0.00     0.003 C 
ATOM     23  C   UNL     1      13.810 -20.980  -0.506  1.00  0.00     0.010 C 
ATOM     24  C   UNL     1      12.658 -18.753  -0.711  1.00  0.00     0.012 C 
ATOM     25  C   UNL     1      13.517 -20.320  -3.455  1.00  0.00    -0.006 C 
ATOM     26  C   UNL     1      12.849 -21.777  -1.407  1.00  0.00     0.033 C 
ATOM     27  C   UNL     1      13.311 -21.760  -2.878  1.00  0.00     0.120 C 
ATOM     28  C   UNL     1      12.156 -19.623  -3.718  1.00  0.00     0.014 C 
ATOM     29  C   UNL     1      14.215 -20.477  -4.836  1.00  0.00     0.014 C 
ENDROOT
BRANCH   1  30
ATOM     30  C   UNL     1      17.088 -17.053   4.248  1.00  0.00     0.048 C 
ATOM     31  O   UNL     1      17.072 -16.708   5.462  1.00  0.00    -0.550 OA
ATOM     32  O   UNL     1      16.117 -17.945   3.800  1.00  0.00    -0.550 OA
ENDBRANCH   1  30
BRANCH  27  33
ATOM     33  O   UNL     1      12.447 -22.532  -3.682  1.00  0.00    -0.393 OA
ATOM     34  H   UNL     1      12.905 -22.712  -4.544  1.00  0.00     0.210 HD
ENDBRANCH  27  33
TORSDOF 2
ENDMDL
MODEL 4
REMARK VINA RESULT:    -7.466      2.789      4.541
REMARK INTER + INTRA:          -8.321
REMARK INTER:                  -8.016
REMARK INTRA:                  -0.305
REMARK UNBOUND:                -0.200
REMARK SMILES C[C@H]1[C@H](C)CC[C@@]2(C(=O)[O-])CC[C@@]3(C)C(=CC[C@@H]4[C@]5(C)CC[C@@H](O)C(C)(C)[C@H]5CC[C@@]43C)[C@@H]12
REMARK SMILES IDX 7 1 6 2 11 3 33 4 5 5 12 6 15 7 2 8 3 9 13 10 16 11 1 12
REMARK SMILES IDX 4 13 14 14 31 15 17 16 18 17 30 18 32 19 19 20 29 21 28 22
REMARK SMILES IDX 21 23 20 24 25 25 22 26 23 27 26 28 27 29 8 30 9 31 10 32
REMARK SMILES IDX 24 33
REMARK H PARENT 24 34
REMARK Flexibility Score: inf
ROOT
ATOM      1  C   UNL     1      13.110 -19.861  -1.210  1.00  0.00     0.017 C 
ATOM      2  C   UNL     1      11.890 -19.373  -0.369  1.00  0.00     0.014 C 
ATOM      3  C   UNL     1      13.557 -21.236  -0.684  1.00  0.00     0.014 C 
ATOM      4  C   UNL     1      12.725 -19.919  -2.737  1.00  0.00     0.030 C 
ATOM      5  C   UNL     1      11.163 -18.224  -1.065  1.00  0.00     0.004 C 
ATOM      6  C   UNL     1      14.631 -21.895  -1.569  1.00  0.00     0.013 C 
ATOM      7  C   UNL     1      13.591 -20.882  -3.592  1.00  0.00    -0.063 C 
ATOM      8  C   UNL     1      11.202 -19.878  -3.093  1.00  0.00    -0.003 C 
ATOM      9  C   UNL     1      10.460 -18.700  -2.361  1.00  0.00    -0.011 C 
ATOM     10  C   UNL     1      14.189 -22.207  -3.045  1.00  0.00    -0.006 C 
ATOM     11  C   UNL     1      13.981 -20.374  -4.770  1.00  0.00    -0.027 C 
ATOM     12  C   UNL     1      10.452 -21.203  -2.898  1.00  0.00     0.008 C 
ATOM     13  C   UNL     1      10.254 -17.503  -3.302  1.00  0.00     0.008 C 
ATOM     14  C   UNL     1      13.062 -23.279  -2.968  1.00  0.00     0.017 C 
ATOM     15  C   UNL     1      15.428 -22.818  -3.947  1.00  0.00    -0.020 C 
ATOM     16  C   UNL     1      15.172 -20.812  -5.528  1.00  0.00     0.032 C 
ATOM     17  C   UNL     1      16.196 -21.668  -4.727  1.00  0.00     0.006 C 
ATOM     18  C   UNL     1      14.955 -23.846  -5.039  1.00  0.00     0.008 C 
ATOM     19  C   UNL     1      16.363 -23.620  -2.979  1.00  0.00     0.012 C 
ATOM     20  C   UNL     1      17.395 -22.162  -5.689  1.00  0.00    -0.025 C 
ATOM     21  C   UNL     1      16.071 -24.385  -5.964  1.00  0.00     0.005 C 
ATOM     22  C   UNL     1      16.852 -23.263  -6.686  1.00  0.00     0.003 C 
ATOM     23  C   UNL     1      17.943 -20.980  -6.567  1.00  0.00     0.010 C 
ATOM     24  C   UNL     1      18.588 -22.651  -4.802  1.00  0.00     0.012 C 
ATOM     25  C   UNL     1      17.870 -23.753  -7.801  1.00  0.00    -0.006 C 
ATOM     26  C   UNL     1      18.979 -21.407  -7.624  1.00  0.00     0.033 C 
ATOM     27  C   UNL     1      18.414 -22.496  -8.559  1.00  0.00     0.120 C 
ATOM     28  C   UNL     1      19.034 -24.619  -7.248  1.00  0.00     0.014 C 
ATOM     29  C   UNL     1      17.119 -24.626  -8.846  1.00  0.00     0.014 C 
ENDROOT
BRANCH   1  30
ATOM     30  C   UNL     1      14.286 -18.897  -0.995  1.00  0.00     0.048 C 
ATOM     31  O   UNL     1      14.586 -18.042  -1.873  1.00  0.00    -0.550 OA
ATOM     32  O   UNL     1      14.980 -18.877   0.213  1.00  0.00    -0.550 OA
ENDBRANCH   1  30
BRANCH  27  33
ATOM     33  O   UNL     1      19.356 -22.843  -9.548  1.00  0.00    -0.393 OA
ATOM     34  H   UNL     1      18.883 -23.335 -10.268  1.00  0.00     0.210 HD
ENDBRANCH  27  33
TORSDOF 2
ENDMDL
MODEL 5
REMARK VINA RESULT:    -7.192      4.340      6.667
REMARK INTER + INTRA:          -8.023
REMARK INTER:                  -7.948
REMARK INTRA:                  -0.075
REMARK UNBOUND:                -0.200
REMARK SMILES C[C@H]1[C@H](C)CC[C@@]2(C(=O)[O-])CC[C@@]3(C)C(=CC[C@@H]4[C@]5(C)CC[C@@H](O)C(C)(C)[C@H]5CC[C@@]43C)[C@@H]12
REMARK SMILES IDX 7 1 6 2 11 3 33 4 5 5 12 6 15 7 2 8 3 9 13 10 16 11 1 12
REMARK SMILES IDX 4 13 14 14 31 15 17 16 18 17 30 18 32 19 19 20 29 21 28 22
REMARK SMILES IDX 21 23 20 24 25 25 22 26 23 27 26 28 27 29 8 30 9 31 10 32
REMARK SMILES IDX 24 33
REMARK H PARENT 24 34
REMARK Flexibility Score: inf
ROOT
ATOM      1  C   UNL     1      12.329 -21.884  -4.930  1.00  0.00     0.017 C 
ATOM      2  C   UNL     1      11.815 -23.111  -5.744  1.00  0.00     0.014 C 
ATOM      3  C   UNL     1      11.518 -21.778  -3.627  1.00  0.00     0.014 C 
ATOM      4  C   UNL     1      13.872 -22.032  -4.644  1.00  0.00     0.030 C 
ATOM      5  C   UNL     1      12.806 -23.505  -6.838  1.00  0.00     0.004 C 
ATOM      6  C   UNL     1      12.074 -20.716  -2.661  1.00  0.00     0.013 C 
ATOM      7  C   UNL     1      14.389 -21.232  -3.420  1.00  0.00    -0.063 C 
ATOM      8  C   UNL     1      14.503 -23.450  -4.845  1.00  0.00    -0.003 C 
ATOM      9  C   UNL     1      14.117 -24.072  -6.238  1.00  0.00    -0.011 C 
ATOM     10  C   UNL     1      13.538 -20.974  -2.147  1.00  0.00    -0.006 C 
ATOM     11  C   UNL     1      15.541 -20.581  -3.634  1.00  0.00    -0.027 C 
ATOM     12  C   UNL     1      14.241 -24.446  -3.708  1.00  0.00     0.008 C 
ATOM     13  C   UNL     1      15.258 -23.913  -7.253  1.00  0.00     0.008 C 
ATOM     14  C   UNL     1      13.499 -22.272  -1.289  1.00  0.00     0.017 C 
ATOM     15  C   UNL     1      14.088 -19.740  -1.199  1.00  0.00    -0.020 C 
ATOM     16  C   UNL     1      15.988 -19.384  -2.888  1.00  0.00     0.032 C 
ATOM     17  C   UNL     1      14.887 -18.667  -2.055  1.00  0.00     0.006 C 
ATOM     18  C   UNL     1      15.070 -20.215  -0.067  1.00  0.00     0.008 C 
ATOM     19  C   UNL     1      12.849 -19.125  -0.462  1.00  0.00     0.012 C 
ATOM     20  C   UNL     1      15.521 -17.443  -1.215  1.00  0.00    -0.025 C 
ATOM     21  C   UNL     1      15.677 -19.085   0.796  1.00  0.00     0.005 C 
ATOM     22  C   UNL     1      16.412 -18.014  -0.041  1.00  0.00     0.003 C 
ATOM     23  C   UNL     1      16.460 -16.562  -2.116  1.00  0.00     0.010 C 
ATOM     24  C   UNL     1      14.363 -16.508  -0.728  1.00  0.00     0.012 C 
ATOM     25  C   UNL     1      17.229 -16.940   0.797  1.00  0.00    -0.006 C 
ATOM     26  C   UNL     1      17.227 -15.469  -1.349  1.00  0.00     0.033 C 
ATOM     27  C   UNL     1      18.064 -16.069  -0.200  1.00  0.00     0.120 C 
ATOM     28  C   UNL     1      16.341 -16.050   1.707  1.00  0.00     0.014 C 
ATOM     29  C   UNL     1      18.242 -17.665   1.728  1.00  0.00     0.014 C 
ENDROOT
BRANCH   1  30
ATOM     30  C   UNL     1      12.058 -20.601  -5.731  1.00  0.00     0.048 C 
ATOM     31  O   UNL     1      11.009 -20.485  -6.423  1.00  0.00    -0.550 OA
ATOM     32  O   UNL     1      12.909 -19.505  -5.628  1.00  0.00    -0.550 OA
ENDBRANCH   1  30
BRANCH  27  33
ATOM     33  O   UNL     1      18.796 -15.063   0.463  1.00  0.00    -0.393 OA
ATOM     34  H   UNL     1      19.644 -14.919  -0.031  1.00  0.00     0.210 HD
ENDBRANCH  27  33
TORSDOF 2
ENDMDL
MODEL 6
REMARK VINA RESULT:    -7.148      6.489      8.607
REMARK INTER + INTRA:          -7.975
REMARK INTER:                  -7.665
REMARK INTRA:                  -0.309
REMARK UNBOUND:                -0.200
REMARK SMILES C[C@H]1[C@H](C)CC[C@@]2(C(=O)[O-])CC[C@@]3(C)C(=CC[C@@H]4[C@]5(C)CC[C@@H](O)C(C)(C)[C@H]5CC[C@@]43C)[C@@H]12
REMARK SMILES IDX 7 1 6 2 11 3 33 4 5 5 12 6 15 7 2 8 3 9 13 10 16 11 1 12
REMARK SMILES IDX 4 13 14 14 31 15 17 16 18 17 30 18 32 19 19 20 29 21 28 22
REMARK SMILES IDX 21 23 20 24 25 25 22 26 23 27 26 28 27 29 8 30 9 31 10 32
REMARK SMILES IDX 24 33
REMARK H PARENT 24 34
REMARK Flexibility Score: inf
ROOT
ATOM      1  C   UNL     1      14.898 -19.712  -3.501  1.00  0.00     0.017 C 
ATOM      2  C   UNL     1      13.775 -20.320  -4.396  1.00  0.00     0.014 C 
ATOM      3  C   UNL     1      14.956 -18.194  -3.741  1.00  0.00     0.014 C 
ATOM      4  C   UNL     1      14.626 -20.051  -1.986  1.00  0.00     0.030 C 
ATOM      5  C   UNL     1      13.403 -21.728  -3.935  1.00  0.00     0.004 C 
ATOM      6  C   UNL     1      15.901 -17.469  -2.764  1.00  0.00     0.013 C 
ATOM      7  C   UNL     1      15.293 -19.085  -0.971  1.00  0.00    -0.063 C 
ATOM      8  C   UNL     1      13.190 -20.545  -1.610  1.00  0.00    -0.003 C 
ATOM      9  C   UNL     1      12.705 -21.708  -2.553  1.00  0.00    -0.011 C 
ATOM     10  C   UNL     1      15.507 -17.572  -1.245  1.00  0.00    -0.006 C 
ATOM     11  C   UNL     1      15.881 -19.697   0.067  1.00  0.00    -0.027 C 
ATOM     12  C   UNL     1      12.128 -19.442  -1.510  1.00  0.00     0.008 C 
ATOM     13  C   UNL     1      12.866 -23.077  -1.875  1.00  0.00     0.008 C 
ATOM     14  C   UNL     1      14.151 -16.827  -1.072  1.00  0.00     0.017 C 
ATOM     15  C   UNL     1      16.624 -16.854  -0.266  1.00  0.00    -0.020 C 
ATOM     16  C   UNL     1      16.984 -19.127   0.872  1.00  0.00     0.032 C 
ATOM     17  C   UNL     1      17.706 -17.901   0.241  1.00  0.00     0.006 C 
ATOM     18  C   UNL     1      15.998 -16.212   1.026  1.00  0.00     0.008 C 
ATOM     19  C   UNL     1      17.262 -15.668  -1.069  1.00  0.00     0.012 C 
ATOM     20  C   UNL     1      18.816 -17.315   1.256  1.00  0.00    -0.025 C 
ATOM     21  C   UNL     1      17.015 -15.598   2.016  1.00  0.00     0.005 C 
ATOM     22  C   UNL     1      18.097 -16.604   2.471  1.00  0.00     0.003 C 
ATOM     23  C   UNL     1      19.700 -18.467   1.858  1.00  0.00     0.010 C 
ATOM     24  C   UNL     1      19.785 -16.377   0.462  1.00  0.00     0.012 C 
ATOM     25  C   UNL     1      19.046 -16.098   3.640  1.00  0.00    -0.006 C 
ATOM     26  C   UNL     1      20.676 -18.006   2.955  1.00  0.00     0.033 C 
ATOM     27  C   UNL     1      19.935 -17.298   4.108  1.00  0.00     0.120 C 
ATOM     28  C   UNL     1      19.919 -14.875   3.251  1.00  0.00     0.014 C 
ATOM     29  C   UNL     1      18.185 -15.665   4.860  1.00  0.00     0.014 C 
ENDROOT
BRANCH   1  30
ATOM     30  C   UNL     1      16.255 -20.285  -3.938  1.00  0.00     0.048 C 
ATOM     31  O   UNL     1      16.839 -21.158  -3.240  1.00  0.00    -0.550 OA
ATOM     32  O   UNL     1      16.817 -19.930  -5.162  1.00  0.00    -0.550 OA
ENDBRANCH   1  30
BRANCH  27  33
ATOM     33  O   UNL     1      20.836 -16.923   5.125  1.00  0.00    -0.393 OA
ATOM     34  H   UNL     1      20.334 -16.873   5.981  1.00  0.00     0.210 HD
ENDBRANCH  27  33
TORSDOF 2
ENDMDL
MODEL 7
REMARK VINA RESULT:    -6.950      3.824      7.067
REMARK INTER + INTRA:          -7.760
REMARK INTER:                  -7.474
REMARK INTRA:                  -0.286
REMARK UNBOUND:                -0.200
REMARK SMILES C[C@H]1[C@H](C)CC[C@@]2(C(=O)[O-])CC[C@@]3(C)C(=CC[C@@H]4[C@]5(C)CC[C@@H](O)C(C)(C)[C@H]5CC[C@@]43C)[C@@H]12
REMARK SMILES IDX 7 1 6 2 11 3 33 4 5 5 12 6 15 7 2 8 3 9 13 10 16 11 1 12
REMARK SMILES IDX 4 13 14 14 31 15 17 16 18 17 30 18 32 19 19 20 29 21 28 22
REMARK SMILES IDX 21 23 20 24 25 25 22 26 23 27 26 28 27 29 8 30 9 31 10 32
REMARK SMILES IDX 24 33
REMARK H PARENT 24 34
REMARK Flexibility Score: inf
ROOT
ATOM      1  C   UNL     1       9.007 -27.908   0.851  1.00  0.00     0.017 C 
ATOM      2  C   UNL     1       8.372 -29.058   1.692  1.00  0.00     0.014 C 
ATOM      3  C   UNL     1      10.496 -27.789   1.218  1.00  0.00     0.014 C 
ATOM      4  C   UNL     1       8.808 -28.189  -0.687  1.00  0.00     0.030 C 
ATOM      5  C   UNL     1       7.024 -29.485   1.115  1.00  0.00     0.004 C 
ATOM      6  C   UNL     1      11.262 -26.813   0.305  1.00  0.00     0.013 C 
ATOM      7  C   UNL     1       9.827 -27.481  -1.618  1.00  0.00    -0.063 C 
ATOM      8  C   UNL     1       8.406 -29.643  -1.102  1.00  0.00    -0.003 C 
ATOM      9  C   UNL     1       7.189 -30.178  -0.260  1.00  0.00    -0.011 C 
ATOM     10  C   UNL     1      11.303 -27.206  -1.217  1.00  0.00    -0.006 C 
ATOM     11  C   UNL     1       9.282 -26.915  -2.703  1.00  0.00    -0.027 C 
ATOM     12  C   UNL     1       9.556 -30.660  -1.109  1.00  0.00     0.008 C 
ATOM     13  C   UNL     1       5.876 -30.070  -1.051  1.00  0.00     0.008 C 
ATOM     14  C   UNL     1      12.114 -28.530  -1.326  1.00  0.00     0.017 C 
ATOM     15  C   UNL     1      12.054 -26.058  -2.133  1.00  0.00    -0.020 C 
ATOM     16  C   UNL     1       9.872 -25.788  -3.458  1.00  0.00     0.032 C 
ATOM     17  C   UNL     1      11.010 -25.019  -2.727  1.00  0.00     0.006 C 
ATOM     18  C   UNL     1      12.827 -26.654  -3.366  1.00  0.00     0.008 C 
ATOM     19  C   UNL     1      13.141 -25.376  -1.234  1.00  0.00     0.012 C 
ATOM     20  C   UNL     1      11.634 -23.883  -3.690  1.00  0.00    -0.025 C 
ATOM     21  C   UNL     1      13.480 -25.610  -4.302  1.00  0.00     0.005 C 
ATOM     22  C   UNL     1      12.473 -24.568  -4.840  1.00  0.00     0.003 C 
ATOM     23  C   UNL     1      10.502 -23.045  -4.386  1.00  0.00     0.010 C 
ATOM     24  C   UNL     1      12.462 -22.879  -2.820  1.00  0.00     0.012 C 
ATOM     25  C   UNL     1      13.037 -23.596  -5.963  1.00  0.00    -0.006 C 
ATOM     26  C   UNL     1      11.013 -22.047  -5.442  1.00  0.00     0.033 C 
ATOM     27  C   UNL     1      11.845 -22.755  -6.531  1.00  0.00     0.120 C 
ATOM     28  C   UNL     1      14.186 -22.675  -5.473  1.00  0.00     0.014 C 
ATOM     29  C   UNL     1      13.606 -24.436  -7.142  1.00  0.00     0.014 C 
ENDROOT
BRANCH   1  30
ATOM     30  C   UNL     1       8.344 -26.577   1.238  1.00  0.00     0.048 C 
ATOM     31  O   UNL     1       7.665 -25.928   0.396  1.00  0.00    -0.550 OA
ATOM     32  O   UNL     1       8.394 -26.112   2.549  1.00  0.00    -0.550 OA
ENDBRANCH   1  30
BRANCH  27  33
ATOM     33  O   UNL     1      12.267 -21.838  -7.513  1.00  0.00    -0.393 OA
ATOM     34  H   UNL     1      12.778 -21.115  -7.064  1.00  0.00     0.210 HD
ENDBRANCH  27  33
TORSDOF 2
ENDMDL
MODEL 8
REMARK VINA RESULT:    -6.896      5.054      7.123
REMARK INTER + INTRA:          -7.701
REMARK INTER:                  -7.393
REMARK INTRA:                  -0.309
REMARK UNBOUND:                -0.200
REMARK SMILES C[C@H]1[C@H](C)CC[C@@]2(C(=O)[O-])CC[C@@]3(C)C(=CC[C@@H]4[C@]5(C)CC[C@@H](O)C(C)(C)[C@H]5CC[C@@]43C)[C@@H]12
REMARK SMILES IDX 7 1 6 2 11 3 33 4 5 5 12 6 15 7 2 8 3 9 13 10 16 11 1 12
REMARK SMILES IDX 4 13 14 14 31 15 17 16 18 17 30 18 32 19 19 20 29 21 28 22
REMARK SMILES IDX 21 23 20 24 25 25 22 26 23 27 26 28 27 29 8 30 9 31 10 32
REMARK SMILES IDX 24 33
REMARK H PARENT 24 34
REMARK Flexibility Score: inf
ROOT
ATOM      1  C   UNL     1      11.340 -20.572  -4.934  1.00  0.00     0.017 C 
ATOM      2  C   UNL     1      10.015 -21.013  -5.628  1.00  0.00     0.014 C 
ATOM      3  C   UNL     1      11.769 -19.209  -5.503  1.00  0.00     0.014 C 
ATOM      4  C   UNL     1      11.139 -20.512  -3.371  1.00  0.00     0.030 C 
ATOM      5  C   UNL     1       9.335 -22.142  -4.855  1.00  0.00     0.004 C 
ATOM      6  C   UNL     1      12.961 -18.593  -4.748  1.00  0.00     0.013 C 
ATOM      7  C   UNL     1      12.132 -19.585  -2.621  1.00  0.00    -0.063 C 
ATOM      8  C   UNL     1       9.668 -20.505  -2.840  1.00  0.00    -0.003 C 
ATOM      9  C   UNL     1       8.805 -21.652  -3.483  1.00  0.00    -0.011 C 
ATOM     10  C   UNL     1      12.705 -18.277  -3.230  1.00  0.00    -0.006 C 
ATOM     11  C   UNL     1      12.638 -20.115  -1.499  1.00  0.00    -0.027 C 
ATOM     12  C   UNL     1       8.946 -19.154  -2.941  1.00  0.00     0.008 C 
ATOM     13  C   UNL     1       8.670 -22.848  -2.529  1.00  0.00     0.008 C 
ATOM     14  C   UNL     1      11.615 -17.167  -3.170  1.00  0.00     0.017 C 
ATOM     15  C   UNL     1      14.062 -17.714  -2.477  1.00  0.00    -0.020 C 
ATOM     16  C   UNL     1      13.925 -19.722  -0.883  1.00  0.00     0.032 C 
ATOM     17  C   UNL     1      14.877 -18.895  -1.796  1.00  0.00     0.006 C 
ATOM     18  C   UNL     1      13.756 -16.679  -1.334  1.00  0.00     0.008 C 
ATOM     19  C   UNL     1      14.905 -16.937  -3.545  1.00  0.00     0.012 C 
ATOM     20  C   UNL     1      16.195 -18.448  -0.980  1.00  0.00    -0.025 C 
ATOM     21  C   UNL     1      14.990 -16.185  -0.544  1.00  0.00     0.005 C 
ATOM     22  C   UNL     1      15.811 -17.338   0.077  1.00  0.00     0.003 C 
ATOM     23  C   UNL     1      16.802 -19.654  -0.176  1.00  0.00     0.010 C 
ATOM     24  C   UNL     1      17.293 -17.993  -1.999  1.00  0.00     0.012 C 
ATOM     25  C   UNL     1      16.969 -16.889   1.068  1.00  0.00    -0.006 C 
ATOM     26  C   UNL     1      17.968 -19.271   0.754  1.00  0.00     0.033 C 
ATOM     27  C   UNL     1      17.555 -18.170   1.752  1.00  0.00     0.120 C 
ATOM     28  C   UNL     1      18.089 -16.059   0.385  1.00  0.00     0.014 C 
ATOM     29  C   UNL     1      16.375 -16.000   2.196  1.00  0.00     0.014 C 
ENDROOT
BRANCH   1  30
ATOM     30  C   UNL     1      12.450 -21.573  -5.289  1.00  0.00     0.048 C 
ATOM     31  O   UNL     1      12.838 -22.428  -4.446  1.00  0.00    -0.550 OA
ATOM     32  O   UNL     1      12.977 -21.625  -6.576  1.00  0.00    -0.550 OA
ENDBRANCH   1  30
BRANCH  27  33
ATOM     33  O   UNL     1      18.617 -17.862   2.625  1.00  0.00    -0.393 OA
ATOM     34  H   UNL     1      19.470 -18.069   2.161  1.00  0.00     0.210 HD
ENDBRANCH  27  33
TORSDOF 2
ENDMDL
MODEL 9
REMARK VINA RESULT:    -6.864      4.408      8.039
REMARK INTER + INTRA:          -7.666
REMARK INTER:                  -7.441
REMARK INTRA:                  -0.225
REMARK UNBOUND:                -0.200
REMARK SMILES C[C@H]1[C@H](C)CC[C@@]2(C(=O)[O-])CC[C@@]3(C)C(=CC[C@@H]4[C@]5(C)CC[C@@H](O)C(C)(C)[C@H]5CC[C@@]43C)[C@@H]12
REMARK SMILES IDX 7 1 6 2 11 3 33 4 5 5 12 6 15 7 2 8 3 9 13 10 16 11 1 12
REMARK SMILES IDX 4 13 14 14 31 15 17 16 18 17 30 18 32 19 19 20 29 21 28 22
REMARK SMILES IDX 21 23 20 24 25 25 22 26 23 27 26 28 27 29 8 30 9 31 10 32
REMARK SMILES IDX 24 33
REMARK H PARENT 24 34
REMARK Flexibility Score: inf
ROOT
ATOM      1  C   UNL     1      16.650 -16.872  -0.709  1.00  0.00     0.017 C 
ATOM      2  C   UNL     1      17.600 -15.944   0.109  1.00  0.00     0.014 C 
ATOM      3  C   UNL     1      17.331 -17.229  -2.041  1.00  0.00     0.014 C 
ATOM      4  C   UNL     1      16.300 -18.161   0.129  1.00  0.00     0.030 C 
ATOM      5  C   UNL     1      17.172 -15.867   1.574  1.00  0.00     0.004 C 
ATOM      6  C   UNL     1      16.560 -18.297  -2.840  1.00  0.00     0.013 C 
ATOM      7  C   UNL     1      15.860 -19.388  -0.714  1.00  0.00    -0.063 C 
ATOM      8  C   UNL     1      17.202 -18.476   1.368  1.00  0.00    -0.003 C 
ATOM      9  C   UNL     1      17.380 -17.220   2.299  1.00  0.00    -0.011 C 
ATOM     10  C   UNL     1      16.416 -19.693  -2.131  1.00  0.00    -0.006 C 
ATOM     11  C   UNL     1      14.795 -20.038  -0.226  1.00  0.00    -0.027 C 
ATOM     12  C   UNL     1      18.560 -19.111   1.039  1.00  0.00     0.008 C 
ATOM     13  C   UNL     1      16.451 -17.297   3.520  1.00  0.00     0.008 C 
ATOM     14  C   UNL     1      17.848 -20.290  -1.999  1.00  0.00     0.017 C 
ATOM     15  C   UNL     1      15.495 -20.742  -3.012  1.00  0.00    -0.020 C 
ATOM     16  C   UNL     1      13.871 -20.871  -1.027  1.00  0.00     0.032 C 
ATOM     17  C   UNL     1      13.970 -20.683  -2.569  1.00  0.00     0.006 C 
ATOM     18  C   UNL     1      15.938 -22.242  -2.855  1.00  0.00     0.008 C 
ATOM     19  C   UNL     1      15.698 -20.390  -4.525  1.00  0.00     0.012 C 
ATOM     20  C   UNL     1      12.987 -21.714  -3.328  1.00  0.00    -0.025 C 
ATOM     21  C   UNL     1      15.054 -23.272  -3.596  1.00  0.00     0.005 C 
ATOM     22  C   UNL     1      13.562 -23.181  -3.202  1.00  0.00     0.003 C 
ATOM     23  C   UNL     1      11.559 -21.724  -2.673  1.00  0.00     0.010 C 
ATOM     24  C   UNL     1      12.797 -21.238  -4.807  1.00  0.00     0.012 C 
ATOM     25  C   UNL     1      12.638 -24.341  -3.771  1.00  0.00    -0.006 C 
ATOM     26  C   UNL     1      10.612 -22.798  -3.239  1.00  0.00     0.033 C 
ATOM     27  C   UNL     1      11.222 -24.209  -3.116  1.00  0.00     0.120 C 
ATOM     28  C   UNL     1      12.537 -24.356  -5.320  1.00  0.00     0.014 C 
ATOM     29  C   UNL     1      13.211 -25.722  -3.345  1.00  0.00     0.014 C 
ENDROOT
BRANCH   1  30
ATOM     30  C   UNL     1      15.368 -16.099  -1.055  1.00  0.00     0.048 C 
ATOM     31  O   UNL     1      14.356 -16.163  -0.304  1.00  0.00    -0.550 OA
ATOM     32  O   UNL     1      15.330 -15.235  -2.145  1.00  0.00    -0.550 OA
ENDBRANCH   1  30
BRANCH  27  33
ATOM     33  O   UNL     1      10.326 -25.185  -3.597  1.00  0.00    -0.393 OA
ATOM     34  H   UNL     1       9.421 -24.976  -3.245  1.00  0.00     0.210 HD
ENDBRANCH  27  33
TORSDOF 2
ENDMDL
