MODEL 1
REMARK VINA RESULT:    -5.362      0.000      0.000
REMARK INTER + INTRA:         -17.068
REMARK INTER:                 -13.512
REMARK INTRA:                  -3.555
REMARK UNBOUND:                -3.555
REMARK SMILES CCCCCCCCCCCCCCCCCCCCCCCCCCCC(=O)[O-]
REMARK SMILES IDX 15 1 16 2 17 3 18 4 19 5 20 6 21 7 22 8 23 9 24 10 25 11
REMARK SMILES IDX 26 12 27 13 28 14 29 15 30 16 14 17 13 18 12 19 11 20 10 21
REMARK SMILES IDX 9 22 8 23 7 24 6 25 5 26 4 27 3 28 2 29 1 30
REMARK H PARENT
REMARK Flexibility Score: inf
ROOT
ATOM      1  C   UNL     1     -14.655  -8.754   9.997  1.00  0.00     0.000 C 
ENDROOT
BRANCH   1   2
ATOM      2  C   UNL     1     -15.434  -7.785   9.082  1.00  0.00     0.000 C 
BRANCH   2   3
ATOM      3  C   UNL     1     -14.639  -7.406   7.822  1.00  0.00     0.000 C 
BRANCH   3   4
ATOM      4  C   UNL     1     -14.197  -5.931   7.814  1.00  0.00     0.000 C 
BRANCH   4   5
ATOM      5  C   UNL     1     -14.593  -5.122   9.067  1.00  0.00     0.000 C 
BRANCH   5   6
ATOM      6  C   UNL     1     -13.546  -4.098   9.545  1.00  0.00     0.000 C 
BRANCH   6   7
ATOM      7  C   UNL     1     -13.871  -2.625   9.228  1.00  0.00     0.000 C 
BRANCH   7   8
ATOM      8  C   UNL     1     -13.205  -2.097   7.939  1.00  0.00     0.000 C 
BRANCH   8   9
ATOM      9  C   UNL     1     -13.962  -0.909   7.316  1.00  0.00     0.000 C 
BRANCH   9  10
ATOM     10  C   UNL     1     -14.623  -1.269   5.977  1.00  0.00     0.000 C 
BRANCH  10  11
ATOM     11  C   UNL     1     -15.967  -1.998   6.155  1.00  0.00     0.000 C 
BRANCH  11  12
ATOM     12  C   UNL     1     -15.940  -3.454   5.656  1.00  0.00     0.006 C 
BRANCH  12  13
ATOM     13  C   UNL     1     -14.663  -3.820   4.876  1.00  0.00     0.053 C 
BRANCH  13  14
ATOM     14  C   UNL     1     -14.956  -4.270   3.476  1.00  0.00     0.041 C 
ATOM     15  O   UNL     1     -14.435  -3.676   2.494  1.00  0.00    -0.550 OA
ATOM     16  O   UNL     1     -15.778  -5.369   3.257  1.00  0.00    -0.550 OA
ENDBRANCH  13  14
ENDBRANCH  12  13
ENDBRANCH  11  12
ENDBRANCH  10  11
ENDBRANCH   9  10
ENDBRANCH   8   9
ENDBRANCH   7   8
ENDBRANCH   6   7
ENDBRANCH   5   6
ENDBRANCH   4   5
ENDBRANCH   3   4
ENDBRANCH   2   3
ENDBRANCH   1   2
BRANCH   1  17
ATOM     17  C   UNL     1     -13.181  -8.937   9.599  1.00  0.00     0.000 C 
BRANCH  17  18
ATOM     18  C   UNL     1     -12.208  -8.203  10.539  1.00  0.00     0.000 C 
BRANCH  18  19
ATOM     19  C   UNL     1     -11.035  -7.551   9.788  1.00  0.00     0.000 C 
BRANCH  19  20
ATOM     20  C   UNL     1     -10.941  -8.003   8.320  1.00  0.00     0.000 C 
BRANCH  20  21
ATOM     21  C   UNL     1      -9.489  -8.033   7.811  1.00  0.00     0.000 C 
BRANCH  21  22
ATOM     22  C   UNL     1      -8.718  -9.275   8.296  1.00  0.00    -0.000 C 
BRANCH  22  23
ATOM     23  C   UNL     1      -8.658 -10.384   7.226  1.00  0.00    -0.000 C 
BRANCH  23  24
ATOM     24  C   UNL     1      -9.037 -11.781   7.746  1.00  0.00    -0.000 C 
BRANCH  24  25
ATOM     25  C   UNL     1     -10.538 -12.082   7.623  1.00  0.00    -0.000 C 
BRANCH  25  26
ATOM     26  C   UNL     1     -11.223 -12.051   8.995  1.00  0.00    -0.000 C 
BRANCH  26  27
ATOM     27  C   UNL     1     -10.993 -13.363   9.755  1.00  0.00    -0.000 C 
BRANCH  27  28
ATOM     28  C   UNL     1     -11.274 -14.576   8.854  1.00  0.00    -0.000 C 
BRANCH  28  29
ATOM     29  C   UNL     1     -10.317 -15.747   9.126  1.00  0.00    -0.003 C 
ATOM     30  C   UNL     1     -11.040 -17.087   9.250  1.00  0.00     0.004 C 
ENDBRANCH  28  29
ENDBRANCH  27  28
ENDBRANCH  26  27
ENDBRANCH  25  26
ENDBRANCH  24  25
ENDBRANCH  23  24
ENDBRANCH  22  23
ENDBRANCH  21  22
ENDBRANCH  20  21
ENDBRANCH  19  20
ENDBRANCH  18  19
ENDBRANCH  17  18
ENDBRANCH   1  17
TORSDOF 26
ENDMDL
MODEL 2
REMARK VINA RESULT:    -5.180     14.591     18.489
REMARK INTER + INTRA:         -16.607
REMARK INTER:                 -11.723
REMARK INTRA:                  -4.884
REMARK UNBOUND:                -3.555
REMARK SMILES CCCCCCCCCCCCCCCCCCCCCCCCCCCC(=O)[O-]
REMARK SMILES IDX 15 1 16 2 17 3 18 4 19 5 20 6 21 7 22 8 23 9 24 10 25 11
REMARK SMILES IDX 26 12 27 13 28 14 29 15 30 16 14 17 13 18 12 19 11 20 10 21
REMARK SMILES IDX 9 22 8 23 7 24 6 25 5 26 4 27 3 28 2 29 1 30
REMARK H PARENT
REMARK Flexibility Score: inf
ROOT
ATOM      1  C   UNL     1      -0.331 -14.861  15.006  1.00  0.00     0.000 C 
ENDROOT
BRANCH   1   2
ATOM      2  C   UNL     1       0.976 -15.576  14.603  1.00  0.00     0.000 C 
BRANCH   2   3
ATOM      3  C   UNL     1       1.530 -16.460  15.733  1.00  0.00     0.000 C 
BRANCH   3   4
ATOM      4  C   UNL     1       2.836 -15.913  16.336  1.00  0.00     0.000 C 
BRANCH   4   5
ATOM      5  C   UNL     1       3.046 -16.223  17.833  1.00  0.00     0.000 C 
BRANCH   5   6
ATOM      6  C   UNL     1       2.417 -15.208  18.807  1.00  0.00     0.000 C 
BRANCH   6   7
ATOM      7  C   UNL     1       1.224 -15.734  19.630  1.00  0.00     0.000 C 
BRANCH   7   8
ATOM      8  C   UNL     1      -0.152 -15.256  19.121  1.00  0.00     0.000 C 
BRANCH   8   9
ATOM      9  C   UNL     1      -0.911 -16.340  18.333  1.00  0.00     0.000 C 
BRANCH   9  10
ATOM     10  C   UNL     1      -2.393 -16.427  18.729  1.00  0.00     0.000 C 
BRANCH  10  11
ATOM     11  C   UNL     1      -3.325 -15.789  17.683  1.00  0.00     0.000 C 
BRANCH  11  12
ATOM     12  C   UNL     1      -3.925 -14.448  18.142  1.00  0.00     0.006 C 
BRANCH  12  13
ATOM     13  C   UNL     1      -3.122 -13.218  17.680  1.00  0.00     0.053 C 
BRANCH  13  14
ATOM     14  C   UNL     1      -4.005 -12.085  17.250  1.00  0.00     0.041 C 
ATOM     15  O   UNL     1      -4.521 -12.082  16.100  1.00  0.00    -0.550 OA
ATOM     16  O   UNL     1      -4.289 -11.050  18.133  1.00  0.00    -0.550 OA
ENDBRANCH  13  14
ENDBRANCH  12  13
ENDBRANCH  11  12
ENDBRANCH  10  11
ENDBRANCH   9  10
ENDBRANCH   8   9
ENDBRANCH   7   8
ENDBRANCH   6   7
ENDBRANCH   5   6
ENDBRANCH   4   5
ENDBRANCH   3   4
ENDBRANCH   2   3
ENDBRANCH   1   2
BRANCH   1  17
ATOM     17  C   UNL     1      -0.167 -13.350  15.244  1.00  0.00     0.000 C 
BRANCH  17  18
ATOM     18  C   UNL     1       0.294 -13.012  16.672  1.00  0.00     0.000 C 
BRANCH  18  19
ATOM     19  C   UNL     1       1.537 -12.107  16.696  1.00  0.00     0.000 C 
BRANCH  19  20
ATOM     20  C   UNL     1       2.184 -11.943  15.310  1.00  0.00     0.000 C 
BRANCH  20  21
ATOM     21  C   UNL     1       3.625 -12.481  15.272  1.00  0.00     0.000 C 
BRANCH  21  22
ATOM     22  C   UNL     1       3.927 -13.275  13.987  1.00  0.00    -0.000 C 
BRANCH  22  23
ATOM     23  C   UNL     1       3.138 -12.749  12.771  1.00  0.00    -0.000 C 
BRANCH  23  24
ATOM     24  C   UNL     1       3.918 -11.749  11.899  1.00  0.00    -0.000 C 
BRANCH  24  25
ATOM     25  C   UNL     1       3.360 -10.321  11.977  1.00  0.00    -0.000 C 
BRANCH  25  26
ATOM     26  C   UNL     1       4.050  -9.517  13.086  1.00  0.00    -0.000 C 
BRANCH  26  27
ATOM     27  C   UNL     1       3.315  -8.198  13.349  1.00  0.00    -0.000 C 
BRANCH  27  28
ATOM     28  C   UNL     1       3.679  -7.631  14.730  1.00  0.00    -0.000 C 
BRANCH  28  29
ATOM     29  C   UNL     1       3.524  -8.669  15.853  1.00  0.00    -0.003 C 
ATOM     30  C   UNL     1       2.297  -8.415  16.729  1.00  0.00     0.004 C 
ENDBRANCH  28  29
ENDBRANCH  27  28
ENDBRANCH  26  27
ENDBRANCH  25  26
ENDBRANCH  24  25
ENDBRANCH  23  24
ENDBRANCH  22  23
ENDBRANCH  21  22
ENDBRANCH  20  21
ENDBRANCH  19  20
ENDBRANCH  18  19
ENDBRANCH  17  18
ENDBRANCH   1  17
TORSDOF 26
ENDMDL
MODEL 3
REMARK VINA RESULT:    -5.117      3.657      9.877
REMARK INTER + INTRA:         -16.449
REMARK INTER:                 -12.977
REMARK INTRA:                  -3.472
REMARK UNBOUND:                -3.555
REMARK SMILES CCCCCCCCCCCCCCCCCCCCCCCCCCCC(=O)[O-]
REMARK SMILES IDX 15 1 16 2 17 3 18 4 19 5 20 6 21 7 22 8 23 9 24 10 25 11
REMARK SMILES IDX 26 12 27 13 28 14 29 15 30 16 14 17 13 18 12 19 11 20 10 21
REMARK SMILES IDX 9 22 8 23 7 24 6 25 5 26 4 27 3 28 2 29 1 30
REMARK H PARENT
REMARK Flexibility Score: inf
ROOT
ATOM      1  C   UNL     1     -10.779  -7.760   9.561  1.00  0.00     0.000 C 
ENDROOT
BRANCH   1   2
ATOM      2  C   UNL     1     -10.412  -8.159   8.116  1.00  0.00     0.000 C 
BRANCH   2   3
ATOM      3  C   UNL     1      -9.004  -7.684   7.719  1.00  0.00     0.000 C 
BRANCH   3   4
ATOM      4  C   UNL     1      -8.190  -8.766   6.986  1.00  0.00     0.000 C 
BRANCH   4   5
ATOM      5  C   UNL     1      -8.080 -10.115   7.728  1.00  0.00     0.000 C 
BRANCH   5   6
ATOM      6  C   UNL     1      -8.967 -11.245   7.170  1.00  0.00     0.000 C 
BRANCH   6   7
ATOM      7  C   UNL     1      -9.766 -12.038   8.223  1.00  0.00     0.000 C 
BRANCH   7   8
ATOM      8  C   UNL     1      -9.730 -11.420   9.637  1.00  0.00     0.000 C 
BRANCH   8   9
ATOM      9  C   UNL     1     -11.133 -11.223  10.242  1.00  0.00     0.000 C 
BRANCH   9  10
ATOM     10  C   UNL     1     -12.249 -11.745   9.323  1.00  0.00     0.000 C 
BRANCH  10  11
ATOM     11  C   UNL     1     -13.044 -12.902   9.953  1.00  0.00     0.000 C 
BRANCH  11  12
ATOM     12  C   UNL     1     -13.410 -14.007   8.946  1.00  0.00     0.006 C 
BRANCH  12  13
ATOM     13  C   UNL     1     -12.230 -14.464   8.069  1.00  0.00     0.053 C 
BRANCH  13  14
ATOM     14  C   UNL     1     -11.455 -15.588   8.690  1.00  0.00     0.041 C 
ATOM     15  O   UNL     1     -11.947 -16.747   8.742  1.00  0.00    -0.550 OA
ATOM     16  O   UNL     1     -10.174 -15.362   9.179  1.00  0.00    -0.550 OA
ENDBRANCH  13  14
ENDBRANCH  12  13
ENDBRANCH  11  12
ENDBRANCH  10  11
ENDBRANCH   9  10
ENDBRANCH   8   9
ENDBRANCH   7   8
ENDBRANCH   6   7
ENDBRANCH   5   6
ENDBRANCH   4   5
ENDBRANCH   3   4
ENDBRANCH   2   3
ENDBRANCH   1   2
BRANCH   1  17
ATOM     17  C   UNL     1     -12.162  -7.101   9.693  1.00  0.00     0.000 C 
BRANCH  17  18
ATOM     18  C   UNL     1     -13.308  -8.122   9.805  1.00  0.00     0.000 C 
BRANCH  18  19
ATOM     19  C   UNL     1     -14.590  -7.656   9.095  1.00  0.00     0.000 C 
BRANCH  19  20
ATOM     20  C   UNL     1     -14.315  -6.646   7.967  1.00  0.00     0.000 C 
BRANCH  20  21
ATOM     21  C   UNL     1     -15.565  -5.828   7.599  1.00  0.00     0.000 C 
BRANCH  21  22
ATOM     22  C   UNL     1     -15.548  -4.415   8.211  1.00  0.00    -0.000 C 
BRANCH  22  23
ATOM     23  C   UNL     1     -14.343  -4.194   9.148  1.00  0.00    -0.000 C 
BRANCH  23  24
ATOM     24  C   UNL     1     -13.621  -2.852   8.936  1.00  0.00    -0.000 C 
BRANCH  24  25
ATOM     25  C   UNL     1     -14.344  -1.929   7.946  1.00  0.00    -0.000 C 
BRANCH  25  26
ATOM     26  C   UNL     1     -13.562  -1.807   6.632  1.00  0.00    -0.000 C 
BRANCH  26  27
ATOM     27  C   UNL     1     -14.452  -2.141   5.428  1.00  0.00    -0.000 C 
BRANCH  27  28
ATOM     28  C   UNL     1     -13.983  -3.432   4.740  1.00  0.00    -0.000 C 
BRANCH  28  29
ATOM     29  C   UNL     1     -14.885  -3.834   3.563  1.00  0.00    -0.003 C 
ATOM     30  C   UNL     1     -15.886  -4.930   3.930  1.00  0.00     0.004 C 
ENDBRANCH  28  29
ENDBRANCH  27  28
ENDBRANCH  26  27
ENDBRANCH  25  26
ENDBRANCH  24  25
ENDBRANCH  23  24
ENDBRANCH  22  23
ENDBRANCH  21  22
ENDBRANCH  20  21
ENDBRANCH  19  20
ENDBRANCH  18  19
ENDBRANCH  17  18
ENDBRANCH   1  17
TORSDOF 26
ENDMDL
MODEL 4
REMARK VINA RESULT:    -5.094      1.149      2.088
REMARK INTER + INTRA:         -16.392
REMARK INTER:                 -12.393
REMARK INTRA:                  -3.999
REMARK UNBOUND:                -3.555
REMARK SMILES CCCCCCCCCCCCCCCCCCCCCCCCCCCC(=O)[O-]
REMARK SMILES IDX 15 1 16 2 17 3 18 4 19 5 20 6 21 7 22 8 23 9 24 10 25 11
REMARK SMILES IDX 26 12 27 13 28 14 29 15 30 16 14 17 13 18 12 19 11 20 10 21
REMARK SMILES IDX 9 22 8 23 7 24 6 25 5 26 4 27 3 28 2 29 1 30
REMARK H PARENT
REMARK Flexibility Score: inf
ROOT
ATOM      1  C   UNL     1     -14.378  -8.947  10.002  1.00  0.00     0.000 C 
ENDROOT
BRANCH   1   2
ATOM      2  C   UNL     1     -15.289  -7.761   9.620  1.00  0.00     0.000 C 
BRANCH   2   3
ATOM      3  C   UNL     1     -15.009  -7.245   8.198  1.00  0.00     0.000 C 
BRANCH   3   4
ATOM      4  C   UNL     1     -14.539  -5.779   8.175  1.00  0.00     0.000 C 
BRANCH   4   5
ATOM      5  C   UNL     1     -14.428  -5.106   9.559  1.00  0.00     0.000 C 
BRANCH   5   6
ATOM      6  C   UNL     1     -13.373  -3.988   9.663  1.00  0.00     0.000 C 
BRANCH   6   7
ATOM      7  C   UNL     1     -13.845  -2.590   9.217  1.00  0.00     0.000 C 
BRANCH   7   8
ATOM      8  C   UNL     1     -13.220  -2.107   7.891  1.00  0.00     0.000 C 
BRANCH   8   9
ATOM      9  C   UNL     1     -14.029  -0.980   7.222  1.00  0.00     0.000 C 
BRANCH   9  10
ATOM     10  C   UNL     1     -14.690  -1.429   5.909  1.00  0.00     0.000 C 
BRANCH  10  11
ATOM     11  C   UNL     1     -16.036  -2.141   6.136  1.00  0.00     0.000 C 
BRANCH  11  12
ATOM     12  C   UNL     1     -16.016  -3.623   5.722  1.00  0.00     0.006 C 
BRANCH  12  13
ATOM     13  C   UNL     1     -14.739  -4.042   4.970  1.00  0.00     0.053 C 
BRANCH  13  14
ATOM     14  C   UNL     1     -15.007  -4.394   3.538  1.00  0.00     0.041 C 
ATOM     15  O   UNL     1     -15.781  -5.347   3.251  1.00  0.00    -0.550 OA
ATOM     16  O   UNL     1     -14.429  -3.647   2.518  1.00  0.00    -0.550 OA
ENDBRANCH  13  14
ENDBRANCH  12  13
ENDBRANCH  11  12
ENDBRANCH  10  11
ENDBRANCH   9  10
ENDBRANCH   8   9
ENDBRANCH   7   8
ENDBRANCH   6   7
ENDBRANCH   5   6
ENDBRANCH   4   5
ENDBRANCH   3   4
ENDBRANCH   2   3
ENDBRANCH   1   2
BRANCH   1  17
ATOM     17  C   UNL     1     -12.937  -8.821   9.478  1.00  0.00     0.000 C 
BRANCH  17  18
ATOM     18  C   UNL     1     -12.068  -7.879  10.329  1.00  0.00     0.000 C 
BRANCH  18  19
ATOM     19  C   UNL     1     -10.912  -7.254   9.530  1.00  0.00     0.000 C 
BRANCH  19  20
ATOM     20  C   UNL     1     -10.530  -8.078   8.288  1.00  0.00     0.000 C 
BRANCH  20  21
ATOM     21  C   UNL     1      -9.143  -8.730   8.426  1.00  0.00     0.000 C 
BRANCH  21  22
ATOM     22  C   UNL     1      -9.225 -10.222   8.799  1.00  0.00    -0.000 C 
BRANCH  22  23
ATOM     23  C   UNL     1      -9.926 -11.062   7.713  1.00  0.00    -0.000 C 
BRANCH  23  24
ATOM     24  C   UNL     1      -9.884 -12.579   7.966  1.00  0.00    -0.000 C 
BRANCH  24  25
ATOM     25  C   UNL     1     -11.236 -13.266   7.727  1.00  0.00    -0.000 C 
BRANCH  25  26
ATOM     26  C   UNL     1     -12.271 -12.829   8.773  1.00  0.00    -0.000 C 
BRANCH  26  27
ATOM     27  C   UNL     1     -11.668 -12.840  10.182  1.00  0.00    -0.000 C 
BRANCH  27  28
ATOM     28  C   UNL     1     -12.446 -11.905  11.121  1.00  0.00    -0.000 C 
BRANCH  28  29
ATOM     29  C   UNL     1     -11.521 -11.005  11.955  1.00  0.00    -0.003 C 
ATOM     30  C   UNL     1     -12.239 -10.349  13.135  1.00  0.00     0.004 C 
ENDBRANCH  28  29
ENDBRANCH  27  28
ENDBRANCH  26  27
ENDBRANCH  25  26
ENDBRANCH  24  25
ENDBRANCH  23  24
ENDBRANCH  22  23
ENDBRANCH  21  22
ENDBRANCH  20  21
ENDBRANCH  19  20
ENDBRANCH  18  19
ENDBRANCH  17  18
ENDBRANCH   1  17
TORSDOF 26
ENDMDL
MODEL 5
REMARK VINA RESULT:    -5.076      3.735      8.535
REMARK INTER + INTRA:         -16.347
REMARK INTER:                 -12.658
REMARK INTRA:                  -3.690
REMARK UNBOUND:                -3.555
REMARK SMILES CCCCCCCCCCCCCCCCCCCCCCCCCCCC(=O)[O-]
REMARK SMILES IDX 15 1 16 2 17 3 18 4 19 5 20 6 21 7 22 8 23 9 24 10 25 11
REMARK SMILES IDX 26 12 27 13 28 14 29 15 30 16 14 17 13 18 12 19 11 20 10 21
REMARK SMILES IDX 9 22 8 23 7 24 6 25 5 26 4 27 3 28 2 29 1 30
REMARK H PARENT
REMARK Flexibility Score: inf
ROOT
ATOM      1  C   UNL     1     -14.876  -6.045   6.629  1.00  0.00     0.000 C 
ENDROOT
BRANCH   1   2
ATOM      2  C   UNL     1     -16.100  -6.282   7.538  1.00  0.00     0.000 C 
BRANCH   2   3
ATOM      3  C   UNL     1     -16.117  -7.700   8.137  1.00  0.00     0.000 C 
BRANCH   3   4
ATOM      4  C   UNL     1     -15.864  -7.711   9.655  1.00  0.00     0.000 C 
BRANCH   4   5
ATOM      5  C   UNL     1     -15.606  -9.105  10.265  1.00  0.00     0.000 C 
BRANCH   5   6
ATOM      6  C   UNL     1     -14.128  -9.540  10.302  1.00  0.00     0.000 C 
BRANCH   6   7
ATOM      7  C   UNL     1     -13.819 -10.754  11.202  1.00  0.00     0.000 C 
BRANCH   7   8
ATOM      8  C   UNL     1     -12.445 -10.686  11.902  1.00  0.00     0.000 C 
BRANCH   8   9
ATOM      9  C   UNL     1     -11.300 -11.235  11.031  1.00  0.00     0.000 C 
BRANCH   9  10
ATOM     10  C   UNL     1     -11.748 -12.404  10.138  1.00  0.00     0.000 C 
BRANCH  10  11
ATOM     11  C   UNL     1     -11.052 -12.402   8.765  1.00  0.00     0.000 C 
BRANCH  11  12
ATOM     12  C   UNL     1     -11.414 -13.622   7.899  1.00  0.00     0.006 C 
BRANCH  12  13
ATOM     13  C   UNL     1     -11.825 -14.862   8.713  1.00  0.00     0.053 C 
BRANCH  13  14
ATOM     14  C   UNL     1     -10.684 -15.811   8.928  1.00  0.00     0.041 C 
ATOM     15  O   UNL     1      -9.530 -15.524   8.508  1.00  0.00    -0.550 OA
ATOM     16  O   UNL     1     -10.886 -16.996   9.624  1.00  0.00    -0.550 OA
ENDBRANCH  13  14
ENDBRANCH  12  13
ENDBRANCH  11  12
ENDBRANCH  10  11
ENDBRANCH   9  10
ENDBRANCH   8   9
ENDBRANCH   7   8
ENDBRANCH   6   7
ENDBRANCH   5   6
ENDBRANCH   4   5
ENDBRANCH   3   4
ENDBRANCH   2   3
ENDBRANCH   1   2
BRANCH   1  17
ATOM     17  C   UNL     1     -15.203  -5.293   5.328  1.00  0.00     0.000 C 
BRANCH  17  18
ATOM     18  C   UNL     1     -14.473  -3.943   5.212  1.00  0.00     0.000 C 
BRANCH  18  19
ATOM     19  C   UNL     1     -14.822  -2.980   6.359  1.00  0.00     0.000 C 
BRANCH  19  20
ATOM     20  C   UNL     1     -13.670  -2.021   6.705  1.00  0.00     0.000 C 
BRANCH  20  21
ATOM     21  C   UNL     1     -13.306  -2.062   8.200  1.00  0.00     0.000 C 
BRANCH  21  22
ATOM     22  C   UNL     1     -14.039  -3.186   8.956  1.00  0.00    -0.000 C 
BRANCH  22  23
ATOM     23  C   UNL     1     -13.096  -3.988   9.875  1.00  0.00    -0.000 C 
BRANCH  23  24
ATOM     24  C   UNL     1     -13.433  -5.486   9.969  1.00  0.00    -0.000 C 
BRANCH  24  25
ATOM     25  C   UNL     1     -12.434  -6.376   9.217  1.00  0.00    -0.000 C 
BRANCH  25  26
ATOM     26  C   UNL     1     -11.246  -6.752  10.112  1.00  0.00    -0.000 C 
BRANCH  26  27
ATOM     27  C   UNL     1     -10.662  -8.112   9.710  1.00  0.00    -0.000 C 
BRANCH  27  28
ATOM     28  C   UNL     1     -11.012  -8.451   8.253  1.00  0.00    -0.000 C 
BRANCH  28  29
ATOM     29  C   UNL     1      -9.938  -9.317   7.575  1.00  0.00    -0.003 C 
ATOM     30  C   UNL     1      -8.676  -9.468   8.425  1.00  0.00     0.004 C 
ENDBRANCH  28  29
ENDBRANCH  27  28
ENDBRANCH  26  27
ENDBRANCH  25  26
ENDBRANCH  24  25
ENDBRANCH  23  24
ENDBRANCH  22  23
ENDBRANCH  21  22
ENDBRANCH  20  21
ENDBRANCH  19  20
ENDBRANCH  18  19
ENDBRANCH  17  18
ENDBRANCH   1  17
TORSDOF 26
ENDMDL
MODEL 6
REMARK VINA RESULT:    -5.056      3.033      5.704
REMARK INTER + INTRA:         -16.295
REMARK INTER:                 -12.897
REMARK INTRA:                  -3.398
REMARK UNBOUND:                -3.555
REMARK SMILES CCCCCCCCCCCCCCCCCCCCCCCCCCCC(=O)[O-]
REMARK SMILES IDX 15 1 16 2 17 3 18 4 19 5 20 6 21 7 22 8 23 9 24 10 25 11
REMARK SMILES IDX 26 12 27 13 28 14 29 15 30 16 14 17 13 18 12 19 11 20 10 21
REMARK SMILES IDX 9 22 8 23 7 24 6 25 5 26 4 27 3 28 2 29 1 30
REMARK H PARENT
REMARK Flexibility Score: inf
ROOT
ATOM      1  C   UNL     1     -14.827  -5.760   6.749  1.00  0.00     0.000 C 
ENDROOT
BRANCH   1   2
ATOM      2  C   UNL     1     -15.287  -4.503   5.980  1.00  0.00     0.000 C 
BRANCH   2   3
ATOM      3  C   UNL     1     -14.805  -3.203   6.647  1.00  0.00     0.000 C 
BRANCH   3   4
ATOM      4  C   UNL     1     -15.897  -2.525   7.495  1.00  0.00     0.000 C 
BRANCH   4   5
ATOM      5  C   UNL     1     -15.763  -2.732   9.019  1.00  0.00     0.000 C 
BRANCH   5   6
ATOM      6  C   UNL     1     -14.348  -3.093   9.510  1.00  0.00     0.000 C 
BRANCH   6   7
ATOM      7  C   UNL     1     -14.177  -4.534  10.032  1.00  0.00     0.000 C 
BRANCH   7   8
ATOM      8  C   UNL     1     -12.723  -5.048   9.997  1.00  0.00     0.000 C 
BRANCH   8   9
ATOM      9  C   UNL     1     -12.626  -6.555   9.695  1.00  0.00     0.000 C 
BRANCH   9  10
ATOM     10  C   UNL     1     -11.174  -7.031   9.531  1.00  0.00     0.000 C 
BRANCH  10  11
ATOM     11  C   UNL     1     -11.070  -8.364   8.768  1.00  0.00     0.000 C 
BRANCH  11  12
ATOM     12  C   UNL     1      -9.653  -8.654   8.243  1.00  0.00     0.006 C 
BRANCH  12  13
ATOM     13  C   UNL     1      -9.084 -10.009   8.705  1.00  0.00     0.053 C 
BRANCH  13  14
ATOM     14  C   UNL     1      -8.382 -10.742   7.601  1.00  0.00     0.041 C 
ATOM     15  O   UNL     1      -7.343 -10.258   7.077  1.00  0.00    -0.550 OA
ATOM     16  O   UNL     1      -8.854 -11.977   7.176  1.00  0.00    -0.550 OA
ENDBRANCH  13  14
ENDBRANCH  12  13
ENDBRANCH  11  12
ENDBRANCH  10  11
ENDBRANCH   9  10
ENDBRANCH   8   9
ENDBRANCH   7   8
ENDBRANCH   6   7
ENDBRANCH   5   6
ENDBRANCH   4   5
ENDBRANCH   3   4
ENDBRANCH   2   3
ENDBRANCH   1   2
BRANCH   1  17
ATOM     17  C   UNL     1     -15.966  -6.506   7.463  1.00  0.00     0.000 C 
BRANCH  17  18
ATOM     18  C   UNL     1     -15.480  -7.734   8.252  1.00  0.00     0.000 C 
BRANCH  18  19
ATOM     19  C   UNL     1     -16.123  -7.836   9.646  1.00  0.00     0.000 C 
BRANCH  19  20
ATOM     20  C   UNL     1     -15.826  -9.173  10.345  1.00  0.00     0.000 C 
BRANCH  20  21
ATOM     21  C   UNL     1     -14.327  -9.519  10.329  1.00  0.00     0.000 C 
BRANCH  21  22
ATOM     22  C   UNL     1     -13.992 -10.742  11.203  1.00  0.00    -0.000 C 
BRANCH  22  23
ATOM     23  C   UNL     1     -12.568 -10.674  11.790  1.00  0.00    -0.000 C 
BRANCH  23  24
ATOM     24  C   UNL     1     -11.521 -11.473  10.994  1.00  0.00    -0.000 C 
BRANCH  24  25
ATOM     25  C   UNL     1     -12.035 -11.943   9.627  1.00  0.00    -0.000 C 
BRANCH  25  26
ATOM     26  C   UNL     1     -11.906 -13.465   9.481  1.00  0.00    -0.000 C 
BRANCH  26  27
ATOM     27  C   UNL     1     -10.438 -13.902   9.549  1.00  0.00    -0.000 C 
BRANCH  27  28
ATOM     28  C   UNL     1     -10.252 -15.299   8.937  1.00  0.00    -0.000 C 
BRANCH  28  29
ATOM     29  C   UNL     1     -11.586 -16.032   8.725  1.00  0.00    -0.003 C 
ATOM     30  C   UNL     1     -11.572 -17.459   9.273  1.00  0.00     0.004 C 
ENDBRANCH  28  29
ENDBRANCH  27  28
ENDBRANCH  26  27
ENDBRANCH  25  26
ENDBRANCH  24  25
ENDBRANCH  23  24
ENDBRANCH  22  23
ENDBRANCH  21  22
ENDBRANCH  20  21
ENDBRANCH  19  20
ENDBRANCH  18  19
ENDBRANCH  17  18
ENDBRANCH   1  17
TORSDOF 26
ENDMDL
MODEL 7
REMARK VINA RESULT:    -5.053      2.482      8.935
REMARK INTER + INTRA:         -16.289
REMARK INTER:                 -12.415
REMARK INTRA:                  -3.874
REMARK UNBOUND:                -3.555
REMARK SMILES CCCCCCCCCCCCCCCCCCCCCCCCCCCC(=O)[O-]
REMARK SMILES IDX 15 1 16 2 17 3 18 4 19 5 20 6 21 7 22 8 23 9 24 10 25 11
REMARK SMILES IDX 26 12 27 13 28 14 29 15 30 16 14 17 13 18 12 19 11 20 10 21
REMARK SMILES IDX 9 22 8 23 7 24 6 25 5 26 4 27 3 28 2 29 1 30
REMARK H PARENT
REMARK Flexibility Score: inf
ROOT
ATOM      1  C   UNL     1     -15.724  -6.903  10.208  1.00  0.00     0.000 C 
ENDROOT
BRANCH   1   2
ATOM      2  C   UNL     1     -15.697  -8.416   9.904  1.00  0.00     0.000 C 
BRANCH   2   3
ATOM      3  C   UNL     1     -14.289  -9.017  10.058  1.00  0.00     0.000 C 
BRANCH   3   4
ATOM      4  C   UNL     1     -14.265 -10.260  10.966  1.00  0.00     0.000 C 
BRANCH   4   5
ATOM      5  C   UNL     1     -12.945 -11.058  10.947  1.00  0.00     0.000 C 
BRANCH   5   6
ATOM      6  C   UNL     1     -13.058 -12.500  10.413  1.00  0.00     0.000 C 
BRANCH   6   7
ATOM      7  C   UNL     1     -12.302 -12.779   9.098  1.00  0.00     0.000 C 
BRANCH   7   8
ATOM      8  C   UNL     1     -11.025 -13.627   9.274  1.00  0.00     0.000 C 
BRANCH   8   9
ATOM      9  C   UNL     1      -9.964 -13.346   8.194  1.00  0.00     0.000 C 
BRANCH   9  10
ATOM     10  C   UNL     1     -10.088 -11.933   7.601  1.00  0.00     0.000 C 
BRANCH  10  11
ATOM     11  C   UNL     1      -8.980 -10.985   8.093  1.00  0.00     0.000 C 
BRANCH  11  12
ATOM     12  C   UNL     1      -9.364 -10.210   9.366  1.00  0.00     0.006 C 
BRANCH  12  13
ATOM     13  C   UNL     1     -10.673  -9.410   9.236  1.00  0.00     0.053 C 
BRANCH  13  14
ATOM     14  C   UNL     1     -10.433  -7.972   8.886  1.00  0.00     0.041 C 
ATOM     15  O   UNL     1     -10.782  -7.057   9.679  1.00  0.00    -0.550 OA
ATOM     16  O   UNL     1      -9.789  -7.643   7.699  1.00  0.00    -0.550 OA
ENDBRANCH  13  14
ENDBRANCH  12  13
ENDBRANCH  11  12
ENDBRANCH  10  11
ENDBRANCH   9  10
ENDBRANCH   8   9
ENDBRANCH   7   8
ENDBRANCH   6   7
ENDBRANCH   5   6
ENDBRANCH   4   5
ENDBRANCH   3   4
ENDBRANCH   2   3
ENDBRANCH   1   2
BRANCH   1  17
ATOM     17  C   UNL     1     -14.329  -6.266  10.329  1.00  0.00     0.000 C 
BRANCH  17  18
ATOM     18  C   UNL     1     -14.323  -4.762  10.003  1.00  0.00     0.000 C 
BRANCH  18  19
ATOM     19  C   UNL     1     -15.655  -4.075  10.351  1.00  0.00     0.000 C 
BRANCH  19  20
ATOM     20  C   UNL     1     -15.656  -2.573  10.018  1.00  0.00     0.000 C 
BRANCH  20  21
ATOM     21  C   UNL     1     -14.268  -2.069   9.587  1.00  0.00     0.000 C 
BRANCH  21  22
ATOM     22  C   UNL     1     -14.326  -1.170   8.339  1.00  0.00    -0.000 C 
BRANCH  22  23
ATOM     23  C   UNL     1     -13.329  -1.612   7.248  1.00  0.00    -0.000 C 
BRANCH  23  24
ATOM     24  C   UNL     1     -13.802  -1.329   5.812  1.00  0.00    -0.000 C 
BRANCH  24  25
ATOM     25  C   UNL     1     -14.311  -2.583   5.088  1.00  0.00    -0.000 C 
BRANCH  25  26
ATOM     26  C   UNL     1     -15.751  -2.914   5.503  1.00  0.00    -0.000 C 
BRANCH  26  27
ATOM     27  C   UNL     1     -15.782  -4.084   6.494  1.00  0.00    -0.000 C 
BRANCH  27  28
ATOM     28  C   UNL     1     -14.587  -5.025   6.272  1.00  0.00    -0.000 C 
BRANCH  28  29
ATOM     29  C   UNL     1     -14.876  -6.463   6.731  1.00  0.00    -0.003 C 
ATOM     30  C   UNL     1     -13.603  -7.266   6.998  1.00  0.00     0.004 C 
ENDBRANCH  28  29
ENDBRANCH  27  28
ENDBRANCH  26  27
ENDBRANCH  25  26
ENDBRANCH  24  25
ENDBRANCH  23  24
ENDBRANCH  22  23
ENDBRANCH  21  22
ENDBRANCH  20  21
ENDBRANCH  19  20
ENDBRANCH  18  19
ENDBRANCH  17  18
ENDBRANCH   1  17
TORSDOF 26
ENDMDL
MODEL 8
REMARK VINA RESULT:    -5.023      1.438      2.759
REMARK INTER + INTRA:         -16.212
REMARK INTER:                 -12.829
REMARK INTRA:                  -3.383
REMARK UNBOUND:                -3.555
REMARK SMILES CCCCCCCCCCCCCCCCCCCCCCCCCCCC(=O)[O-]
REMARK SMILES IDX 15 1 16 2 17 3 18 4 19 5 20 6 21 7 22 8 23 9 24 10 25 11
REMARK SMILES IDX 26 12 27 13 28 14 29 15 30 16 14 17 13 18 12 19 11 20 10 21
REMARK SMILES IDX 9 22 8 23 7 24 6 25 5 26 4 27 3 28 2 29 1 30
REMARK H PARENT
REMARK Flexibility Score: inf
ROOT
ATOM      1  C   UNL     1     -11.988  -8.877   7.441  1.00  0.00     0.000 C 
ENDROOT
BRANCH   1   2
ATOM      2  C   UNL     1     -12.862  -7.856   6.681  1.00  0.00     0.000 C 
BRANCH   2   3
ATOM      3  C   UNL     1     -13.685  -6.970   7.632  1.00  0.00     0.000 C 
BRANCH   3   4
ATOM      4  C   UNL     1     -15.151  -7.422   7.753  1.00  0.00     0.000 C 
BRANCH   4   5
ATOM      5  C   UNL     1     -16.036  -6.537   8.656  1.00  0.00     0.000 C 
BRANCH   5   6
ATOM      6  C   UNL     1     -15.602  -6.467  10.133  1.00  0.00     0.000 C 
BRANCH   6   7
ATOM      7  C   UNL     1     -14.627  -5.324  10.481  1.00  0.00     0.000 C 
BRANCH   7   8
ATOM      8  C   UNL     1     -15.219  -3.912  10.291  1.00  0.00     0.000 C 
BRANCH   8   9
ATOM      9  C   UNL     1     -14.396  -3.042   9.323  1.00  0.00     0.000 C 
BRANCH   9  10
ATOM     10  C   UNL     1     -15.261  -2.403   8.225  1.00  0.00     0.000 C 
BRANCH  10  11
ATOM     11  C   UNL     1     -15.542  -3.364   7.056  1.00  0.00     0.000 C 
BRANCH  11  12
ATOM     12  C   UNL     1     -14.298  -3.655   6.197  1.00  0.00     0.006 C 
BRANCH  12  13
ATOM     13  C   UNL     1     -14.364  -3.048   4.783  1.00  0.00     0.053 C 
BRANCH  13  14
ATOM     14  C   UNL     1     -14.732  -4.062   3.741  1.00  0.00     0.041 C 
ATOM     15  O   UNL     1     -15.409  -5.078   4.053  1.00  0.00    -0.550 OA
ATOM     16  O   UNL     1     -14.358  -3.865   2.417  1.00  0.00    -0.550 OA
ENDBRANCH  13  14
ENDBRANCH  12  13
ENDBRANCH  11  12
ENDBRANCH  10  11
ENDBRANCH   9  10
ENDBRANCH   8   9
ENDBRANCH   7   8
ENDBRANCH   6   7
ENDBRANCH   5   6
ENDBRANCH   4   5
ENDBRANCH   3   4
ENDBRANCH   2   3
ENDBRANCH   1   2
BRANCH   1  17
ATOM     17  C   UNL     1     -10.563  -8.378   7.738  1.00  0.00     0.000 C 
BRANCH  17  18
ATOM     18  C   UNL     1     -10.183  -8.493   9.225  1.00  0.00     0.000 C 
BRANCH  18  19
ATOM     19  C   UNL     1     -11.002  -7.550  10.121  1.00  0.00     0.000 C 
BRANCH  19  20
ATOM     20  C   UNL     1     -12.269  -8.213  10.688  1.00  0.00     0.000 C 
BRANCH  20  21
ATOM     21  C   UNL     1     -11.960  -9.529  11.423  1.00  0.00     0.000 C 
BRANCH  21  22
ATOM     22  C   UNL     1     -13.053 -10.594  11.216  1.00  0.00    -0.000 C 
BRANCH  22  23
ATOM     23  C   UNL     1     -12.637 -11.672  10.195  1.00  0.00    -0.000 C 
BRANCH  23  24
ATOM     24  C   UNL     1     -11.117 -11.791   9.989  1.00  0.00    -0.000 C 
BRANCH  24  25
ATOM     25  C   UNL     1     -10.742 -12.469   8.664  1.00  0.00    -0.000 C 
BRANCH  25  26
ATOM     26  C   UNL     1     -11.929 -13.250   8.086  1.00  0.00    -0.000 C 
BRANCH  26  27
ATOM     27  C   UNL     1     -11.871 -14.726   8.498  1.00  0.00    -0.000 C 
BRANCH  27  28
ATOM     28  C   UNL     1     -10.615 -15.013   9.336  1.00  0.00    -0.000 C 
BRANCH  28  29
ATOM     29  C   UNL     1      -9.857 -16.260   8.852  1.00  0.00    -0.003 C 
ATOM     30  C   UNL     1      -8.524 -15.922   8.186  1.00  0.00     0.004 C 
ENDBRANCH  28  29
ENDBRANCH  27  28
ENDBRANCH  26  27
ENDBRANCH  25  26
ENDBRANCH  24  25
ENDBRANCH  23  24
ENDBRANCH  22  23
ENDBRANCH  21  22
ENDBRANCH  20  21
ENDBRANCH  19  20
ENDBRANCH  18  19
ENDBRANCH  17  18
ENDBRANCH   1  17
TORSDOF 26
ENDMDL
MODEL 9
REMARK VINA RESULT:    -4.934     13.868     17.155
REMARK INTER + INTRA:         -15.989
REMARK INTER:                 -10.329
REMARK INTRA:                  -5.660
REMARK UNBOUND:                -3.555
REMARK SMILES CCCCCCCCCCCCCCCCCCCCCCCCCCCC(=O)[O-]
REMARK SMILES IDX 15 1 16 2 17 3 18 4 19 5 20 6 21 7 22 8 23 9 24 10 25 11
REMARK SMILES IDX 26 12 27 13 28 14 29 15 30 16 14 17 13 18 12 19 11 20 10 21
REMARK SMILES IDX 9 22 8 23 7 24 6 25 5 26 4 27 3 28 2 29 1 30
REMARK H PARENT
REMARK Flexibility Score: inf
ROOT
ATOM      1  C   UNL     1      -1.290 -15.465  16.686  1.00  0.00     0.000 C 
ENDROOT
BRANCH   1   2
ATOM      2  C   UNL     1      -1.836 -15.121  15.284  1.00  0.00     0.000 C 
BRANCH   2   3
ATOM      3  C   UNL     1      -2.196 -13.632  15.147  1.00  0.00     0.000 C 
BRANCH   3   4
ATOM      4  C   UNL     1      -3.711 -13.372  15.238  1.00  0.00     0.000 C 
BRANCH   4   5
ATOM      5  C   UNL     1      -4.134 -12.333  16.299  1.00  0.00     0.000 C 
BRANCH   5   6
ATOM      6  C   UNL     1      -3.417 -12.454  17.657  1.00  0.00     0.000 C 
BRANCH   6   7
ATOM      7  C   UNL     1      -4.197 -13.210  18.751  1.00  0.00     0.000 C 
BRANCH   7   8
ATOM      8  C   UNL     1      -3.512 -14.508  19.229  1.00  0.00     0.000 C 
BRANCH   8   9
ATOM      9  C   UNL     1      -4.338 -15.771  18.919  1.00  0.00     0.000 C 
BRANCH   9  10
ATOM     10  C   UNL     1      -5.331 -15.557  17.766  1.00  0.00     0.000 C 
BRANCH  10  11
ATOM     11  C   UNL     1      -5.098 -16.527  16.594  1.00  0.00     0.000 C 
BRANCH  11  12
ATOM     12  C   UNL     1      -5.904 -17.832  16.716  1.00  0.00     0.006 C 
BRANCH  12  13
ATOM     13  C   UNL     1      -7.059 -17.947  15.703  1.00  0.00     0.053 C 
BRANCH  13  14
ATOM     14  C   UNL     1      -8.397 -17.684  16.327  1.00  0.00     0.041 C 
ATOM     15  O   UNL     1      -8.474 -17.256  17.510  1.00  0.00    -0.550 OA
ATOM     16  O   UNL     1      -9.558 -17.879  15.590  1.00  0.00    -0.550 OA
ENDBRANCH  13  14
ENDBRANCH  12  13
ENDBRANCH  11  12
ENDBRANCH  10  11
ENDBRANCH   9  10
ENDBRANCH   8   9
ENDBRANCH   7   8
ENDBRANCH   6   7
ENDBRANCH   5   6
ENDBRANCH   4   5
ENDBRANCH   3   4
ENDBRANCH   2   3
ENDBRANCH   1   2
BRANCH   1  17
ATOM     17  C   UNL     1      -1.321 -16.968  17.015  1.00  0.00     0.000 C 
BRANCH  17  18
ATOM     18  C   UNL     1      -0.374 -17.351  18.166  1.00  0.00     0.000 C 
BRANCH  18  19
ATOM     19  C   UNL     1      -0.756 -16.681  19.497  1.00  0.00     0.000 C 
BRANCH  19  20
ATOM     20  C   UNL     1       0.401 -15.879  20.115  1.00  0.00     0.000 C 
BRANCH  20  21
ATOM     21  C   UNL     1       1.764 -16.259  19.510  1.00  0.00     0.000 C 
BRANCH  21  22
ATOM     22  C   UNL     1       2.500 -15.050  18.904  1.00  0.00    -0.000 C 
BRANCH  22  23
ATOM     23  C   UNL     1       1.533 -14.035  18.261  1.00  0.00    -0.000 C 
BRANCH  23  24
ATOM     24  C   UNL     1       2.173 -13.161  17.169  1.00  0.00    -0.000 C 
BRANCH  24  25
ATOM     25  C   UNL     1       1.140 -12.511  16.237  1.00  0.00    -0.000 C 
BRANCH  25  26
ATOM     26  C   UNL     1       1.413 -12.873  14.771  1.00  0.00    -0.000 C 
BRANCH  26  27
ATOM     27  C   UNL     1       2.235 -14.163  14.666  1.00  0.00    -0.000 C 
BRANCH  27  28
ATOM     28  C   UNL     1       1.551 -15.177  13.736  1.00  0.00    -0.000 C 
BRANCH  28  29
ATOM     29  C   UNL     1       1.464 -16.580  14.356  1.00  0.00    -0.003 C 
ATOM     30  C   UNL     1       2.236 -16.696  15.671  1.00  0.00     0.004 C 
ENDBRANCH  28  29
ENDBRANCH  27  28
ENDBRANCH  26  27
ENDBRANCH  25  26
ENDBRANCH  24  25
ENDBRANCH  23  24
ENDBRANCH  22  23
ENDBRANCH  21  22
ENDBRANCH  20  21
ENDBRANCH  19  20
ENDBRANCH  18  19
ENDBRANCH  17  18
ENDBRANCH   1  17
TORSDOF 26
ENDMDL
