MODEL 1
REMARK VINA RESULT:    -2.715      0.000      0.000
REMARK INTER + INTRA:          -5.876
REMARK INTER:                  -4.938
REMARK INTRA:                  -0.938
REMARK UNBOUND:                -0.938
REMARK SMILES CCCCCCCCCCCCCCCC(=O)[O-]
REMARK SMILES IDX 9 1 10 2 11 3 12 4 13 5 14 6 15 7 16 8 17 9 18 10 8 11 7 12
REMARK SMILES IDX 6 13 5 14 4 15 3 16 2 17 1 18
REMARK H PARENT
REMARK Flexibility Score: inf
ROOT
ATOM      1  C   UNL     1      12.295 -14.361  -1.495  1.00  0.00     0.000 C 
ENDROOT
BRANCH   1   2
ATOM      2  C   UNL     1      12.940 -13.622  -0.311  1.00  0.00     0.000 C 
BRANCH   2   3
ATOM      3  C   UNL     1      14.124 -14.390   0.294  1.00  0.00     0.000 C 
BRANCH   3   4
ATOM      4  C   UNL     1      13.729 -15.839   0.616  1.00  0.00     0.000 C 
BRANCH   4   5
ATOM      5  C   UNL     1      14.835 -16.604   1.360  1.00  0.00     0.000 C 
BRANCH   5   6
ATOM      6  C   UNL     1      14.904 -16.243   2.852  1.00  0.00     0.006 C 
BRANCH   6   7
ATOM      7  C   UNL     1      14.829 -17.500   3.724  1.00  0.00     0.053 C 
BRANCH   7   8
ATOM      8  C   UNL     1      14.759 -17.131   5.171  1.00  0.00     0.041 C 
ATOM      9  O   UNL     1      14.326 -15.999   5.516  1.00  0.00    -0.550 OA
ATOM     10  O   UNL     1      15.125 -18.053   6.143  1.00  0.00    -0.550 OA
ENDBRANCH   7   8
ENDBRANCH   6   7
ENDBRANCH   5   6
ENDBRANCH   4   5
ENDBRANCH   3   4
ENDBRANCH   2   3
ENDBRANCH   1   2
BRANCH   1  11
ATOM     11  C   UNL     1      11.741 -13.403  -2.561  1.00  0.00     0.000 C 
BRANCH  11  12
ATOM     12  C   UNL     1      12.879 -12.670  -3.285  1.00  0.00    -0.000 C 
BRANCH  12  13
ATOM     13  C   UNL     1      14.056 -13.597  -3.630  1.00  0.00    -0.000 C 
BRANCH  13  14
ATOM     14  C   UNL     1      14.000 -14.110  -5.080  1.00  0.00    -0.000 C 
BRANCH  14  15
ATOM     15  C   UNL     1      14.153 -15.636  -5.172  1.00  0.00    -0.000 C 
BRANCH  15  16
ATOM     16  C   UNL     1      13.461 -16.369  -4.009  1.00  0.00    -0.000 C 
BRANCH  16  17
ATOM     17  C   UNL     1      13.307 -17.875  -4.271  1.00  0.00    -0.003 C 
ATOM     18  C   UNL     1      13.783 -18.730  -3.098  1.00  0.00     0.004 C 
ENDBRANCH  16  17
ENDBRANCH  15  16
ENDBRANCH  14  15
ENDBRANCH  13  14
ENDBRANCH  12  13
ENDBRANCH  11  12
ENDBRANCH   1  11
TORSDOF 14
ENDMDL
MODEL 2
REMARK VINA RESULT:    -1.937      3.458      5.038
REMARK INTER + INTRA:          -4.460
REMARK INTER:                  -2.979
REMARK INTRA:                  -1.481
REMARK UNBOUND:                -0.938
REMARK SMILES CCCCCCCCCCCCCCCC(=O)[O-]
REMARK SMILES IDX 9 1 10 2 11 3 12 4 13 5 14 6 15 7 16 8 17 9 18 10 8 11 7 12
REMARK SMILES IDX 6 13 5 14 4 15 3 16 2 17 1 18
REMARK H PARENT
REMARK Flexibility Score: inf
ROOT
ATOM      1  C   UNL     1      11.960 -14.354  -0.981  1.00  0.00     0.000 C 
ENDROOT
BRANCH   1   2
ATOM      2  C   UNL     1      12.775 -15.575  -1.439  1.00  0.00     0.000 C 
BRANCH   2   3
ATOM      3  C   UNL     1      12.447 -16.002  -2.877  1.00  0.00     0.000 C 
BRANCH   3   4
ATOM      4  C   UNL     1      13.675 -16.627  -3.556  1.00  0.00     0.000 C 
BRANCH   4   5
ATOM      5  C   UNL     1      13.344 -17.934  -4.293  1.00  0.00     0.000 C 
BRANCH   5   6
ATOM      6  C   UNL     1      13.565 -19.179  -3.419  1.00  0.00     0.006 C 
BRANCH   6   7
ATOM      7  C   UNL     1      14.964 -19.168  -2.794  1.00  0.00     0.053 C 
BRANCH   7   8
ATOM      8  C   UNL     1      14.878 -19.372  -1.315  1.00  0.00     0.041 C 
ATOM      9  O   UNL     1      15.093 -18.412  -0.529  1.00  0.00    -0.550 OA
ATOM     10  O   UNL     1      14.514 -20.611  -0.804  1.00  0.00    -0.550 OA
ENDBRANCH   7   8
ENDBRANCH   6   7
ENDBRANCH   5   6
ENDBRANCH   4   5
ENDBRANCH   3   4
ENDBRANCH   2   3
ENDBRANCH   1   2
BRANCH   1  11
ATOM     11  C   UNL     1      12.781 -13.382  -0.120  1.00  0.00     0.000 C 
BRANCH  11  12
ATOM     12  C   UNL     1      14.257 -13.388  -0.541  1.00  0.00    -0.000 C 
BRANCH  12  13
ATOM     13  C   UNL     1      14.749 -12.004  -0.994  1.00  0.00    -0.000 C 
BRANCH  13  14
ATOM     14  C   UNL     1      15.125 -11.970  -2.487  1.00  0.00    -0.000 C 
BRANCH  14  15
ATOM     15  C   UNL     1      14.161 -12.792  -3.356  1.00  0.00    -0.000 C 
BRANCH  15  16
ATOM     16  C   UNL     1      13.603 -11.986  -4.543  1.00  0.00    -0.000 C 
BRANCH  16  17
ATOM     17  C   UNL     1      14.381 -12.238  -5.843  1.00  0.00    -0.003 C 
ATOM     18  C   UNL     1      14.305 -13.693  -6.303  1.00  0.00     0.004 C 
ENDBRANCH  16  17
ENDBRANCH  15  16
ENDBRANCH  14  15
ENDBRANCH  13  14
ENDBRANCH  12  13
ENDBRANCH  11  12
ENDBRANCH   1  11
TORSDOF 14
ENDMDL
MODEL 3
REMARK VINA RESULT:    -1.638      2.989      4.779
REMARK INTER + INTRA:          -3.917
REMARK INTER:                  -2.796
REMARK INTRA:                  -1.120
REMARK UNBOUND:                -0.938
REMARK SMILES CCCCCCCCCCCCCCCC(=O)[O-]
REMARK SMILES IDX 9 1 10 2 11 3 12 4 13 5 14 6 15 7 16 8 17 9 18 10 8 11 7 12
REMARK SMILES IDX 6 13 5 14 4 15 3 16 2 17 1 18
REMARK H PARENT
REMARK Flexibility Score: inf
ROOT
ATOM      1  C   UNL     1      11.569 -14.202  -1.740  1.00  0.00     0.000 C 
ENDROOT
BRANCH   1   2
ATOM      2  C   UNL     1      11.659 -13.208  -2.911  1.00  0.00     0.000 C 
BRANCH   2   3
ATOM      3  C   UNL     1      12.986 -13.313  -3.676  1.00  0.00     0.000 C 
BRANCH   3   4
ATOM      4  C   UNL     1      13.728 -11.968  -3.672  1.00  0.00     0.000 C 
BRANCH   4   5
ATOM      5  C   UNL     1      15.125 -12.062  -3.037  1.00  0.00     0.000 C 
BRANCH   5   6
ATOM      6  C   UNL     1      15.094 -11.893  -1.511  1.00  0.00     0.006 C 
BRANCH   6   7
ATOM      7  C   UNL     1      15.119 -13.253  -0.807  1.00  0.00     0.053 C 
BRANCH   7   8
ATOM      8  C   UNL     1      14.533 -13.146   0.564  1.00  0.00     0.041 C 
ATOM      9  O   UNL     1      13.929 -14.126   1.074  1.00  0.00    -0.550 OA
ATOM     10  O   UNL     1      14.695 -11.979   1.300  1.00  0.00    -0.550 OA
ENDBRANCH   7   8
ENDBRANCH   6   7
ENDBRANCH   5   6
ENDBRANCH   4   5
ENDBRANCH   3   4
ENDBRANCH   2   3
ENDBRANCH   1   2
BRANCH   1  11
ATOM     11  C   UNL     1      12.489 -15.418  -1.922  1.00  0.00     0.000 C 
BRANCH  11  12
ATOM     12  C   UNL     1      12.758 -16.108  -0.577  1.00  0.00    -0.000 C 
BRANCH  12  13
ATOM     13  C   UNL     1      13.663 -17.343  -0.716  1.00  0.00    -0.000 C 
BRANCH  13  14
ATOM     14  C   UNL     1      13.113 -18.368  -1.724  1.00  0.00    -0.000 C 
BRANCH  14  15
ATOM     15  C   UNL     1      14.222 -19.219  -2.362  1.00  0.00    -0.000 C 
BRANCH  15  16
ATOM     16  C   UNL     1      14.653 -18.687  -3.741  1.00  0.00    -0.000 C 
BRANCH  16  17
ATOM     17  C   UNL     1      13.530 -17.920  -4.454  1.00  0.00    -0.003 C 
ATOM     18  C   UNL     1      13.892 -16.461  -4.728  1.00  0.00     0.004 C 
ENDBRANCH  16  17
ENDBRANCH  15  16
ENDBRANCH  14  15
ENDBRANCH  13  14
ENDBRANCH  12  13
ENDBRANCH  11  12
ENDBRANCH   1  11
TORSDOF 14
ENDMDL
MODEL 4
REMARK VINA RESULT:    -1.610      4.350      7.986
REMARK INTER + INTRA:          -3.866
REMARK INTER:                  -4.005
REMARK INTRA:                   0.139
REMARK UNBOUND:                -0.938
REMARK SMILES CCCCCCCCCCCCCCCC(=O)[O-]
REMARK SMILES IDX 9 1 10 2 11 3 12 4 13 5 14 6 15 7 16 8 17 9 18 10 8 11 7 12
REMARK SMILES IDX 6 13 5 14 4 15 3 16 2 17 1 18
REMARK H PARENT
REMARK Flexibility Score: inf
ROOT
ATOM      1  C   UNL     1      11.892 -15.991  -0.506  1.00  0.00     0.000 C 
ENDROOT
BRANCH   1   2
ATOM      2  C   UNL     1      11.654 -14.475  -0.614  1.00  0.00     0.000 C 
BRANCH   2   3
ATOM      3  C   UNL     1      12.634 -13.788  -1.576  1.00  0.00     0.000 C 
BRANCH   3   4
ATOM      4  C   UNL     1      11.887 -13.147  -2.754  1.00  0.00     0.000 C 
BRANCH   4   5
ATOM      5  C   UNL     1      12.640 -11.949  -3.354  1.00  0.00     0.000 C 
BRANCH   5   6
ATOM      6  C   UNL     1      14.121 -11.917  -2.948  1.00  0.00     0.006 C 
BRANCH   6   7
ATOM      7  C   UNL     1      15.026 -12.173  -4.157  1.00  0.00     0.053 C 
BRANCH   7   8
ATOM      8  C   UNL     1      14.269 -12.870  -5.241  1.00  0.00     0.041 C 
ATOM      9  O   UNL     1      13.532 -12.213  -6.023  1.00  0.00    -0.550 OA
ATOM     10  O   UNL     1      14.413 -14.240  -5.421  1.00  0.00    -0.550 OA
ENDBRANCH   7   8
ENDBRANCH   6   7
ENDBRANCH   5   6
ENDBRANCH   4   5
ENDBRANCH   3   4
ENDBRANCH   2   3
ENDBRANCH   1   2
BRANCH   1  11
ATOM     11  C   UNL     1      13.285 -16.334   0.043  1.00  0.00     0.000 C 
BRANCH  11  12
ATOM     12  C   UNL     1      13.889 -15.138   0.794  1.00  0.00    -0.000 C 
BRANCH  12  13
ATOM     13  C   UNL     1      15.125 -15.522   1.623  1.00  0.00    -0.000 C 
BRANCH  13  14
ATOM     14  C   UNL     1      14.986 -16.905   2.286  1.00  0.00    -0.000 C 
BRANCH  14  15
ATOM     15  C   UNL     1      15.105 -16.838   3.817  1.00  0.00    -0.000 C 
BRANCH  15  16
ATOM     16  C   UNL     1      13.822 -17.302   4.529  1.00  0.00    -0.000 C 
BRANCH  16  17
ATOM     17  C   UNL     1      13.729 -16.785   5.972  1.00  0.00    -0.003 C 
ATOM     18  C   UNL     1      14.612 -15.562   6.219  1.00  0.00     0.004 C 
ENDBRANCH  16  17
ENDBRANCH  15  16
ENDBRANCH  14  15
ENDBRANCH  13  14
ENDBRANCH  12  13
ENDBRANCH  11  12
ENDBRANCH   1  11
TORSDOF 14
ENDMDL
MODEL 5
REMARK VINA RESULT:    -1.520      4.103      6.904
REMARK INTER + INTRA:          -3.701
REMARK INTER:                  -2.815
REMARK INTRA:                  -0.886
REMARK UNBOUND:                -0.938
REMARK SMILES CCCCCCCCCCCCCCCC(=O)[O-]
REMARK SMILES IDX 9 1 10 2 11 3 12 4 13 5 14 6 15 7 16 8 17 9 18 10 8 11 7 12
REMARK SMILES IDX 6 13 5 14 4 15 3 16 2 17 1 18
REMARK H PARENT
REMARK Flexibility Score: inf
ROOT
ATOM      1  C   UNL     1      13.336 -15.834  -0.297  1.00  0.00     0.000 C 
ENDROOT
BRANCH   1   2
ATOM      2  C   UNL     1      12.811 -14.423  -0.609  1.00  0.00     0.000 C 
BRANCH   2   3
ATOM      3  C   UNL     1      12.176 -14.322  -2.004  1.00  0.00     0.000 C 
BRANCH   3   4
ATOM      4  C   UNL     1      12.565 -13.003  -2.688  1.00  0.00     0.000 C 
BRANCH   4   5
ATOM      5  C   UNL     1      14.008 -12.575  -2.375  1.00  0.00     0.000 C 
BRANCH   5   6
ATOM      6  C   UNL     1      14.689 -11.875  -3.562  1.00  0.00     0.006 C 
BRANCH   6   7
ATOM      7  C   UNL     1      13.884 -12.074  -4.850  1.00  0.00     0.053 C 
BRANCH   7   8
ATOM      8  C   UNL     1      14.318 -13.320  -5.552  1.00  0.00     0.041 C 
ATOM      9  O   UNL     1      15.069 -13.252  -6.561  1.00  0.00    -0.550 OA
ATOM     10  O   UNL     1      13.933 -14.563  -5.065  1.00  0.00    -0.550 OA
ENDBRANCH   7   8
ENDBRANCH   6   7
ENDBRANCH   5   6
ENDBRANCH   4   5
ENDBRANCH   3   4
ENDBRANCH   2   3
ENDBRANCH   1   2
BRANCH   1  11
ATOM     11  C   UNL     1      13.873 -15.964   1.136  1.00  0.00     0.000 C 
BRANCH  11  12
ATOM     12  C   UNL     1      14.789 -17.189   1.270  1.00  0.00    -0.000 C 
BRANCH  12  13
ATOM     13  C   UNL     1      15.121 -17.831  -0.086  1.00  0.00    -0.000 C 
BRANCH  13  14
ATOM     14  C   UNL     1      15.125 -19.369  -0.027  1.00  0.00    -0.000 C 
BRANCH  14  15
ATOM     15  C   UNL     1      15.087 -20.012  -1.422  1.00  0.00    -0.000 C 
BRANCH  15  16
ATOM     16  C   UNL     1      14.942 -18.972  -2.547  1.00  0.00    -0.000 C 
BRANCH  16  17
ATOM     17  C   UNL     1      13.570 -19.035  -3.235  1.00  0.00    -0.003 C 
ATOM     18  C   UNL     1      13.278 -17.800  -4.085  1.00  0.00     0.004 C 
ENDBRANCH  16  17
ENDBRANCH  15  16
ENDBRANCH  14  15
ENDBRANCH  13  14
ENDBRANCH  12  13
ENDBRANCH  11  12
ENDBRANCH   1  11
TORSDOF 14
ENDMDL
MODEL 6
REMARK VINA RESULT:    -1.519      1.963      4.198
REMARK INTER + INTRA:          -3.700
REMARK INTER:                  -2.498
REMARK INTRA:                  -1.202
REMARK UNBOUND:                -0.938
REMARK SMILES CCCCCCCCCCCCCCCC(=O)[O-]
REMARK SMILES IDX 9 1 10 2 11 3 12 4 13 5 14 6 15 7 16 8 17 9 18 10 8 11 7 12
REMARK SMILES IDX 6 13 5 14 4 15 3 16 2 17 1 18
REMARK H PARENT
REMARK Flexibility Score: inf
ROOT
ATOM      1  C   UNL     1      13.903 -16.879  -4.599  1.00  0.00     0.000 C 
ENDROOT
BRANCH   1   2
ATOM      2  C   UNL     1      12.996 -17.747  -3.712  1.00  0.00     0.000 C 
BRANCH   2   3
ATOM      3  C   UNL     1      13.662 -19.067  -3.295  1.00  0.00     0.000 C 
BRANCH   3   4
ATOM      4  C   UNL     1      14.873 -18.806  -2.387  1.00  0.00     0.000 C 
BRANCH   4   5
ATOM      5  C   UNL     1      14.779 -19.549  -1.045  1.00  0.00     0.000 C 
BRANCH   5   6
ATOM      6  C   UNL     1      15.124 -18.651   0.153  1.00  0.00     0.006 C 
BRANCH   6   7
ATOM      7  C   UNL     1      14.517 -17.255  -0.015  1.00  0.00     0.053 C 
BRANCH   7   8
ATOM      8  C   UNL     1      14.587 -16.495   1.270  1.00  0.00     0.041 C 
ATOM      9  O   UNL     1      14.367 -15.254   1.286  1.00  0.00    -0.550 OA
ATOM     10  O   UNL     1      14.846 -17.162   2.460  1.00  0.00    -0.550 OA
ENDBRANCH   7   8
ENDBRANCH   6   7
ENDBRANCH   5   6
ENDBRANCH   4   5
ENDBRANCH   3   4
ENDBRANCH   2   3
ENDBRANCH   1   2
BRANCH   1  11
ATOM     11  C   UNL     1      13.710 -15.375  -4.354  1.00  0.00     0.000 C 
BRANCH  11  12
ATOM     12  C   UNL     1      14.599 -14.547  -5.293  1.00  0.00    -0.000 C 
BRANCH  12  13
ATOM     13  C   UNL     1      13.938 -13.228  -5.723  1.00  0.00    -0.000 C 
BRANCH  13  14
ATOM     14  C   UNL     1      14.145 -12.101  -4.694  1.00  0.00    -0.000 C 
BRANCH  14  15
ATOM     15  C   UNL     1      12.907 -11.875  -3.812  1.00  0.00    -0.000 C 
BRANCH  15  16
ATOM     16  C   UNL     1      13.239 -11.920  -2.309  1.00  0.00    -0.000 C 
BRANCH  16  17
ATOM     17  C   UNL     1      13.382 -13.355  -1.781  1.00  0.00    -0.003 C 
ATOM     18  C   UNL     1      12.044 -13.972  -1.377  1.00  0.00     0.004 C 
ENDBRANCH  16  17
ENDBRANCH  15  16
ENDBRANCH  14  15
ENDBRANCH  13  14
ENDBRANCH  12  13
ENDBRANCH  11  12
ENDBRANCH   1  11
TORSDOF 14
ENDMDL
MODEL 7
REMARK VINA RESULT:    -1.064      3.536      5.384
REMARK INTER + INTRA:          -2.872
REMARK INTER:                  -2.012
REMARK INTRA:                  -0.860
REMARK UNBOUND:                -0.938
REMARK SMILES CCCCCCCCCCCCCCCC(=O)[O-]
REMARK SMILES IDX 9 1 10 2 11 3 12 4 13 5 14 6 15 7 16 8 17 9 18 10 8 11 7 12
REMARK SMILES IDX 6 13 5 14 4 15 3 16 2 17 1 18
REMARK H PARENT
REMARK Flexibility Score: inf
ROOT
ATOM      1  C   UNL     1      12.638 -15.903  -0.698  1.00  0.00     0.000 C 
ENDROOT
BRANCH   1   2
ATOM      2  C   UNL     1      13.589 -16.690   0.219  1.00  0.00     0.000 C 
BRANCH   2   3
ATOM      3  C   UNL     1      14.354 -15.786   1.197  1.00  0.00     0.000 C 
BRANCH   3   4
ATOM      4  C   UNL     1      14.863 -14.521   0.489  1.00  0.00     0.000 C 
BRANCH   4   5
ATOM      5  C   UNL     1      14.290 -13.230   1.095  1.00  0.00     0.000 C 
BRANCH   5   6
ATOM      6  C   UNL     1      14.479 -12.012   0.178  1.00  0.00     0.006 C 
BRANCH   6   7
ATOM      7  C   UNL     1      14.985 -12.438  -1.203  1.00  0.00     0.053 C 
BRANCH   7   8
ATOM      8  C   UNL     1      13.903 -12.298  -2.225  1.00  0.00     0.041 C 
ATOM      9  O   UNL     1      14.172 -11.876  -3.381  1.00  0.00    -0.550 OA
ATOM     10  O   UNL     1      12.602 -12.678  -1.918  1.00  0.00    -0.550 OA
ENDBRANCH   7   8
ENDBRANCH   6   7
ENDBRANCH   5   6
ENDBRANCH   4   5
ENDBRANCH   3   4
ENDBRANCH   2   3
ENDBRANCH   1   2
BRANCH   1  11
ATOM     11  C   UNL     1      12.515 -16.524  -2.097  1.00  0.00     0.000 C 
BRANCH  11  12
ATOM     12  C   UNL     1      13.442 -17.740  -2.241  1.00  0.00    -0.000 C 
BRANCH  12  13
ATOM     13  C   UNL     1      13.321 -18.417  -3.616  1.00  0.00    -0.000 C 
BRANCH  13  14
ATOM     14  C   UNL     1      13.227 -17.401  -4.769  1.00  0.00    -0.000 C 
BRANCH  14  15
ATOM     15  C   UNL     1      14.369 -16.373  -4.742  1.00  0.00    -0.000 C 
BRANCH  15  16
ATOM     16  C   UNL     1      13.886 -14.946  -5.057  1.00  0.00    -0.000 C 
BRANCH  16  17
ATOM     17  C   UNL     1      14.580 -14.348  -6.289  1.00  0.00    -0.003 C 
ATOM     18  C   UNL     1      14.698 -12.826  -6.219  1.00  0.00     0.004 C 
ENDBRANCH  16  17
ENDBRANCH  15  16
ENDBRANCH  14  15
ENDBRANCH  13  14
ENDBRANCH  12  13
ENDBRANCH  11  12
ENDBRANCH   1  11
TORSDOF 14
ENDMDL
