MODEL 1
REMARK VINA RESULT:    -3.792      0.000      0.000
REMARK INTER + INTRA:          -8.327
REMARK INTER:                  -6.452
REMARK INTRA:                  -1.875
REMARK UNBOUND:                -1.875
REMARK SMILES CCCCCCCCCCCCCC(=O)[O-]
REMARK SMILES IDX 8 1 9 2 10 3 11 4 12 5 13 6 14 7 15 8 16 9 7 10 6 11 5 12
REMARK SMILES IDX 4 13 3 14 2 15 1 16
REMARK H PARENT
REMARK Flexibility Score: inf
ROOT
ATOM      1  C   UNL     1     106.363  99.357  89.230  1.00  0.00     0.000 C 
ENDROOT
BRANCH   1   2
ATOM      2  C   UNL     1     106.845  98.184  88.357  1.00  0.00     0.000 C 
BRANCH   2   3
ATOM      3  C   UNL     1     105.794  97.088  88.098  1.00  0.00     0.000 C 
BRANCH   3   4
ATOM      4  C   UNL     1     105.034  96.672  89.365  1.00  0.00     0.000 C 
BRANCH   4   5
ATOM      5  C   UNL     1     105.392  95.235  89.774  1.00  0.00     0.006 C 
BRANCH   5   6
ATOM      6  C   UNL     1     104.153  94.407  90.136  1.00  0.00     0.053 C 
BRANCH   6   7
ATOM      7  C   UNL     1     103.520  94.885  91.407  1.00  0.00     0.041 C 
ATOM      8  O   UNL     1     102.416  95.491  91.376  1.00  0.00    -0.550 OA
ATOM      9  O   UNL     1     104.165  94.691  92.622  1.00  0.00    -0.550 OA
ENDBRANCH   6   7
ENDBRANCH   5   6
ENDBRANCH   4   5
ENDBRANCH   3   4
ENDBRANCH   2   3
ENDBRANCH   1   2
BRANCH   1  10
ATOM     10  C   UNL     1     107.521 100.157  89.851  1.00  0.00     0.000 C 
BRANCH  10  11
ATOM     11  C   UNL     1     108.686  99.259  90.298  1.00  0.00    -0.000 C 
BRANCH  11  12
ATOM     12  C   UNL     1     108.709  99.029  91.816  1.00  0.00    -0.000 C 
BRANCH  12  13
ATOM     13  C   UNL     1     108.469  97.549  92.151  1.00  0.00    -0.000 C 
BRANCH  13  14
ATOM     14  C   UNL     1     106.985  97.228  92.389  1.00  0.00    -0.000 C 
BRANCH  14  15
ATOM     15  C   UNL     1     106.193  98.440  92.905  1.00  0.00    -0.003 C 
ATOM     16  C   UNL     1     104.690  98.209  92.776  1.00  0.00     0.004 C 
ENDBRANCH  14  15
ENDBRANCH  13  14
ENDBRANCH  12  13
ENDBRANCH  11  12
ENDBRANCH  10  11
ENDBRANCH   1  10
TORSDOF 12
ENDMDL
MODEL 2
REMARK VINA RESULT:    -3.765     13.257     15.310
REMARK INTER + INTRA:          -8.281
REMARK INTER:                  -6.472
REMARK INTRA:                  -1.810
REMARK UNBOUND:                -1.875
REMARK SMILES CCCCCCCCCCCCCC(=O)[O-]
REMARK SMILES IDX 8 1 9 2 10 3 11 4 12 5 13 6 14 7 15 8 16 9 7 10 6 11 5 12
REMARK SMILES IDX 4 13 3 14 2 15 1 16
REMARK H PARENT
REMARK Flexibility Score: inf
ROOT
ATOM      1  C   UNL     1      91.316  97.851  89.456  1.00  0.00     0.000 C 
ENDROOT
BRANCH   1   2
ATOM      2  C   UNL     1      91.607  99.336  89.175  1.00  0.00     0.000 C 
BRANCH   2   3
ATOM      3  C   UNL     1      93.038  99.643  88.696  1.00  0.00     0.000 C 
BRANCH   3   4
ATOM      4  C   UNL     1      93.632 100.902  89.345  1.00  0.00     0.000 C 
BRANCH   4   5
ATOM      5  C   UNL     1      92.622 102.058  89.325  1.00  0.00     0.006 C 
BRANCH   5   6
ATOM      6  C   UNL     1      92.497 102.745  90.691  1.00  0.00     0.053 C 
BRANCH   6   7
ATOM      7  C   UNL     1      93.744 103.495  91.049  1.00  0.00     0.041 C 
ATOM      8  O   UNL     1      94.203 103.438  92.220  1.00  0.00    -0.550 OA
ATOM      9  O   UNL     1      94.380 104.282  90.098  1.00  0.00    -0.550 OA
ENDBRANCH   6   7
ENDBRANCH   5   6
ENDBRANCH   4   5
ENDBRANCH   3   4
ENDBRANCH   2   3
ENDBRANCH   1   2
BRANCH   1  10
ATOM     10  C   UNL     1      89.812  97.542  89.553  1.00  0.00     0.000 C 
BRANCH  10  11
ATOM     11  C   UNL     1      89.066  98.524  90.471  1.00  0.00    -0.000 C 
BRANCH  11  12
ATOM     12  C   UNL     1      89.322  98.253  91.961  1.00  0.00    -0.000 C 
BRANCH  12  13
ATOM     13  C   UNL     1      89.388  99.568  92.754  1.00  0.00    -0.000 C 
BRANCH  13  14
ATOM     14  C   UNL     1      90.799 100.177  92.775  1.00  0.00    -0.000 C 
BRANCH  14  15
ATOM     15  C   UNL     1      91.898  99.118  92.946  1.00  0.00    -0.003 C 
ATOM     16  C   UNL     1      93.285  99.737  92.801  1.00  0.00     0.004 C 
ENDBRANCH  14  15
ENDBRANCH  13  14
ENDBRANCH  12  13
ENDBRANCH  11  12
ENDBRANCH  10  11
ENDBRANCH   1  10
TORSDOF 12
ENDMDL
MODEL 3
REMARK VINA RESULT:    -3.756     11.351     12.586
REMARK INTER + INTRA:          -8.266
REMARK INTER:                  -6.999
REMARK INTRA:                  -1.266
REMARK UNBOUND:                -1.875
REMARK SMILES CCCCCCCCCCCCCC(=O)[O-]
REMARK SMILES IDX 8 1 9 2 10 3 11 4 12 5 13 6 14 7 15 8 16 9 7 10 6 11 5 12
REMARK SMILES IDX 4 13 3 14 2 15 1 16
REMARK H PARENT
REMARK Flexibility Score: inf
ROOT
ATOM      1  C   UNL     1      94.864 104.278  89.877  1.00  0.00     0.000 C 
ENDROOT
BRANCH   1   2
ATOM      2  C   UNL     1      94.607 103.030  89.013  1.00  0.00     0.000 C 
BRANCH   2   3
ATOM      3  C   UNL     1      93.502 102.092  89.532  1.00  0.00     0.000 C 
BRANCH   3   4
ATOM      4  C   UNL     1      92.454 102.815  90.391  1.00  0.00     0.000 C 
BRANCH   4   5
ATOM      5  C   UNL     1      92.203 102.058  91.703  1.00  0.00     0.006 C 
BRANCH   5   6
ATOM      6  C   UNL     1      91.149 100.954  91.546  1.00  0.00     0.053 C 
BRANCH   6   7
ATOM      7  C   UNL     1      91.034 100.118  92.783  1.00  0.00     0.041 C 
ATOM      8  O   UNL     1      92.035  99.491  93.220  1.00  0.00    -0.550 OA
ATOM      9  O   UNL     1      89.812 100.004  93.435  1.00  0.00    -0.550 OA
ENDBRANCH   6   7
ENDBRANCH   5   6
ENDBRANCH   4   5
ENDBRANCH   3   4
ENDBRANCH   2   3
ENDBRANCH   1   2
BRANCH   1  10
ATOM     10  C   UNL     1      96.033 105.135  89.359  1.00  0.00     0.000 C 
BRANCH  10  11
ATOM     11  C   UNL     1      97.146 104.290  88.719  1.00  0.00    -0.000 C 
BRANCH  11  12
ATOM     12  C   UNL     1      98.550 104.714  89.178  1.00  0.00    -0.000 C 
BRANCH  12  13
ATOM     13  C   UNL     1      99.261 103.561  89.905  1.00  0.00    -0.000 C 
BRANCH  13  14
ATOM     14  C   UNL     1      98.417 102.277  89.947  1.00  0.00    -0.000 C 
BRANCH  14  15
ATOM     15  C   UNL     1      98.227 101.740  91.374  1.00  0.00    -0.003 C 
ATOM     16  C   UNL     1      96.747 101.563  91.702  1.00  0.00     0.004 C 
ENDBRANCH  14  15
ENDBRANCH  13  14
ENDBRANCH  12  13
ENDBRANCH  11  12
ENDBRANCH  10  11
ENDBRANCH   1  10
TORSDOF 12
ENDMDL
MODEL 4
REMARK VINA RESULT:    -3.746     10.989     12.306
REMARK INTER + INTRA:          -8.248
REMARK INTER:                  -6.449
REMARK INTRA:                  -1.799
REMARK UNBOUND:                -1.875
REMARK SMILES CCCCCCCCCCCCCC(=O)[O-]
REMARK SMILES IDX 8 1 9 2 10 3 11 4 12 5 13 6 14 7 15 8 16 9 7 10 6 11 5 12
REMARK SMILES IDX 4 13 3 14 2 15 1 16
REMARK H PARENT
REMARK Flexibility Score: inf
ROOT
ATOM      1  C   UNL     1      96.711 104.693  89.049  1.00  0.00     0.000 C 
ENDROOT
BRANCH   1   2
ATOM      2  C   UNL     1      95.278 105.021  89.506  1.00  0.00     0.000 C 
BRANCH   2   3
ATOM      3  C   UNL     1      94.589 103.922  90.337  1.00  0.00     0.000 C 
BRANCH   3   4
ATOM      4  C   UNL     1      93.482 103.191  89.565  1.00  0.00     0.000 C 
BRANCH   4   5
ATOM      5  C   UNL     1      92.262 102.936  90.463  1.00  0.00     0.006 C 
BRANCH   5   6
ATOM      6  C   UNL     1      92.635 102.186  91.748  1.00  0.00     0.053 C 
BRANCH   6   7
ATOM      7  C   UNL     1      91.824 100.937  91.915  1.00  0.00     0.041 C 
ATOM      8  O   UNL     1      92.286  99.827  91.542  1.00  0.00    -0.550 OA
ATOM      9  O   UNL     1      90.545 101.004  92.453  1.00  0.00    -0.550 OA
ENDBRANCH   6   7
ENDBRANCH   5   6
ENDBRANCH   4   5
ENDBRANCH   3   4
ENDBRANCH   2   3
ENDBRANCH   1   2
BRANCH   1  10
ATOM     10  C   UNL     1      96.835 103.291  88.426  1.00  0.00     0.000 C 
BRANCH  10  11
ATOM     11  C   UNL     1      98.188 102.627  88.732  1.00  0.00    -0.000 C 
BRANCH  11  12
ATOM     12  C   UNL     1      98.554 102.687  90.223  1.00  0.00    -0.000 C 
BRANCH  12  13
ATOM     13  C   UNL     1      98.163 101.383  90.936  1.00  0.00    -0.000 C 
BRANCH  13  14
ATOM     14  C   UNL     1      96.880 101.525  91.770  1.00  0.00    -0.000 C 
BRANCH  14  15
ATOM     15  C   UNL     1      95.912 100.348  91.573  1.00  0.00    -0.003 C 
ATOM     16  C   UNL     1      95.563 100.166  90.098  1.00  0.00     0.004 C 
ENDBRANCH  14  15
ENDBRANCH  13  14
ENDBRANCH  12  13
ENDBRANCH  11  12
ENDBRANCH  10  11
ENDBRANCH   1  10
TORSDOF 12
ENDMDL
MODEL 5
REMARK VINA RESULT:    -3.744      2.855      5.995
REMARK INTER + INTRA:          -8.245
REMARK INTER:                  -6.370
REMARK INTRA:                  -1.876
REMARK UNBOUND:                -1.875
REMARK SMILES CCCCCCCCCCCCCC(=O)[O-]
REMARK SMILES IDX 8 1 9 2 10 3 11 4 12 5 13 6 14 7 15 8 16 9 7 10 6 11 5 12
REMARK SMILES IDX 4 13 3 14 2 15 1 16
REMARK H PARENT
REMARK Flexibility Score: inf
ROOT
ATOM      1  C   UNL     1     103.577  94.492  91.476  1.00  0.00     0.000 C 
ENDROOT
BRANCH   1   2
ATOM      2  C   UNL     1     104.780  95.433  91.673  1.00  0.00     0.000 C 
BRANCH   2   3
ATOM      3  C   UNL     1     104.963  96.499  90.577  1.00  0.00     0.000 C 
BRANCH   3   4
ATOM      4  C   UNL     1     104.625  97.918  91.057  1.00  0.00     0.000 C 
BRANCH   4   5
ATOM      5  C   UNL     1     104.619  97.992  92.591  1.00  0.00     0.006 C 
BRANCH   5   6
ATOM      6  C   UNL     1     105.629  99.014  93.127  1.00  0.00     0.053 C 
BRANCH   6   7
ATOM      7  C   UNL     1     107.025  98.698  92.685  1.00  0.00     0.041 C 
ATOM      8  O   UNL     1     107.652  99.499  91.944  1.00  0.00    -0.550 OA
ATOM      9  O   UNL     1     107.620  97.501  93.064  1.00  0.00    -0.550 OA
ENDBRANCH   6   7
ENDBRANCH   5   6
ENDBRANCH   4   5
ENDBRANCH   3   4
ENDBRANCH   2   3
ENDBRANCH   1   2
BRANCH   1  10
ATOM     10  C   UNL     1     103.487  93.926  90.048  1.00  0.00     0.000 C 
BRANCH  10  11
ATOM     11  C   UNL     1     102.091  94.105  89.429  1.00  0.00    -0.000 C 
BRANCH  11  12
ATOM     12  C   UNL     1     101.948  95.427  88.660  1.00  0.00    -0.000 C 
BRANCH  12  13
ATOM     13  C   UNL     1     101.183  96.466  89.495  1.00  0.00    -0.000 C 
BRANCH  13  14
ATOM     14  C   UNL     1     100.179  95.825  90.465  1.00  0.00    -0.000 C 
BRANCH  14  15
ATOM     15  C   UNL     1     100.190  96.486  91.852  1.00  0.00    -0.003 C 
ATOM     16  C   UNL     1     101.037  97.755  91.848  1.00  0.00     0.004 C 
ENDBRANCH  14  15
ENDBRANCH  13  14
ENDBRANCH  12  13
ENDBRANCH  11  12
ENDBRANCH  10  11
ENDBRANCH   1  10
TORSDOF 12
ENDMDL
MODEL 6
REMARK VINA RESULT:    -3.715     12.536     14.409
REMARK INTER + INTRA:          -8.195
REMARK INTER:                  -6.769
REMARK INTRA:                  -1.427
REMARK UNBOUND:                -1.875
REMARK SMILES CCCCCCCCCCCCCC(=O)[O-]
REMARK SMILES IDX 8 1 9 2 10 3 11 4 12 5 13 6 14 7 15 8 16 9 7 10 6 11 5 12
REMARK SMILES IDX 4 13 3 14 2 15 1 16
REMARK H PARENT
REMARK Flexibility Score: inf
ROOT
ATOM      1  C   UNL     1      93.256  99.377  93.098  1.00  0.00     0.000 C 
ENDROOT
BRANCH   1   2
ATOM      2  C   UNL     1      91.723  99.360  93.239  1.00  0.00     0.000 C 
BRANCH   2   3
ATOM      3  C   UNL     1      90.987 100.499  92.510  1.00  0.00     0.000 C 
BRANCH   3   4
ATOM      4  C   UNL     1      89.654 100.054  91.891  1.00  0.00     0.000 C 
BRANCH   4   5
ATOM      5  C   UNL     1      89.503  98.527  91.952  1.00  0.00     0.006 C 
BRANCH   5   6
ATOM      6  C   UNL     1      89.285  97.909  90.565  1.00  0.00     0.053 C 
BRANCH   6   7
ATOM      7  C   UNL     1      90.383  98.277  89.615  1.00  0.00     0.041 C 
ATOM      8  O   UNL     1      90.122  98.912  88.560  1.00  0.00    -0.550 OA
ATOM      9  O   UNL     1      91.691  97.891  89.880  1.00  0.00    -0.550 OA
ENDBRANCH   6   7
ENDBRANCH   5   6
ENDBRANCH   4   5
ENDBRANCH   3   4
ENDBRANCH   2   3
ENDBRANCH   1   2
BRANCH   1  10
ATOM     10  C   UNL     1      93.732 100.071  91.810  1.00  0.00     0.000 C 
BRANCH  10  11
ATOM     11  C   UNL     1      95.262 100.208  91.744  1.00  0.00    -0.000 C 
BRANCH  11  12
ATOM     12  C   UNL     1      95.714 101.598  91.272  1.00  0.00    -0.000 C 
BRANCH  12  13
ATOM     13  C   UNL     1      94.811 102.695  91.858  1.00  0.00    -0.000 C 
BRANCH  13  14
ATOM     14  C   UNL     1      94.595 103.867  90.887  1.00  0.00    -0.000 C 
BRANCH  14  15
ATOM     15  C   UNL     1      93.624 103.519  89.748  1.00  0.00    -0.003 C 
ATOM     16  C   UNL     1      92.270 103.078  90.296  1.00  0.00     0.004 C 
ENDBRANCH  14  15
ENDBRANCH  13  14
ENDBRANCH  12  13
ENDBRANCH  11  12
ENDBRANCH  10  11
ENDBRANCH   1  10
TORSDOF 12
ENDMDL
MODEL 7
REMARK VINA RESULT:    -3.673      1.111      1.720
REMARK INTER + INTRA:          -8.124
REMARK INTER:                  -6.315
REMARK INTRA:                  -1.809
REMARK UNBOUND:                -1.875
REMARK SMILES CCCCCCCCCCCCCC(=O)[O-]
REMARK SMILES IDX 8 1 9 2 10 3 11 4 12 5 13 6 14 7 15 8 16 9 7 10 6 11 5 12
REMARK SMILES IDX 4 13 3 14 2 15 1 16
REMARK H PARENT
REMARK Flexibility Score: inf
ROOT
ATOM      1  C   UNL     1     105.334  98.635  89.186  1.00  0.00     0.000 C 
ENDROOT
BRANCH   1   2
ATOM      2  C   UNL     1     105.989  97.288  88.827  1.00  0.00     0.000 C 
BRANCH   2   3
ATOM      3  C   UNL     1     105.055  96.066  88.903  1.00  0.00     0.000 C 
BRANCH   3   4
ATOM      4  C   UNL     1     105.387  95.129  90.073  1.00  0.00     0.000 C 
BRANCH   4   5
ATOM      5  C   UNL     1     104.120  94.442  90.604  1.00  0.00     0.006 C 
BRANCH   5   6
ATOM      6  C   UNL     1     103.617  95.078  91.906  1.00  0.00     0.053 C 
BRANCH   6   7
ATOM      7  C   UNL     1     102.649  96.190  91.641  1.00  0.00     0.041 C 
ATOM      8  O   UNL     1     101.443  95.934  91.386  1.00  0.00    -0.550 OA
ATOM      9  O   UNL     1     103.087  97.509  91.643  1.00  0.00    -0.550 OA
ENDBRANCH   6   7
ENDBRANCH   5   6
ENDBRANCH   4   5
ENDBRANCH   3   4
ENDBRANCH   2   3
ENDBRANCH   1   2
BRANCH   1  10
ATOM     10  C   UNL     1     106.339  99.799  89.225  1.00  0.00     0.000 C 
BRANCH  10  11
ATOM     11  C   UNL     1     107.794  99.318  89.344  1.00  0.00    -0.000 C 
BRANCH  11  12
ATOM     12  C   UNL     1     108.594 100.101  90.396  1.00  0.00    -0.000 C 
BRANCH  12  13
ATOM     13  C   UNL     1     108.352  99.533  91.803  1.00  0.00    -0.000 C 
BRANCH  13  14
ATOM     14  C   UNL     1     108.384  97.996  91.835  1.00  0.00    -0.000 C 
BRANCH  14  15
ATOM     15  C   UNL     1     107.087  97.389  92.392  1.00  0.00    -0.003 C 
ATOM     16  C   UNL     1     106.174  98.471  92.962  1.00  0.00     0.004 C 
ENDBRANCH  14  15
ENDBRANCH  13  14
ENDBRANCH  12  13
ENDBRANCH  11  12
ENDBRANCH  10  11
ENDBRANCH   1  10
TORSDOF 12
ENDMDL
MODEL 8
REMARK VINA RESULT:    -3.640     11.562     13.094
REMARK INTER + INTRA:          -8.069
REMARK INTER:                  -6.481
REMARK INTRA:                  -1.588
REMARK UNBOUND:                -1.875
REMARK SMILES CCCCCCCCCCCCCC(=O)[O-]
REMARK SMILES IDX 8 1 9 2 10 3 11 4 12 5 13 6 14 7 15 8 16 9 7 10 6 11 5 12
REMARK SMILES IDX 4 13 3 14 2 15 1 16
REMARK H PARENT
REMARK Flexibility Score: inf
ROOT
ATOM      1  C   UNL     1      93.121 102.781  91.562  1.00  0.00     0.000 C 
ENDROOT
BRANCH   1   2
ATOM      2  C   UNL     1      92.418 102.545  90.213  1.00  0.00     0.000 C 
BRANCH   2   3
ATOM      3  C   UNL     1      92.345 101.075  89.761  1.00  0.00     0.000 C 
BRANCH   3   4
ATOM      4  C   UNL     1      93.406 100.188  90.429  1.00  0.00     0.000 C 
BRANCH   4   5
ATOM      5  C   UNL     1      92.759  98.966  91.096  1.00  0.00     0.006 C 
BRANCH   5   6
ATOM      6  C   UNL     1      92.137  99.307  92.456  1.00  0.00     0.053 C 
BRANCH   6   7
ATOM      7  C   UNL     1      90.644  99.181  92.430  1.00  0.00     0.041 C 
ATOM      8  O   UNL     1      90.090  98.375  91.637  1.00  0.00    -0.550 OA
ATOM      9  O   UNL     1      89.864  99.977  93.259  1.00  0.00    -0.550 OA
ENDBRANCH   6   7
ENDBRANCH   5   6
ENDBRANCH   4   5
ENDBRANCH   3   4
ENDBRANCH   2   3
ENDBRANCH   1   2
BRANCH   1  10
ATOM     10  C   UNL     1      94.459 103.526  91.418  1.00  0.00     0.000 C 
BRANCH  10  11
ATOM     11  C   UNL     1      94.591 104.248  90.067  1.00  0.00    -0.000 C 
BRANCH  11  12
ATOM     12  C   UNL     1      95.927 103.958  89.367  1.00  0.00    -0.000 C 
BRANCH  12  13
ATOM     13  C   UNL     1      96.388 102.518  89.642  1.00  0.00    -0.000 C 
BRANCH  13  14
ATOM     14  C   UNL     1      97.841 102.445  90.135  1.00  0.00    -0.000 C 
BRANCH  14  15
ATOM     15  C   UNL     1      97.973 101.721  91.485  1.00  0.00    -0.003 C 
ATOM     16  C   UNL     1      96.826 100.736  91.693  1.00  0.00     0.004 C 
ENDBRANCH  14  15
ENDBRANCH  13  14
ENDBRANCH  12  13
ENDBRANCH  11  12
ENDBRANCH  10  11
ENDBRANCH   1  10
TORSDOF 12
ENDMDL
MODEL 9
REMARK VINA RESULT:    -3.631      2.620      5.149
REMARK INTER + INTRA:          -8.053
REMARK INTER:                  -5.857
REMARK INTRA:                  -2.196
REMARK UNBOUND:                -1.875
REMARK SMILES CCCCCCCCCCCCCC(=O)[O-]
REMARK SMILES IDX 8 1 9 2 10 3 11 4 12 5 13 6 14 7 15 8 16 9 7 10 6 11 5 12
REMARK SMILES IDX 4 13 3 14 2 15 1 16
REMARK H PARENT
REMARK Flexibility Score: inf
ROOT
ATOM      1  C   UNL     1     105.389  95.564  89.769  1.00  0.00     0.000 C 
ENDROOT
BRANCH   1   2
ATOM      2  C   UNL     1     105.039  96.434  88.548  1.00  0.00     0.000 C 
BRANCH   2   3
ATOM      3  C   UNL     1     105.444  97.915  88.663  1.00  0.00     0.000 C 
BRANCH   3   4
ATOM      4  C   UNL     1     106.477  98.172  89.770  1.00  0.00     0.000 C 
BRANCH   4   5
ATOM      5  C   UNL     1     105.889  99.065  90.873  1.00  0.00     0.006 C 
BRANCH   5   6
ATOM      6  C   UNL     1     106.189  98.527  92.278  1.00  0.00     0.053 C 
BRANCH   6   7
ATOM      7  C   UNL     1     107.661  98.362  92.505  1.00  0.00     0.041 C 
ATOM      8  O   UNL     1     108.425  99.361  92.457  1.00  0.00    -0.550 OA
ATOM      9  O   UNL     1     108.192  97.100  92.737  1.00  0.00    -0.550 OA
ENDBRANCH   6   7
ENDBRANCH   5   6
ENDBRANCH   4   5
ENDBRANCH   3   4
ENDBRANCH   2   3
ENDBRANCH   1   2
BRANCH   1  10
ATOM     10  C   UNL     1     104.378  94.428  90.005  1.00  0.00     0.000 C 
BRANCH  10  11
ATOM     11  C   UNL     1     103.769  94.464  91.416  1.00  0.00    -0.000 C 
BRANCH  11  12
ATOM     12  C   UNL     1     103.636  95.891  91.969  1.00  0.00    -0.000 C 
BRANCH  12  13
ATOM     13  C   UNL     1     102.270  96.494  91.607  1.00  0.00    -0.000 C 
BRANCH  13  14
ATOM     14  C   UNL     1     102.391  97.847  90.886  1.00  0.00    -0.000 C 
BRANCH  14  15
ATOM     15  C   UNL     1     101.787  97.821  89.473  1.00  0.00    -0.003 C 
ATOM     16  C   UNL     1     101.283  96.425  89.117  1.00  0.00     0.004 C 
ENDBRANCH  14  15
ENDBRANCH  13  14
ENDBRANCH  12  13
ENDBRANCH  11  12
ENDBRANCH  10  11
ENDBRANCH   1  10
TORSDOF 12
ENDMDL
