MODEL 1
REMARK VINA RESULT:     4.153      0.000      0.000
REMARK INTER + INTRA:           9.013
REMARK INTER:                  10.951
REMARK INTRA:                  -1.937
REMARK UNBOUND:                -1.937
REMARK SMILES CCCCCCCCCCCCCCCCCCCCCCCCCCCCCC(=O)[O-]
REMARK SMILES IDX 16 1 17 2 18 3 19 4 20 5 21 6 22 7 23 8 24 9 25 10 26 11
REMARK SMILES IDX 27 12 28 13 29 14 30 15 31 16 32 17 15 18 14 19 13 20 12 21
REMARK SMILES IDX 11 22 10 23 9 24 8 25 7 26 6 27 5 28 4 29 3 30 2 31 1 32
REMARK H PARENT
REMARK Flexibility Score: inf
ROOT
ATOM      1  C   UNL     1     104.123 105.704 102.143  1.00  0.00     0.000 C 
ENDROOT
BRANCH   1   2
ATOM      2  C   UNL     1     104.566 106.656 103.270  1.00  0.00     0.000 C 
BRANCH   2   3
ATOM      3  C   UNL     1     104.736 106.017 104.667  1.00  0.00     0.000 C 
BRANCH   3   4
ATOM      4  C   UNL     1     104.475 106.951 105.869  1.00  0.00     0.000 C 
BRANCH   4   5
ATOM      5  C   UNL     1     104.298 106.226 107.214  1.00  0.00     0.000 C 
BRANCH   5   6
ATOM      6  C   UNL     1     104.683 104.735 107.163  1.00  0.00     0.000 C 
BRANCH   6   7
ATOM      7  C   UNL     1     103.446 103.827 107.084  1.00  0.00     0.000 C 
BRANCH   7   8
ATOM      8  C   UNL     1     103.820 102.334 107.006  1.00  0.00     0.000 C 
BRANCH   8   9
ATOM      9  C   UNL     1     103.170 101.520 108.137  1.00  0.00     0.000 C 
BRANCH   9  10
ATOM     10  C   UNL     1     103.260 102.246 109.490  1.00  0.00     0.000 C 
BRANCH  10  11
ATOM     11  C   UNL     1     103.247 101.248 110.659  1.00  0.00     0.000 C 
BRANCH  11  12
ATOM     12  C   UNL     1     103.255 101.985 112.008  1.00  0.00     0.000 C 
BRANCH  12  13
ATOM     13  C   UNL     1     104.255 103.158 112.044  1.00  0.00     0.006 C 
BRANCH  13  14
ATOM     14  C   UNL     1     103.586 104.544 112.007  1.00  0.00     0.053 C 
BRANCH  14  15
ATOM     15  C   UNL     1     104.591 105.657 111.984  1.00  0.00     0.041 C 
ATOM     16  O   UNL     1     104.210 106.854 112.029  1.00  0.00    -0.550 OA
ATOM     17  O   UNL     1     105.949 105.369 111.888  1.00  0.00    -0.550 OA
ENDBRANCH  14  15
ENDBRANCH  13  14
ENDBRANCH  12  13
ENDBRANCH  11  12
ENDBRANCH  10  11
ENDBRANCH   9  10
ENDBRANCH   8   9
ENDBRANCH   7   8
ENDBRANCH   6   7
ENDBRANCH   5   6
ENDBRANCH   4   5
ENDBRANCH   3   4
ENDBRANCH   2   3
ENDBRANCH   1   2
BRANCH   1  18
ATOM     18  C   UNL     1     104.557 104.246 102.364  1.00  0.00     0.000 C 
BRANCH  18  19
ATOM     19  C   UNL     1     103.334 103.330 102.528  1.00  0.00     0.000 C 
BRANCH  19  20
ATOM     20  C   UNL     1     103.706 101.839 102.507  1.00  0.00     0.000 C 
BRANCH  20  21
ATOM     21  C   UNL     1     103.536 101.198 101.117  1.00  0.00     0.000 C 
BRANCH  21  22
ATOM     22  C   UNL     1     103.228 102.236 100.025  1.00  0.00     0.000 C 
BRANCH  22  23
ATOM     23  C   UNL     1     103.377 101.663  98.606  1.00  0.00     0.000 C 
BRANCH  23  24
ATOM     24  C   UNL     1     103.740 102.748  97.567  1.00  0.00    -0.000 C 
BRANCH  24  25
ATOM     25  C   UNL     1     103.313 104.170  97.977  1.00  0.00    -0.000 C 
BRANCH  25  26
ATOM     26  C   UNL     1     104.246 105.289  97.485  1.00  0.00    -0.000 C 
BRANCH  26  27
ATOM     27  C   UNL     1     105.669 105.164  98.053  1.00  0.00    -0.000 C 
BRANCH  27  28
ATOM     28  C   UNL     1     106.680 104.812  96.951  1.00  0.00    -0.000 C 
BRANCH  28  29
ATOM     29  C   UNL     1     107.945 104.136  97.505  1.00  0.00    -0.000 C 
BRANCH  29  30
ATOM     30  C   UNL     1     109.221 104.941  97.211  1.00  0.00    -0.000 C 
BRANCH  30  31
ATOM     31  C   UNL     1     110.420 104.007  96.993  1.00  0.00    -0.003 C 
ATOM     32  C   UNL     1     110.267 102.719  97.797  1.00  0.00     0.004 C 
ENDBRANCH  30  31
ENDBRANCH  29  30
ENDBRANCH  28  29
ENDBRANCH  27  28
ENDBRANCH  26  27
ENDBRANCH  25  26
ENDBRANCH  24  25
ENDBRANCH  23  24
ENDBRANCH  22  23
ENDBRANCH  21  22
ENDBRANCH  20  21
ENDBRANCH  19  20
ENDBRANCH  18  19
ENDBRANCH   1  18
TORSDOF 28
ENDMDL
MODEL 2
REMARK VINA RESULT:     4.220      3.937     10.922
REMARK INTER + INTRA:           9.189
REMARK INTER:                  11.035
REMARK INTRA:                  -1.846
REMARK UNBOUND:                -1.937
REMARK SMILES CCCCCCCCCCCCCCCCCCCCCCCCCCCCCC(=O)[O-]
REMARK SMILES IDX 16 1 17 2 18 3 19 4 20 5 21 6 22 7 23 8 24 9 25 10 26 11
REMARK SMILES IDX 27 12 28 13 29 14 30 15 31 16 32 17 15 18 14 19 13 20 12 21
REMARK SMILES IDX 11 22 10 23 9 24 8 25 7 26 6 27 5 28 4 29 3 30 2 31 1 32
REMARK H PARENT
REMARK Flexibility Score: inf
ROOT
ATOM      1  C   UNL     1     104.422 106.004 107.418  1.00  0.00     0.000 C 
ENDROOT
BRANCH   1   2
ATOM      2  C   UNL     1     104.522 106.782 106.092  1.00  0.00     0.000 C 
BRANCH   2   3
ATOM      3  C   UNL     1     104.713 105.926 104.819  1.00  0.00     0.000 C 
BRANCH   3   4
ATOM      4  C   UNL     1     104.690 106.698 103.481  1.00  0.00     0.000 C 
BRANCH   4   5
ATOM      5  C   UNL     1     104.301 105.848 102.260  1.00  0.00     0.000 C 
BRANCH   5   6
ATOM      6  C   UNL     1     104.586 104.345 102.443  1.00  0.00     0.000 C 
BRANCH   6   7
ATOM      7  C   UNL     1     103.292 103.533 102.615  1.00  0.00     0.000 C 
BRANCH   7   8
ATOM      8  C   UNL     1     103.559 102.018 102.700  1.00  0.00     0.000 C 
BRANCH   8   9
ATOM      9  C   UNL     1     103.462 101.341 101.322  1.00  0.00     0.000 C 
BRANCH   9  10
ATOM     10  C   UNL     1     103.300 102.368 100.188  1.00  0.00     0.000 C 
BRANCH  10  11
ATOM     11  C   UNL     1     103.399 101.697  98.810  1.00  0.00     0.000 C 
BRANCH  11  12
ATOM     12  C   UNL     1     103.080 102.699  97.689  1.00  0.00     0.000 C 
BRANCH  12  13
ATOM     13  C   UNL     1     104.309 103.521  97.252  1.00  0.00     0.006 C 
BRANCH  13  14
ATOM     14  C   UNL     1     103.981 104.979  96.886  1.00  0.00     0.053 C 
BRANCH  14  15
ATOM     15  C   UNL     1     104.438 105.945  97.939  1.00  0.00     0.041 C 
ATOM     16  O   UNL     1     104.901 105.520  99.028  1.00  0.00    -0.550 OA
ATOM     17  O   UNL     1     104.328 107.314  97.724  1.00  0.00    -0.550 OA
ENDBRANCH  14  15
ENDBRANCH  13  14
ENDBRANCH  12  13
ENDBRANCH  11  12
ENDBRANCH  10  11
ENDBRANCH   9  10
ENDBRANCH   8   9
ENDBRANCH   7   8
ENDBRANCH   6   7
ENDBRANCH   5   6
ENDBRANCH   4   5
ENDBRANCH   3   4
ENDBRANCH   2   3
ENDBRANCH   1   2
BRANCH   1  18
ATOM     18  C   UNL     1     104.701 104.500 107.270  1.00  0.00     0.000 C 
BRANCH  18  19
ATOM     19  C   UNL     1     103.388 103.706 107.182  1.00  0.00     0.000 C 
BRANCH  19  20
ATOM     20  C   UNL     1     103.620 102.195 107.029  1.00  0.00     0.000 C 
BRANCH  20  21
ATOM     21  C   UNL     1     103.256 101.401 108.298  1.00  0.00     0.000 C 
BRANCH  21  22
ATOM     22  C   UNL     1     103.246 102.282 109.558  1.00  0.00     0.000 C 
BRANCH  22  23
ATOM     23  C   UNL     1     103.497 101.476 110.844  1.00  0.00     0.000 C 
BRANCH  23  24
ATOM     24  C   UNL     1     103.792 102.382 112.060  1.00  0.00    -0.000 C 
BRANCH  24  25
ATOM     25  C   UNL     1     103.164 103.785 111.958  1.00  0.00    -0.000 C 
BRANCH  25  26
ATOM     26  C   UNL     1     104.135 104.893 111.517  1.00  0.00    -0.000 C 
BRANCH  26  27
ATOM     27  C   UNL     1     105.465 104.855 112.285  1.00  0.00    -0.000 C 
BRANCH  27  28
ATOM     28  C   UNL     1     106.659 104.745 111.326  1.00  0.00    -0.000 C 
BRANCH  28  29
ATOM     29  C   UNL     1     107.981 104.462 112.060  1.00  0.00    -0.000 C 
BRANCH  29  30
ATOM     30  C   UNL     1     108.877 103.470 111.302  1.00  0.00    -0.000 C 
BRANCH  30  31
ATOM     31  C   UNL     1     110.353 103.671 111.672  1.00  0.00    -0.003 C 
ATOM     32  C   UNL     1     110.838 105.059 111.266  1.00  0.00     0.004 C 
ENDBRANCH  30  31
ENDBRANCH  29  30
ENDBRANCH  28  29
ENDBRANCH  27  28
ENDBRANCH  26  27
ENDBRANCH  25  26
ENDBRANCH  24  25
ENDBRANCH  23  24
ENDBRANCH  22  23
ENDBRANCH  21  22
ENDBRANCH  20  21
ENDBRANCH  19  20
ENDBRANCH  18  19
ENDBRANCH   1  18
TORSDOF 28
ENDMDL
MODEL 3
REMARK VINA RESULT:     4.288      4.453     11.333
REMARK INTER + INTRA:           9.370
REMARK INTER:                  11.192
REMARK INTRA:                  -1.821
REMARK UNBOUND:                -1.937
REMARK SMILES CCCCCCCCCCCCCCCCCCCCCCCCCCCCCC(=O)[O-]
REMARK SMILES IDX 16 1 17 2 18 3 19 4 20 5 21 6 22 7 23 8 24 9 25 10 26 11
REMARK SMILES IDX 27 12 28 13 29 14 30 15 31 16 32 17 15 18 14 19 13 20 12 21
REMARK SMILES IDX 11 22 10 23 9 24 8 25 7 26 6 27 5 28 4 29 3 30 2 31 1 32
REMARK H PARENT
REMARK Flexibility Score: inf
ROOT
ATOM      1  C   UNL     1     103.664 102.522 102.228  1.00  0.00     0.000 C 
ENDROOT
BRANCH   1   2
ATOM      2  C   UNL     1     103.431 103.988 102.640  1.00  0.00     0.000 C 
BRANCH   2   3
ATOM      3  C   UNL     1     104.687 104.887 102.680  1.00  0.00     0.000 C 
BRANCH   3   4
ATOM      4  C   UNL     1     104.428 106.407 102.584  1.00  0.00     0.000 C 
BRANCH   4   5
ATOM      5  C   UNL     1     104.526 106.984 101.162  1.00  0.00     0.000 C 
BRANCH   5   6
ATOM      6  C   UNL     1     104.766 105.913 100.081  1.00  0.00     0.000 C 
BRANCH   6   7
ATOM      7  C   UNL     1     104.582 106.478  98.663  1.00  0.00     0.000 C 
BRANCH   7   8
ATOM      8  C   UNL     1     105.175 105.552  97.584  1.00  0.00     0.000 C 
BRANCH   8   9
ATOM      9  C   UNL     1     104.107 104.631  96.969  1.00  0.00     0.000 C 
BRANCH   9  10
ATOM     10  C   UNL     1     104.043 103.271  97.683  1.00  0.00     0.000 C 
BRANCH  10  11
ATOM     11  C   UNL     1     102.590 102.860  97.970  1.00  0.00     0.000 C 
BRANCH  11  12
ATOM     12  C   UNL     1     101.618 103.606  97.043  1.00  0.00     0.000 C 
BRANCH  12  13
ATOM     13  C   UNL     1     100.252 103.881  97.703  1.00  0.00     0.006 C 
BRANCH  13  14
ATOM     14  C   UNL     1      99.055 103.690  96.754  1.00  0.00     0.053 C 
BRANCH  14  15
ATOM     15  C   UNL     1      97.774 104.194  97.348  1.00  0.00     0.041 C 
ATOM     16  O   UNL     1      96.734 103.491  97.299  1.00  0.00    -0.550 OA
ATOM     17  O   UNL     1      97.727 105.454  97.936  1.00  0.00    -0.550 OA
ENDBRANCH  14  15
ENDBRANCH  13  14
ENDBRANCH  12  13
ENDBRANCH  11  12
ENDBRANCH  10  11
ENDBRANCH   9  10
ENDBRANCH   8   9
ENDBRANCH   7   8
ENDBRANCH   6   7
ENDBRANCH   5   6
ENDBRANCH   4   5
ENDBRANCH   3   4
ENDBRANCH   2   3
ENDBRANCH   1   2
BRANCH   1  18
ATOM     18  C   UNL     1     103.282 101.509 103.319  1.00  0.00     0.000 C 
BRANCH  18  19
ATOM     19  C   UNL     1     103.326 102.160 104.710  1.00  0.00     0.000 C 
BRANCH  19  20
ATOM     20  C   UNL     1     103.201 101.133 105.847  1.00  0.00     0.000 C 
BRANCH  20  21
ATOM     21  C   UNL     1     103.529 101.726 107.229  1.00  0.00     0.000 C 
BRANCH  21  22
ATOM     22  C   UNL     1     103.365 103.255 107.266  1.00  0.00     0.000 C 
BRANCH  22  23
ATOM     23  C   UNL     1     104.696 103.986 107.508  1.00  0.00     0.000 C 
BRANCH  23  24
ATOM     24  C   UNL     1     104.853 105.238 106.617  1.00  0.00    -0.000 C 
BRANCH  24  25
ATOM     25  C   UNL     1     104.259 106.519 107.233  1.00  0.00    -0.000 C 
BRANCH  25  26
ATOM     26  C   UNL     1     104.851 106.910 108.598  1.00  0.00    -0.000 C 
BRANCH  26  27
ATOM     27  C   UNL     1     104.444 105.940 109.718  1.00  0.00    -0.000 C 
BRANCH  27  28
ATOM     28  C   UNL     1     104.470 106.630 111.090  1.00  0.00    -0.000 C 
BRANCH  28  29
ATOM     29  C   UNL     1     104.461 105.627 112.256  1.00  0.00    -0.000 C 
BRANCH  29  30
ATOM     30  C   UNL     1     104.567 104.169 111.782  1.00  0.00    -0.000 C 
BRANCH  30  31
ATOM     31  C   UNL     1     103.233 103.434 111.967  1.00  0.00    -0.003 C 
ATOM     32  C   UNL     1     103.433 101.921 111.960  1.00  0.00     0.004 C 
ENDBRANCH  30  31
ENDBRANCH  29  30
ENDBRANCH  28  29
ENDBRANCH  27  28
ENDBRANCH  26  27
ENDBRANCH  25  26
ENDBRANCH  24  25
ENDBRANCH  23  24
ENDBRANCH  22  23
ENDBRANCH  21  22
ENDBRANCH  20  21
ENDBRANCH  19  20
ENDBRANCH  18  19
ENDBRANCH   1  18
TORSDOF 28
ENDMDL
MODEL 4
REMARK VINA RESULT:     4.289      2.367      5.369
REMARK INTER + INTRA:           9.373
REMARK INTER:                  11.139
REMARK INTRA:                  -1.766
REMARK UNBOUND:                -1.937
REMARK SMILES CCCCCCCCCCCCCCCCCCCCCCCCCCCCCC(=O)[O-]
REMARK SMILES IDX 16 1 17 2 18 3 19 4 20 5 21 6 22 7 23 8 24 9 25 10 26 11
REMARK SMILES IDX 27 12 28 13 29 14 30 15 31 16 32 17 15 18 14 19 13 20 12 21
REMARK SMILES IDX 11 22 10 23 9 24 8 25 7 26 6 27 5 28 4 29 3 30 2 31 1 32
REMARK H PARENT
REMARK Flexibility Score: inf
ROOT
ATOM      1  C   UNL     1     103.299 103.899 102.319  1.00  0.00     0.000 C 
ENDROOT
BRANCH   1   2
ATOM      2  C   UNL     1     103.234 102.368 102.170  1.00  0.00     0.000 C 
BRANCH   2   3
ATOM      3  C   UNL     1     103.600 101.550 103.429  1.00  0.00     0.000 C 
BRANCH   3   4
ATOM      4  C   UNL     1     103.233 102.200 104.782  1.00  0.00     0.000 C 
BRANCH   4   5
ATOM      5  C   UNL     1     103.458 101.296 106.007  1.00  0.00     0.000 C 
BRANCH   5   6
ATOM      6  C   UNL     1     103.487 102.067 107.340  1.00  0.00     0.000 C 
BRANCH   6   7
ATOM      7  C   UNL     1     103.264 103.574 107.136  1.00  0.00     0.000 C 
BRANCH   7   8
ATOM      8  C   UNL     1     104.574 104.378 107.248  1.00  0.00     0.000 C 
BRANCH   8   9
ATOM      9  C   UNL     1     104.326 105.893 107.156  1.00  0.00     0.000 C 
BRANCH   9  10
ATOM     10  C   UNL     1     104.701 106.616 108.461  1.00  0.00     0.000 C 
BRANCH  10  11
ATOM     11  C   UNL     1     104.721 105.644 109.651  1.00  0.00     0.000 C 
BRANCH  11  12
ATOM     12  C   UNL     1     104.445 106.385 110.968  1.00  0.00     0.000 C 
BRANCH  12  13
ATOM     13  C   UNL     1     104.378 105.441 112.185  1.00  0.00     0.006 C 
BRANCH  13  14
ATOM     14  C   UNL     1     104.745 103.982 111.859  1.00  0.00     0.053 C 
BRANCH  14  15
ATOM     15  C   UNL     1     103.565 103.063 111.973  1.00  0.00     0.041 C 
ATOM     16  O   UNL     1     102.401 103.532 112.037  1.00  0.00    -0.550 OA
ATOM     17  O   UNL     1     103.758 101.686 112.033  1.00  0.00    -0.550 OA
ENDBRANCH  14  15
ENDBRANCH  13  14
ENDBRANCH  12  13
ENDBRANCH  11  12
ENDBRANCH  10  11
ENDBRANCH   9  10
ENDBRANCH   8   9
ENDBRANCH   7   8
ENDBRANCH   6   7
ENDBRANCH   5   6
ENDBRANCH   4   5
ENDBRANCH   3   4
ENDBRANCH   2   3
ENDBRANCH   1   2
BRANCH   1  18
ATOM     18  C   UNL     1     104.733 104.452 102.354  1.00  0.00     0.000 C 
BRANCH  18  19
ATOM     19  C   UNL     1     104.767 105.846 103.000  1.00  0.00     0.000 C 
BRANCH  19  20
ATOM     20  C   UNL     1     104.071 106.913 102.141  1.00  0.00     0.000 C 
BRANCH  20  21
ATOM     21  C   UNL     1     104.797 107.178 100.809  1.00  0.00     0.000 C 
BRANCH  21  22
ATOM     22  C   UNL     1     104.506 106.095  99.757  1.00  0.00     0.000 C 
BRANCH  22  23
ATOM     23  C   UNL     1     104.512 106.649  98.322  1.00  0.00     0.000 C 
BRANCH  23  24
ATOM     24  C   UNL     1     104.359 105.538  97.259  1.00  0.00    -0.000 C 
BRANCH  24  25
ATOM     25  C   UNL     1     104.527 104.113  97.821  1.00  0.00    -0.000 C 
BRANCH  25  26
ATOM     26  C   UNL     1     103.692 103.037  97.105  1.00  0.00    -0.000 C 
BRANCH  26  27
ATOM     27  C   UNL     1     102.361 102.751  97.817  1.00  0.00    -0.000 C 
BRANCH  27  28
ATOM     28  C   UNL     1     101.427 103.970  97.764  1.00  0.00    -0.000 C 
BRANCH  28  29
ATOM     29  C   UNL     1     100.041 103.627  97.194  1.00  0.00    -0.000 C 
BRANCH  29  30
ATOM     30  C   UNL     1      99.057 104.804  97.285  1.00  0.00    -0.000 C 
BRANCH  30  31
ATOM     31  C   UNL     1      97.637 104.309  97.594  1.00  0.00    -0.003 C 
ATOM     32  C   UNL     1      97.356 102.978  96.903  1.00  0.00     0.004 C 
ENDBRANCH  30  31
ENDBRANCH  29  30
ENDBRANCH  28  29
ENDBRANCH  27  28
ENDBRANCH  26  27
ENDBRANCH  25  26
ENDBRANCH  24  25
ENDBRANCH  23  24
ENDBRANCH  22  23
ENDBRANCH  21  22
ENDBRANCH  20  21
ENDBRANCH  19  20
ENDBRANCH  18  19
ENDBRANCH   1  18
TORSDOF 28
ENDMDL
MODEL 5
REMARK VINA RESULT:     4.317      2.779      4.720
REMARK INTER + INTRA:           9.445
REMARK INTER:                  11.669
REMARK INTRA:                  -2.224
REMARK UNBOUND:                -1.937
REMARK SMILES CCCCCCCCCCCCCCCCCCCCCCCCCCCCCC(=O)[O-]
REMARK SMILES IDX 16 1 17 2 18 3 19 4 20 5 21 6 22 7 23 8 24 9 25 10 26 11
REMARK SMILES IDX 27 12 28 13 29 14 30 15 31 16 32 17 15 18 14 19 13 20 12 21
REMARK SMILES IDX 11 22 10 23 9 24 8 25 7 26 6 27 5 28 4 29 3 30 2 31 1 32
REMARK H PARENT
REMARK Flexibility Score: inf
ROOT
ATOM      1  C   UNL     1     104.006 101.485 107.001  1.00  0.00     0.000 C 
ENDROOT
BRANCH   1   2
ATOM      2  C   UNL     1     103.307 102.605 107.795  1.00  0.00     0.000 C 
BRANCH   2   3
ATOM      3  C   UNL     1     103.232 103.982 107.097  1.00  0.00     0.000 C 
BRANCH   3   4
ATOM      4  C   UNL     1     104.528 104.822 107.128  1.00  0.00     0.000 C 
BRANCH   4   5
ATOM      5  C   UNL     1     104.305 106.336 107.280  1.00  0.00     0.000 C 
BRANCH   5   6
ATOM      6  C   UNL     1     104.800 106.897 108.627  1.00  0.00     0.000 C 
BRANCH   6   7
ATOM      7  C   UNL     1     104.821 105.819 109.723  1.00  0.00     0.000 C 
BRANCH   7   8
ATOM      8  C   UNL     1     104.423 106.380 111.102  1.00  0.00     0.000 C 
BRANCH   8   9
ATOM      9  C   UNL     1     104.478 105.301 112.196  1.00  0.00     0.000 C 
BRANCH   9  10
ATOM     10  C   UNL     1     104.146 103.905 111.643  1.00  0.00     0.000 C 
BRANCH  10  11
ATOM     11  C   UNL     1     102.823 103.377 112.219  1.00  0.00     0.000 C 
BRANCH  11  12
ATOM     12  C   UNL     1     101.670 103.589 111.225  1.00  0.00     0.000 C 
BRANCH  12  13
ATOM     13  C   UNL     1     100.337 103.933 111.917  1.00  0.00     0.006 C 
BRANCH  13  14
ATOM     14  C   UNL     1      99.102 103.724 111.023  1.00  0.00     0.053 C 
BRANCH  14  15
ATOM     15  C   UNL     1      97.895 104.447 111.544  1.00  0.00     0.041 C 
ATOM     16  O   UNL     1      96.769 103.890 111.528  1.00  0.00    -0.550 OA
ATOM     17  O   UNL     1      98.015 105.746 112.024  1.00  0.00    -0.550 OA
ENDBRANCH  14  15
ENDBRANCH  13  14
ENDBRANCH  12  13
ENDBRANCH  11  12
ENDBRANCH  10  11
ENDBRANCH   9  10
ENDBRANCH   8   9
ENDBRANCH   7   8
ENDBRANCH   6   7
ENDBRANCH   5   6
ENDBRANCH   4   5
ENDBRANCH   3   4
ENDBRANCH   2   3
ENDBRANCH   1   2
BRANCH   1  18
ATOM     18  C   UNL     1     103.205 101.005 105.781  1.00  0.00     0.000 C 
BRANCH  18  19
ATOM     19  C   UNL     1     103.237 102.053 104.657  1.00  0.00     0.000 C 
BRANCH  19  20
ATOM     20  C   UNL     1     103.490 101.430 103.275  1.00  0.00     0.000 C 
BRANCH  20  21
ATOM     21  C   UNL     1     103.614 102.481 102.157  1.00  0.00     0.000 C 
BRANCH  21  22
ATOM     22  C   UNL     1     103.487 103.919 102.687  1.00  0.00     0.000 C 
BRANCH  22  23
ATOM     23  C   UNL     1     104.776 104.736 102.493  1.00  0.00     0.000 C 
BRANCH  23  24
ATOM     24  C   UNL     1     104.543 106.255 102.654  1.00  0.00    -0.000 C 
BRANCH  24  25
ATOM     25  C   UNL     1     104.327 106.996 101.321  1.00  0.00    -0.000 C 
BRANCH  25  26
ATOM     26  C   UNL     1     104.647 106.166 100.065  1.00  0.00    -0.000 C 
BRANCH  26  27
ATOM     27  C   UNL     1     104.691 107.020  98.788  1.00  0.00    -0.000 C 
BRANCH  27  28
ATOM     28  C   UNL     1     104.451 106.163  97.536  1.00  0.00    -0.000 C 
BRANCH  28  29
ATOM     29  C   UNL     1     104.640 104.660  97.805  1.00  0.00    -0.000 C 
BRANCH  29  30
ATOM     30  C   UNL     1     103.646 103.790  97.020  1.00  0.00    -0.000 C 
BRANCH  30  31
ATOM     31  C   UNL     1     102.915 102.816  97.954  1.00  0.00    -0.003 C 
ATOM     32  C   UNL     1     103.686 101.507  98.097  1.00  0.00     0.004 C 
ENDBRANCH  30  31
ENDBRANCH  29  30
ENDBRANCH  28  29
ENDBRANCH  27  28
ENDBRANCH  26  27
ENDBRANCH  25  26
ENDBRANCH  24  25
ENDBRANCH  23  24
ENDBRANCH  22  23
ENDBRANCH  21  22
ENDBRANCH  20  21
ENDBRANCH  19  20
ENDBRANCH  18  19
ENDBRANCH   1  18
TORSDOF 28
ENDMDL
MODEL 6
REMARK VINA RESULT:     4.347      5.160     12.212
REMARK INTER + INTRA:           9.524
REMARK INTER:                  10.413
REMARK INTRA:                  -0.889
REMARK UNBOUND:                -1.937
REMARK SMILES CCCCCCCCCCCCCCCCCCCCCCCCCCCCCC(=O)[O-]
REMARK SMILES IDX 16 1 17 2 18 3 19 4 20 5 21 6 22 7 23 8 24 9 25 10 26 11
REMARK SMILES IDX 27 12 28 13 29 14 30 15 31 16 32 17 15 18 14 19 13 20 12 21
REMARK SMILES IDX 11 22 10 23 9 24 8 25 7 26 6 27 5 28 4 29 3 30 2 31 1 32
REMARK H PARENT
REMARK Flexibility Score: inf
ROOT
ATOM      1  C   UNL     1     103.820 102.455 102.278  1.00  0.00     0.000 C 
ENDROOT
BRANCH   1   2
ATOM      2  C   UNL     1     103.496 103.929 102.584  1.00  0.00     0.000 C 
BRANCH   2   3
ATOM      3  C   UNL     1     104.683 104.914 102.494  1.00  0.00     0.000 C 
BRANCH   3   4
ATOM      4  C   UNL     1     104.308 106.405 102.342  1.00  0.00     0.000 C 
BRANCH   4   5
ATOM      5  C   UNL     1     104.600 106.999 100.954  1.00  0.00     0.000 C 
BRANCH   5   6
ATOM      6  C   UNL     1     104.803 105.933  99.861  1.00  0.00     0.000 C 
BRANCH   6   7
ATOM      7  C   UNL     1     104.444 106.467  98.465  1.00  0.00     0.000 C 
BRANCH   7   8
ATOM      8  C   UNL     1     104.224 105.333  97.445  1.00  0.00     0.000 C 
BRANCH   8   9
ATOM      9  C   UNL     1     104.549 103.954  98.042  1.00  0.00     0.000 C 
BRANCH   9  10
ATOM     10  C   UNL     1     103.413 102.944  97.806  1.00  0.00     0.000 C 
BRANCH  10  11
ATOM     11  C   UNL     1     102.738 103.172  96.444  1.00  0.00     0.000 C 
BRANCH  11  12
ATOM     12  C   UNL     1     103.710 103.836  95.457  1.00  0.00     0.000 C 
BRANCH  12  13
ATOM     13  C   UNL     1     103.821 103.075  94.121  1.00  0.00     0.006 C 
BRANCH  13  14
ATOM     14  C   UNL     1     103.784 103.988  92.882  1.00  0.00     0.053 C 
BRANCH  14  15
ATOM     15  C   UNL     1     104.680 105.181  93.030  1.00  0.00     0.041 C 
ATOM     16  O   UNL     1     104.191 106.313  93.271  1.00  0.00    -0.550 OA
ATOM     17  O   UNL     1     106.055 105.043  92.876  1.00  0.00    -0.550 OA
ENDBRANCH  14  15
ENDBRANCH  13  14
ENDBRANCH  12  13
ENDBRANCH  11  12
ENDBRANCH  10  11
ENDBRANCH   9  10
ENDBRANCH   8   9
ENDBRANCH   7   8
ENDBRANCH   6   7
ENDBRANCH   5   6
ENDBRANCH   4   5
ENDBRANCH   3   4
ENDBRANCH   2   3
ENDBRANCH   1   2
BRANCH   1  18
ATOM     18  C   UNL     1     103.340 101.481 103.365  1.00  0.00     0.000 C 
BRANCH  18  19
ATOM     19  C   UNL     1     103.206 102.195 104.719  1.00  0.00     0.000 C 
BRANCH  19  20
ATOM     20  C   UNL     1     103.472 101.260 105.909  1.00  0.00     0.000 C 
BRANCH  20  21
ATOM     21  C   UNL     1     103.649 102.016 107.238  1.00  0.00     0.000 C 
BRANCH  21  22
ATOM     22  C   UNL     1     103.193 103.482 107.145  1.00  0.00     0.000 C 
BRANCH  22  23
ATOM     23  C   UNL     1     104.368 104.455 106.946  1.00  0.00     0.000 C 
BRANCH  23  24
ATOM     24  C   UNL     1     103.954 105.929 107.150  1.00  0.00    -0.000 C 
BRANCH  24  25
ATOM     25  C   UNL     1     104.802 106.675 108.197  1.00  0.00    -0.000 C 
BRANCH  25  26
ATOM     26  C   UNL     1     104.828 106.019 109.589  1.00  0.00    -0.000 C 
BRANCH  26  27
ATOM     27  C   UNL     1     104.701 107.043 110.727  1.00  0.00    -0.000 C 
BRANCH  27  28
ATOM     28  C   UNL     1     104.152 106.391 112.005  1.00  0.00    -0.000 C 
BRANCH  28  29
ATOM     29  C   UNL     1     104.724 104.983 112.242  1.00  0.00    -0.000 C 
BRANCH  29  30
ATOM     30  C   UNL     1     103.628 103.931 112.469  1.00  0.00    -0.000 C 
BRANCH  30  31
ATOM     31  C   UNL     1     103.794 102.749 111.504  1.00  0.00    -0.003 C 
ATOM     32  C   UNL     1     103.285 101.453 112.129  1.00  0.00     0.004 C 
ENDBRANCH  30  31
ENDBRANCH  29  30
ENDBRANCH  28  29
ENDBRANCH  27  28
ENDBRANCH  26  27
ENDBRANCH  25  26
ENDBRANCH  24  25
ENDBRANCH  23  24
ENDBRANCH  22  23
ENDBRANCH  21  22
ENDBRANCH  20  21
ENDBRANCH  19  20
ENDBRANCH  18  19
ENDBRANCH   1  18
TORSDOF 28
ENDMDL
MODEL 7
REMARK VINA RESULT:     4.393      1.984      2.710
REMARK INTER + INTRA:           9.647
REMARK INTER:                  11.300
REMARK INTRA:                  -1.653
REMARK UNBOUND:                -1.937
REMARK SMILES CCCCCCCCCCCCCCCCCCCCCCCCCCCCCC(=O)[O-]
REMARK SMILES IDX 16 1 17 2 18 3 19 4 20 5 21 6 22 7 23 8 24 9 25 10 26 11
REMARK SMILES IDX 27 12 28 13 29 14 30 15 31 16 32 17 15 18 14 19 13 20 12 21
REMARK SMILES IDX 11 22 10 23 9 24 8 25 7 26 6 27 5 28 4 29 3 30 2 31 1 32
REMARK H PARENT
REMARK Flexibility Score: inf
ROOT
ATOM      1  C   UNL     1     104.701 105.420 101.867  1.00  0.00     0.000 C 
ENDROOT
BRANCH   1   2
ATOM      2  C   UNL     1     104.114 106.638 102.606  1.00  0.00     0.000 C 
BRANCH   2   3
ATOM      3  C   UNL     1     104.793 107.006 103.944  1.00  0.00     0.000 C 
BRANCH   3   4
ATOM      4  C   UNL     1     104.577 106.009 105.104  1.00  0.00     0.000 C 
BRANCH   4   5
ATOM      5  C   UNL     1     104.613 106.641 106.506  1.00  0.00     0.000 C 
BRANCH   5   6
ATOM      6  C   UNL     1     104.408 105.622 107.643  1.00  0.00     0.000 C 
BRANCH   6   7
ATOM      7  C   UNL     1     104.604 104.176 107.159  1.00  0.00     0.000 C 
BRANCH   7   8
ATOM      8  C   UNL     1     103.273 103.403 107.076  1.00  0.00     0.000 C 
BRANCH   8   9
ATOM      9  C   UNL     1     103.483 101.885 107.216  1.00  0.00     0.000 C 
BRANCH   9  10
ATOM     10  C   UNL     1     103.258 101.406 108.660  1.00  0.00     0.000 C 
BRANCH  10  11
ATOM     11  C   UNL     1     103.220 102.588 109.640  1.00  0.00     0.000 C 
BRANCH  11  12
ATOM     12  C   UNL     1     103.157 102.093 111.094  1.00  0.00     0.000 C 
BRANCH  12  13
ATOM     13  C   UNL     1     103.620 103.155 112.110  1.00  0.00     0.006 C 
BRANCH  13  14
ATOM     14  C   UNL     1     103.527 104.598 111.584  1.00  0.00     0.053 C 
BRANCH  14  15
ATOM     15  C   UNL     1     104.675 105.445 112.048  1.00  0.00     0.041 C 
ATOM     16  O   UNL     1     104.473 106.621 112.446  1.00  0.00    -0.550 OA
ATOM     17  O   UNL     1     105.971 104.941 112.016  1.00  0.00    -0.550 OA
ENDBRANCH  14  15
ENDBRANCH  13  14
ENDBRANCH  12  13
ENDBRANCH  11  12
ENDBRANCH  10  11
ENDBRANCH   9  10
ENDBRANCH   8   9
ENDBRANCH   7   8
ENDBRANCH   6   7
ENDBRANCH   5   6
ENDBRANCH   4   5
ENDBRANCH   3   4
ENDBRANCH   2   3
ENDBRANCH   1   2
BRANCH   1  18
ATOM     18  C   UNL     1     104.724 104.139 102.716  1.00  0.00     0.000 C 
BRANCH  18  19
ATOM     19  C   UNL     1     103.406 103.362 102.572  1.00  0.00     0.000 C 
BRANCH  19  20
ATOM     20  C   UNL     1     103.626 101.851 102.403  1.00  0.00     0.000 C 
BRANCH  20  21
ATOM     21  C   UNL     1     103.223 101.339 101.008  1.00  0.00     0.000 C 
BRANCH  21  22
ATOM     22  C   UNL     1     103.489 102.374  99.903  1.00  0.00     0.000 C 
BRANCH  22  23
ATOM     23  C   UNL     1     103.277 101.800  98.492  1.00  0.00     0.000 C 
BRANCH  23  24
ATOM     24  C   UNL     1     104.018 102.613  97.406  1.00  0.00    -0.000 C 
BRANCH  24  25
ATOM     25  C   UNL     1     103.388 103.990  97.123  1.00  0.00    -0.000 C 
BRANCH  25  26
ATOM     26  C   UNL     1     104.276 105.191  97.489  1.00  0.00    -0.000 C 
BRANCH  26  27
ATOM     27  C   UNL     1     104.563 106.104  96.286  1.00  0.00    -0.000 C 
BRANCH  27  28
ATOM     28  C   UNL     1     105.079 105.297  95.085  1.00  0.00    -0.000 C 
BRANCH  28  29
ATOM     29  C   UNL     1     104.480 105.774  93.751  1.00  0.00    -0.000 C 
BRANCH  29  30
ATOM     30  C   UNL     1     103.973 104.613  92.883  1.00  0.00    -0.000 C 
BRANCH  30  31
ATOM     31  C   UNL     1     103.658 103.382  93.743  1.00  0.00    -0.003 C 
ATOM     32  C   UNL     1     103.222 102.203  92.878  1.00  0.00     0.004 C 
ENDBRANCH  30  31
ENDBRANCH  29  30
ENDBRANCH  28  29
ENDBRANCH  27  28
ENDBRANCH  26  27
ENDBRANCH  25  26
ENDBRANCH  24  25
ENDBRANCH  23  24
ENDBRANCH  22  23
ENDBRANCH  21  22
ENDBRANCH  20  21
ENDBRANCH  19  20
ENDBRANCH  18  19
ENDBRANCH   1  18
TORSDOF 28
ENDMDL
MODEL 8
REMARK VINA RESULT:     4.408      4.041     11.554
REMARK INTER + INTRA:           9.685
REMARK INTER:                  11.428
REMARK INTRA:                  -1.743
REMARK UNBOUND:                -1.937
REMARK SMILES CCCCCCCCCCCCCCCCCCCCCCCCCCCCCC(=O)[O-]
REMARK SMILES IDX 16 1 17 2 18 3 19 4 20 5 21 6 22 7 23 8 24 9 25 10 26 11
REMARK SMILES IDX 27 12 28 13 29 14 30 15 31 16 32 17 15 18 14 19 13 20 12 21
REMARK SMILES IDX 11 22 10 23 9 24 8 25 7 26 6 27 5 28 4 29 3 30 2 31 1 32
REMARK H PARENT
REMARK Flexibility Score: inf
ROOT
ATOM      1  C   UNL     1     104.475 104.432 102.334  1.00  0.00     0.000 C 
ENDROOT
BRANCH   1   2
ATOM      2  C   UNL     1     103.273 103.491 102.537  1.00  0.00     0.000 C 
BRANCH   2   3
ATOM      3  C   UNL     1     103.591 101.979 102.536  1.00  0.00     0.000 C 
BRANCH   3   4
ATOM      4  C   UNL     1     103.294 101.231 101.218  1.00  0.00     0.000 C 
BRANCH   4   5
ATOM      5  C   UNL     1     103.651 102.015  99.944  1.00  0.00     0.000 C 
BRANCH   5   6
ATOM      6  C   UNL     1     103.355 101.242  98.645  1.00  0.00     0.000 C 
BRANCH   6   7
ATOM      7  C   UNL     1     103.472 102.141  97.404  1.00  0.00     0.000 C 
BRANCH   7   8
ATOM      8  C   UNL     1     102.835 103.527  97.623  1.00  0.00     0.000 C 
BRANCH   8   9
ATOM      9  C   UNL     1     103.797 104.494  98.333  1.00  0.00     0.000 C 
BRANCH   9  10
ATOM     10  C   UNL     1     104.114 105.726  97.468  1.00  0.00     0.000 C 
BRANCH  10  11
ATOM     11  C   UNL     1     105.630 105.924  97.313  1.00  0.00     0.000 C 
BRANCH  11  12
ATOM     12  C   UNL     1     106.392 104.651  97.713  1.00  0.00     0.000 C 
BRANCH  12  13
ATOM     13  C   UNL     1     107.846 104.638  97.203  1.00  0.00     0.006 C 
BRANCH  13  14
ATOM     14  C   UNL     1     108.690 103.480  97.766  1.00  0.00     0.053 C 
BRANCH  14  15
ATOM     15  C   UNL     1     110.136 103.597  97.387  1.00  0.00     0.041 C 
ATOM     16  O   UNL     1     110.885 102.588  97.434  1.00  0.00    -0.550 OA
ATOM     17  O   UNL     1     110.660 104.828  97.007  1.00  0.00    -0.550 OA
ENDBRANCH  14  15
ENDBRANCH  13  14
ENDBRANCH  12  13
ENDBRANCH  11  12
ENDBRANCH  10  11
ENDBRANCH   9  10
ENDBRANCH   8   9
ENDBRANCH   7   8
ENDBRANCH   6   7
ENDBRANCH   5   6
ENDBRANCH   4   5
ENDBRANCH   3   4
ENDBRANCH   2   3
ENDBRANCH   1   2
BRANCH   1  18
ATOM     18  C   UNL     1     104.085 105.915 102.232  1.00  0.00     0.000 C 
BRANCH  18  19
ATOM     19  C   UNL     1     104.757 106.736 103.343  1.00  0.00     0.000 C 
BRANCH  19  20
ATOM     20  C   UNL     1     104.686 106.046 104.713  1.00  0.00     0.000 C 
BRANCH  20  21
ATOM     21  C   UNL     1     104.588 107.043 105.883  1.00  0.00     0.000 C 
BRANCH  21  22
ATOM     22  C   UNL     1     104.455 106.340 107.244  1.00  0.00     0.000 C 
BRANCH  22  23
ATOM     23  C   UNL     1     104.731 104.830 107.158  1.00  0.00     0.000 C 
BRANCH  23  24
ATOM     24  C   UNL     1     103.436 103.989 107.206  1.00  0.00    -0.000 C 
BRANCH  24  25
ATOM     25  C   UNL     1     103.674 102.472 107.081  1.00  0.00    -0.000 C 
BRANCH  25  26
ATOM     26  C   UNL     1     103.360 101.665 108.353  1.00  0.00    -0.000 C 
BRANCH  26  27
ATOM     27  C   UNL     1     103.114 102.562 109.576  1.00  0.00    -0.000 C 
BRANCH  27  28
ATOM     28  C   UNL     1     103.587 101.883 110.870  1.00  0.00    -0.000 C 
BRANCH  28  29
ATOM     29  C   UNL     1     103.542 102.827 112.083  1.00  0.00    -0.000 C 
BRANCH  29  30
ATOM     30  C   UNL     1     103.375 104.300 111.679  1.00  0.00    -0.000 C 
BRANCH  30  31
ATOM     31  C   UNL     1     104.694 105.067 111.848  1.00  0.00    -0.003 C 
ATOM     32  C   UNL     1     104.438 106.530 112.196  1.00  0.00     0.004 C 
ENDBRANCH  30  31
ENDBRANCH  29  30
ENDBRANCH  28  29
ENDBRANCH  27  28
ENDBRANCH  26  27
ENDBRANCH  25  26
ENDBRANCH  24  25
ENDBRANCH  23  24
ENDBRANCH  22  23
ENDBRANCH  21  22
ENDBRANCH  20  21
ENDBRANCH  19  20
ENDBRANCH  18  19
ENDBRANCH   1  18
TORSDOF 28
ENDMDL
MODEL 9
REMARK VINA RESULT:     4.593      2.450      4.406
REMARK INTER + INTRA:          10.175
REMARK INTER:                  12.177
REMARK INTRA:                  -2.003
REMARK UNBOUND:                -1.937
REMARK SMILES CCCCCCCCCCCCCCCCCCCCCCCCCCCCCC(=O)[O-]
REMARK SMILES IDX 16 1 17 2 18 3 19 4 20 5 21 6 22 7 23 8 24 9 25 10 26 11
REMARK SMILES IDX 27 12 28 13 29 14 30 15 31 16 32 17 15 18 14 19 13 20 12 21
REMARK SMILES IDX 11 22 10 23 9 24 8 25 7 26 6 27 5 28 4 29 3 30 2 31 1 32
REMARK H PARENT
REMARK Flexibility Score: inf
ROOT
ATOM      1  C   UNL     1     103.558 104.134 102.534  1.00  0.00     0.000 C 
ENDROOT
BRANCH   1   2
ATOM      2  C   UNL     1     103.478 102.645 102.147  1.00  0.00     0.000 C 
BRANCH   2   3
ATOM      3  C   UNL     1     103.321 101.650 103.319  1.00  0.00     0.000 C 
BRANCH   3   4
ATOM      4  C   UNL     1     103.173 102.281 104.721  1.00  0.00     0.000 C 
BRANCH   4   5
ATOM      5  C   UNL     1     103.641 101.383 105.879  1.00  0.00     0.000 C 
BRANCH   5   6
ATOM      6  C   UNL     1     103.349 101.975 107.271  1.00  0.00     0.000 C 
BRANCH   6   7
ATOM      7  C   UNL     1     103.207 103.504 107.225  1.00  0.00     0.000 C 
BRANCH   7   8
ATOM      8  C   UNL     1     104.566 104.221 107.352  1.00  0.00     0.000 C 
BRANCH   8   9
ATOM      9  C   UNL     1     104.443 105.732 107.089  1.00  0.00     0.000 C 
BRANCH   9  10
ATOM     10  C   UNL     1     104.514 106.547 108.391  1.00  0.00     0.000 C 
BRANCH  10  11
ATOM     11  C   UNL     1     104.986 105.679 109.568  1.00  0.00     0.000 C 
BRANCH  11  12
ATOM     12  C   UNL     1     104.554 106.293 110.909  1.00  0.00     0.000 C 
BRANCH  12  13
ATOM     13  C   UNL     1     104.306 105.234 112.001  1.00  0.00     0.006 C 
BRANCH  13  14
ATOM     14  C   UNL     1     104.530 103.787 111.524  1.00  0.00     0.053 C 
BRANCH  14  15
ATOM     15  C   UNL     1     103.419 102.873 111.947  1.00  0.00     0.041 C 
ATOM     16  O   UNL     1     103.661 101.673 112.231  1.00  0.00    -0.550 OA
ATOM     17  O   UNL     1     102.111 103.344 112.004  1.00  0.00    -0.550 OA
ENDBRANCH  14  15
ENDBRANCH  13  14
ENDBRANCH  12  13
ENDBRANCH  11  12
ENDBRANCH  10  11
ENDBRANCH   9  10
ENDBRANCH   8   9
ENDBRANCH   7   8
ENDBRANCH   6   7
ENDBRANCH   5   6
ENDBRANCH   4   5
ENDBRANCH   3   4
ENDBRANCH   2   3
ENDBRANCH   1   2
BRANCH   1  18
ATOM     18  C   UNL     1     104.997 104.655 102.678  1.00  0.00     0.000 C 
BRANCH  18  19
ATOM     19  C   UNL     1     105.015 106.186 102.810  1.00  0.00     0.000 C 
BRANCH  19  20
ATOM     20  C   UNL     1     104.004 106.871 101.878  1.00  0.00     0.000 C 
BRANCH  20  21
ATOM     21  C   UNL     1     104.621 107.297 100.533  1.00  0.00     0.000 C 
BRANCH  21  22
ATOM     22  C   UNL     1     104.823 106.109  99.577  1.00  0.00     0.000 C 
BRANCH  22  23
ATOM     23  C   UNL     1     104.332 106.408  98.151  1.00  0.00     0.000 C 
BRANCH  23  24
ATOM     24  C   UNL     1     104.377 105.163  97.237  1.00  0.00    -0.000 C 
BRANCH  24  25
ATOM     25  C   UNL     1     104.323 103.827  98.004  1.00  0.00    -0.000 C 
BRANCH  25  26
ATOM     26  C   UNL     1     103.068 102.981  97.733  1.00  0.00    -0.000 C 
BRANCH  26  27
ATOM     27  C   UNL     1     103.222 102.071  96.504  1.00  0.00    -0.000 C 
BRANCH  27  28
ATOM     28  C   UNL     1     103.829 102.835  95.318  1.00  0.00    -0.000 C 
BRANCH  28  29
ATOM     29  C   UNL     1     103.116 102.527  93.990  1.00  0.00    -0.000 C 
BRANCH  29  30
ATOM     30  C   UNL     1     103.491 103.516  92.876  1.00  0.00    -0.000 C 
BRANCH  30  31
ATOM     31  C   UNL     1     104.017 104.832  93.464  1.00  0.00    -0.003 C 
ATOM     32  C   UNL     1     105.383 105.187  92.885  1.00  0.00     0.004 C 
ENDBRANCH  30  31
ENDBRANCH  29  30
ENDBRANCH  28  29
ENDBRANCH  27  28
ENDBRANCH  26  27
ENDBRANCH  25  26
ENDBRANCH  24  25
ENDBRANCH  23  24
ENDBRANCH  22  23
ENDBRANCH  21  22
ENDBRANCH  20  21
ENDBRANCH  19  20
ENDBRANCH  18  19
ENDBRANCH   1  18
TORSDOF 28
ENDMDL
