MODEL 1
REMARK VINA RESULT:    -3.267      0.000      0.000
REMARK INTER + INTRA:          -6.851
REMARK INTER:                  -5.941
REMARK INTRA:                  -0.911
REMARK UNBOUND:                -0.911
REMARK SMILES CCCCCCCCCCCCCCCC(=O)[O-]
REMARK SMILES IDX 9 1 10 2 11 3 12 4 13 5 14 6 15 7 16 8 17 9 18 10 8 11 7 12
REMARK SMILES IDX 6 13 5 14 4 15 3 16 2 17 1 18
REMARK H PARENT
REMARK Flexibility Score: inf
ROOT
ATOM      1  C   UNL     1     -12.761  -2.110 -14.495  1.00  0.00     0.000 C 
ENDROOT
BRANCH   1   2
ATOM      2  C   UNL     1     -12.815  -2.372 -16.005  1.00  0.00     0.000 C 
BRANCH   2   3
ATOM      3  C   UNL     1     -14.162  -2.983 -16.409  1.00  0.00     0.000 C 
BRANCH   3   4
ATOM      4  C   UNL     1     -14.036  -4.500 -16.617  1.00  0.00     0.000 C 
BRANCH   4   5
ATOM      5  C   UNL     1     -13.625  -4.871 -18.050  1.00  0.00     0.000 C 
BRANCH   5   6
ATOM      6  C   UNL     1     -14.334  -6.139 -18.560  1.00  0.00     0.006 C 
BRANCH   6   7
ATOM      7  C   UNL     1     -14.643  -6.065 -20.062  1.00  0.00     0.053 C 
BRANCH   7   8
ATOM      8  C   UNL     1     -16.089  -5.771 -20.321  1.00  0.00     0.041 C 
ATOM      9  O   UNL     1     -16.592  -6.013 -21.449  1.00  0.00    -0.550 OA
ATOM     10  O   UNL     1     -16.888  -5.259 -19.306  1.00  0.00    -0.550 OA
ENDBRANCH   7   8
ENDBRANCH   6   7
ENDBRANCH   5   6
ENDBRANCH   4   5
ENDBRANCH   3   4
ENDBRANCH   2   3
ENDBRANCH   1   2
BRANCH   1  11
ATOM     11  C   UNL     1     -13.889  -2.857 -13.767  1.00  0.00     0.000 C 
BRANCH  11  12
ATOM     12  C   UNL     1     -13.371  -3.939 -12.803  1.00  0.00    -0.000 C 
BRANCH  12  13
ATOM     13  C   UNL     1     -11.961  -3.693 -12.235  1.00  0.00    -0.000 C 
BRANCH  13  14
ATOM     14  C   UNL     1     -11.960  -2.752 -11.018  1.00  0.00    -0.000 C 
BRANCH  14  15
ATOM     15  C   UNL     1     -12.683  -3.350  -9.798  1.00  0.00    -0.000 C 
BRANCH  15  16
ATOM     16  C   UNL     1     -11.888  -4.414  -9.015  1.00  0.00    -0.000 C 
BRANCH  16  17
ATOM     17  C   UNL     1     -12.567  -5.790  -8.911  1.00  0.00    -0.003 C 
ATOM     18  C   UNL     1     -13.991  -5.795  -9.467  1.00  0.00     0.004 C 
ENDBRANCH  16  17
ENDBRANCH  15  16
ENDBRANCH  14  15
ENDBRANCH  13  14
ENDBRANCH  12  13
ENDBRANCH  11  12
ENDBRANCH   1  11
TORSDOF 14
ENDMDL
MODEL 2
REMARK VINA RESULT:    -2.986      3.968      8.603
REMARK INTER + INTRA:          -6.341
REMARK INTER:                  -5.438
REMARK INTRA:                  -0.903
REMARK UNBOUND:                -0.911
REMARK SMILES CCCCCCCCCCCCCCCC(=O)[O-]
REMARK SMILES IDX 9 1 10 2 11 3 12 4 13 5 14 6 15 7 16 8 17 9 18 10 8 11 7 12
REMARK SMILES IDX 6 13 5 14 4 15 3 16 2 17 1 18
REMARK H PARENT
REMARK Flexibility Score: inf
ROOT
ATOM      1  C   UNL     1     -13.694  -2.374 -14.710  1.00  0.00     0.000 C 
ENDROOT
BRANCH   1   2
ATOM      2  C   UNL     1     -12.619  -2.556 -13.631  1.00  0.00     0.000 C 
BRANCH   2   3
ATOM      3  C   UNL     1     -12.871  -3.828 -12.813  1.00  0.00     0.000 C 
BRANCH   3   4
ATOM      4  C   UNL     1     -11.926  -3.899 -11.603  1.00  0.00     0.000 C 
BRANCH   4   5
ATOM      5  C   UNL     1     -11.877  -2.583 -10.812  1.00  0.00     0.000 C 
BRANCH   5   6
ATOM      6  C   UNL     1     -12.385  -2.741  -9.367  1.00  0.00     0.006 C 
BRANCH   6   7
ATOM      7  C   UNL     1     -12.502  -4.214  -8.953  1.00  0.00     0.053 C 
BRANCH   7   8
ATOM      8  C   UNL     1     -13.924  -4.685  -8.963  1.00  0.00     0.041 C 
ATOM      9  O   UNL     1     -14.865  -3.857  -9.079  1.00  0.00    -0.550 OA
ATOM     10  O   UNL     1     -14.209  -6.042  -8.875  1.00  0.00    -0.550 OA
ENDBRANCH   7   8
ENDBRANCH   6   7
ENDBRANCH   5   6
ENDBRANCH   4   5
ENDBRANCH   3   4
ENDBRANCH   2   3
ENDBRANCH   1   2
BRANCH   1  11
ATOM     11  C   UNL     1     -13.056  -2.115 -16.083  1.00  0.00     0.000 C 
BRANCH  11  12
ATOM     12  C   UNL     1     -13.375  -3.213 -17.113  1.00  0.00    -0.000 C 
BRANCH  12  13
ATOM     13  C   UNL     1     -14.111  -4.445 -16.553  1.00  0.00    -0.000 C 
BRANCH  13  14
ATOM     14  C   UNL     1     -13.932  -5.699 -17.426  1.00  0.00    -0.000 C 
BRANCH  14  15
ATOM     15  C   UNL     1     -13.512  -5.369 -18.870  1.00  0.00    -0.000 C 
BRANCH  15  16
ATOM     16  C   UNL     1     -14.259  -6.152 -19.970  1.00  0.00    -0.000 C 
BRANCH  16  17
ATOM     17  C   UNL     1     -15.522  -5.465 -20.515  1.00  0.00    -0.003 C 
ATOM     18  C   UNL     1     -16.789  -5.859 -19.757  1.00  0.00     0.004 C 
ENDBRANCH  16  17
ENDBRANCH  15  16
ENDBRANCH  14  15
ENDBRANCH  13  14
ENDBRANCH  12  13
ENDBRANCH  11  12
ENDBRANCH   1  11
TORSDOF 14
ENDMDL
MODEL 3
REMARK VINA RESULT:    -1.911      3.997      8.895
REMARK INTER + INTRA:          -4.386
REMARK INTER:                  -3.787
REMARK INTRA:                  -0.599
REMARK UNBOUND:                -0.911
REMARK SMILES CCCCCCCCCCCCCCCC(=O)[O-]
REMARK SMILES IDX 9 1 10 2 11 3 12 4 13 5 14 6 15 7 16 8 17 9 18 10 8 11 7 12
REMARK SMILES IDX 6 13 5 14 4 15 3 16 2 17 1 18
REMARK H PARENT
REMARK Flexibility Score: inf
ROOT
ATOM      1  C   UNL     1     -14.067  -2.445 -14.793  1.00  0.00     0.000 C 
ENDROOT
BRANCH   1   2
ATOM      2  C   UNL     1     -12.956  -1.697 -14.046  1.00  0.00     0.000 C 
BRANCH   2   3
ATOM      3  C   UNL     1     -11.915  -2.675 -13.487  1.00  0.00     0.000 C 
BRANCH   3   4
ATOM      4  C   UNL     1     -11.904  -2.646 -11.951  1.00  0.00     0.000 C 
BRANCH   4   5
ATOM      5  C   UNL     1     -12.538  -3.899 -11.329  1.00  0.00     0.000 C 
BRANCH   5   6
ATOM      6  C   UNL     1     -11.937  -4.248  -9.956  1.00  0.00     0.006 C 
BRANCH   6   7
ATOM      7  C   UNL     1     -13.020  -4.472  -8.890  1.00  0.00     0.053 C 
BRANCH   7   8
ATOM      8  C   UNL     1     -13.524  -5.882  -8.894  1.00  0.00     0.041 C 
ATOM      9  O   UNL     1     -12.712  -6.845  -8.875  1.00  0.00    -0.550 OA
ATOM     10  O   UNL     1     -14.890  -6.134  -8.887  1.00  0.00    -0.550 OA
ENDBRANCH   7   8
ENDBRANCH   6   7
ENDBRANCH   5   6
ENDBRANCH   4   5
ENDBRANCH   3   4
ENDBRANCH   2   3
ENDBRANCH   1   2
BRANCH   1  11
ATOM     11  C   UNL     1     -13.566  -2.961 -16.150  1.00  0.00     0.000 C 
BRANCH  11  12
ATOM     12  C   UNL     1     -13.996  -4.411 -16.440  1.00  0.00    -0.000 C 
BRANCH  12  13
ATOM     13  C   UNL     1     -14.237  -4.740 -17.925  1.00  0.00    -0.000 C 
BRANCH  13  14
ATOM     14  C   UNL     1     -13.757  -6.149 -18.313  1.00  0.00    -0.000 C 
BRANCH  14  15
ATOM     15  C   UNL     1     -13.992  -6.474 -19.799  1.00  0.00    -0.000 C 
BRANCH  15  16
ATOM     16  C   UNL     1     -15.113  -5.664 -20.483  1.00  0.00    -0.000 C 
BRANCH  16  17
ATOM     17  C   UNL     1     -16.514  -6.294 -20.401  1.00  0.00    -0.003 C 
ATOM     18  C   UNL     1     -17.321  -6.119 -21.687  1.00  0.00     0.004 C 
ENDBRANCH  16  17
ENDBRANCH  15  16
ENDBRANCH  14  15
ENDBRANCH  13  14
ENDBRANCH  12  13
ENDBRANCH  11  12
ENDBRANCH   1  11
TORSDOF 14
ENDMDL
MODEL 4
REMARK VINA RESULT:    -1.659      4.079      9.976
REMARK INTER + INTRA:          -3.928
REMARK INTER:                  -3.443
REMARK INTRA:                  -0.485
REMARK UNBOUND:                -0.911
REMARK SMILES CCCCCCCCCCCCCCCC(=O)[O-]
REMARK SMILES IDX 9 1 10 2 11 3 12 4 13 5 14 6 15 7 16 8 17 9 18 10 8 11 7 12
REMARK SMILES IDX 6 13 5 14 4 15 3 16 2 17 1 18
REMARK H PARENT
REMARK Flexibility Score: inf
ROOT
ATOM      1  C   UNL     1     -14.138  -4.727 -17.073  1.00  0.00     0.000 C 
ENDROOT
BRANCH   1   2
ATOM      2  C   UNL     1     -13.483  -3.373 -16.775  1.00  0.00     0.000 C 
BRANCH   2   3
ATOM      3  C   UNL     1     -14.149  -2.693 -15.572  1.00  0.00     0.000 C 
BRANCH   3   4
ATOM      4  C   UNL     1     -13.798  -3.424 -14.266  1.00  0.00     0.000 C 
BRANCH   4   5
ATOM      5  C   UNL     1     -12.596  -2.798 -13.541  1.00  0.00     0.000 C 
BRANCH   5   6
ATOM      6  C   UNL     1     -12.288  -3.491 -12.201  1.00  0.00     0.006 C 
BRANCH   6   7
ATOM      7  C   UNL     1     -13.556  -4.023 -11.519  1.00  0.00     0.053 C 
BRANCH   7   8
ATOM      8  C   UNL     1     -13.538  -3.781 -10.041  1.00  0.00     0.041 C 
ATOM      9  O   UNL     1     -12.528  -3.262  -9.496  1.00  0.00    -0.550 OA
ATOM     10  O   UNL     1     -14.647  -4.102  -9.269  1.00  0.00    -0.550 OA
ENDBRANCH   7   8
ENDBRANCH   6   7
ENDBRANCH   5   6
ENDBRANCH   4   5
ENDBRANCH   3   4
ENDBRANCH   2   3
ENDBRANCH   1   2
BRANCH   1  11
ATOM     11  C   UNL     1     -13.560  -5.348 -18.354  1.00  0.00     0.000 C 
BRANCH  11  12
ATOM     12  C   UNL     1     -14.584  -6.197 -19.128  1.00  0.00    -0.000 C 
BRANCH  12  13
ATOM     13  C   UNL     1     -15.440  -5.423 -20.149  1.00  0.00    -0.000 C 
BRANCH  13  14
ATOM     14  C   UNL     1     -16.567  -6.276 -20.756  1.00  0.00    -0.000 C 
BRANCH  14  15
ATOM     15  C   UNL     1     -16.950  -5.837 -22.181  1.00  0.00    -0.000 C 
BRANCH  15  16
ATOM     16  C   UNL     1     -17.086  -6.979 -23.209  1.00  0.00    -0.000 C 
BRANCH  16  17
ATOM     17  C   UNL     1     -16.712  -6.603 -24.654  1.00  0.00    -0.003 C 
ATOM     18  C   UNL     1     -16.013  -7.737 -25.402  1.00  0.00     0.004 C 
ENDBRANCH  16  17
ENDBRANCH  15  16
ENDBRANCH  14  15
ENDBRANCH  13  14
ENDBRANCH  12  13
ENDBRANCH  11  12
ENDBRANCH   1  11
TORSDOF 14
ENDMDL
MODEL 5
REMARK VINA RESULT:    -1.335      1.226      2.214
REMARK INTER + INTRA:          -3.339
REMARK INTER:                  -2.996
REMARK INTRA:                  -0.343
REMARK UNBOUND:                -0.911
REMARK SMILES CCCCCCCCCCCCCCCC(=O)[O-]
REMARK SMILES IDX 9 1 10 2 11 3 12 4 13 5 14 6 15 7 16 8 17 9 18 10 8 11 7 12
REMARK SMILES IDX 6 13 5 14 4 15 3 16 2 17 1 18
REMARK H PARENT
REMARK Flexibility Score: inf
ROOT
ATOM      1  C   UNL     1     -14.186  -4.131 -15.708  1.00  0.00     0.000 C 
ENDROOT
BRANCH   1   2
ATOM      2  C   UNL     1     -13.727  -4.318 -17.159  1.00  0.00     0.000 C 
BRANCH   2   3
ATOM      3  C   UNL     1     -13.909  -5.773 -17.610  1.00  0.00     0.000 C 
BRANCH   3   4
ATOM      4  C   UNL     1     -13.340  -5.986 -19.021  1.00  0.00     0.000 C 
BRANCH   4   5
ATOM      5  C   UNL     1     -14.407  -5.845 -20.118  1.00  0.00     0.000 C 
BRANCH   5   6
ATOM      6  C   UNL     1     -15.832  -5.729 -19.547  1.00  0.00     0.006 C 
BRANCH   6   7
ATOM      7  C   UNL     1     -16.884  -6.325 -20.492  1.00  0.00     0.053 C 
BRANCH   7   8
ATOM      8  C   UNL     1     -16.849  -5.681 -21.844  1.00  0.00     0.041 C 
ATOM      9  O   UNL     1     -17.107  -6.357 -22.875  1.00  0.00    -0.550 OA
ATOM     10  O   UNL     1     -16.560  -4.328 -21.963  1.00  0.00    -0.550 OA
ENDBRANCH   7   8
ENDBRANCH   6   7
ENDBRANCH   5   6
ENDBRANCH   4   5
ENDBRANCH   3   4
ENDBRANCH   2   3
ENDBRANCH   1   2
BRANCH   1  11
ATOM     11  C   UNL     1     -14.014  -2.671 -15.261  1.00  0.00     0.000 C 
BRANCH  11  12
ATOM     12  C   UNL     1     -12.555  -2.309 -14.930  1.00  0.00    -0.000 C 
BRANCH  12  13
ATOM     13  C   UNL     1     -12.180  -2.391 -13.438  1.00  0.00    -0.000 C 
BRANCH  13  14
ATOM     14  C   UNL     1     -12.899  -3.535 -12.701  1.00  0.00    -0.000 C 
BRANCH  14  15
ATOM     15  C   UNL     1     -12.155  -3.991 -11.433  1.00  0.00    -0.000 C 
BRANCH  15  16
ATOM     16  C   UNL     1     -12.781  -3.532 -10.100  1.00  0.00    -0.000 C 
BRANCH  16  17
ATOM     17  C   UNL     1     -14.088  -4.247  -9.714  1.00  0.00    -0.003 C 
ATOM     18  C   UNL     1     -13.893  -5.739  -9.447  1.00  0.00     0.004 C 
ENDBRANCH  16  17
ENDBRANCH  15  16
ENDBRANCH  14  15
ENDBRANCH  13  14
ENDBRANCH  12  13
ENDBRANCH  11  12
ENDBRANCH   1  11
TORSDOF 14
ENDMDL
MODEL 6
REMARK VINA RESULT:    -1.312      2.660      4.868
REMARK INTER + INTRA:          -3.296
REMARK INTER:                  -2.807
REMARK INTRA:                  -0.489
REMARK UNBOUND:                -0.911
REMARK SMILES CCCCCCCCCCCCCCCC(=O)[O-]
REMARK SMILES IDX 9 1 10 2 11 3 12 4 13 5 14 6 15 7 16 8 17 9 18 10 8 11 7 12
REMARK SMILES IDX 6 13 5 14 4 15 3 16 2 17 1 18
REMARK H PARENT
REMARK Flexibility Score: inf
ROOT
ATOM      1  C   UNL     1     -13.927  -6.065 -18.347  1.00  0.00     0.000 C 
ENDROOT
BRANCH   1   2
ATOM      2  C   UNL     1     -14.403  -6.315 -19.783  1.00  0.00     0.000 C 
BRANCH   2   3
ATOM      3  C   UNL     1     -15.637  -5.465 -20.110  1.00  0.00     0.000 C 
BRANCH   3   4
ATOM      4  C   UNL     1     -16.688  -6.291 -20.866  1.00  0.00     0.000 C 
BRANCH   4   5
ATOM      5  C   UNL     1     -16.889  -5.814 -22.313  1.00  0.00     0.000 C 
BRANCH   5   6
ATOM      6  C   UNL     1     -17.073  -6.980 -23.301  1.00  0.00     0.006 C 
BRANCH   6   7
ATOM      7  C   UNL     1     -16.685  -6.591 -24.735  1.00  0.00     0.053 C 
BRANCH   7   8
ATOM      8  C   UNL     1     -16.120  -7.751 -25.494  1.00  0.00     0.041 C 
ATOM      9  O   UNL     1     -16.040  -8.885 -24.953  1.00  0.00    -0.550 OA
ATOM     10  O   UNL     1     -15.708  -7.587 -26.811  1.00  0.00    -0.550 OA
ENDBRANCH   7   8
ENDBRANCH   6   7
ENDBRANCH   5   6
ENDBRANCH   4   5
ENDBRANCH   3   4
ENDBRANCH   2   3
ENDBRANCH   1   2
BRANCH   1  11
ATOM     11  C   UNL     1     -14.354  -4.671 -17.862  1.00  0.00     0.000 C 
BRANCH  11  12
ATOM     12  C   UNL     1     -13.860  -4.351 -16.439  1.00  0.00    -0.000 C 
BRANCH  12  13
ATOM     13  C   UNL     1     -13.837  -2.855 -16.073  1.00  0.00    -0.000 C 
BRANCH  13  14
ATOM     14  C   UNL     1     -13.249  -2.587 -14.678  1.00  0.00    -0.000 C 
BRANCH  14  15
ATOM     15  C   UNL     1     -13.753  -3.580 -13.615  1.00  0.00    -0.000 C 
BRANCH  15  16
ATOM     16  C   UNL     1     -12.848  -3.738 -12.376  1.00  0.00    -0.000 C 
BRANCH  16  17
ATOM     17  C   UNL     1     -13.578  -4.132 -11.081  1.00  0.00    -0.003 C 
ATOM     18  C   UNL     1     -12.842  -3.680  -9.820  1.00  0.00     0.004 C 
ENDBRANCH  16  17
ENDBRANCH  15  16
ENDBRANCH  14  15
ENDBRANCH  13  14
ENDBRANCH  12  13
ENDBRANCH  11  12
ENDBRANCH   1  11
TORSDOF 14
ENDMDL
MODEL 7
REMARK VINA RESULT:    -0.939      6.481     12.683
REMARK INTER + INTRA:          -2.619
REMARK INTER:                  -1.944
REMARK INTRA:                  -0.674
REMARK UNBOUND:                -0.911
REMARK SMILES CCCCCCCCCCCCCCCC(=O)[O-]
REMARK SMILES IDX 9 1 10 2 11 3 12 4 13 5 14 6 15 7 16 8 17 9 18 10 8 11 7 12
REMARK SMILES IDX 6 13 5 14 4 15 3 16 2 17 1 18
REMARK H PARENT
REMARK Flexibility Score: inf
ROOT
ATOM      1  C   UNL     1     -15.989  -8.165 -25.980  1.00  0.00     0.000 C 
ENDROOT
BRANCH   1   2
ATOM      2  C   UNL     1     -16.450  -6.895 -25.255  1.00  0.00     0.000 C 
BRANCH   2   3
ATOM      3  C   UNL     1     -16.775  -7.188 -23.785  1.00  0.00     0.000 C 
BRANCH   3   4
ATOM      4  C   UNL     1     -16.999  -5.886 -23.002  1.00  0.00     0.000 C 
BRANCH   4   5
ATOM      5  C   UNL     1     -17.077  -6.112 -21.484  1.00  0.00     0.000 C 
BRANCH   5   6
ATOM      6  C   UNL     1     -15.916  -5.444 -20.725  1.00  0.00     0.006 C 
BRANCH   6   7
ATOM      7  C   UNL     1     -15.228  -6.412 -19.752  1.00  0.00     0.053 C 
BRANCH   7   8
ATOM      8  C   UNL     1     -13.922  -5.871 -19.257  1.00  0.00     0.041 C 
ATOM      9  O   UNL     1     -12.957  -5.719 -20.052  1.00  0.00    -0.550 OA
ATOM     10  O   UNL     1     -13.780  -5.507 -17.924  1.00  0.00    -0.550 OA
ENDBRANCH   7   8
ENDBRANCH   6   7
ENDBRANCH   5   6
ENDBRANCH   4   5
ENDBRANCH   3   4
ENDBRANCH   2   3
ENDBRANCH   1   2
BRANCH   1  11
ATOM     11  C   UNL     1     -15.633  -9.272 -24.977  1.00  0.00     0.000 C 
BRANCH  11  12
ATOM     12  C   UNL     1     -16.152 -10.659 -25.399  1.00  0.00    -0.000 C 
BRANCH  12  13
ATOM     13  C   UNL     1     -15.265 -11.847 -24.983  1.00  0.00    -0.000 C 
BRANCH  13  14
ATOM     14  C   UNL     1     -15.916 -13.211 -25.268  1.00  0.00    -0.000 C 
BRANCH  14  15
ATOM     15  C   UNL     1     -14.930 -14.386 -25.133  1.00  0.00    -0.000 C 
BRANCH  15  16
ATOM     16  C   UNL     1     -13.954 -14.567 -26.313  1.00  0.00    -0.000 C 
BRANCH  16  17
ATOM     17  C   UNL     1     -12.468 -14.653 -25.923  1.00  0.00    -0.003 C 
ATOM     18  C   UNL     1     -11.914 -13.330 -25.397  1.00  0.00     0.004 C 
ENDBRANCH  16  17
ENDBRANCH  15  16
ENDBRANCH  14  15
ENDBRANCH  13  14
ENDBRANCH  12  13
ENDBRANCH  11  12
ENDBRANCH   1  11
TORSDOF 14
ENDMDL
MODEL 8
REMARK VINA RESULT:    -0.772      7.218     11.318
REMARK INTER + INTRA:          -2.315
REMARK INTER:                  -1.793
REMARK INTRA:                  -0.522
REMARK UNBOUND:                -0.911
REMARK SMILES CCCCCCCCCCCCCCCC(=O)[O-]
REMARK SMILES IDX 9 1 10 2 11 3 12 4 13 5 14 6 15 7 16 8 17 9 18 10 8 11 7 12
REMARK SMILES IDX 6 13 5 14 4 15 3 16 2 17 1 18
REMARK H PARENT
REMARK Flexibility Score: inf
ROOT
ATOM      1  C   UNL     1     -16.398  -7.845 -25.856  1.00  0.00     0.000 C 
ENDROOT
BRANCH   1   2
ATOM      2  C   UNL     1     -15.491  -8.964 -25.329  1.00  0.00     0.000 C 
BRANCH   2   3
ATOM      3  C   UNL     1     -16.247 -10.297 -25.256  1.00  0.00     0.000 C 
BRANCH   3   4
ATOM      4  C   UNL     1     -15.288 -11.456 -24.943  1.00  0.00     0.000 C 
BRANCH   4   5
ATOM      5  C   UNL     1     -15.858 -12.823 -25.352  1.00  0.00     0.000 C 
BRANCH   5   6
ATOM      6  C   UNL     1     -14.938 -13.991 -24.954  1.00  0.00     0.006 C 
BRANCH   6   7
ATOM      7  C   UNL     1     -14.259 -14.634 -26.171  1.00  0.00     0.053 C 
BRANCH   7   8
ATOM      8  C   UNL     1     -12.784 -14.373 -26.191  1.00  0.00     0.041 C 
ATOM      9  O   UNL     1     -12.284 -13.629 -27.075  1.00  0.00    -0.550 OA
ATOM     10  O   UNL     1     -11.966 -14.928 -25.215  1.00  0.00    -0.550 OA
ENDBRANCH   7   8
ENDBRANCH   6   7
ENDBRANCH   5   6
ENDBRANCH   4   5
ENDBRANCH   3   4
ENDBRANCH   2   3
ENDBRANCH   1   2
BRANCH   1  11
ATOM     11  C   UNL     1     -16.379  -6.633 -24.914  1.00  0.00     0.000 C 
BRANCH  11  12
ATOM     12  C   UNL     1     -17.047  -6.915 -23.555  1.00  0.00    -0.000 C 
BRANCH  12  13
ATOM     13  C   UNL     1     -16.964  -5.767 -22.532  1.00  0.00    -0.000 C 
BRANCH  13  14
ATOM     14  C   UNL     1     -16.984  -6.259 -21.075  1.00  0.00    -0.000 C 
BRANCH  14  15
ATOM     15  C   UNL     1     -15.912  -5.584 -20.199  1.00  0.00    -0.000 C 
BRANCH  15  16
ATOM     16  C   UNL     1     -14.835  -6.529 -19.628  1.00  0.00    -0.000 C 
BRANCH  16  17
ATOM     17  C   UNL     1     -13.625  -5.827 -18.988  1.00  0.00    -0.003 C 
ATOM     18  C   UNL     1     -12.527  -5.496 -19.997  1.00  0.00     0.004 C 
ENDBRANCH  16  17
ENDBRANCH  15  16
ENDBRANCH  14  15
ENDBRANCH  13  14
ENDBRANCH  12  13
ENDBRANCH  11  12
ENDBRANCH   1  11
TORSDOF 14
ENDMDL
MODEL 9
REMARK VINA RESULT:    -0.752      3.739     10.276
REMARK INTER + INTRA:          -2.278
REMARK INTER:                  -1.725
REMARK INTRA:                  -0.554
REMARK UNBOUND:                -0.911
REMARK SMILES CCCCCCCCCCCCCCCC(=O)[O-]
REMARK SMILES IDX 9 1 10 2 11 3 12 4 13 5 14 6 15 7 16 8 17 9 18 10 8 11 7 12
REMARK SMILES IDX 6 13 5 14 4 15 3 16 2 17 1 18
REMARK H PARENT
REMARK Flexibility Score: inf
ROOT
ATOM      1  C   UNL     1     -13.980  -6.122 -19.520  1.00  0.00     0.000 C 
ENDROOT
BRANCH   1   2
ATOM      2  C   UNL     1     -13.481  -5.668 -18.142  1.00  0.00     0.000 C 
BRANCH   2   3
ATOM      3  C   UNL     1     -14.392  -4.581 -17.558  1.00  0.00     0.000 C 
BRANCH   3   4
ATOM      4  C   UNL     1     -13.894  -4.132 -16.176  1.00  0.00     0.000 C 
BRANCH   4   5
ATOM      5  C   UNL     1     -13.652  -2.617 -16.096  1.00  0.00     0.000 C 
BRANCH   5   6
ATOM      6  C   UNL     1     -13.259  -2.153 -14.682  1.00  0.00     0.006 C 
BRANCH   6   7
ATOM      7  C   UNL     1     -13.066  -3.334 -13.719  1.00  0.00     0.053 C 
BRANCH   7   8
ATOM      8  C   UNL     1     -14.203  -3.458 -12.753  1.00  0.00     0.041 C 
ATOM      9  O   UNL     1     -13.997  -3.869 -11.581  1.00  0.00    -0.550 OA
ATOM     10  O   UNL     1     -15.487  -3.092 -13.138  1.00  0.00    -0.550 OA
ENDBRANCH   7   8
ENDBRANCH   6   7
ENDBRANCH   5   6
ENDBRANCH   4   5
ENDBRANCH   3   4
ENDBRANCH   2   3
ENDBRANCH   1   2
BRANCH   1  11
ATOM     11  C   UNL     1     -15.515  -6.148 -19.567  1.00  0.00     0.000 C 
BRANCH  11  12
ATOM     12  C   UNL     1     -16.093  -5.421 -20.795  1.00  0.00    -0.000 C 
BRANCH  12  13
ATOM     13  C   UNL     1     -17.242  -6.155 -21.513  1.00  0.00    -0.000 C 
BRANCH  13  14
ATOM     14  C   UNL     1     -17.259  -5.903 -23.030  1.00  0.00    -0.000 C 
BRANCH  14  15
ATOM     15  C   UNL     1     -16.467  -6.960 -23.822  1.00  0.00    -0.000 C 
BRANCH  15  16
ATOM     16  C   UNL     1     -16.639  -6.903 -25.354  1.00  0.00    -0.000 C 
BRANCH  16  17
ATOM     17  C   UNL     1     -15.872  -7.983 -26.136  1.00  0.00    -0.003 C 
ATOM     18  C   UNL     1     -15.906  -9.349 -25.453  1.00  0.00     0.004 C 
ENDBRANCH  16  17
ENDBRANCH  15  16
ENDBRANCH  14  15
ENDBRANCH  13  14
ENDBRANCH  12  13
ENDBRANCH  11  12
ENDBRANCH   1  11
TORSDOF 14
ENDMDL
