MODEL 1
REMARK VINA RESULT:    -6.126      0.000      0.000
REMARK INTER + INTRA:         -12.880
REMARK INTER:                 -11.857
REMARK INTRA:                  -1.023
REMARK UNBOUND:                -1.023
REMARK SMILES CCCCCCCCCCCCCCCCCC(=O)[O-]
REMARK SMILES IDX 10 1 11 2 12 3 13 4 14 5 15 6 16 7 17 8 18 9 19 10 20 11
REMARK SMILES IDX 9 12 8 13 7 14 6 15 5 16 4 17 3 18 2 19 1 20
REMARK H PARENT
REMARK Flexibility Score: inf
ROOT
ATOM      1  C   UNL     1     101.897 305.716 197.493  1.00  0.00     0.000 C 
ENDROOT
BRANCH   1   2
ATOM      2  C   UNL     1     101.859 307.168 196.990  1.00  0.00     0.000 C 
BRANCH   2   3
ATOM      3  C   UNL     1     102.143 307.281 195.484  1.00  0.00     0.000 C 
BRANCH   3   4
ATOM      4  C   UNL     1     101.514 306.134 194.677  1.00  0.00     0.000 C 
BRANCH   4   5
ATOM      5  C   UNL     1     102.266 305.838 193.366  1.00  0.00     0.000 C 
BRANCH   5   6
ATOM      6  C   UNL     1     103.716 306.354 193.314  1.00  0.00     0.000 C 
BRANCH   6   7
ATOM      7  C   UNL     1     103.943 307.393 192.207  1.00  0.00     0.006 C 
BRANCH   7   8
ATOM      8  C   UNL     1     102.610 307.909 191.656  1.00  0.00     0.053 C 
BRANCH   8   9
ATOM      9  C   UNL     1     102.843 308.882 190.544  1.00  0.00     0.041 C 
ATOM     10  O   UNL     1     101.905 309.190 189.764  1.00  0.00    -0.550 OA
ATOM     11  O   UNL     1     104.112 309.408 190.336  1.00  0.00    -0.550 OA
ENDBRANCH   8   9
ENDBRANCH   7   8
ENDBRANCH   6   7
ENDBRANCH   5   6
ENDBRANCH   4   5
ENDBRANCH   3   4
ENDBRANCH   2   3
ENDBRANCH   1   2
BRANCH   1  12
ATOM     12  C   UNL     1     101.412 305.627 198.945  1.00  0.00     0.000 C 
BRANCH  12  13
ATOM     13  C   UNL     1     101.801 306.884 199.734  1.00  0.00    -0.000 C 
BRANCH  13  14
ATOM     14  C   UNL     1     102.858 306.557 200.800  1.00  0.00    -0.000 C 
BRANCH  14  15
ATOM     15  C   UNL     1     102.306 306.656 202.231  1.00  0.00    -0.000 C 
BRANCH  15  16
ATOM     16  C   UNL     1     101.738 305.323 202.740  1.00  0.00    -0.000 C 
BRANCH  16  17
ATOM     17  C   UNL     1     102.454 304.872 204.018  1.00  0.00    -0.000 C 
BRANCH  17  18
ATOM     18  C   UNL     1     101.615 305.195 205.263  1.00  0.00    -0.000 C 
BRANCH  18  19
ATOM     19  C   UNL     1     102.278 306.248 206.166  1.00  0.00    -0.003 C 
ATOM     20  C   UNL     1     103.774 306.000 206.361  1.00  0.00     0.004 C 
ENDBRANCH  18  19
ENDBRANCH  17  18
ENDBRANCH  16  17
ENDBRANCH  15  16
ENDBRANCH  14  15
ENDBRANCH  13  14
ENDBRANCH  12  13
ENDBRANCH   1  12
TORSDOF 16
ENDMDL
MODEL 2
REMARK VINA RESULT:    -6.116     20.075     20.775
REMARK INTER + INTRA:         -12.859
REMARK INTER:                 -11.695
REMARK INTRA:                  -1.164
REMARK UNBOUND:                -1.023
REMARK SMILES CCCCCCCCCCCCCCCCCC(=O)[O-]
REMARK SMILES IDX 10 1 11 2 12 3 13 4 14 5 15 6 16 7 17 8 18 9 19 10 20 11
REMARK SMILES IDX 9 12 8 13 7 14 6 15 5 16 4 17 3 18 2 19 1 20
REMARK H PARENT
REMARK Flexibility Score: inf
ROOT
ATOM      1  C   UNL     1      87.242 320.831 198.616  1.00  0.00     0.000 C 
ENDROOT
BRANCH   1   2
ATOM      2  C   UNL     1      87.201 319.372 198.131  1.00  0.00     0.000 C 
BRANCH   2   3
ATOM      3  C   UNL     1      87.018 319.259 196.609  1.00  0.00     0.000 C 
BRANCH   3   4
ATOM      4  C   UNL     1      87.450 320.533 195.865  1.00  0.00     0.000 C 
BRANCH   4   5
ATOM      5  C   UNL     1      86.520 320.889 194.691  1.00  0.00     0.000 C 
BRANCH   5   6
ATOM      6  C   UNL     1      85.088 320.330 194.799  1.00  0.00     0.000 C 
BRANCH   6   7
ATOM      7  C   UNL     1      84.684 319.479 193.587  1.00  0.00     0.006 C 
BRANCH   7   8
ATOM      8  C   UNL     1      85.918 319.019 192.804  1.00  0.00     0.053 C 
BRANCH   8   9
ATOM      9  C   UNL     1      85.525 318.063 191.721  1.00  0.00     0.041 C 
ATOM     10  O   UNL     1      84.364 317.578 191.695  1.00  0.00    -0.550 OA
ATOM     11  O   UNL     1      86.459 317.667 190.772  1.00  0.00    -0.550 OA
ENDBRANCH   8   9
ENDBRANCH   7   8
ENDBRANCH   6   7
ENDBRANCH   5   6
ENDBRANCH   4   5
ENDBRANCH   3   4
ENDBRANCH   2   3
ENDBRANCH   1   2
BRANCH   1  12
ATOM     12  C   UNL     1      87.855 320.924 200.018  1.00  0.00     0.000 C 
BRANCH  12  13
ATOM     13  C   UNL     1      87.304 319.825 200.935  1.00  0.00    -0.000 C 
BRANCH  13  14
ATOM     14  C   UNL     1      87.030 320.374 202.344  1.00  0.00    -0.000 C 
BRANCH  14  15
ATOM     15  C   UNL     1      88.170 320.071 203.330  1.00  0.00    -0.000 C 
BRANCH  15  16
ATOM     16  C   UNL     1      88.546 321.286 204.192  1.00  0.00    -0.000 C 
BRANCH  16  17
ATOM     17  C   UNL     1      87.497 321.532 205.283  1.00  0.00    -0.000 C 
BRANCH  17  18
ATOM     18  C   UNL     1      87.445 320.357 206.270  1.00  0.00    -0.000 C 
BRANCH  18  19
ATOM     19  C   UNL     1      86.021 320.071 206.773  1.00  0.00    -0.003 C 
ATOM     20  C   UNL     1      85.335 318.948 205.995  1.00  0.00     0.004 C 
ENDBRANCH  18  19
ENDBRANCH  17  18
ENDBRANCH  16  17
ENDBRANCH  15  16
ENDBRANCH  14  15
ENDBRANCH  13  14
ENDBRANCH  12  13
ENDBRANCH   1  12
TORSDOF 16
ENDMDL
MODEL 3
REMARK VINA RESULT:    -6.095      4.895     11.099
REMARK INTER + INTRA:         -12.820
REMARK INTER:                 -11.767
REMARK INTRA:                  -1.053
REMARK UNBOUND:                -1.023
REMARK SMILES CCCCCCCCCCCCCCCCCC(=O)[O-]
REMARK SMILES IDX 10 1 11 2 12 3 13 4 14 5 15 6 16 7 17 8 18 9 19 10 20 11
REMARK SMILES IDX 9 12 8 13 7 14 6 15 5 16 4 17 3 18 2 19 1 20
REMARK H PARENT
REMARK Flexibility Score: inf
ROOT
ATOM      1  C   UNL     1     101.522 307.269 195.180  1.00  0.00     0.000 C 
ENDROOT
BRANCH   1   2
ATOM      2  C   UNL     1     101.846 307.174 196.679  1.00  0.00     0.000 C 
BRANCH   2   3
ATOM      3  C   UNL     1     102.111 305.732 197.138  1.00  0.00     0.000 C 
BRANCH   3   4
ATOM      4  C   UNL     1     101.572 305.454 198.552  1.00  0.00     0.000 C 
BRANCH   4   5
ATOM      5  C   UNL     1     101.698 306.667 199.492  1.00  0.00     0.000 C 
BRANCH   5   6
ATOM      6  C   UNL     1     100.500 306.890 200.434  1.00  0.00     0.000 C 
BRANCH   6   7
ATOM      7  C   UNL     1     100.379 305.809 201.517  1.00  0.00     0.006 C 
BRANCH   7   8
ATOM      8  C   UNL     1     101.723 305.579 202.215  1.00  0.00     0.053 C 
BRANCH   8   9
ATOM      9  C   UNL     1     101.512 305.040 203.594  1.00  0.00     0.041 C 
ATOM     10  O   UNL     1     100.367 304.667 203.960  1.00  0.00    -0.550 OA
ATOM     11  O   UNL     1     102.570 304.999 204.494  1.00  0.00    -0.550 OA
ENDBRANCH   8   9
ENDBRANCH   7   8
ENDBRANCH   6   7
ENDBRANCH   5   6
ENDBRANCH   4   5
ENDBRANCH   3   4
ENDBRANCH   2   3
ENDBRANCH   1   2
BRANCH   1  12
ATOM     12  C   UNL     1     101.452 305.875 194.545  1.00  0.00     0.000 C 
BRANCH  12  13
ATOM     13  C   UNL     1     102.071 305.876 193.141  1.00  0.00    -0.000 C 
BRANCH  13  14
ATOM     14  C   UNL     1     103.573 306.189 193.205  1.00  0.00    -0.000 C 
BRANCH  14  15
ATOM     15  C   UNL     1     103.962 307.405 192.347  1.00  0.00    -0.000 C 
BRANCH  15  16
ATOM     16  C   UNL     1     102.764 308.005 191.594  1.00  0.00    -0.000 C 
BRANCH  16  17
ATOM     17  C   UNL     1     103.231 308.998 190.523  1.00  0.00    -0.000 C 
BRANCH  17  18
ATOM     18  C   UNL     1     102.055 309.838 190.003  1.00  0.00    -0.000 C 
BRANCH  18  19
ATOM     19  C   UNL     1     101.761 309.586 188.516  1.00  0.00    -0.003 C 
ATOM     20  C   UNL     1     100.321 309.137 188.267  1.00  0.00     0.004 C 
ENDBRANCH  18  19
ENDBRANCH  17  18
ENDBRANCH  16  17
ENDBRANCH  15  16
ENDBRANCH  14  15
ENDBRANCH  13  14
ENDBRANCH  12  13
ENDBRANCH   1  12
TORSDOF 16
ENDMDL
MODEL 4
REMARK VINA RESULT:    -6.044     19.928     20.645
REMARK INTER + INTRA:         -12.721
REMARK INTER:                 -12.123
REMARK INTRA:                  -0.597
REMARK UNBOUND:                -1.023
REMARK SMILES CCCCCCCCCCCCCCCCCC(=O)[O-]
REMARK SMILES IDX 10 1 11 2 12 3 13 4 14 5 15 6 16 7 17 8 18 9 19 10 20 11
REMARK SMILES IDX 9 12 8 13 7 14 6 15 5 16 4 17 3 18 2 19 1 20
REMARK H PARENT
REMARK Flexibility Score: inf
ROOT
ATOM      1  C   UNL     1      86.637 320.108 196.986  1.00  0.00     0.000 C 
ENDROOT
BRANCH   1   2
ATOM      2  C   UNL     1      87.405 320.534 195.724  1.00  0.00     0.000 C 
BRANCH   2   3
ATOM      3  C   UNL     1      86.475 321.007 194.596  1.00  0.00     0.000 C 
BRANCH   3   4
ATOM      4  C   UNL     1      85.051 320.445 194.729  1.00  0.00     0.000 C 
BRANCH   4   5
ATOM      5  C   UNL     1      84.727 319.373 193.672  1.00  0.00     0.000 C 
BRANCH   5   6
ATOM      6  C   UNL     1      85.883 319.027 192.716  1.00  0.00     0.000 C 
BRANCH   6   7
ATOM      7  C   UNL     1      85.531 317.902 191.732  1.00  0.00     0.006 C 
BRANCH   7   8
ATOM      8  C   UNL     1      86.557 317.826 190.597  1.00  0.00     0.053 C 
BRANCH   8   9
ATOM      9  C   UNL     1      86.109 316.855 189.550  1.00  0.00     0.041 C 
ATOM     10  O   UNL     1      86.922 316.434 188.687  1.00  0.00    -0.550 OA
ATOM     11  O   UNL     1      84.779 316.457 189.496  1.00  0.00    -0.550 OA
ENDBRANCH   8   9
ENDBRANCH   7   8
ENDBRANCH   6   7
ENDBRANCH   5   6
ENDBRANCH   4   5
ENDBRANCH   3   4
ENDBRANCH   2   3
ENDBRANCH   1   2
BRANCH   1  12
ATOM     12  C   UNL     1      87.088 320.924 198.203  1.00  0.00     0.000 C 
BRANCH  12  13
ATOM     13  C   UNL     1      87.489 320.006 199.364  1.00  0.00    -0.000 C 
BRANCH  13  14
ATOM     14  C   UNL     1      87.934 320.828 200.584  1.00  0.00    -0.000 C 
BRANCH  14  15
ATOM     15  C   UNL     1      87.276 320.352 201.890  1.00  0.00    -0.000 C 
BRANCH  15  16
ATOM     16  C   UNL     1      87.938 320.955 203.139  1.00  0.00    -0.000 C 
BRANCH  16  17
ATOM     17  C   UNL     1      87.411 320.287 204.416  1.00  0.00    -0.000 C 
BRANCH  17  18
ATOM     18  C   UNL     1      87.546 321.227 205.623  1.00  0.00    -0.000 C 
BRANCH  18  19
ATOM     19  C   UNL     1      87.272 320.515 206.958  1.00  0.00    -0.003 C 
ATOM     20  C   UNL     1      85.820 320.057 207.095  1.00  0.00     0.004 C 
ENDBRANCH  18  19
ENDBRANCH  17  18
ENDBRANCH  16  17
ENDBRANCH  15  16
ENDBRANCH  14  15
ENDBRANCH  13  14
ENDBRANCH  12  13
ENDBRANCH   1  12
TORSDOF 16
ENDMDL
MODEL 5
REMARK VINA RESULT:    -6.028     20.591     23.242
REMARK INTER + INTRA:         -12.689
REMARK INTER:                 -11.808
REMARK INTRA:                  -0.880
REMARK UNBOUND:                -1.023
REMARK SMILES CCCCCCCCCCCCCCCCCC(=O)[O-]
REMARK SMILES IDX 10 1 11 2 12 3 13 4 14 5 15 6 16 7 17 8 18 9 19 10 20 11
REMARK SMILES IDX 9 12 8 13 7 14 6 15 5 16 4 17 3 18 2 19 1 20
REMARK H PARENT
REMARK Flexibility Score: inf
ROOT
ATOM      1  C   UNL     1      87.262 318.940 198.873  1.00  0.00     0.000 C 
ENDROOT
BRANCH   1   2
ATOM      2  C   UNL     1      87.434 320.336 199.492  1.00  0.00     0.000 C 
BRANCH   2   3
ATOM      3  C   UNL     1      88.286 320.317 200.771  1.00  0.00     0.000 C 
BRANCH   3   4
ATOM      4  C   UNL     1      87.472 320.671 202.027  1.00  0.00     0.000 C 
BRANCH   4   5
ATOM      5  C   UNL     1      88.342 320.792 203.292  1.00  0.00     0.000 C 
BRANCH   5   6
ATOM      6  C   UNL     1      87.720 321.614 204.437  1.00  0.00     0.000 C 
BRANCH   6   7
ATOM      7  C   UNL     1      88.039 321.043 205.825  1.00  0.00     0.006 C 
BRANCH   7   8
ATOM      8  C   UNL     1      86.756 320.653 206.565  1.00  0.00     0.053 C 
BRANCH   8   9
ATOM      9  C   UNL     1      86.253 319.330 206.079  1.00  0.00     0.041 C 
ATOM     10  O   UNL     1      85.023 319.064 206.124  1.00  0.00    -0.550 OA
ATOM     11  O   UNL     1      87.149 318.369 205.626  1.00  0.00    -0.550 OA
ENDBRANCH   8   9
ENDBRANCH   7   8
ENDBRANCH   6   7
ENDBRANCH   5   6
ENDBRANCH   4   5
ENDBRANCH   3   4
ENDBRANCH   2   3
ENDBRANCH   1   2
BRANCH   1  12
ATOM     12  C   UNL     1      87.339 319.006 197.343  1.00  0.00     0.000 C 
BRANCH  12  13
ATOM     13  C   UNL     1      86.746 320.319 196.817  1.00  0.00    -0.000 C 
BRANCH  13  14
ATOM     14  C   UNL     1      87.402 320.724 195.488  1.00  0.00    -0.000 C 
BRANCH  14  15
ATOM     15  C   UNL     1      86.372 321.066 194.399  1.00  0.00    -0.000 C 
BRANCH  15  16
ATOM     16  C   UNL     1      85.041 320.321 194.588  1.00  0.00    -0.000 C 
BRANCH  16  17
ATOM     17  C   UNL     1      84.825 319.292 193.472  1.00  0.00    -0.000 C 
BRANCH  17  18
ATOM     18  C   UNL     1      86.121 319.055 192.683  1.00  0.00    -0.000 C 
BRANCH  18  19
ATOM     19  C   UNL     1      85.931 318.072 191.517  1.00  0.00    -0.003 C 
ATOM     20  C   UNL     1      84.665 317.228 191.657  1.00  0.00     0.004 C 
ENDBRANCH  18  19
ENDBRANCH  17  18
ENDBRANCH  16  17
ENDBRANCH  15  16
ENDBRANCH  14  15
ENDBRANCH  13  14
ENDBRANCH  12  13
ENDBRANCH   1  12
TORSDOF 16
ENDMDL
MODEL 6
REMARK VINA RESULT:    -6.017      5.222     10.657
REMARK INTER + INTRA:         -12.669
REMARK INTER:                 -11.162
REMARK INTRA:                  -1.506
REMARK UNBOUND:                -1.023
REMARK SMILES CCCCCCCCCCCCCCCCCC(=O)[O-]
REMARK SMILES IDX 10 1 11 2 12 3 13 4 14 5 15 6 16 7 17 8 18 9 19 10 20 11
REMARK SMILES IDX 9 12 8 13 7 14 6 15 5 16 4 17 3 18 2 19 1 20
REMARK H PARENT
REMARK Flexibility Score: inf
ROOT
ATOM      1  C   UNL     1     101.857 306.917 197.030  1.00  0.00     0.000 C 
ENDROOT
BRANCH   1   2
ATOM      2  C   UNL     1     101.851 305.646 197.895  1.00  0.00     0.000 C 
BRANCH   2   3
ATOM      3  C   UNL     1     101.429 305.919 199.347  1.00  0.00     0.000 C 
BRANCH   3   4
ATOM      4  C   UNL     1     102.620 306.279 200.250  1.00  0.00     0.000 C 
BRANCH   4   5
ATOM      5  C   UNL     1     102.192 306.699 201.668  1.00  0.00     0.000 C 
BRANCH   5   6
ATOM      6  C   UNL     1     101.384 305.644 202.447  1.00  0.00     0.000 C 
BRANCH   6   7
ATOM      7  C   UNL     1     102.248 304.821 203.414  1.00  0.00     0.006 C 
BRANCH   7   8
ATOM      8  C   UNL     1     102.749 305.688 204.574  1.00  0.00     0.053 C 
BRANCH   8   9
ATOM      9  C   UNL     1     101.606 306.121 205.437  1.00  0.00     0.041 C 
ATOM     10  O   UNL     1     101.343 307.345 205.573  1.00  0.00    -0.550 OA
ATOM     11  O   UNL     1     100.864 305.176 206.134  1.00  0.00    -0.550 OA
ENDBRANCH   8   9
ENDBRANCH   7   8
ENDBRANCH   6   7
ENDBRANCH   5   6
ENDBRANCH   4   5
ENDBRANCH   3   4
ENDBRANCH   2   3
ENDBRANCH   1   2
BRANCH   1  12
ATOM     12  C   UNL     1     102.451 306.634 195.645  1.00  0.00     0.000 C 
BRANCH  12  13
ATOM     13  C   UNL     1     101.393 306.050 194.700  1.00  0.00    -0.000 C 
BRANCH  13  14
ATOM     14  C   UNL     1     101.993 305.765 193.314  1.00  0.00    -0.000 C 
BRANCH  14  15
ATOM     15  C   UNL     1     103.474 306.164 193.217  1.00  0.00    -0.000 C 
BRANCH  15  16
ATOM     16  C   UNL     1     103.712 307.326 192.239  1.00  0.00    -0.000 C 
BRANCH  16  17
ATOM     17  C   UNL     1     102.383 307.876 191.706  1.00  0.00    -0.000 C 
BRANCH  17  18
ATOM     18  C   UNL     1     102.226 309.364 192.051  1.00  0.00    -0.000 C 
BRANCH  18  19
ATOM     19  C   UNL     1     102.620 309.679 193.503  1.00  0.00    -0.003 C 
ATOM     20  C   UNL     1     101.421 310.062 194.370  1.00  0.00     0.004 C 
ENDBRANCH  18  19
ENDBRANCH  17  18
ENDBRANCH  16  17
ENDBRANCH  15  16
ENDBRANCH  14  15
ENDBRANCH  13  14
ENDBRANCH  12  13
ENDBRANCH   1  12
TORSDOF 16
ENDMDL
MODEL 7
REMARK VINA RESULT:    -5.957     20.356     23.047
REMARK INTER + INTRA:         -12.552
REMARK INTER:                 -11.506
REMARK INTRA:                  -1.046
REMARK UNBOUND:                -1.023
REMARK SMILES CCCCCCCCCCCCCCCCCC(=O)[O-]
REMARK SMILES IDX 10 1 11 2 12 3 13 4 14 5 15 6 16 7 17 8 18 9 19 10 20 11
REMARK SMILES IDX 9 12 8 13 7 14 6 15 5 16 4 17 3 18 2 19 1 20
REMARK H PARENT
REMARK Flexibility Score: inf
ROOT
ATOM      1  C   UNL     1      87.155 319.356 197.655  1.00  0.00     0.000 C 
ENDROOT
BRANCH   1   2
ATOM      2  C   UNL     1      86.923 320.787 198.168  1.00  0.00     0.000 C 
BRANCH   2   3
ATOM      3  C   UNL     1      87.589 321.044 199.529  1.00  0.00     0.000 C 
BRANCH   3   4
ATOM      4  C   UNL     1      87.542 319.814 200.451  1.00  0.00     0.000 C 
BRANCH   4   5
ATOM      5  C   UNL     1      87.617 320.179 201.945  1.00  0.00     0.000 C 
BRANCH   5   6
ATOM      6  C   UNL     1      88.937 320.835 202.392  1.00  0.00     0.000 C 
BRANCH   6   7
ATOM      7  C   UNL     1      88.834 321.513 203.766  1.00  0.00     0.006 C 
BRANCH   7   8
ATOM      8  C   UNL     1      87.715 320.886 204.604  1.00  0.00     0.053 C 
BRANCH   8   9
ATOM      9  C   UNL     1      87.984 321.077 206.063  1.00  0.00     0.041 C 
ATOM     10  O   UNL     1      89.149 321.336 206.464  1.00  0.00    -0.550 OA
ATOM     11  O   UNL     1      86.958 320.914 206.986  1.00  0.00    -0.550 OA
ENDBRANCH   8   9
ENDBRANCH   7   8
ENDBRANCH   6   7
ENDBRANCH   5   6
ENDBRANCH   4   5
ENDBRANCH   3   4
ENDBRANCH   2   3
ENDBRANCH   1   2
BRANCH   1  12
ATOM     12  C   UNL     1      87.182 319.322 196.122  1.00  0.00     0.000 C 
BRANCH  12  13
ATOM     13  C   UNL     1      87.163 320.741 195.539  1.00  0.00    -0.000 C 
BRANCH  13  14
ATOM     14  C   UNL     1      86.151 320.845 194.387  1.00  0.00    -0.000 C 
BRANCH  14  15
ATOM     15  C   UNL     1      85.057 319.769 194.460  1.00  0.00    -0.000 C 
BRANCH  15  16
ATOM     16  C   UNL     1      84.901 318.993 193.143  1.00  0.00    -0.000 C 
BRANCH  16  17
ATOM     17  C   UNL     1      86.242 318.884 192.407  1.00  0.00    -0.000 C 
BRANCH  17  18
ATOM     18  C   UNL     1      86.423 317.485 191.799  1.00  0.00    -0.000 C 
BRANCH  18  19
ATOM     19  C   UNL     1      85.744 317.345 190.428  1.00  0.00    -0.003 C 
ATOM     20  C   UNL     1      86.745 317.307 189.274  1.00  0.00     0.004 C 
ENDBRANCH  18  19
ENDBRANCH  17  18
ENDBRANCH  16  17
ENDBRANCH  15  16
ENDBRANCH  14  15
ENDBRANCH  13  14
ENDBRANCH  12  13
ENDBRANCH   1  12
TORSDOF 16
ENDMDL
MODEL 8
REMARK VINA RESULT:    -5.902      5.244     10.495
REMARK INTER + INTRA:         -12.445
REMARK INTER:                 -10.942
REMARK INTRA:                  -1.502
REMARK UNBOUND:                -1.023
REMARK SMILES CCCCCCCCCCCCCCCCCC(=O)[O-]
REMARK SMILES IDX 10 1 11 2 12 3 13 4 14 5 15 6 16 7 17 8 18 9 19 10 20 11
REMARK SMILES IDX 9 12 8 13 7 14 6 15 5 16 4 17 3 18 2 19 1 20
REMARK H PARENT
REMARK Flexibility Score: inf
ROOT
ATOM      1  C   UNL     1     102.446 306.186 195.906  1.00  0.00     0.000 C 
ENDROOT
BRANCH   1   2
ATOM      2  C   UNL     1     101.893 305.535 197.184  1.00  0.00     0.000 C 
BRANCH   2   3
ATOM      3  C   UNL     1     101.860 306.504 198.376  1.00  0.00     0.000 C 
BRANCH   3   4
ATOM      4  C   UNL     1     101.472 305.809 199.691  1.00  0.00     0.000 C 
BRANCH   4   5
ATOM      5  C   UNL     1     102.428 306.141 200.852  1.00  0.00     0.000 C 
BRANCH   5   6
ATOM      6  C   UNL     1     101.745 306.410 202.206  1.00  0.00     0.000 C 
BRANCH   6   7
ATOM      7  C   UNL     1     102.688 306.221 203.401  1.00  0.00     0.006 C 
BRANCH   7   8
ATOM      8  C   UNL     1     102.318 304.968 204.200  1.00  0.00     0.053 C 
BRANCH   8   9
ATOM      9  C   UNL     1     101.196 305.262 205.146  1.00  0.00     0.041 C 
ATOM     10  O   UNL     1     100.265 304.429 205.304  1.00  0.00    -0.550 OA
ATOM     11  O   UNL     1     101.150 306.480 205.812  1.00  0.00    -0.550 OA
ENDBRANCH   8   9
ENDBRANCH   7   8
ENDBRANCH   6   7
ENDBRANCH   5   6
ENDBRANCH   4   5
ENDBRANCH   3   4
ENDBRANCH   2   3
ENDBRANCH   1   2
BRANCH   1  12
ATOM     12  C   UNL     1     101.399 306.168 194.785  1.00  0.00     0.000 C 
BRANCH  12  13
ATOM     13  C   UNL     1     102.038 305.801 193.440  1.00  0.00    -0.000 C 
BRANCH  13  14
ATOM     14  C   UNL     1     103.543 306.111 193.444  1.00  0.00    -0.000 C 
BRANCH  14  15
ATOM     15  C   UNL     1     103.900 307.321 192.566  1.00  0.00    -0.000 C 
BRANCH  15  16
ATOM     16  C   UNL     1     102.724 307.791 191.698  1.00  0.00    -0.000 C 
BRANCH  16  17
ATOM     17  C   UNL     1     102.603 309.320 191.715  1.00  0.00    -0.000 C 
BRANCH  17  18
ATOM     18  C   UNL     1     102.880 309.877 193.120  1.00  0.00    -0.000 C 
BRANCH  18  19
ATOM     19  C   UNL     1     101.635 309.851 194.021  1.00  0.00    -0.003 C 
ATOM     20  C   UNL     1     101.983 309.754 195.506  1.00  0.00     0.004 C 
ENDBRANCH  18  19
ENDBRANCH  17  18
ENDBRANCH  16  17
ENDBRANCH  15  16
ENDBRANCH  14  15
ENDBRANCH  13  14
ENDBRANCH  12  13
ENDBRANCH   1  12
TORSDOF 16
ENDMDL
MODEL 9
REMARK VINA RESULT:    -5.873      4.874     10.881
REMARK INTER + INTRA:         -12.390
REMARK INTER:                 -11.354
REMARK INTRA:                  -1.036
REMARK UNBOUND:                -1.023
REMARK SMILES CCCCCCCCCCCCCCCCCC(=O)[O-]
REMARK SMILES IDX 10 1 11 2 12 3 13 4 14 5 15 6 16 7 17 8 18 9 19 10 20 11
REMARK SMILES IDX 9 12 8 13 7 14 6 15 5 16 4 17 3 18 2 19 1 20
REMARK H PARENT
REMARK Flexibility Score: inf
ROOT
ATOM      1  C   UNL     1     101.435 306.265 199.476  1.00  0.00     0.000 C 
ENDROOT
BRANCH   1   2
ATOM      2  C   UNL     1     102.692 306.259 200.360  1.00  0.00     0.000 C 
BRANCH   2   3
ATOM      3  C   UNL     1     102.363 306.321 201.859  1.00  0.00     0.000 C 
BRANCH   3   4
ATOM      4  C   UNL     1     100.947 305.810 202.175  1.00  0.00     0.000 C 
BRANCH   4   5
ATOM      5  C   UNL     1     100.867 305.047 203.509  1.00  0.00     0.000 C 
BRANCH   5   6
ATOM      6  C   UNL     1     102.219 304.805 204.207  1.00  0.00     0.000 C 
BRANCH   6   7
ATOM      7  C   UNL     1     102.331 305.517 205.562  1.00  0.00     0.006 C 
BRANCH   7   8
ATOM      8  C   UNL     1     103.739 306.083 205.769  1.00  0.00     0.053 C 
BRANCH   8   9
ATOM      9  C   UNL     1     103.750 307.561 205.533  1.00  0.00     0.041 C 
ATOM     10  O   UNL     1     104.122 308.022 204.422  1.00  0.00    -0.550 OA
ATOM     11  O   UNL     1     103.402 308.431 206.558  1.00  0.00    -0.550 OA
ENDBRANCH   8   9
ENDBRANCH   7   8
ENDBRANCH   6   7
ENDBRANCH   5   6
ENDBRANCH   4   5
ENDBRANCH   3   4
ENDBRANCH   2   3
ENDBRANCH   1   2
BRANCH   1  12
ATOM     12  C   UNL     1     101.803 306.085 197.998  1.00  0.00     0.000 C 
BRANCH  12  13
ATOM     13  C   UNL     1     101.592 307.387 197.214  1.00  0.00    -0.000 C 
BRANCH  13  14
ATOM     14  C   UNL     1     102.022 307.220 195.749  1.00  0.00    -0.000 C 
BRANCH  14  15
ATOM     15  C   UNL     1     101.521 305.906 195.130  1.00  0.00    -0.000 C 
BRANCH  15  16
ATOM     16  C   UNL     1     101.753 305.839 193.613  1.00  0.00    -0.000 C 
BRANCH  16  17
ATOM     17  C   UNL     1     103.249 305.895 193.282  1.00  0.00    -0.000 C 
BRANCH  17  18
ATOM     18  C   UNL     1     103.581 307.140 192.446  1.00  0.00    -0.000 C 
BRANCH  18  19
ATOM     19  C   UNL     1     102.354 307.701 191.710  1.00  0.00    -0.003 C 
ATOM     20  C   UNL     1     102.708 308.846 190.761  1.00  0.00     0.004 C 
ENDBRANCH  18  19
ENDBRANCH  17  18
ENDBRANCH  16  17
ENDBRANCH  15  16
ENDBRANCH  14  15
ENDBRANCH  13  14
ENDBRANCH  12  13
ENDBRANCH   1  12
TORSDOF 16
ENDMDL
