MODEL 1
REMARK VINA RESULT:    -3.919      0.000      0.000
REMARK INTER + INTRA:         -11.306
REMARK INTER:                  -8.500
REMARK INTRA:                  -2.806
REMARK UNBOUND:                -2.806
REMARK SMILES CCCCCCCCCCCCCCCCCCCCCC(=O)[O-]
REMARK SMILES IDX 12 1 11 2 10 3 9 4 8 5 7 6 6 7 5 8 4 9 3 10 2 11 1 12 13 13
REMARK SMILES IDX 14 14 15 15 16 16 17 17 18 18 19 19 20 20 21 21 22 22 23 23
REMARK SMILES IDX 24 24
REMARK H PARENT
REMARK Flexibility Score: inf
ROOT
ATOM      1  C   UNL     1       6.955   1.108  49.883  1.00  0.00     0.000 C 
ENDROOT
BRANCH   1   2
ATOM      2  C   UNL     1       6.175   1.126  48.555  1.00  0.00     0.000 C 
BRANCH   2   3
ATOM      3  C   UNL     1       6.600   2.271  47.626  1.00  0.00     0.000 C 
BRANCH   3   4
ATOM      4  C   UNL     1       5.897   3.582  48.009  1.00  0.00    -0.000 C 
BRANCH   4   5
ATOM      5  C   UNL     1       6.733   4.460  48.956  1.00  0.00    -0.000 C 
BRANCH   5   6
ATOM      6  C   UNL     1       7.113   5.843  48.397  1.00  0.00    -0.000 C 
BRANCH   6   7
ATOM      7  C   UNL     1       7.739   6.765  49.457  1.00  0.00    -0.000 C 
BRANCH   7   8
ATOM      8  C   UNL     1       7.410   8.248  49.217  1.00  0.00    -0.000 C 
BRANCH   8   9
ATOM      9  C   UNL     1       6.707   8.482  47.869  1.00  0.00    -0.000 C 
BRANCH   9  10
ATOM     10  C   UNL     1       5.604   9.553  47.948  1.00  0.00    -0.000 C 
BRANCH  10  11
ATOM     11  C   UNL     1       4.984   9.747  49.343  1.00  0.00    -0.003 C 
ATOM     12  C   UNL     1       3.626   9.063  49.496  1.00  0.00     0.004 C 
ENDBRANCH  10  11
ENDBRANCH   9  10
ENDBRANCH   8   9
ENDBRANCH   7   8
ENDBRANCH   6   7
ENDBRANCH   5   6
ENDBRANCH   4   5
ENDBRANCH   3   4
ENDBRANCH   2   3
ENDBRANCH   1   2
BRANCH   1  13
ATOM     13  C   UNL     1       6.287   0.315  51.022  1.00  0.00     0.000 C 
BRANCH  13  14
ATOM     14  C   UNL     1       6.283   1.079  52.358  1.00  0.00     0.000 C 
BRANCH  14  15
ATOM     15  C   UNL     1       6.227   2.603  52.168  1.00  0.00     0.000 C 
BRANCH  15  16
ATOM     16  C   UNL     1       4.845   3.193  52.504  1.00  0.00     0.000 C 
BRANCH  16  17
ATOM     17  C   UNL     1       4.206   3.926  51.312  1.00  0.00     0.000 C 
BRANCH  17  18
ATOM     18  C   UNL     1       2.876   3.328  50.809  1.00  0.00     0.000 C 
BRANCH  18  19
ATOM     19  C   UNL     1       3.009   2.029  49.993  1.00  0.00     0.000 C 
BRANCH  19  20
ATOM     20  C   UNL     1       2.627   0.777  50.800  1.00  0.00     0.006 C 
BRANCH  20  21
ATOM     21  C   UNL     1       2.350  -0.433  49.898  1.00  0.00     0.053 C 
BRANCH  21  22
ATOM     22  C   UNL     1       0.919  -0.481  49.455  1.00  0.00     0.041 C 
ATOM     23  O   UNL     1       0.589  -0.032  48.327  1.00  0.00    -0.550 OA
ATOM     24  O   UNL     1      -0.053  -0.998  50.300  1.00  0.00    -0.550 OA
ENDBRANCH  21  22
ENDBRANCH  20  21
ENDBRANCH  19  20
ENDBRANCH  18  19
ENDBRANCH  17  18
ENDBRANCH  16  17
ENDBRANCH  15  16
ENDBRANCH  14  15
ENDBRANCH  13  14
ENDBRANCH   1  13
TORSDOF 20
ENDMDL
MODEL 2
REMARK VINA RESULT:    -3.893      3.800      7.312
REMARK INTER + INTRA:         -11.251
REMARK INTER:                  -7.779
REMARK INTRA:                  -3.472
REMARK UNBOUND:                -2.806
REMARK SMILES CCCCCCCCCCCCCCCCCCCCCC(=O)[O-]
REMARK SMILES IDX 12 1 11 2 10 3 9 4 8 5 7 6 6 7 5 8 4 9 3 10 2 11 1 12 13 13
REMARK SMILES IDX 14 14 15 15 16 16 17 17 18 18 19 19 20 20 21 21 22 22 23 23
REMARK SMILES IDX 24 24
REMARK H PARENT
REMARK Flexibility Score: inf
ROOT
ATOM      1  C   UNL     1       5.638   3.878  48.723  1.00  0.00     0.000 C 
ENDROOT
BRANCH   1   2
ATOM      2  C   UNL     1       5.907   2.849  47.610  1.00  0.00     0.000 C 
BRANCH   2   3
ATOM      3  C   UNL     1       6.785   1.679  48.075  1.00  0.00     0.000 C 
BRANCH   3   4
ATOM      4  C   UNL     1       6.096   0.884  49.194  1.00  0.00    -0.000 C 
BRANCH   4   5
ATOM      5  C   UNL     1       6.836   0.976  50.541  1.00  0.00    -0.000 C 
BRANCH   5   6
ATOM      6  C   UNL     1       5.927   1.029  51.782  1.00  0.00    -0.000 C 
BRANCH   6   7
ATOM      7  C   UNL     1       5.900   2.416  52.445  1.00  0.00    -0.000 C 
BRANCH   7   8
ATOM      8  C   UNL     1       4.482   2.844  52.860  1.00  0.00    -0.000 C 
BRANCH   8   9
ATOM      9  C   UNL     1       3.748   3.603  51.741  1.00  0.00    -0.000 C 
BRANCH   9  10
ATOM     10  C   UNL     1       2.518   2.844  51.210  1.00  0.00    -0.000 C 
BRANCH  10  11
ATOM     11  C   UNL     1       2.770   2.005  49.945  1.00  0.00    -0.003 C 
ATOM     12  C   UNL     1       2.314   0.553  50.088  1.00  0.00     0.004 C 
ENDBRANCH  10  11
ENDBRANCH   9  10
ENDBRANCH   8   9
ENDBRANCH   7   8
ENDBRANCH   6   7
ENDBRANCH   5   6
ENDBRANCH   4   5
ENDBRANCH   3   4
ENDBRANCH   2   3
ENDBRANCH   1   2
BRANCH   1  13
ATOM     13  C   UNL     1       6.774   4.891  48.964  1.00  0.00     0.000 C 
BRANCH  13  14
ATOM     14  C   UNL     1       7.200   4.972  50.440  1.00  0.00     0.000 C 
BRANCH  14  15
ATOM     15  C   UNL     1       7.089   6.394  51.010  1.00  0.00     0.000 C 
BRANCH  15  16
ATOM     16  C   UNL     1       5.717   6.673  51.650  1.00  0.00     0.000 C 
BRANCH  16  17
ATOM     17  C   UNL     1       4.745   7.378  50.686  1.00  0.00     0.000 C 
BRANCH  17  18
ATOM     18  C   UNL     1       5.132   8.821  50.301  1.00  0.00     0.000 C 
BRANCH  18  19
ATOM     19  C   UNL     1       5.375   9.055  48.799  1.00  0.00     0.000 C 
BRANCH  19  20
ATOM     20  C   UNL     1       6.848   9.350  48.473  1.00  0.00     0.006 C 
BRANCH  20  21
ATOM     21  C   UNL     1       7.553   8.149  47.828  1.00  0.00     0.053 C 
BRANCH  21  22
ATOM     22  C   UNL     1       9.044   8.293  47.864  1.00  0.00     0.041 C 
ATOM     23  O   UNL     1       9.783   7.327  47.541  1.00  0.00    -0.550 OA
ATOM     24  O   UNL     1       9.617   9.488  48.279  1.00  0.00    -0.550 OA
ENDBRANCH  21  22
ENDBRANCH  20  21
ENDBRANCH  19  20
ENDBRANCH  18  19
ENDBRANCH  17  18
ENDBRANCH  16  17
ENDBRANCH  15  16
ENDBRANCH  14  15
ENDBRANCH  13  14
ENDBRANCH   1  13
TORSDOF 20
ENDMDL
MODEL 3
REMARK VINA RESULT:    -3.892      3.948      6.219
REMARK INTER + INTRA:         -11.248
REMARK INTER:                  -7.632
REMARK INTRA:                  -3.616
REMARK UNBOUND:                -2.806
REMARK SMILES CCCCCCCCCCCCCCCCCCCCCC(=O)[O-]
REMARK SMILES IDX 12 1 11 2 10 3 9 4 8 5 7 6 6 7 5 8 4 9 3 10 2 11 1 12 13 13
REMARK SMILES IDX 14 14 15 15 16 16 17 17 18 18 19 19 20 20 21 21 22 22 23 23
REMARK SMILES IDX 24 24
REMARK H PARENT
REMARK Flexibility Score: inf
ROOT
ATOM      1  C   UNL     1       5.905   3.158  47.853  1.00  0.00     0.000 C 
ENDROOT
BRANCH   1   2
ATOM      2  C   UNL     1       6.695   1.837  47.855  1.00  0.00     0.000 C 
BRANCH   2   3
ATOM      3  C   UNL     1       6.193   0.841  48.910  1.00  0.00     0.000 C 
BRANCH   3   4
ATOM      4  C   UNL     1       7.007   0.957  50.208  1.00  0.00    -0.000 C 
BRANCH   4   5
ATOM      5  C   UNL     1       6.124   1.090  51.462  1.00  0.00    -0.000 C 
BRANCH   5   6
ATOM      6  C   UNL     1       6.474   2.272  52.384  1.00  0.00    -0.000 C 
BRANCH   6   7
ATOM      7  C   UNL     1       7.600   3.157  51.821  1.00  0.00    -0.000 C 
BRANCH   7   8
ATOM      8  C   UNL     1       7.842   4.415  52.671  1.00  0.00    -0.000 C 
BRANCH   8   9
ATOM      9  C   UNL     1       7.399   5.701  51.953  1.00  0.00    -0.000 C 
BRANCH   9  10
ATOM     10  C   UNL     1       7.337   5.542  50.423  1.00  0.00    -0.000 C 
BRANCH  10  11
ATOM     11  C   UNL     1       7.884   6.738  49.623  1.00  0.00    -0.003 C 
ATOM     12  C   UNL     1       7.522   6.682  48.139  1.00  0.00     0.004 C 
ENDBRANCH  10  11
ENDBRANCH   9  10
ENDBRANCH   8   9
ENDBRANCH   7   8
ENDBRANCH   6   7
ENDBRANCH   5   6
ENDBRANCH   4   5
ENDBRANCH   3   4
ENDBRANCH   2   3
ENDBRANCH   1   2
BRANCH   1  13
ATOM     13  C   UNL     1       4.557   3.115  48.598  1.00  0.00     0.000 C 
BRANCH  13  14
ATOM     14  C   UNL     1       4.497   4.095  49.782  1.00  0.00     0.000 C 
BRANCH  14  15
ATOM     15  C   UNL     1       3.439   3.700  50.824  1.00  0.00     0.000 C 
BRANCH  15  16
ATOM     16  C   UNL     1       2.740   4.919  51.453  1.00  0.00     0.000 C 
BRANCH  16  17
ATOM     17  C   UNL     1       3.697   5.788  52.287  1.00  0.00     0.000 C 
BRANCH  17  18
ATOM     18  C   UNL     1       3.998   7.183  51.701  1.00  0.00     0.000 C 
BRANCH  18  19
ATOM     19  C   UNL     1       3.207   7.545  50.431  1.00  0.00     0.000 C 
BRANCH  19  20
ATOM     20  C   UNL     1       3.709   8.837  49.765  1.00  0.00     0.006 C 
BRANCH  20  21
ATOM     21  C   UNL     1       5.216   9.047  49.967  1.00  0.00     0.053 C 
BRANCH  21  22
ATOM     22  C   UNL     1       5.787   9.991  48.953  1.00  0.00     0.041 C 
ATOM     23  O   UNL     1       5.029  10.588  48.144  1.00  0.00    -0.550 OA
ATOM     24  O   UNL     1       7.159  10.192  48.885  1.00  0.00    -0.550 OA
ENDBRANCH  21  22
ENDBRANCH  20  21
ENDBRANCH  19  20
ENDBRANCH  18  19
ENDBRANCH  17  18
ENDBRANCH  16  17
ENDBRANCH  15  16
ENDBRANCH  14  15
ENDBRANCH  13  14
ENDBRANCH   1  13
TORSDOF 20
ENDMDL
MODEL 4
REMARK VINA RESULT:    -3.891      1.325      3.266
REMARK INTER + INTRA:         -11.247
REMARK INTER:                  -7.799
REMARK INTRA:                  -3.448
REMARK UNBOUND:                -2.806
REMARK SMILES CCCCCCCCCCCCCCCCCCCCCC(=O)[O-]
REMARK SMILES IDX 12 1 11 2 10 3 9 4 8 5 7 6 6 7 5 8 4 9 3 10 2 11 1 12 13 13
REMARK SMILES IDX 14 14 15 15 16 16 17 17 18 18 19 19 20 20 21 21 22 22 23 23
REMARK SMILES IDX 24 24
REMARK H PARENT
REMARK Flexibility Score: inf
ROOT
ATOM      1  C   UNL     1       6.741   4.626  48.310  1.00  0.00     0.000 C 
ENDROOT
BRANCH   1   2
ATOM      2  C   UNL     1       6.959   5.061  49.771  1.00  0.00     0.000 C 
BRANCH   2   3
ATOM      3  C   UNL     1       5.745   5.788  50.367  1.00  0.00     0.000 C 
BRANCH   3   4
ATOM      4  C   UNL     1       6.173   6.747  51.487  1.00  0.00    -0.000 C 
BRANCH   4   5
ATOM      5  C   UNL     1       7.527   7.426  51.213  1.00  0.00    -0.000 C 
BRANCH   5   6
ATOM      6  C   UNL     1       7.523   8.961  51.336  1.00  0.00    -0.000 C 
BRANCH   6   7
ATOM      7  C   UNL     1       7.619   9.670  49.974  1.00  0.00    -0.000 C 
BRANCH   7   8
ATOM      8  C   UNL     1       7.367   8.718  48.794  1.00  0.00    -0.000 C 
BRANCH   8   9
ATOM      9  C   UNL     1       6.101   9.088  48.002  1.00  0.00    -0.000 C 
BRANCH   9  10
ATOM     10  C   UNL     1       5.092   9.901  48.832  1.00  0.00    -0.000 C 
BRANCH  10  11
ATOM     11  C   UNL     1       3.992   9.068  49.515  1.00  0.00    -0.003 C 
ATOM     12  C   UNL     1       3.784   9.440  50.983  1.00  0.00     0.004 C 
ENDBRANCH  10  11
ENDBRANCH   9  10
ENDBRANCH   8   9
ENDBRANCH   7   8
ENDBRANCH   6   7
ENDBRANCH   5   6
ENDBRANCH   4   5
ENDBRANCH   3   4
ENDBRANCH   2   3
ENDBRANCH   1   2
BRANCH   1  13
ATOM     13  C   UNL     1       5.804   3.418  48.120  1.00  0.00     0.000 C 
BRANCH  13  14
ATOM     14  C   UNL     1       6.535   2.174  47.586  1.00  0.00     0.000 C 
BRANCH  14  15
ATOM     15  C   UNL     1       6.481   0.991  48.565  1.00  0.00     0.000 C 
BRANCH  15  16
ATOM     16  C   UNL     1       6.910   1.380  49.991  1.00  0.00     0.000 C 
BRANCH  16  17
ATOM     17  C   UNL     1       6.312   0.454  51.065  1.00  0.00     0.000 C 
BRANCH  17  18
ATOM     18  C   UNL     1       5.018   0.966  51.729  1.00  0.00     0.000 C 
BRANCH  18  19
ATOM     19  C   UNL     1       4.754   2.475  51.571  1.00  0.00     0.000 C 
BRANCH  19  20
ATOM     20  C   UNL     1       3.401   2.775  50.904  1.00  0.00     0.006 C 
BRANCH  20  21
ATOM     21  C   UNL     1       3.042   1.743  49.827  1.00  0.00     0.053 C 
BRANCH  21  22
ATOM     22  C   UNL     1       1.755   1.040  50.138  1.00  0.00     0.041 C 
ATOM     23  O   UNL     1       1.148   1.274  51.215  1.00  0.00    -0.550 OA
ATOM     24  O   UNL     1       1.240   0.107  49.248  1.00  0.00    -0.550 OA
ENDBRANCH  21  22
ENDBRANCH  20  21
ENDBRANCH  19  20
ENDBRANCH  18  19
ENDBRANCH  17  18
ENDBRANCH  16  17
ENDBRANCH  15  16
ENDBRANCH  14  15
ENDBRANCH  13  14
ENDBRANCH   1  13
TORSDOF 20
ENDMDL
MODEL 5
REMARK VINA RESULT:    -3.889      3.385      7.120
REMARK INTER + INTRA:         -11.243
REMARK INTER:                  -7.636
REMARK INTRA:                  -3.607
REMARK UNBOUND:                -2.806
REMARK SMILES CCCCCCCCCCCCCCCCCCCCCC(=O)[O-]
REMARK SMILES IDX 12 1 11 2 10 3 9 4 8 5 7 6 6 7 5 8 4 9 3 10 2 11 1 12 13 13
REMARK SMILES IDX 14 14 15 15 16 16 17 17 18 18 19 19 20 20 21 21 22 22 23 23
REMARK SMILES IDX 24 24
REMARK H PARENT
REMARK Flexibility Score: inf
ROOT
ATOM      1  C   UNL     1       6.442   2.114  47.705  1.00  0.00     0.000 C 
ENDROOT
BRANCH   1   2
ATOM      2  C   UNL     1       5.773   3.404  48.212  1.00  0.00     0.000 C 
BRANCH   2   3
ATOM      3  C   UNL     1       4.432   3.146  48.916  1.00  0.00     0.000 C 
BRANCH   3   4
ATOM      4  C   UNL     1       4.206   4.153  50.053  1.00  0.00    -0.000 C 
BRANCH   4   5
ATOM      5  C   UNL     1       2.955   3.841  50.894  1.00  0.00    -0.000 C 
BRANCH   5   6
ATOM      6  C   UNL     1       3.238   3.333  52.319  1.00  0.00    -0.000 C 
BRANCH   6   7
ATOM      7  C   UNL     1       2.425   2.078  52.681  1.00  0.00    -0.000 C 
BRANCH   7   8
ATOM      8  C   UNL     1       1.084   2.008  51.930  1.00  0.00    -0.000 C 
BRANCH   8   9
ATOM      9  C   UNL     1       0.880   0.658  51.221  1.00  0.00    -0.000 C 
BRANCH   9  10
ATOM     10  C   UNL     1       1.695   0.535  49.921  1.00  0.00    -0.000 C 
BRANCH  10  11
ATOM     11  C   UNL     1       3.045  -0.189  50.067  1.00  0.00    -0.003 C 
ATOM     12  C   UNL     1       2.972  -1.673  49.706  1.00  0.00     0.004 C 
ENDBRANCH  10  11
ENDBRANCH   9  10
ENDBRANCH   8   9
ENDBRANCH   7   8
ENDBRANCH   6   7
ENDBRANCH   5   6
ENDBRANCH   4   5
ENDBRANCH   3   4
ENDBRANCH   2   3
ENDBRANCH   1   2
BRANCH   1  13
ATOM     13  C   UNL     1       6.307   0.897  48.639  1.00  0.00     0.000 C 
BRANCH  13  14
ATOM     14  C   UNL     1       7.111   1.050  49.941  1.00  0.00     0.000 C 
BRANCH  14  15
ATOM     15  C   UNL     1       6.246   0.864  51.197  1.00  0.00     0.000 C 
BRANCH  15  16
ATOM     16  C   UNL     1       6.658   1.802  52.347  1.00  0.00     0.000 C 
BRANCH  16  17
ATOM     17  C   UNL     1       7.313   3.101  51.847  1.00  0.00     0.000 C 
BRANCH  17  18
ATOM     18  C   UNL     1       6.922   4.376  52.623  1.00  0.00     0.000 C 
BRANCH  18  19
ATOM     19  C   UNL     1       7.464   5.692  52.038  1.00  0.00     0.000 C 
BRANCH  19  20
ATOM     20  C   UNL     1       7.426   5.720  50.501  1.00  0.00     0.006 C 
BRANCH  20  21
ATOM     21  C   UNL     1       7.275   7.145  49.949  1.00  0.00     0.053 C 
BRANCH  21  22
ATOM     22  C   UNL     1       7.492   7.193  48.467  1.00  0.00     0.041 C 
ATOM     23  O   UNL     1       7.874   6.166  47.848  1.00  0.00    -0.550 OA
ATOM     24  O   UNL     1       7.295   8.380  47.774  1.00  0.00    -0.550 OA
ENDBRANCH  21  22
ENDBRANCH  20  21
ENDBRANCH  19  20
ENDBRANCH  18  19
ENDBRANCH  17  18
ENDBRANCH  16  17
ENDBRANCH  15  16
ENDBRANCH  14  15
ENDBRANCH  13  14
ENDBRANCH   1  13
TORSDOF 20
ENDMDL
MODEL 6
REMARK VINA RESULT:    -3.871      1.166      2.105
REMARK INTER + INTRA:         -11.202
REMARK INTER:                  -8.499
REMARK INTRA:                  -2.702
REMARK UNBOUND:                -2.806
REMARK SMILES CCCCCCCCCCCCCCCCCCCCCC(=O)[O-]
REMARK SMILES IDX 12 1 11 2 10 3 9 4 8 5 7 6 6 7 5 8 4 9 3 10 2 11 1 12 13 13
REMARK SMILES IDX 14 14 15 15 16 16 17 17 18 18 19 19 20 20 21 21 22 22 23 23
REMARK SMILES IDX 24 24
REMARK H PARENT
REMARK Flexibility Score: inf
ROOT
ATOM      1  C   UNL     1       6.390   1.961  47.612  1.00  0.00     0.000 C 
ENDROOT
BRANCH   1   2
ATOM      2  C   UNL     1       5.783   3.356  47.842  1.00  0.00     0.000 C 
BRANCH   2   3
ATOM      3  C   UNL     1       4.943   3.440  49.125  1.00  0.00     0.000 C 
BRANCH   3   4
ATOM      4  C   UNL     1       5.289   4.703  49.927  1.00  0.00    -0.000 C 
BRANCH   4   5
ATOM      5  C   UNL     1       6.805   4.912  50.098  1.00  0.00    -0.000 C 
BRANCH   5   6
ATOM      6  C   UNL     1       7.321   6.303  49.686  1.00  0.00    -0.000 C 
BRANCH   6   7
ATOM      7  C   UNL     1       7.620   6.409  48.181  1.00  0.00    -0.000 C 
BRANCH   7   8
ATOM      8  C   UNL     1       8.134   7.801  47.778  1.00  0.00    -0.000 C 
BRANCH   8   9
ATOM      9  C   UNL     1       7.370   8.935  48.484  1.00  0.00    -0.000 C 
BRANCH   9  10
ATOM     10  C   UNL     1       5.964   9.162  47.900  1.00  0.00    -0.000 C 
BRANCH  10  11
ATOM     11  C   UNL     1       5.253  10.434  48.397  1.00  0.00    -0.003 C 
ATOM     12  C   UNL     1       6.200  11.622  48.567  1.00  0.00     0.004 C 
ENDBRANCH  10  11
ENDBRANCH   9  10
ENDBRANCH   8   9
ENDBRANCH   7   8
ENDBRANCH   6   7
ENDBRANCH   5   6
ENDBRANCH   4   5
ENDBRANCH   3   4
ENDBRANCH   2   3
ENDBRANCH   1   2
BRANCH   1  13
ATOM     13  C   UNL     1       6.925   1.264  48.878  1.00  0.00     0.000 C 
BRANCH  13  14
ATOM     14  C   UNL     1       5.977   0.173  49.404  1.00  0.00     0.000 C 
BRANCH  14  15
ATOM     15  C   UNL     1       6.000   0.058  50.936  1.00  0.00     0.000 C 
BRANCH  15  16
ATOM     16  C   UNL     1       6.643   1.281  51.614  1.00  0.00     0.000 C 
BRANCH  16  17
ATOM     17  C   UNL     1       5.674   2.014  52.559  1.00  0.00     0.000 C 
BRANCH  17  18
ATOM     18  C   UNL     1       4.228   1.478  52.564  1.00  0.00     0.000 C 
BRANCH  18  19
ATOM     19  C   UNL     1       3.158   2.474  52.083  1.00  0.00     0.000 C 
BRANCH  19  20
ATOM     20  C   UNL     1       1.896   1.779  51.545  1.00  0.00     0.006 C 
BRANCH  20  21
ATOM     21  C   UNL     1       2.165   1.018  50.240  1.00  0.00     0.053 C 
BRANCH  21  22
ATOM     22  C   UNL     1       1.115  -0.018  49.974  1.00  0.00     0.041 C 
ATOM     23  O   UNL     1       1.027  -0.557  48.840  1.00  0.00    -0.550 OA
ATOM     24  O   UNL     1       0.216  -0.369  50.972  1.00  0.00    -0.550 OA
ENDBRANCH  21  22
ENDBRANCH  20  21
ENDBRANCH  19  20
ENDBRANCH  18  19
ENDBRANCH  17  18
ENDBRANCH  16  17
ENDBRANCH  15  16
ENDBRANCH  14  15
ENDBRANCH  13  14
ENDBRANCH   1  13
TORSDOF 20
ENDMDL
MODEL 7
REMARK VINA RESULT:    -3.861      1.281      2.746
REMARK INTER + INTRA:         -11.181
REMARK INTER:                  -7.723
REMARK INTRA:                  -3.458
REMARK UNBOUND:                -2.806
REMARK SMILES CCCCCCCCCCCCCCCCCCCCCC(=O)[O-]
REMARK SMILES IDX 12 1 11 2 10 3 9 4 8 5 7 6 6 7 5 8 4 9 3 10 2 11 1 12 13 13
REMARK SMILES IDX 14 14 15 15 16 16 17 17 18 18 19 19 20 20 21 21 22 22 23 23
REMARK SMILES IDX 24 24
REMARK H PARENT
REMARK Flexibility Score: inf
ROOT
ATOM      1  C   UNL     1       5.782   3.130  47.822  1.00  0.00     0.000 C 
ENDROOT
BRANCH   1   2
ATOM      2  C   UNL     1       6.074   4.261  48.826  1.00  0.00     0.000 C 
BRANCH   2   3
ATOM      3  C   UNL     1       7.085   5.287  48.294  1.00  0.00     0.000 C 
BRANCH   3   4
ATOM      4  C   UNL     1       7.622   6.169  49.431  1.00  0.00    -0.000 C 
BRANCH   4   5
ATOM      5  C   UNL     1       7.241   5.649  50.829  1.00  0.00    -0.000 C 
BRANCH   5   6
ATOM      6  C   UNL     1       6.438   6.636  51.694  1.00  0.00    -0.000 C 
BRANCH   6   7
ATOM      7  C   UNL     1       4.958   6.240  51.837  1.00  0.00    -0.000 C 
BRANCH   7   8
ATOM      8  C   UNL     1       4.096   6.751  50.671  1.00  0.00    -0.000 C 
BRANCH   8   9
ATOM      9  C   UNL     1       3.594   8.187  50.898  1.00  0.00    -0.000 C 
BRANCH   9  10
ATOM     10  C   UNL     1       3.816   9.098  49.677  1.00  0.00    -0.000 C 
BRANCH  10  11
ATOM     11  C   UNL     1       5.211   8.996  49.035  1.00  0.00    -0.003 C 
ATOM     12  C   UNL     1       5.483  10.100  48.014  1.00  0.00     0.004 C 
ENDBRANCH  10  11
ENDBRANCH   9  10
ENDBRANCH   8   9
ENDBRANCH   7   8
ENDBRANCH   6   7
ENDBRANCH   5   6
ENDBRANCH   4   5
ENDBRANCH   3   4
ENDBRANCH   2   3
ENDBRANCH   1   2
BRANCH   1  13
ATOM     13  C   UNL     1       6.721   1.914  47.918  1.00  0.00     0.000 C 
BRANCH  13  14
ATOM     14  C   UNL     1       6.281   0.902  48.990  1.00  0.00     0.000 C 
BRANCH  14  15
ATOM     15  C   UNL     1       6.971   1.137  50.343  1.00  0.00     0.000 C 
BRANCH  15  16
ATOM     16  C   UNL     1       5.988   1.087  51.527  1.00  0.00     0.000 C 
BRANCH  16  17
ATOM     17  C   UNL     1       5.449   2.477  51.910  1.00  0.00     0.000 C 
BRANCH  17  18
ATOM     18  C   UNL     1       3.912   2.595  51.960  1.00  0.00     0.000 C 
BRANCH  18  19
ATOM     19  C   UNL     1       3.246   3.035  50.644  1.00  0.00     0.000 C 
BRANCH  19  20
ATOM     20  C   UNL     1       2.826   1.847  49.762  1.00  0.00     0.006 C 
BRANCH  20  21
ATOM     21  C   UNL     1       2.235   0.694  50.585  1.00  0.00     0.053 C 
BRANCH  21  22
ATOM     22  C   UNL     1       1.771  -0.432  49.710  1.00  0.00     0.041 C 
ATOM     23  O   UNL     1       2.284  -1.575  49.823  1.00  0.00    -0.550 OA
ATOM     24  O   UNL     1       0.789  -0.210  48.754  1.00  0.00    -0.550 OA
ENDBRANCH  21  22
ENDBRANCH  20  21
ENDBRANCH  19  20
ENDBRANCH  18  19
ENDBRANCH  17  18
ENDBRANCH  16  17
ENDBRANCH  15  16
ENDBRANCH  14  15
ENDBRANCH  13  14
ENDBRANCH   1  13
TORSDOF 20
ENDMDL
MODEL 8
REMARK VINA RESULT:    -3.820      3.604      7.219
REMARK INTER + INTRA:         -11.093
REMARK INTER:                  -7.588
REMARK INTRA:                  -3.505
REMARK UNBOUND:                -2.806
REMARK SMILES CCCCCCCCCCCCCCCCCCCCCC(=O)[O-]
REMARK SMILES IDX 12 1 11 2 10 3 9 4 8 5 7 6 6 7 5 8 4 9 3 10 2 11 1 12 13 13
REMARK SMILES IDX 14 14 15 15 16 16 17 17 18 18 19 19 20 20 21 21 22 22 23 23
REMARK SMILES IDX 24 24
REMARK H PARENT
REMARK Flexibility Score: inf
ROOT
ATOM      1  C   UNL     1       6.974   1.251  48.484  1.00  0.00     0.000 C 
ENDROOT
BRANCH   1   2
ATOM      2  C   UNL     1       5.835   0.430  49.116  1.00  0.00     0.000 C 
BRANCH   2   3
ATOM      3  C   UNL     1       6.022   0.208  50.624  1.00  0.00     0.000 C 
BRANCH   3   4
ATOM      4  C   UNL     1       6.745   1.399  51.270  1.00  0.00    -0.000 C 
BRANCH   4   5
ATOM      5  C   UNL     1       6.123   1.826  52.612  1.00  0.00    -0.000 C 
BRANCH   5   6
ATOM      6  C   UNL     1       5.877   3.338  52.765  1.00  0.00    -0.000 C 
BRANCH   6   7
ATOM      7  C   UNL     1       4.387   3.691  52.903  1.00  0.00    -0.000 C 
BRANCH   7   8
ATOM      8  C   UNL     1       3.465   2.575  52.384  1.00  0.00    -0.000 C 
BRANCH   8   9
ATOM      9  C   UNL     1       2.738   2.971  51.088  1.00  0.00    -0.000 C 
BRANCH   9  10
ATOM     10  C   UNL     1       2.582   1.796  50.106  1.00  0.00    -0.000 C 
BRANCH  10  11
ATOM     11  C   UNL     1       2.332   0.428  50.766  1.00  0.00    -0.003 C 
ATOM     12  C   UNL     1       1.135  -0.314  50.172  1.00  0.00     0.004 C 
ENDBRANCH  10  11
ENDBRANCH   9  10
ENDBRANCH   8   9
ENDBRANCH   7   8
ENDBRANCH   6   7
ENDBRANCH   5   6
ENDBRANCH   4   5
ENDBRANCH   3   4
ENDBRANCH   2   3
ENDBRANCH   1   2
BRANCH   1  13
ATOM     13  C   UNL     1       6.519   2.404  47.571  1.00  0.00     0.000 C 
BRANCH  13  14
ATOM     14  C   UNL     1       5.263   3.122  48.096  1.00  0.00     0.000 C 
BRANCH  14  15
ATOM     15  C   UNL     1       5.573   4.090  49.248  1.00  0.00     0.000 C 
BRANCH  15  16
ATOM     16  C   UNL     1       6.762   5.019  48.939  1.00  0.00     0.000 C 
BRANCH  16  17
ATOM     17  C   UNL     1       7.362   5.656  50.205  1.00  0.00     0.000 C 
BRANCH  17  18
ATOM     18  C   UNL     1       6.401   6.556  51.007  1.00  0.00     0.000 C 
BRANCH  18  19
ATOM     19  C   UNL     1       5.401   7.366  50.160  1.00  0.00     0.000 C 
BRANCH  19  20
ATOM     20  C   UNL     1       5.952   8.739  49.741  1.00  0.00     0.006 C 
BRANCH  20  21
ATOM     21  C   UNL     1       6.388   8.766  48.270  1.00  0.00     0.053 C 
BRANCH  21  22
ATOM     22  C   UNL     1       7.869   8.590  48.125  1.00  0.00     0.041 C 
ATOM     23  O   UNL     1       8.341   7.972  47.135  1.00  0.00    -0.550 OA
ATOM     24  O   UNL     1       8.726   9.087  49.097  1.00  0.00    -0.550 OA
ENDBRANCH  21  22
ENDBRANCH  20  21
ENDBRANCH  19  20
ENDBRANCH  18  19
ENDBRANCH  17  18
ENDBRANCH  16  17
ENDBRANCH  15  16
ENDBRANCH  14  15
ENDBRANCH  13  14
ENDBRANCH   1  13
TORSDOF 20
ENDMDL
MODEL 9
REMARK VINA RESULT:    -3.820      3.012      7.196
REMARK INTER + INTRA:         -11.093
REMARK INTER:                  -7.851
REMARK INTRA:                  -3.241
REMARK UNBOUND:                -2.806
REMARK SMILES CCCCCCCCCCCCCCCCCCCCCC(=O)[O-]
REMARK SMILES IDX 12 1 11 2 10 3 9 4 8 5 7 6 6 7 5 8 4 9 3 10 2 11 1 12 13 13
REMARK SMILES IDX 14 14 15 15 16 16 17 17 18 18 19 19 20 20 21 21 22 22 23 23
REMARK SMILES IDX 24 24
REMARK H PARENT
REMARK Flexibility Score: inf
ROOT
ATOM      1  C   UNL     1       6.055   0.746  48.683  1.00  0.00     0.000 C 
ENDROOT
BRANCH   1   2
ATOM      2  C   UNL     1       6.402   0.502  50.163  1.00  0.00     0.000 C 
BRANCH   2   3
ATOM      3  C   UNL     1       7.068   1.715  50.830  1.00  0.00     0.000 C 
BRANCH   3   4
ATOM      4  C   UNL     1       6.435   2.008  52.198  1.00  0.00    -0.000 C 
BRANCH   4   5
ATOM      5  C   UNL     1       6.276   3.513  52.478  1.00  0.00    -0.000 C 
BRANCH   5   6
ATOM      6  C   UNL     1       4.856   4.069  52.267  1.00  0.00    -0.000 C 
BRANCH   6   7
ATOM      7  C   UNL     1       3.786   2.966  52.197  1.00  0.00    -0.000 C 
BRANCH   7   8
ATOM      8  C   UNL     1       2.772   3.200  51.065  1.00  0.00    -0.000 C 
BRANCH   8   9
ATOM      9  C   UNL     1       2.952   2.208  49.903  1.00  0.00    -0.000 C 
BRANCH   9  10
ATOM     10  C   UNL     1       2.645   0.754  50.304  1.00  0.00    -0.000 C 
BRANCH  10  11
ATOM     11  C   UNL     1       1.148   0.407  50.392  1.00  0.00    -0.003 C 
ATOM     12  C   UNL     1       0.729  -0.694  49.419  1.00  0.00     0.004 C 
ENDBRANCH  10  11
ENDBRANCH   9  10
ENDBRANCH   8   9
ENDBRANCH   7   8
ENDBRANCH   6   7
ENDBRANCH   5   6
ENDBRANCH   4   5
ENDBRANCH   3   4
ENDBRANCH   2   3
ENDBRANCH   1   2
BRANCH   1  13
ATOM     13  C   UNL     1       6.750   1.961  48.040  1.00  0.00     0.000 C 
BRANCH  13  14
ATOM     14  C   UNL     1       5.767   3.083  47.666  1.00  0.00     0.000 C 
BRANCH  14  15
ATOM     15  C   UNL     1       5.724   4.206  48.714  1.00  0.00     0.000 C 
BRANCH  15  16
ATOM     16  C   UNL     1       7.068   4.945  48.848  1.00  0.00     0.000 C 
BRANCH  16  17
ATOM     17  C   UNL     1       7.028   6.064  49.903  1.00  0.00     0.000 C 
BRANCH  17  18
ATOM     18  C   UNL     1       7.752   7.367  49.508  1.00  0.00     0.000 C 
BRANCH  18  19
ATOM     19  C   UNL     1       7.536   7.820  48.052  1.00  0.00     0.000 C 
BRANCH  19  20
ATOM     20  C   UNL     1       6.327   8.757  47.893  1.00  0.00     0.006 C 
BRANCH  20  21
ATOM     21  C   UNL     1       6.012   9.523  49.186  1.00  0.00     0.053 C 
BRANCH  21  22
ATOM     22  C   UNL     1       4.585   9.339  49.607  1.00  0.00     0.041 C 
ATOM     23  O   UNL     1       4.213   8.255  50.129  1.00  0.00    -0.550 OA
ATOM     24  O   UNL     1       3.662  10.355  49.401  1.00  0.00    -0.550 OA
ENDBRANCH  21  22
ENDBRANCH  20  21
ENDBRANCH  19  20
ENDBRANCH  18  19
ENDBRANCH  17  18
ENDBRANCH  16  17
ENDBRANCH  15  16
ENDBRANCH  14  15
ENDBRANCH  13  14
ENDBRANCH   1  13
TORSDOF 20
ENDMDL
