MODEL 1
REMARK VINA RESULT:    -3.014      0.000      0.000
REMARK INTER + INTRA:          -9.087
REMARK INTER:                  -5.833
REMARK INTRA:                  -3.255
REMARK UNBOUND:                -3.255
REMARK SMILES CCCCCCCCCCCCCCCCCC(=O)[O-]
REMARK SMILES IDX 10 1 11 2 12 3 13 4 14 5 15 6 16 7 17 8 18 9 19 10 20 11
REMARK SMILES IDX 9 12 8 13 7 14 6 15 5 16 4 17 3 18 2 19 1 20
REMARK H PARENT
REMARK Flexibility Score: inf
ROOT
ATOM      1  C   UNL     1      43.690  27.687  88.730  1.00  0.00     0.000 C 
ENDROOT
BRANCH   1   2
ATOM      2  C   UNL     1      43.778  27.834  90.260  1.00  0.00     0.000 C 
BRANCH   2   3
ATOM      3  C   UNL     1      42.521  28.416  90.932  1.00  0.00     0.000 C 
BRANCH   3   4
ATOM      4  C   UNL     1      42.719  29.855  91.431  1.00  0.00     0.000 C 
BRANCH   4   5
ATOM      5  C   UNL     1      44.134  30.047  91.997  1.00  0.00     0.000 C 
BRANCH   5   6
ATOM      6  C   UNL     1      44.759  31.389  91.587  1.00  0.00     0.000 C 
BRANCH   6   7
ATOM      7  C   UNL     1      45.691  31.260  90.370  1.00  0.00     0.006 C 
BRANCH   7   8
ATOM      8  C   UNL     1      46.714  30.130  90.541  1.00  0.00     0.053 C 
BRANCH   8   9
ATOM      9  C   UNL     1      47.816  30.220  89.530  1.00  0.00     0.041 C 
ATOM     10  O   UNL     1      47.846  29.424  88.553  1.00  0.00    -0.550 OA
ATOM     11  O   UNL     1      48.827  31.160  89.684  1.00  0.00    -0.550 OA
ENDBRANCH   8   9
ENDBRANCH   7   8
ENDBRANCH   6   7
ENDBRANCH   5   6
ENDBRANCH   4   5
ENDBRANCH   3   4
ENDBRANCH   2   3
ENDBRANCH   1   2
BRANCH   1  12
ATOM     12  C   UNL     1      44.332  28.861  87.977  1.00  0.00     0.000 C 
BRANCH  12  13
ATOM     13  C   UNL     1      43.284  29.634  87.168  1.00  0.00    -0.000 C 
BRANCH  13  14
ATOM     14  C   UNL     1      42.839  30.902  87.914  1.00  0.00    -0.000 C 
BRANCH  14  15
ATOM     15  C   UNL     1      41.340  31.207  87.740  1.00  0.00    -0.000 C 
BRANCH  15  16
ATOM     16  C   UNL     1      40.392  30.435  88.684  1.00  0.00    -0.000 C 
BRANCH  16  17
ATOM     17  C   UNL     1      39.457  29.424  87.991  1.00  0.00    -0.000 C 
BRANCH  17  18
ATOM     18  C   UNL     1      39.790  27.948  88.305  1.00  0.00    -0.000 C 
BRANCH  18  19
ATOM     19  C   UNL     1      40.434  27.199  87.126  1.00  0.00    -0.003 C 
ATOM     20  C   UNL     1      40.206  27.895  85.785  1.00  0.00     0.004 C 
ENDBRANCH  18  19
ENDBRANCH  17  18
ENDBRANCH  16  17
ENDBRANCH  15  16
ENDBRANCH  14  15
ENDBRANCH  13  14
ENDBRANCH  12  13
ENDBRANCH   1  12
TORSDOF 16
ENDMDL
MODEL 2
REMARK VINA RESULT:    -2.962      2.926      6.675
REMARK INTER + INTRA:          -8.987
REMARK INTER:                  -6.359
REMARK INTRA:                  -2.627
REMARK UNBOUND:                -3.255
REMARK SMILES CCCCCCCCCCCCCCCCCC(=O)[O-]
REMARK SMILES IDX 10 1 11 2 12 3 13 4 14 5 15 6 16 7 17 8 18 9 19 10 20 11
REMARK SMILES IDX 9 12 8 13 7 14 6 15 5 16 4 17 3 18 2 19 1 20
REMARK H PARENT
REMARK Flexibility Score: inf
ROOT
ATOM      1  C   UNL     1      42.414  28.140  90.619  1.00  0.00     0.000 C 
ENDROOT
BRANCH   1   2
ATOM      2  C   UNL     1      43.595  27.618  89.781  1.00  0.00     0.000 C 
BRANCH   2   3
ATOM      3  C   UNL     1      43.450  27.810  88.261  1.00  0.00     0.000 C 
BRANCH   3   4
ATOM      4  C   UNL     1      44.135  29.086  87.749  1.00  0.00     0.000 C 
BRANCH   4   5
ATOM      5  C   UNL     1      43.135  29.978  86.998  1.00  0.00     0.000 C 
BRANCH   5   6
ATOM      6  C   UNL     1      42.502  31.049  87.900  1.00  0.00     0.000 C 
BRANCH   6   7
ATOM      7  C   UNL     1      41.000  31.239  87.628  1.00  0.00     0.006 C 
BRANCH   7   8
ATOM      8  C   UNL     1      40.129  30.466  88.627  1.00  0.00     0.053 C 
BRANCH   8   9
ATOM      9  C   UNL     1      39.485  29.271  87.994  1.00  0.00     0.041 C 
ATOM     10  O   UNL     1      40.117  28.185  87.900  1.00  0.00    -0.550 OA
ATOM     11  O   UNL     1      38.198  29.365  87.479  1.00  0.00    -0.550 OA
ENDBRANCH   8   9
ENDBRANCH   7   8
ENDBRANCH   6   7
ENDBRANCH   5   6
ENDBRANCH   4   5
ENDBRANCH   3   4
ENDBRANCH   2   3
ENDBRANCH   1   2
BRANCH   1  12
ATOM     12  C   UNL     1      42.648  29.554  91.170  1.00  0.00     0.000 C 
BRANCH  12  13
ATOM     13  C   UNL     1      43.585  29.525  92.382  1.00  0.00    -0.000 C 
BRANCH  13  14
ATOM     14  C   UNL     1      44.623  30.654  92.302  1.00  0.00    -0.000 C 
BRANCH  14  15
ATOM     15  C   UNL     1      44.775  31.233  90.884  1.00  0.00    -0.000 C 
BRANCH  15  16
ATOM     16  C   UNL     1      46.172  31.070  90.246  1.00  0.00    -0.000 C 
BRANCH  16  17
ATOM     17  C   UNL     1      46.719  29.628  90.224  1.00  0.00    -0.000 C 
BRANCH  17  18
ATOM     18  C   UNL     1      48.256  29.540  90.364  1.00  0.00    -0.000 C 
BRANCH  18  19
ATOM     19  C   UNL     1      48.950  30.911  90.387  1.00  0.00    -0.003 C 
ATOM     20  C   UNL     1      50.401  30.851  89.915  1.00  0.00     0.004 C 
ENDBRANCH  18  19
ENDBRANCH  17  18
ENDBRANCH  16  17
ENDBRANCH  15  16
ENDBRANCH  14  15
ENDBRANCH  13  14
ENDBRANCH  12  13
ENDBRANCH   1  12
TORSDOF 16
ENDMDL
MODEL 3
REMARK VINA RESULT:    -2.942      2.959      6.157
REMARK INTER + INTRA:          -8.949
REMARK INTER:                  -5.965
REMARK INTRA:                  -2.985
REMARK UNBOUND:                -3.255
REMARK SMILES CCCCCCCCCCCCCCCCCC(=O)[O-]
REMARK SMILES IDX 10 1 11 2 12 3 13 4 14 5 15 6 16 7 17 8 18 9 19 10 20 11
REMARK SMILES IDX 9 12 8 13 7 14 6 15 5 16 4 17 3 18 2 19 1 20
REMARK H PARENT
REMARK Flexibility Score: inf
ROOT
ATOM      1  C   UNL     1      44.817  27.671  89.230  1.00  0.00     0.000 C 
ENDROOT
BRANCH   1   2
ATOM      2  C   UNL     1      45.524  28.441  88.100  1.00  0.00     0.000 C 
BRANCH   2   3
ATOM      3  C   UNL     1      44.611  29.361  87.269  1.00  0.00     0.000 C 
BRANCH   3   4
ATOM      4  C   UNL     1      43.183  29.452  87.827  1.00  0.00     0.000 C 
BRANCH   4   5
ATOM      5  C   UNL     1      42.706  30.911  87.873  1.00  0.00     0.000 C 
BRANCH   5   6
ATOM      6  C   UNL     1      41.176  31.034  87.922  1.00  0.00     0.000 C 
BRANCH   6   7
ATOM      7  C   UNL     1      40.515  29.885  88.702  1.00  0.00     0.006 C 
BRANCH   7   8
ATOM      8  C   UNL     1      39.343  29.261  87.933  1.00  0.00     0.053 C 
BRANCH   8   9
ATOM      9  C   UNL     1      39.778  28.081  87.119  1.00  0.00     0.041 C 
ATOM     10  O   UNL     1      39.659  26.914  87.580  1.00  0.00    -0.550 OA
ATOM     11  O   UNL     1      40.345  28.271  85.865  1.00  0.00    -0.550 OA
ENDBRANCH   8   9
ENDBRANCH   7   8
ENDBRANCH   6   7
ENDBRANCH   5   6
ENDBRANCH   4   5
ENDBRANCH   3   4
ENDBRANCH   2   3
ENDBRANCH   1   2
BRANCH   1  12
ATOM     12  C   UNL     1      45.599  27.694  90.551  1.00  0.00     0.000 C 
BRANCH  12  13
ATOM     13  C   UNL     1      44.658  27.892  91.745  1.00  0.00    -0.000 C 
BRANCH  13  14
ATOM     14  C   UNL     1      43.265  28.339  91.278  1.00  0.00    -0.000 C 
BRANCH  14  15
ATOM     15  C   UNL     1      42.987  29.828  91.555  1.00  0.00    -0.000 C 
BRANCH  15  16
ATOM     16  C   UNL     1      44.006  30.534  92.476  1.00  0.00    -0.000 C 
BRANCH  16  17
ATOM     17  C   UNL     1      44.803  31.678  91.818  1.00  0.00    -0.000 C 
BRANCH  17  18
ATOM     18  C   UNL     1      45.215  31.393  90.356  1.00  0.00    -0.000 C 
BRANCH  18  19
ATOM     19  C   UNL     1      46.736  31.315  90.151  1.00  0.00    -0.003 C 
ATOM     20  C   UNL     1      47.179  31.833  88.784  1.00  0.00     0.004 C 
ENDBRANCH  18  19
ENDBRANCH  17  18
ENDBRANCH  16  17
ENDBRANCH  15  16
ENDBRANCH  14  15
ENDBRANCH  13  14
ENDBRANCH  12  13
ENDBRANCH   1  12
TORSDOF 16
ENDMDL
MODEL 4
REMARK VINA RESULT:    -2.925      2.252      3.767
REMARK INTER + INTRA:          -8.916
REMARK INTER:                  -6.265
REMARK INTRA:                  -2.650
REMARK UNBOUND:                -3.255
REMARK SMILES CCCCCCCCCCCCCCCCCC(=O)[O-]
REMARK SMILES IDX 10 1 11 2 12 3 13 4 14 5 15 6 16 7 17 8 18 9 19 10 20 11
REMARK SMILES IDX 9 12 8 13 7 14 6 15 5 16 4 17 3 18 2 19 1 20
REMARK H PARENT
REMARK Flexibility Score: inf
ROOT
ATOM      1  C   UNL     1      41.386  31.107  87.416  1.00  0.00     0.000 C 
ENDROOT
BRANCH   1   2
ATOM      2  C   UNL     1      42.681  31.300  88.225  1.00  0.00     0.000 C 
BRANCH   2   3
ATOM      3  C   UNL     1      43.773  30.246  87.966  1.00  0.00     0.000 C 
BRANCH   3   4
ATOM      4  C   UNL     1      44.871  30.244  89.039  1.00  0.00     0.000 C 
BRANCH   4   5
ATOM      5  C   UNL     1      44.602  31.322  90.099  1.00  0.00     0.000 C 
BRANCH   5   6
ATOM      6  C   UNL     1      44.586  30.757  91.528  1.00  0.00     0.000 C 
BRANCH   6   7
ATOM      7  C   UNL     1      43.405  29.803  91.774  1.00  0.00     0.006 C 
BRANCH   7   8
ATOM      8  C   UNL     1      43.776  28.654  92.722  1.00  0.00     0.053 C 
BRANCH   8   9
ATOM      9  C   UNL     1      44.517  27.564  92.010  1.00  0.00     0.041 C 
ATOM     10  O   UNL     1      44.212  27.258  90.826  1.00  0.00    -0.550 OA
ATOM     11  O   UNL     1      45.523  26.864  92.665  1.00  0.00    -0.550 OA
ENDBRANCH   8   9
ENDBRANCH   7   8
ENDBRANCH   6   7
ENDBRANCH   5   6
ENDBRANCH   4   5
ENDBRANCH   3   4
ENDBRANCH   2   3
ENDBRANCH   1   2
BRANCH   1  12
ATOM     12  C   UNL     1      40.167  30.800  88.297  1.00  0.00     0.000 C 
BRANCH  12  13
ATOM     13  C   UNL     1      40.589  30.102  89.596  1.00  0.00    -0.000 C 
BRANCH  13  14
ATOM     14  C   UNL     1      40.189  28.619  89.579  1.00  0.00    -0.000 C 
BRANCH  14  15
ATOM     15  C   UNL     1      41.238  27.721  88.899  1.00  0.00    -0.000 C 
BRANCH  15  16
ATOM     16  C   UNL     1      40.743  26.941  87.662  1.00  0.00    -0.000 C 
BRANCH  16  17
ATOM     17  C   UNL     1      40.519  27.792  86.396  1.00  0.00    -0.000 C 
BRANCH  17  18
ATOM     18  C   UNL     1      39.091  27.684  85.814  1.00  0.00    -0.000 C 
BRANCH  18  19
ATOM     19  C   UNL     1      37.993  27.626  86.889  1.00  0.00    -0.003 C 
ATOM     20  C   UNL     1      37.194  28.924  86.993  1.00  0.00     0.004 C 
ENDBRANCH  18  19
ENDBRANCH  17  18
ENDBRANCH  16  17
ENDBRANCH  15  16
ENDBRANCH  14  15
ENDBRANCH  13  14
ENDBRANCH  12  13
ENDBRANCH   1  12
TORSDOF 16
ENDMDL
MODEL 5
REMARK VINA RESULT:    -2.905      3.466      7.085
REMARK INTER + INTRA:          -8.877
REMARK INTER:                  -6.587
REMARK INTRA:                  -2.290
REMARK UNBOUND:                -3.255
REMARK SMILES CCCCCCCCCCCCCCCCCC(=O)[O-]
REMARK SMILES IDX 10 1 11 2 12 3 13 4 14 5 15 6 16 7 17 8 18 9 19 10 20 11
REMARK SMILES IDX 9 12 8 13 7 14 6 15 5 16 4 17 3 18 2 19 1 20
REMARK H PARENT
REMARK Flexibility Score: inf
ROOT
ATOM      1  C   UNL     1      45.059  28.288  89.967  1.00  0.00     0.000 C 
ENDROOT
BRANCH   1   2
ATOM      2  C   UNL     1      43.720  28.861  89.470  1.00  0.00     0.000 C 
BRANCH   2   3
ATOM      3  C   UNL     1      43.439  30.316  89.887  1.00  0.00     0.000 C 
BRANCH   3   4
ATOM      4  C   UNL     1      43.271  31.263  88.689  1.00  0.00     0.000 C 
BRANCH   4   5
ATOM      5  C   UNL     1      42.380  30.627  87.612  1.00  0.00     0.000 C 
BRANCH   5   6
ATOM      6  C   UNL     1      40.989  31.274  87.535  1.00  0.00     0.000 C 
BRANCH   6   7
ATOM      7  C   UNL     1      40.034  30.753  88.622  1.00  0.00     0.006 C 
BRANCH   7   8
ATOM      8  C   UNL     1      39.916  29.223  88.605  1.00  0.00     0.053 C 
BRANCH   8   9
ATOM      9  C   UNL     1      39.131  28.740  87.424  1.00  0.00     0.041 C 
ATOM     10  O   UNL     1      37.876  28.855  87.406  1.00  0.00    -0.550 OA
ATOM     11  O   UNL     1      39.782  28.132  86.358  1.00  0.00    -0.550 OA
ENDBRANCH   8   9
ENDBRANCH   7   8
ENDBRANCH   6   7
ENDBRANCH   5   6
ENDBRANCH   4   5
ENDBRANCH   3   4
ENDBRANCH   2   3
ENDBRANCH   1   2
BRANCH   1  12
ATOM     12  C   UNL     1      45.760  29.198  90.985  1.00  0.00     0.000 C 
BRANCH  12  13
ATOM     13  C   UNL     1      47.043  29.797  90.397  1.00  0.00    -0.000 C 
BRANCH  13  14
ATOM     14  C   UNL     1      46.988  31.332  90.404  1.00  0.00    -0.000 C 
BRANCH  14  15
ATOM     15  C   UNL     1      46.765  31.932  89.004  1.00  0.00    -0.000 C 
BRANCH  15  16
ATOM     16  C   UNL     1      46.807  30.924  87.834  1.00  0.00    -0.000 C 
BRANCH  16  17
ATOM     17  C   UNL     1      47.881  31.205  86.764  1.00  0.00    -0.000 C 
BRANCH  17  18
ATOM     18  C   UNL     1      48.677  32.508  87.003  1.00  0.00    -0.000 C 
BRANCH  18  19
ATOM     19  C   UNL     1      50.179  32.276  87.232  1.00  0.00    -0.003 C 
ATOM     20  C   UNL     1      50.484  31.658  88.595  1.00  0.00     0.004 C 
ENDBRANCH  18  19
ENDBRANCH  17  18
ENDBRANCH  16  17
ENDBRANCH  15  16
ENDBRANCH  14  15
ENDBRANCH  13  14
ENDBRANCH  12  13
ENDBRANCH   1  12
TORSDOF 16
ENDMDL
MODEL 6
REMARK VINA RESULT:    -2.905      3.434      5.904
REMARK INTER + INTRA:          -8.877
REMARK INTER:                  -7.021
REMARK INTRA:                  -1.856
REMARK UNBOUND:                -3.255
REMARK SMILES CCCCCCCCCCCCCCCCCC(=O)[O-]
REMARK SMILES IDX 10 1 11 2 12 3 13 4 14 5 15 6 16 7 17 8 18 9 19 10 20 11
REMARK SMILES IDX 9 12 8 13 7 14 6 15 5 16 4 17 3 18 2 19 1 20
REMARK H PARENT
REMARK Flexibility Score: inf
ROOT
ATOM      1  C   UNL     1      48.898  29.545  90.414  1.00  0.00     0.000 C 
ENDROOT
BRANCH   1   2
ATOM      2  C   UNL     1      49.737  30.815  90.182  1.00  0.00     0.000 C 
BRANCH   2   3
ATOM      3  C   UNL     1      50.982  30.620  89.298  1.00  0.00     0.000 C 
BRANCH   3   4
ATOM      4  C   UNL     1      50.914  31.409  87.982  1.00  0.00     0.000 C 
BRANCH   4   5
ATOM      5  C   UNL     1      49.527  31.274  87.336  1.00  0.00     0.000 C 
BRANCH   5   6
ATOM      6  C   UNL     1      49.227  32.402  86.337  1.00  0.00     0.000 C 
BRANCH   6   7
ATOM      7  C   UNL     1      48.721  33.682  87.025  1.00  0.00     0.006 C 
BRANCH   7   8
ATOM      8  C   UNL     1      49.277  34.952  86.366  1.00  0.00     0.053 C 
BRANCH   8   9
ATOM      9  C   UNL     1      50.775  34.959  86.350  1.00  0.00     0.041 C 
ATOM     10  O   UNL     1      51.420  35.184  87.410  1.00  0.00    -0.550 OA
ATOM     11  O   UNL     1      51.460  34.751  85.159  1.00  0.00    -0.550 OA
ENDBRANCH   8   9
ENDBRANCH   7   8
ENDBRANCH   6   7
ENDBRANCH   5   6
ENDBRANCH   4   5
ENDBRANCH   3   4
ENDBRANCH   2   3
ENDBRANCH   1   2
BRANCH   1  12
ATOM     12  C   UNL     1      47.386  29.800  90.327  1.00  0.00     0.000 C 
BRANCH  12  13
ATOM     13  C   UNL     1      47.079  31.302  90.351  1.00  0.00    -0.000 C 
BRANCH  13  14
ATOM     14  C   UNL     1      46.299  31.724  89.097  1.00  0.00    -0.000 C 
BRANCH  14  15
ATOM     15  C   UNL     1      45.935  30.537  88.187  1.00  0.00    -0.000 C 
BRANCH  15  16
ATOM     16  C   UNL     1      44.431  30.379  87.871  1.00  0.00    -0.000 C 
BRANCH  16  17
ATOM     17  C   UNL     1      43.478  31.117  88.832  1.00  0.00    -0.000 C 
BRANCH  17  18
ATOM     18  C   UNL     1      42.101  30.434  88.993  1.00  0.00    -0.000 C 
BRANCH  18  19
ATOM     19  C   UNL     1      41.111  30.776  87.868  1.00  0.00    -0.003 C 
ATOM     20  C   UNL     1      39.651  30.647  88.301  1.00  0.00     0.004 C 
ENDBRANCH  18  19
ENDBRANCH  17  18
ENDBRANCH  16  17
ENDBRANCH  15  16
ENDBRANCH  14  15
ENDBRANCH  13  14
ENDBRANCH  12  13
ENDBRANCH   1  12
TORSDOF 16
ENDMDL
MODEL 7
REMARK VINA RESULT:    -2.896      3.050      5.270
REMARK INTER + INTRA:          -8.860
REMARK INTER:                  -6.923
REMARK INTRA:                  -1.937
REMARK UNBOUND:                -3.255
REMARK SMILES CCCCCCCCCCCCCCCCCC(=O)[O-]
REMARK SMILES IDX 10 1 11 2 12 3 13 4 14 5 15 6 16 7 17 8 18 9 19 10 20 11
REMARK SMILES IDX 9 12 8 13 7 14 6 15 5 16 4 17 3 18 2 19 1 20
REMARK H PARENT
REMARK Flexibility Score: inf
ROOT
ATOM      1  C   UNL     1      46.199  29.848  89.775  1.00  0.00     0.000 C 
ENDROOT
BRANCH   1   2
ATOM      2  C   UNL     1      47.683  29.554  89.491  1.00  0.00     0.000 C 
BRANCH   2   3
ATOM      3  C   UNL     1      48.680  30.471  90.223  1.00  0.00     0.000 C 
BRANCH   3   4
ATOM      4  C   UNL     1      49.566  31.279  89.264  1.00  0.00     0.000 C 
BRANCH   4   5
ATOM      5  C   UNL     1      48.937  31.348  87.864  1.00  0.00     0.000 C 
BRANCH   5   6
ATOM      6  C   UNL     1      48.456  32.760  87.499  1.00  0.00     0.000 C 
BRANCH   6   7
ATOM      7  C   UNL     1      49.009  33.243  86.147  1.00  0.00     0.006 C 
BRANCH   7   8
ATOM      8  C   UNL     1      50.363  33.949  86.295  1.00  0.00     0.053 C 
BRANCH   8   9
ATOM      9  C   UNL     1      50.214  35.322  86.873  1.00  0.00     0.041 C 
ATOM     10  O   UNL     1      49.115  35.934  86.779  1.00  0.00    -0.550 OA
ATOM     11  O   UNL     1      51.295  35.941  87.488  1.00  0.00    -0.550 OA
ENDBRANCH   8   9
ENDBRANCH   7   8
ENDBRANCH   6   7
ENDBRANCH   5   6
ENDBRANCH   4   5
ENDBRANCH   3   4
ENDBRANCH   2   3
ENDBRANCH   1   2
BRANCH   1  12
ATOM     12  C   UNL     1      45.946  31.303  90.197  1.00  0.00     0.000 C 
BRANCH  12  13
ATOM     13  C   UNL     1      44.897  31.378  91.312  1.00  0.00    -0.000 C 
BRANCH  13  14
ATOM     14  C   UNL     1      44.802  30.045  92.069  1.00  0.00    -0.000 C 
BRANCH  14  15
ATOM     15  C   UNL     1      43.387  29.438  92.043  1.00  0.00    -0.000 C 
BRANCH  15  16
ATOM     16  C   UNL     1      42.536  29.790  90.803  1.00  0.00    -0.000 C 
BRANCH  16  17
ATOM     17  C   UNL     1      42.591  28.761  89.656  1.00  0.00    -0.000 C 
BRANCH  17  18
ATOM     18  C   UNL     1      42.762  29.394  88.256  1.00  0.00    -0.000 C 
BRANCH  18  19
ATOM     19  C   UNL     1      42.746  30.931  88.271  1.00  0.00    -0.003 C 
ATOM     20  C   UNL     1      41.806  31.525  87.224  1.00  0.00     0.004 C 
ENDBRANCH  18  19
ENDBRANCH  17  18
ENDBRANCH  16  17
ENDBRANCH  15  16
ENDBRANCH  14  15
ENDBRANCH  13  14
ENDBRANCH  12  13
ENDBRANCH   1  12
TORSDOF 16
ENDMDL
MODEL 8
REMARK VINA RESULT:    -2.873      3.638      6.497
REMARK INTER + INTRA:          -8.815
REMARK INTER:                  -6.176
REMARK INTRA:                  -2.639
REMARK UNBOUND:                -3.255
REMARK SMILES CCCCCCCCCCCCCCCCCC(=O)[O-]
REMARK SMILES IDX 10 1 11 2 12 3 13 4 14 5 15 6 16 7 17 8 18 9 19 10 20 11
REMARK SMILES IDX 9 12 8 13 7 14 6 15 5 16 4 17 3 18 2 19 1 20
REMARK H PARENT
REMARK Flexibility Score: inf
ROOT
ATOM      1  C   UNL     1      44.047  28.710  88.245  1.00  0.00     0.000 C 
ENDROOT
BRANCH   1   2
ATOM      2  C   UNL     1      43.645  29.943  87.416  1.00  0.00     0.000 C 
BRANCH   2   3
ATOM      3  C   UNL     1      42.903  31.041  88.200  1.00  0.00     0.000 C 
BRANCH   3   4
ATOM      4  C   UNL     1      41.629  31.525  87.492  1.00  0.00     0.000 C 
BRANCH   4   5
ATOM      5  C   UNL     1      40.415  30.682  87.912  1.00  0.00     0.000 C 
BRANCH   5   6
ATOM      6  C   UNL     1      40.521  30.170  89.356  1.00  0.00     0.000 C 
BRANCH   6   7
ATOM      7  C   UNL     1      40.137  28.686  89.487  1.00  0.00     0.006 C 
BRANCH   7   8
ATOM      8  C   UNL     1      39.930  28.019  88.120  1.00  0.00     0.053 C 
BRANCH   8   9
ATOM      9  C   UNL     1      38.513  27.577  87.926  1.00  0.00     0.041 C 
ATOM     10  O   UNL     1      38.203  26.362  88.061  1.00  0.00    -0.550 OA
ATOM     11  O   UNL     1      37.538  28.499  87.565  1.00  0.00    -0.550 OA
ENDBRANCH   8   9
ENDBRANCH   7   8
ENDBRANCH   6   7
ENDBRANCH   5   6
ENDBRANCH   4   5
ENDBRANCH   3   4
ENDBRANCH   2   3
ENDBRANCH   1   2
BRANCH   1  12
ATOM     12  C   UNL     1      45.529  28.340  88.091  1.00  0.00     0.000 C 
BRANCH  12  13
ATOM     13  C   UNL     1      46.372  29.575  87.754  1.00  0.00    -0.000 C 
BRANCH  13  14
ATOM     14  C   UNL     1      47.667  29.599  88.579  1.00  0.00    -0.000 C 
BRANCH  14  15
ATOM     15  C   UNL     1      47.632  30.627  89.725  1.00  0.00    -0.000 C 
BRANCH  15  16
ATOM     16  C   UNL     1      46.398  31.554  89.748  1.00  0.00    -0.000 C 
BRANCH  16  17
ATOM     17  C   UNL     1      45.380  31.266  90.870  1.00  0.00    -0.000 C 
BRANCH  17  18
ATOM     18  C   UNL     1      45.531  29.866  91.507  1.00  0.00    -0.000 C 
BRANCH  18  19
ATOM     19  C   UNL     1      44.390  29.503  92.470  1.00  0.00    -0.003 C 
ATOM     20  C   UNL     1      43.037  29.387  91.770  1.00  0.00     0.004 C 
ENDBRANCH  18  19
ENDBRANCH  17  18
ENDBRANCH  16  17
ENDBRANCH  15  16
ENDBRANCH  14  15
ENDBRANCH  13  14
ENDBRANCH  12  13
ENDBRANCH   1  12
TORSDOF 16
ENDMDL
MODEL 9
REMARK VINA RESULT:    -2.864      2.229      3.288
REMARK INTER + INTRA:          -8.798
REMARK INTER:                  -5.893
REMARK INTRA:                  -2.904
REMARK UNBOUND:                -3.255
REMARK SMILES CCCCCCCCCCCCCCCCCC(=O)[O-]
REMARK SMILES IDX 10 1 11 2 12 3 13 4 14 5 15 6 16 7 17 8 18 9 19 10 20 11
REMARK SMILES IDX 9 12 8 13 7 14 6 15 5 16 4 17 3 18 2 19 1 20
REMARK H PARENT
REMARK Flexibility Score: inf
ROOT
ATOM      1  C   UNL     1      44.556  27.657  88.953  1.00  0.00     0.000 C 
ENDROOT
BRANCH   1   2
ATOM      2  C   UNL     1      45.817  28.527  88.804  1.00  0.00     0.000 C 
BRANCH   2   3
ATOM      3  C   UNL     1      46.814  28.433  89.973  1.00  0.00     0.000 C 
BRANCH   3   4
ATOM      4  C   UNL     1      46.904  29.730  90.791  1.00  0.00     0.000 C 
BRANCH   4   5
ATOM      5  C   UNL     1      46.121  30.861  90.110  1.00  0.00     0.000 C 
BRANCH   5   6
ATOM      6  C   UNL     1      44.997  31.422  90.995  1.00  0.00     0.000 C 
BRANCH   6   7
ATOM      7  C   UNL     1      44.660  30.498  92.178  1.00  0.00     0.006 C 
BRANCH   7   8
ATOM      8  C   UNL     1      43.318  29.780  91.988  1.00  0.00     0.053 C 
BRANCH   8   9
ATOM      9  C   UNL     1      43.379  28.356  92.450  1.00  0.00     0.041 C 
ATOM     10  O   UNL     1      42.317  27.701  92.628  1.00  0.00    -0.550 OA
ATOM     11  O   UNL     1      44.607  27.763  92.717  1.00  0.00    -0.550 OA
ENDBRANCH   8   9
ENDBRANCH   7   8
ENDBRANCH   6   7
ENDBRANCH   5   6
ENDBRANCH   4   5
ENDBRANCH   3   4
ENDBRANCH   2   3
ENDBRANCH   1   2
BRANCH   1  12
ATOM     12  C   UNL     1      43.257  28.435  88.699  1.00  0.00     0.000 C 
BRANCH  12  13
ATOM     13  C   UNL     1      43.515  29.665  87.821  1.00  0.00    -0.000 C 
BRANCH  13  14
ATOM     14  C   UNL     1      42.648  30.852  88.269  1.00  0.00    -0.000 C 
BRANCH  14  15
ATOM     15  C   UNL     1      41.340  30.977  87.467  1.00  0.00    -0.000 C 
BRANCH  15  16
ATOM     16  C   UNL     1      40.042  30.937  88.303  1.00  0.00    -0.000 C 
BRANCH  16  17
ATOM     17  C   UNL     1      39.101  29.755  87.996  1.00  0.00    -0.000 C 
BRANCH  17  18
ATOM     18  C   UNL     1      39.829  28.493  87.479  1.00  0.00    -0.000 C 
BRANCH  18  19
ATOM     19  C   UNL     1      39.733  27.294  88.435  1.00  0.00    -0.003 C 
ATOM     20  C   UNL     1      39.779  27.702  89.906  1.00  0.00     0.004 C 
ENDBRANCH  18  19
ENDBRANCH  17  18
ENDBRANCH  16  17
ENDBRANCH  15  16
ENDBRANCH  14  15
ENDBRANCH  13  14
ENDBRANCH  12  13
ENDBRANCH   1  12
TORSDOF 16
ENDMDL
