MODEL 1
REMARK VINA RESULT:    -4.093      0.000      0.000
REMARK INTER + INTRA:          -8.215
REMARK INTER:                  -6.964
REMARK INTRA:                  -1.250
REMARK UNBOUND:                -1.250
REMARK SMILES CCCCCCCCCCCCCC(=O)[O-]
REMARK SMILES IDX 8 1 9 2 10 3 11 4 12 5 13 6 14 7 15 8 16 9 7 10 6 11 5 12
REMARK SMILES IDX 4 13 3 14 2 15 1 16
REMARK H PARENT
REMARK Flexibility Score: inf
ROOT
ATOM      1  C   UNL     1      -6.521   5.040  55.172  1.00  0.00     0.000 C 
ENDROOT
BRANCH   1   2
ATOM      2  C   UNL     1      -6.311   3.617  54.636  1.00  0.00     0.000 C 
BRANCH   2   3
ATOM      3  C   UNL     1      -6.098   3.572  53.112  1.00  0.00     0.000 C 
BRANCH   3   4
ATOM      4  C   UNL     1      -7.185   2.818  52.326  1.00  0.00     0.000 C 
BRANCH   4   5
ATOM      5  C   UNL     1      -7.684   3.594  51.098  1.00  0.00     0.006 C 
BRANCH   5   6
ATOM      6  C   UNL     1      -7.525   5.104  51.303  1.00  0.00     0.053 C 
BRANCH   6   7
ATOM      7  C   UNL     1      -8.832   5.718  51.697  1.00  0.00     0.041 C 
ATOM      8  O   UNL     1      -9.090   5.937  52.909  1.00  0.00    -0.550 OA
ATOM      9  O   UNL     1      -9.785   6.003  50.728  1.00  0.00    -0.550 OA
ENDBRANCH   6   7
ENDBRANCH   5   6
ENDBRANCH   4   5
ENDBRANCH   3   4
ENDBRANCH   2   3
ENDBRANCH   1   2
BRANCH   1  10
ATOM     10  C   UNL     1      -7.620   5.065  56.244  1.00  0.00     0.000 C 
BRANCH  10  11
ATOM     11  C   UNL     1      -7.396   6.160  57.301  1.00  0.00    -0.000 C 
BRANCH  11  12
ATOM     12  C   UNL     1      -7.608   5.704  58.758  1.00  0.00    -0.000 C 
BRANCH  12  13
ATOM     13  C   UNL     1      -6.498   6.171  59.723  1.00  0.00    -0.000 C 
BRANCH  13  14
ATOM     14  C   UNL     1      -5.090   5.866  59.181  1.00  0.00    -0.000 C 
BRANCH  14  15
ATOM     15  C   UNL     1      -4.682   4.399  59.389  1.00  0.00    -0.003 C 
ATOM     16  C   UNL     1      -4.627   3.609  58.083  1.00  0.00     0.004 C 
ENDBRANCH  14  15
ENDBRANCH  13  14
ENDBRANCH  12  13
ENDBRANCH  11  12
ENDBRANCH  10  11
ENDBRANCH   1  10
TORSDOF 12
ENDMDL
MODEL 2
REMARK VINA RESULT:    -4.077      9.397     11.779
REMARK INTER + INTRA:          -8.188
REMARK INTER:                  -6.485
REMARK INTRA:                  -1.702
REMARK UNBOUND:                -1.250
REMARK SMILES CCCCCCCCCCCCCC(=O)[O-]
REMARK SMILES IDX 8 1 9 2 10 3 11 4 12 5 13 6 14 7 15 8 16 9 7 10 6 11 5 12
REMARK SMILES IDX 4 13 3 14 2 15 1 16
REMARK H PARENT
REMARK Flexibility Score: inf
ROOT
ATOM      1  C   UNL     1       0.944   1.482  56.077  1.00  0.00     0.000 C 
ENDROOT
BRANCH   1   2
ATOM      2  C   UNL     1       0.106   0.367  56.719  1.00  0.00     0.000 C 
BRANCH   2   3
ATOM      3  C   UNL     1       0.947  -0.850  57.143  1.00  0.00     0.000 C 
BRANCH   3   4
ATOM      4  C   UNL     1       0.932  -1.157  58.651  1.00  0.00     0.000 C 
BRANCH   4   5
ATOM      5  C   UNL     1       1.595  -0.056  59.493  1.00  0.00     0.006 C 
BRANCH   5   6
ATOM      6  C   UNL     1       0.628   0.480  60.553  1.00  0.00     0.053 C 
BRANCH   6   7
ATOM      7  C   UNL     1       0.624   1.976  60.549  1.00  0.00     0.041 C 
ATOM      8  O   UNL     1       0.204   2.612  61.551  1.00  0.00    -0.550 OA
ATOM      9  O   UNL     1       1.039   2.669  59.419  1.00  0.00    -0.550 OA
ENDBRANCH   6   7
ENDBRANCH   5   6
ENDBRANCH   4   5
ENDBRANCH   3   4
ENDBRANCH   2   3
ENDBRANCH   1   2
BRANCH   1  10
ATOM     10  C   UNL     1       2.280   0.932  55.554  1.00  0.00     0.000 C 
BRANCH  10  11
ATOM     11  C   UNL     1       2.453   1.133  54.039  1.00  0.00    -0.000 C 
BRANCH  11  12
ATOM     12  C   UNL     1       2.695  -0.162  53.239  1.00  0.00    -0.000 C 
BRANCH  12  13
ATOM     13  C   UNL     1       1.589  -1.222  53.424  1.00  0.00    -0.000 C 
BRANCH  13  14
ATOM     14  C   UNL     1       2.135  -2.537  54.010  1.00  0.00    -0.000 C 
BRANCH  14  15
ATOM     15  C   UNL     1       3.636  -2.463  54.328  1.00  0.00    -0.003 C 
ATOM     16  C   UNL     1       3.929  -2.527  55.826  1.00  0.00     0.004 C 
ENDBRANCH  14  15
ENDBRANCH  13  14
ENDBRANCH  12  13
ENDBRANCH  11  12
ENDBRANCH  10  11
ENDBRANCH   1  10
TORSDOF 12
ENDMDL
MODEL 3
REMARK VINA RESULT:    -4.059      3.089      7.104
REMARK INTER + INTRA:          -8.156
REMARK INTER:                  -6.885
REMARK INTRA:                  -1.271
REMARK UNBOUND:                -1.250
REMARK SMILES CCCCCCCCCCCCCC(=O)[O-]
REMARK SMILES IDX 8 1 9 2 10 3 11 4 12 5 13 6 14 7 15 8 16 9 7 10 6 11 5 12
REMARK SMILES IDX 4 13 3 14 2 15 1 16
REMARK H PARENT
REMARK Flexibility Score: inf
ROOT
ATOM      1  C   UNL     1      -7.217   3.914  55.447  1.00  0.00     0.000 C 
ENDROOT
BRANCH   1   2
ATOM      2  C   UNL     1      -7.376   5.439  55.359  1.00  0.00     0.000 C 
BRANCH   2   3
ATOM      3  C   UNL     1      -6.760   6.179  56.559  1.00  0.00     0.000 C 
BRANCH   3   4
ATOM      4  C   UNL     1      -7.433   5.894  57.914  1.00  0.00     0.000 C 
BRANCH   4   5
ATOM      5  C   UNL     1      -6.437   5.869  59.084  1.00  0.00     0.006 C 
BRANCH   5   6
ATOM      6  C   UNL     1      -5.031   5.504  58.598  1.00  0.00     0.053 C 
BRANCH   6   7
ATOM      7  C   UNL     1      -4.752   4.055  58.845  1.00  0.00     0.041 C 
ATOM      8  O   UNL     1      -5.012   3.541  59.964  1.00  0.00    -0.550 OA
ATOM      9  O   UNL     1      -4.159   3.283  57.854  1.00  0.00    -0.550 OA
ENDBRANCH   6   7
ENDBRANCH   5   6
ENDBRANCH   4   5
ENDBRANCH   3   4
ENDBRANCH   2   3
ENDBRANCH   1   2
BRANCH   1  10
ATOM     10  C   UNL     1      -5.873   3.469  54.853  1.00  0.00     0.000 C 
BRANCH  10  11
ATOM     11  C   UNL     1      -5.847   3.546  53.317  1.00  0.00    -0.000 C 
BRANCH  11  12
ATOM     12  C   UNL     1      -6.801   2.568  52.605  1.00  0.00    -0.000 C 
BRANCH  12  13
ATOM     13  C   UNL     1      -7.788   3.257  51.638  1.00  0.00    -0.000 C 
BRANCH  13  14
ATOM     14  C   UNL     1      -7.321   4.669  51.239  1.00  0.00    -0.000 C 
BRANCH  14  15
ATOM     15  C   UNL     1      -8.262   5.768  51.753  1.00  0.00    -0.003 C 
ATOM     16  C   UNL     1      -9.609   5.781  51.031  1.00  0.00     0.004 C 
ENDBRANCH  14  15
ENDBRANCH  13  14
ENDBRANCH  12  13
ENDBRANCH  11  12
ENDBRANCH  10  11
ENDBRANCH   1  10
TORSDOF 12
ENDMDL
MODEL 4
REMARK VINA RESULT:    -4.044      2.932      6.893
REMARK INTER + INTRA:          -8.132
REMARK INTER:                  -6.581
REMARK INTRA:                  -1.551
REMARK UNBOUND:                -1.250
REMARK SMILES CCCCCCCCCCCCCC(=O)[O-]
REMARK SMILES IDX 8 1 9 2 10 3 11 4 12 5 13 6 14 7 15 8 16 9 7 10 6 11 5 12
REMARK SMILES IDX 4 13 3 14 2 15 1 16
REMARK H PARENT
REMARK Flexibility Score: inf
ROOT
ATOM      1  C   UNL     1      -5.990   3.767  54.732  1.00  0.00     0.000 C 
ENDROOT
BRANCH   1   2
ATOM      2  C   UNL     1      -7.406   4.259  55.065  1.00  0.00     0.000 C 
BRANCH   2   3
ATOM      3  C   UNL     1      -7.541   5.791  55.003  1.00  0.00     0.000 C 
BRANCH   3   4
ATOM      4  C   UNL     1      -7.507   6.502  56.368  1.00  0.00     0.000 C 
BRANCH   4   5
ATOM      5  C   UNL     1      -8.087   5.645  57.504  1.00  0.00     0.006 C 
BRANCH   5   6
ATOM      6  C   UNL     1      -7.240   5.772  58.773  1.00  0.00     0.053 C 
BRANCH   6   7
ATOM      7  C   UNL     1      -5.865   5.229  58.541  1.00  0.00     0.041 C 
ATOM      8  O   UNL     1      -5.703   4.012  58.260  1.00  0.00    -0.550 OA
ATOM      9  O   UNL     1      -4.758   6.055  58.683  1.00  0.00    -0.550 OA
ENDBRANCH   6   7
ENDBRANCH   5   6
ENDBRANCH   4   5
ENDBRANCH   3   4
ENDBRANCH   2   3
ENDBRANCH   1   2
BRANCH   1  10
ATOM     10  C   UNL     1      -5.850   3.476  53.231  1.00  0.00     0.000 C 
BRANCH  10  11
ATOM     11  C   UNL     1      -6.978   2.579  52.692  1.00  0.00    -0.000 C 
BRANCH  11  12
ATOM     12  C   UNL     1      -7.720   3.142  51.464  1.00  0.00    -0.000 C 
BRANCH  12  13
ATOM     13  C   UNL     1      -7.213   4.530  51.015  1.00  0.00    -0.000 C 
BRANCH  13  14
ATOM     14  C   UNL     1      -8.199   5.655  51.379  1.00  0.00    -0.000 C 
BRANCH  14  15
ATOM     15  C   UNL     1      -9.542   5.119  51.895  1.00  0.00    -0.003 C 
ATOM     16  C   UNL     1     -10.733   5.956  51.430  1.00  0.00     0.004 C 
ENDBRANCH  14  15
ENDBRANCH  13  14
ENDBRANCH  12  13
ENDBRANCH  11  12
ENDBRANCH  10  11
ENDBRANCH   1  10
TORSDOF 12
ENDMDL
MODEL 5
REMARK VINA RESULT:    -4.038      8.201     11.194
REMARK INTER + INTRA:          -8.121
REMARK INTER:                  -6.655
REMARK INTRA:                  -1.466
REMARK UNBOUND:                -1.250
REMARK SMILES CCCCCCCCCCCCCC(=O)[O-]
REMARK SMILES IDX 8 1 9 2 10 3 11 4 12 5 13 6 14 7 15 8 16 9 7 10 6 11 5 12
REMARK SMILES IDX 4 13 3 14 2 15 1 16
REMARK H PARENT
REMARK Flexibility Score: inf
ROOT
ATOM      1  C   UNL     1       1.368  -0.384  56.969  1.00  0.00     0.000 C 
ENDROOT
BRANCH   1   2
ATOM      2  C   UNL     1       2.365   0.098  58.034  1.00  0.00     0.000 C 
BRANCH   2   3
ATOM      3  C   UNL     1       1.736   0.229  59.432  1.00  0.00     0.000 C 
BRANCH   3   4
ATOM      4  C   UNL     1       1.629   1.670  59.964  1.00  0.00     0.000 C 
BRANCH   4   5
ATOM      5  C   UNL     1       0.176   2.140  60.131  1.00  0.00     0.006 C 
BRANCH   5   6
ATOM      6  C   UNL     1      -0.805   1.069  59.647  1.00  0.00     0.053 C 
BRANCH   6   7
ATOM      7  C   UNL     1      -1.944   1.698  58.908  1.00  0.00     0.041 C 
ATOM      8  O   UNL     1      -1.994   1.642  57.651  1.00  0.00    -0.550 OA
ATOM      9  O   UNL     1      -2.927   2.389  59.605  1.00  0.00    -0.550 OA
ENDBRANCH   6   7
ENDBRANCH   5   6
ENDBRANCH   4   5
ENDBRANCH   3   4
ENDBRANCH   2   3
ENDBRANCH   1   2
BRANCH   1  10
ATOM     10  C   UNL     1       1.013   0.753  55.998  1.00  0.00     0.000 C 
BRANCH  10  11
ATOM     11  C   UNL     1       2.229   1.254  55.200  1.00  0.00    -0.000 C 
BRANCH  11  12
ATOM     12  C   UNL     1       2.228   0.864  53.709  1.00  0.00    -0.000 C 
BRANCH  12  13
ATOM     13  C   UNL     1       3.144  -0.334  53.379  1.00  0.00    -0.000 C 
BRANCH  13  14
ATOM     14  C   UNL     1       2.448  -1.685  53.628  1.00  0.00    -0.000 C 
BRANCH  14  15
ATOM     15  C   UNL     1       3.359  -2.697  54.338  1.00  0.00    -0.003 C 
ATOM     16  C   UNL     1       4.252  -2.050  55.396  1.00  0.00     0.004 C 
ENDBRANCH  14  15
ENDBRANCH  13  14
ENDBRANCH  12  13
ENDBRANCH  11  12
ENDBRANCH  10  11
ENDBRANCH   1  10
TORSDOF 12
ENDMDL
MODEL 6
REMARK VINA RESULT:    -4.022      2.960      6.544
REMARK INTER + INTRA:          -8.094
REMARK INTER:                  -6.419
REMARK INTRA:                  -1.675
REMARK UNBOUND:                -1.250
REMARK SMILES CCCCCCCCCCCCCC(=O)[O-]
REMARK SMILES IDX 8 1 9 2 10 3 11 4 12 5 13 6 14 7 15 8 16 9 7 10 6 11 5 12
REMARK SMILES IDX 4 13 3 14 2 15 1 16
REMARK H PARENT
REMARK Flexibility Score: inf
ROOT
ATOM      1  C   UNL     1      -6.361   2.524  52.930  1.00  0.00     0.000 C 
ENDROOT
BRANCH   1   2
ATOM      2  C   UNL     1      -6.305   2.807  54.439  1.00  0.00     0.000 C 
BRANCH   2   3
ATOM      3  C   UNL     1      -6.108   4.298  54.764  1.00  0.00     0.000 C 
BRANCH   3   4
ATOM      4  C   UNL     1      -7.396   5.061  55.123  1.00  0.00     0.000 C 
BRANCH   4   5
ATOM      5  C   UNL     1      -7.161   6.189  56.140  1.00  0.00     0.006 C 
BRANCH   5   6
ATOM      6  C   UNL     1      -6.064   5.806  57.138  1.00  0.00     0.053 C 
BRANCH   6   7
ATOM      7  C   UNL     1      -6.667   5.316  58.416  1.00  0.00     0.041 C 
ATOM      8  O   UNL     1      -6.829   6.105  59.384  1.00  0.00    -0.550 OA
ATOM      9  O   UNL     1      -7.007   3.977  58.556  1.00  0.00    -0.550 OA
ENDBRANCH   6   7
ENDBRANCH   5   6
ENDBRANCH   4   5
ENDBRANCH   3   4
ENDBRANCH   2   3
ENDBRANCH   1   2
BRANCH   1  10
ATOM     10  C   UNL     1      -7.808   2.290  52.471  1.00  0.00     0.000 C 
BRANCH  10  11
ATOM     11  C   UNL     1      -8.180   3.120  51.231  1.00  0.00    -0.000 C 
BRANCH  11  12
ATOM     12  C   UNL     1      -7.243   4.310  50.946  1.00  0.00    -0.000 C 
BRANCH  12  13
ATOM     13  C   UNL     1      -7.752   5.652  51.516  1.00  0.00    -0.000 C 
BRANCH  13  14
ATOM     14  C   UNL     1      -9.270   5.826  51.326  1.00  0.00    -0.000 C 
BRANCH  14  15
ATOM     15  C   UNL     1      -9.987   6.209  52.629  1.00  0.00    -0.003 C 
ATOM     16  C   UNL     1     -10.622   5.010  53.331  1.00  0.00     0.004 C 
ENDBRANCH  14  15
ENDBRANCH  13  14
ENDBRANCH  12  13
ENDBRANCH  11  12
ENDBRANCH  10  11
ENDBRANCH   1  10
TORSDOF 12
ENDMDL
MODEL 7
REMARK VINA RESULT:    -4.016      8.925     10.516
REMARK INTER + INTRA:          -8.083
REMARK INTER:                  -6.843
REMARK INTRA:                  -1.240
REMARK UNBOUND:                -1.250
REMARK SMILES CCCCCCCCCCCCCC(=O)[O-]
REMARK SMILES IDX 8 1 9 2 10 3 11 4 12 5 13 6 14 7 15 8 16 9 7 10 6 11 5 12
REMARK SMILES IDX 4 13 3 14 2 15 1 16
REMARK H PARENT
REMARK Flexibility Score: inf
ROOT
ATOM      1  C   UNL     1       1.191   0.167  56.648  1.00  0.00     0.000 C 
ENDROOT
BRANCH   1   2
ATOM      2  C   UNL     1       2.589   0.391  56.053  1.00  0.00     0.000 C 
BRANCH   2   3
ATOM      3  C   UNL     1       2.563   1.178  54.731  1.00  0.00     0.000 C 
BRANCH   3   4
ATOM      4  C   UNL     1       2.061   0.384  53.512  1.00  0.00     0.000 C 
BRANCH   4   5
ATOM      5  C   UNL     1       2.792  -0.955  53.327  1.00  0.00     0.006 C 
BRANCH   5   6
ATOM      6  C   UNL     1       1.844  -2.134  53.567  1.00  0.00     0.053 C 
BRANCH   6   7
ATOM      7  C   UNL     1       2.552  -3.234  54.294  1.00  0.00     0.041 C 
ATOM      8  O   UNL     1       1.990  -4.348  54.462  1.00  0.00    -0.550 OA
ATOM      9  O   UNL     1       3.814  -3.013  54.830  1.00  0.00    -0.550 OA
ENDBRANCH   6   7
ENDBRANCH   5   6
ENDBRANCH   4   5
ENDBRANCH   3   4
ENDBRANCH   2   3
ENDBRANCH   1   2
BRANCH   1  10
ATOM     10  C   UNL     1       0.440   1.499  56.794  1.00  0.00     0.000 C 
BRANCH  10  11
ATOM     11  C   UNL     1      -1.030   1.310  57.209  1.00  0.00    -0.000 C 
BRANCH  11  12
ATOM     12  C   UNL     1      -1.309   1.521  58.710  1.00  0.00    -0.000 C 
BRANCH  12  13
ATOM     13  C   UNL     1      -1.060   0.264  59.571  1.00  0.00    -0.000 C 
BRANCH  13  14
ATOM     14  C   UNL     1       0.086   0.468  60.579  1.00  0.00    -0.000 C 
BRANCH  14  15
ATOM     15  C   UNL     1       0.457   1.947  60.760  1.00  0.00    -0.003 C 
ATOM     16  C   UNL     1       1.876   2.264  60.289  1.00  0.00     0.004 C 
ENDBRANCH  14  15
ENDBRANCH  13  14
ENDBRANCH  12  13
ENDBRANCH  11  12
ENDBRANCH  10  11
ENDBRANCH   1  10
TORSDOF 12
ENDMDL
MODEL 8
REMARK VINA RESULT:    -3.971      2.960      6.546
REMARK INTER + INTRA:          -8.007
REMARK INTER:                  -6.325
REMARK INTRA:                  -1.682
REMARK UNBOUND:                -1.250
REMARK SMILES CCCCCCCCCCCCCC(=O)[O-]
REMARK SMILES IDX 8 1 9 2 10 3 11 4 12 5 13 6 14 7 15 8 16 9 7 10 6 11 5 12
REMARK SMILES IDX 4 13 3 14 2 15 1 16
REMARK H PARENT
REMARK Flexibility Score: inf
ROOT
ATOM      1  C   UNL     1     -10.072   5.959  53.489  1.00  0.00     0.000 C 
ENDROOT
BRANCH   1   2
ATOM      2  C   UNL     1     -10.060   4.730  54.410  1.00  0.00     0.000 C 
BRANCH   2   3
ATOM      3  C   UNL     1      -8.811   4.660  55.306  1.00  0.00     0.000 C 
BRANCH   3   4
ATOM      4  C   UNL     1      -7.783   5.782  55.076  1.00  0.00     0.000 C 
BRANCH   4   5
ATOM      5  C   UNL     1      -7.356   6.479  56.376  1.00  0.00     0.006 C 
BRANCH   5   6
ATOM      6  C   UNL     1      -6.149   5.776  57.004  1.00  0.00     0.053 C 
BRANCH   6   7
ATOM      7  C   UNL     1      -6.361   5.583  58.473  1.00  0.00     0.041 C 
ATOM      8  O   UNL     1      -7.403   5.014  58.894  1.00  0.00    -0.550 OA
ATOM      9  O   UNL     1      -5.432   6.075  59.380  1.00  0.00    -0.550 OA
ENDBRANCH   6   7
ENDBRANCH   5   6
ENDBRANCH   4   5
ENDBRANCH   3   4
ENDBRANCH   2   3
ENDBRANCH   1   2
BRANCH   1  10
ATOM     10  C   UNL     1     -10.640   5.602  52.107  1.00  0.00     0.000 C 
BRANCH  10  11
ATOM     11  C   UNL     1      -9.583   5.684  50.992  1.00  0.00    -0.000 C 
BRANCH  11  12
ATOM     12  C   UNL     1      -8.125   5.741  51.486  1.00  0.00    -0.000 C 
BRANCH  12  13
ATOM     13  C   UNL     1      -7.266   4.544  51.026  1.00  0.00    -0.000 C 
BRANCH  13  14
ATOM     14  C   UNL     1      -7.972   3.196  51.263  1.00  0.00    -0.000 C 
BRANCH  14  15
ATOM     15  C   UNL     1      -7.490   2.495  52.541  1.00  0.00    -0.003 C 
ATOM     16  C   UNL     1      -6.199   3.095  53.096  1.00  0.00     0.004 C 
ENDBRANCH  14  15
ENDBRANCH  13  14
ENDBRANCH  12  13
ENDBRANCH  11  12
ENDBRANCH  10  11
ENDBRANCH   1  10
TORSDOF 12
ENDMDL
MODEL 9
REMARK VINA RESULT:    -3.865      1.246      2.631
REMARK INTER + INTRA:          -7.826
REMARK INTER:                  -6.405
REMARK INTRA:                  -1.421
REMARK UNBOUND:                -1.250
REMARK SMILES CCCCCCCCCCCCCC(=O)[O-]
REMARK SMILES IDX 8 1 9 2 10 3 11 4 12 5 13 6 14 7 15 8 16 9 7 10 6 11 5 12
REMARK SMILES IDX 4 13 3 14 2 15 1 16
REMARK H PARENT
REMARK Flexibility Score: inf
ROOT
ATOM      1  C   UNL     1      -5.866   3.613  53.179  1.00  0.00     0.000 C 
ENDROOT
BRANCH   1   2
ATOM      2  C   UNL     1      -7.122   2.875  52.693  1.00  0.00     0.000 C 
BRANCH   2   3
ATOM      3  C   UNL     1      -7.605   3.353  51.313  1.00  0.00     0.000 C 
BRANCH   3   4
ATOM      4  C   UNL     1      -7.323   4.834  51.002  1.00  0.00     0.000 C 
BRANCH   4   5
ATOM      5  C   UNL     1      -8.437   5.772  51.493  1.00  0.00     0.006 C 
BRANCH   5   6
ATOM      6  C   UNL     1      -9.818   5.219  51.128  1.00  0.00     0.053 C 
BRANCH   6   7
ATOM      7  C   UNL     1     -10.709   5.202  52.329  1.00  0.00     0.041 C 
ATOM      8  O   UNL     1     -11.635   6.048  52.445  1.00  0.00    -0.550 OA
ATOM      9  O   UNL     1     -10.487   4.283  53.346  1.00  0.00    -0.550 OA
ENDBRANCH   6   7
ENDBRANCH   5   6
ENDBRANCH   4   5
ENDBRANCH   3   4
ENDBRANCH   2   3
ENDBRANCH   1   2
BRANCH   1  10
ATOM     10  C   UNL     1      -5.965   3.935  54.677  1.00  0.00     0.000 C 
BRANCH  10  11
ATOM     11  C   UNL     1      -7.398   4.287  55.116  1.00  0.00    -0.000 C 
BRANCH  11  12
ATOM     12  C   UNL     1      -7.717   5.795  55.129  1.00  0.00    -0.000 C 
BRANCH  12  13
ATOM     13  C   UNL     1      -7.362   6.494  56.459  1.00  0.00    -0.000 C 
BRANCH  13  14
ATOM     14  C   UNL     1      -7.463   5.539  57.663  1.00  0.00    -0.000 C 
BRANCH  14  15
ATOM     15  C   UNL     1      -6.349   5.770  58.694  1.00  0.00    -0.003 C 
ATOM     16  C   UNL     1      -5.766   4.467  59.238  1.00  0.00     0.004 C 
ENDBRANCH  14  15
ENDBRANCH  13  14
ENDBRANCH  12  13
ENDBRANCH  11  12
ENDBRANCH  10  11
ENDBRANCH   1  10
TORSDOF 12
ENDMDL
