MODEL 1
REMARK VINA RESULT:    -5.944      0.000      0.000
REMARK INTER + INTRA:         -16.827
REMARK INTER:                 -15.673
REMARK INTRA:                  -1.154
REMARK UNBOUND:                -1.154
REMARK SMILES CCCCCCCCCCCCCCCCCCCCCCCCCCCCCC(=O)[O-]
REMARK SMILES IDX 16 1 17 2 18 3 19 4 20 5 21 6 22 7 23 8 24 9 25 10 26 11
REMARK SMILES IDX 27 12 28 13 29 14 30 15 31 16 32 17 15 18 14 19 13 20 12 21
REMARK SMILES IDX 11 22 10 23 9 24 8 25 7 26 6 27 5 28 4 29 3 30 2 31 1 32
REMARK H PARENT
REMARK Flexibility Score: inf
ROOT
ATOM      1  C   UNL     1      21.908 -12.338  21.453  1.00  0.00     0.000 C 
ENDROOT
BRANCH   1   2
ATOM      2  C   UNL     1      23.260 -13.082  21.521  1.00  0.00     0.000 C 
BRANCH   2   3
ATOM      3  C   UNL     1      23.177 -14.572  21.132  1.00  0.00     0.000 C 
BRANCH   3   4
ATOM      4  C   UNL     1      22.487 -14.861  19.787  1.00  0.00     0.000 C 
BRANCH   4   5
ATOM      5  C   UNL     1      22.956 -16.149  19.078  1.00  0.00     0.000 C 
BRANCH   5   6
ATOM      6  C   UNL     1      22.943 -16.090  17.537  1.00  0.00     0.000 C 
BRANCH   6   7
ATOM      7  C   UNL     1      22.956 -17.455  16.826  1.00  0.00     0.000 C 
BRANCH   7   8
ATOM      8  C   UNL     1      22.556 -18.614  17.752  1.00  0.00     0.000 C 
BRANCH   8   9
ATOM      9  C   UNL     1      21.797 -19.735  17.019  1.00  0.00     0.000 C 
BRANCH   9  10
ATOM     10  C   UNL     1      20.759 -20.493  17.868  1.00  0.00     0.000 C 
BRANCH  10  11
ATOM     11  C   UNL     1      19.498 -20.881  17.073  1.00  0.00     0.000 C 
BRANCH  11  12
ATOM     12  C   UNL     1      19.772 -20.992  15.557  1.00  0.00     0.000 C 
BRANCH  12  13
ATOM     13  C   UNL     1      18.507 -21.230  14.716  1.00  0.00     0.006 C 
BRANCH  13  14
ATOM     14  C   UNL     1      18.818 -21.712  13.294  1.00  0.00     0.053 C 
BRANCH  14  15
ATOM     15  C   UNL     1      18.079 -20.885  12.288  1.00  0.00     0.041 C 
ATOM     16  O   UNL     1      17.416 -19.879  12.657  1.00  0.00    -0.550 OA
ATOM     17  O   UNL     1      18.163 -21.197  10.935  1.00  0.00    -0.550 OA
ENDBRANCH  14  15
ENDBRANCH  13  14
ENDBRANCH  12  13
ENDBRANCH  11  12
ENDBRANCH  10  11
ENDBRANCH   9  10
ENDBRANCH   8   9
ENDBRANCH   7   8
ENDBRANCH   6   7
ENDBRANCH   5   6
ENDBRANCH   4   5
ENDBRANCH   3   4
ENDBRANCH   2   3
ENDBRANCH   1   2
BRANCH   1  18
ATOM     18  C   UNL     1      21.783 -11.232  22.515  1.00  0.00     0.000 C 
BRANCH  18  19
ATOM     19  C   UNL     1      20.506 -11.363  23.360  1.00  0.00     0.000 C 
BRANCH  19  20
ATOM     20  C   UNL     1      20.517 -10.453  24.601  1.00  0.00     0.000 C 
BRANCH  20  21
ATOM     21  C   UNL     1      21.025  -9.033  24.298  1.00  0.00     0.000 C 
BRANCH  21  22
ATOM     22  C   UNL     1      21.118  -8.131  25.547  1.00  0.00     0.000 C 
BRANCH  22  23
ATOM     23  C   UNL     1      20.196  -6.906  25.450  1.00  0.00     0.000 C 
BRANCH  23  24
ATOM     24  C   UNL     1      20.511  -6.070  24.204  1.00  0.00    -0.000 C 
BRANCH  24  25
ATOM     25  C   UNL     1      19.227  -5.486  23.598  1.00  0.00    -0.000 C 
BRANCH  25  26
ATOM     26  C   UNL     1      18.343  -4.771  24.635  1.00  0.00    -0.000 C 
BRANCH  26  27
ATOM     27  C   UNL     1      16.950  -4.350  24.126  1.00  0.00    -0.000 C 
BRANCH  27  28
ATOM     28  C   UNL     1      16.026  -3.721  25.187  1.00  0.00    -0.000 C 
BRANCH  28  29
ATOM     29  C   UNL     1      15.015  -4.691  25.827  1.00  0.00    -0.000 C 
BRANCH  29  30
ATOM     30  C   UNL     1      14.385  -4.134  27.113  1.00  0.00    -0.000 C 
BRANCH  30  31
ATOM     31  C   UNL     1      13.788  -5.263  27.964  1.00  0.00    -0.003 C 
ATOM     32  C   UNL     1      12.365  -4.929  28.399  1.00  0.00     0.004 C 
ENDBRANCH  30  31
ENDBRANCH  29  30
ENDBRANCH  28  29
ENDBRANCH  27  28
ENDBRANCH  26  27
ENDBRANCH  25  26
ENDBRANCH  24  25
ENDBRANCH  23  24
ENDBRANCH  22  23
ENDBRANCH  21  22
ENDBRANCH  20  21
ENDBRANCH  19  20
ENDBRANCH  18  19
ENDBRANCH   1  18
TORSDOF 28
ENDMDL
MODEL 2
REMARK VINA RESULT:    -5.788      6.140     14.837
REMARK INTER + INTRA:         -16.415
REMARK INTER:                 -14.395
REMARK INTRA:                  -2.020
REMARK UNBOUND:                -1.154
REMARK SMILES CCCCCCCCCCCCCCCCCCCCCCCCCCCCCC(=O)[O-]
REMARK SMILES IDX 16 1 17 2 18 3 19 4 20 5 21 6 22 7 23 8 24 9 25 10 26 11
REMARK SMILES IDX 27 12 28 13 29 14 30 15 31 16 32 17 15 18 14 19 13 20 12 21
REMARK SMILES IDX 11 22 10 23 9 24 8 25 7 26 6 27 5 28 4 29 3 30 2 31 1 32
REMARK H PARENT
REMARK Flexibility Score: inf
ROOT
ATOM      1  C   UNL     1      17.747 -22.428  16.994  1.00  0.00     0.000 C 
ENDROOT
BRANCH   1   2
ATOM      2  C   UNL     1      18.740 -21.359  17.500  1.00  0.00     0.000 C 
BRANCH   2   3
ATOM      3  C   UNL     1      20.127 -21.919  17.877  1.00  0.00     0.000 C 
BRANCH   3   4
ATOM      4  C   UNL     1      21.264 -21.565  16.902  1.00  0.00     0.000 C 
BRANCH   4   5
ATOM      5  C   UNL     1      21.532 -20.055  16.732  1.00  0.00     0.000 C 
BRANCH   5   6
ATOM      6  C   UNL     1      22.824 -19.540  17.398  1.00  0.00     0.000 C 
BRANCH   6   7
ATOM      7  C   UNL     1      23.546 -18.408  16.645  1.00  0.00     0.000 C 
BRANCH   7   8
ATOM      8  C   UNL     1      23.043 -17.011  17.045  1.00  0.00     0.000 C 
BRANCH   8   9
ATOM      9  C   UNL     1      23.103 -16.764  18.563  1.00  0.00     0.000 C 
BRANCH   9  10
ATOM     10  C   UNL     1      22.750 -15.333  19.012  1.00  0.00     0.000 C 
BRANCH  10  11
ATOM     11  C   UNL     1      22.771 -15.159  20.542  1.00  0.00     0.000 C 
BRANCH  11  12
ATOM     12  C   UNL     1      23.140 -13.720  20.964  1.00  0.00     0.000 C 
BRANCH  12  13
ATOM     13  C   UNL     1      21.921 -12.828  21.254  1.00  0.00     0.006 C 
BRANCH  13  14
ATOM     14  C   UNL     1      22.291 -11.532  21.984  1.00  0.00     0.053 C 
BRANCH  14  15
ATOM     15  C   UNL     1      21.162 -11.085  22.861  1.00  0.00     0.041 C 
ATOM     16  O   UNL     1      20.088 -11.744  22.898  1.00  0.00    -0.550 OA
ATOM     17  O   UNL     1      21.315  -9.967  23.674  1.00  0.00    -0.550 OA
ENDBRANCH  14  15
ENDBRANCH  13  14
ENDBRANCH  12  13
ENDBRANCH  11  12
ENDBRANCH  10  11
ENDBRANCH   9  10
ENDBRANCH   8   9
ENDBRANCH   7   8
ENDBRANCH   6   7
ENDBRANCH   5   6
ENDBRANCH   4   5
ENDBRANCH   3   4
ENDBRANCH   2   3
ENDBRANCH   1   2
BRANCH   1  18
ATOM     18  C   UNL     1      17.820 -22.632  15.471  1.00  0.00     0.000 C 
BRANCH  18  19
ATOM     19  C   UNL     1      18.012 -21.314  14.704  1.00  0.00     0.000 C 
BRANCH  19  20
ATOM     20  C   UNL     1      19.267 -21.320  13.815  1.00  0.00     0.000 C 
BRANCH  20  21
ATOM     21  C   UNL     1      19.049 -22.045  12.476  1.00  0.00     0.000 C 
BRANCH  21  22
ATOM     22  C   UNL     1      18.901 -21.089  11.272  1.00  0.00     0.000 C 
BRANCH  22  23
ATOM     23  C   UNL     1      17.547 -21.250  10.565  1.00  0.00     0.000 C 
BRANCH  23  24
ATOM     24  C   UNL     1      16.842 -22.541  11.000  1.00  0.00    -0.000 C 
BRANCH  24  25
ATOM     25  C   UNL     1      15.716 -22.240  11.999  1.00  0.00    -0.000 C 
BRANCH  25  26
ATOM     26  C   UNL     1      14.797 -21.093  11.541  1.00  0.00    -0.000 C 
BRANCH  26  27
ATOM     27  C   UNL     1      13.723 -20.671  12.563  1.00  0.00    -0.000 C 
BRANCH  27  28
ATOM     28  C   UNL     1      12.975 -19.365  12.227  1.00  0.00    -0.000 C 
BRANCH  28  29
ATOM     29  C   UNL     1      13.869 -18.118  12.098  1.00  0.00    -0.000 C 
BRANCH  29  30
ATOM     30  C   UNL     1      13.068 -16.807  12.096  1.00  0.00    -0.000 C 
BRANCH  30  31
ATOM     31  C   UNL     1      13.763 -15.742  11.237  1.00  0.00    -0.003 C 
ATOM     32  C   UNL     1      14.848 -15.019  12.029  1.00  0.00     0.004 C 
ENDBRANCH  30  31
ENDBRANCH  29  30
ENDBRANCH  28  29
ENDBRANCH  27  28
ENDBRANCH  26  27
ENDBRANCH  25  26
ENDBRANCH  24  25
ENDBRANCH  23  24
ENDBRANCH  22  23
ENDBRANCH  21  22
ENDBRANCH  20  21
ENDBRANCH  19  20
ENDBRANCH  18  19
ENDBRANCH   1  18
TORSDOF 28
ENDMDL
MODEL 3
REMARK VINA RESULT:    -5.671      7.258     14.314
REMARK INTER + INTRA:         -16.108
REMARK INTER:                 -14.322
REMARK INTRA:                  -1.786
REMARK UNBOUND:                -1.154
REMARK SMILES CCCCCCCCCCCCCCCCCCCCCCCCCCCCCC(=O)[O-]
REMARK SMILES IDX 16 1 17 2 18 3 19 4 20 5 21 6 22 7 23 8 24 9 25 10 26 11
REMARK SMILES IDX 27 12 28 13 29 14 30 15 31 16 32 17 15 18 14 19 13 20 12 21
REMARK SMILES IDX 11 22 10 23 9 24 8 25 7 26 6 27 5 28 4 29 3 30 2 31 1 32
REMARK H PARENT
REMARK Flexibility Score: inf
ROOT
ATOM      1  C   UNL     1      15.693 -20.703  12.259  1.00  0.00     0.000 C 
ENDROOT
BRANCH   1   2
ATOM      2  C   UNL     1      14.350 -19.941  12.287  1.00  0.00     0.000 C 
BRANCH   2   3
ATOM      3  C   UNL     1      14.497 -18.407  12.226  1.00  0.00     0.000 C 
BRANCH   3   4
ATOM      4  C   UNL     1      13.244 -17.646  11.760  1.00  0.00     0.000 C 
BRANCH   4   5
ATOM      5  C   UNL     1      13.438 -16.126  11.569  1.00  0.00     0.000 C 
BRANCH   5   6
ATOM      6  C   UNL     1      14.540 -15.492  12.442  1.00  0.00     0.000 C 
BRANCH   6   7
ATOM      7  C   UNL     1      14.952 -14.063  12.045  1.00  0.00     0.000 C 
BRANCH   7   8
ATOM      8  C   UNL     1      15.619 -13.293  13.196  1.00  0.00     0.000 C 
BRANCH   8   9
ATOM      9  C   UNL     1      15.124 -13.741  14.583  1.00  0.00     0.000 C 
BRANCH   9  10
ATOM     10  C   UNL     1      16.171 -13.671  15.711  1.00  0.00     0.000 C 
BRANCH  10  11
ATOM     11  C   UNL     1      15.748 -12.751  16.871  1.00  0.00     0.000 C 
BRANCH  11  12
ATOM     12  C   UNL     1      15.280 -13.546  18.110  1.00  0.00     0.000 C 
BRANCH  12  13
ATOM     13  C   UNL     1      15.684 -12.903  19.447  1.00  0.00     0.006 C 
BRANCH  13  14
ATOM     14  C   UNL     1      15.730 -13.908  20.603  1.00  0.00     0.053 C 
BRANCH  14  15
ATOM     15  C   UNL     1      14.351 -14.166  21.127  1.00  0.00     0.041 C 
ATOM     16  O   UNL     1      13.822 -13.363  21.942  1.00  0.00    -0.550 OA
ATOM     17  O   UNL     1      13.632 -15.269  20.679  1.00  0.00    -0.550 OA
ENDBRANCH  14  15
ENDBRANCH  13  14
ENDBRANCH  12  13
ENDBRANCH  11  12
ENDBRANCH  10  11
ENDBRANCH   9  10
ENDBRANCH   8   9
ENDBRANCH   7   8
ENDBRANCH   6   7
ENDBRANCH   5   6
ENDBRANCH   4   5
ENDBRANCH   3   4
ENDBRANCH   2   3
ENDBRANCH   1   2
BRANCH   1  18
ATOM     18  C   UNL     1      16.887 -19.818  12.658  1.00  0.00     0.000 C 
BRANCH  18  19
ATOM     19  C   UNL     1      18.237 -20.410  12.219  1.00  0.00     0.000 C 
BRANCH  19  20
ATOM     20  C   UNL     1      18.620 -21.671  13.012  1.00  0.00     0.000 C 
BRANCH  20  21
ATOM     21  C   UNL     1      19.248 -21.350  14.380  1.00  0.00     0.000 C 
BRANCH  21  22
ATOM     22  C   UNL     1      18.963 -22.420  15.456  1.00  0.00     0.000 C 
BRANCH  22  23
ATOM     23  C   UNL     1      18.181 -21.850  16.649  1.00  0.00     0.000 C 
BRANCH  23  24
ATOM     24  C   UNL     1      19.099 -21.616  17.856  1.00  0.00    -0.000 C 
BRANCH  24  25
ATOM     25  C   UNL     1      20.430 -22.363  17.684  1.00  0.00    -0.000 C 
BRANCH  25  26
ATOM     26  C   UNL     1      21.634 -21.417  17.526  1.00  0.00    -0.000 C 
BRANCH  26  27
ATOM     27  C   UNL     1      21.276 -19.925  17.373  1.00  0.00    -0.000 C 
BRANCH  27  28
ATOM     28  C   UNL     1      22.272 -19.092  16.542  1.00  0.00    -0.000 C 
BRANCH  28  29
ATOM     29  C   UNL     1      23.198 -18.177  17.364  1.00  0.00    -0.000 C 
BRANCH  29  30
ATOM     30  C   UNL     1      22.906 -16.683  17.149  1.00  0.00    -0.000 C 
BRANCH  30  31
ATOM     31  C   UNL     1      22.883 -15.931  18.485  1.00  0.00    -0.003 C 
ATOM     32  C   UNL     1      23.177 -16.870  19.651  1.00  0.00     0.004 C 
ENDBRANCH  30  31
ENDBRANCH  29  30
ENDBRANCH  28  29
ENDBRANCH  27  28
ENDBRANCH  26  27
ENDBRANCH  25  26
ENDBRANCH  24  25
ENDBRANCH  23  24
ENDBRANCH  22  23
ENDBRANCH  21  22
ENDBRANCH  20  21
ENDBRANCH  19  20
ENDBRANCH  18  19
ENDBRANCH   1  18
TORSDOF 28
ENDMDL
MODEL 4
REMARK VINA RESULT:    -5.625      6.516     15.175
REMARK INTER + INTRA:         -15.988
REMARK INTER:                 -13.215
REMARK INTRA:                  -2.773
REMARK UNBOUND:                -1.154
REMARK SMILES CCCCCCCCCCCCCCCCCCCCCCCCCCCCCC(=O)[O-]
REMARK SMILES IDX 16 1 17 2 18 3 19 4 20 5 21 6 22 7 23 8 24 9 25 10 26 11
REMARK SMILES IDX 27 12 28 13 29 14 30 15 31 16 32 17 15 18 14 19 13 20 12 21
REMARK SMILES IDX 11 22 10 23 9 24 8 25 7 26 6 27 5 28 4 29 3 30 2 31 1 32
REMARK H PARENT
REMARK Flexibility Score: inf
ROOT
ATOM      1  C   UNL     1      17.775 -23.030  17.111  1.00  0.00     0.000 C 
ENDROOT
BRANCH   1   2
ATOM      2  C   UNL     1      18.531 -21.843  17.746  1.00  0.00     0.000 C 
BRANCH   2   3
ATOM      3  C   UNL     1      20.023 -22.122  18.019  1.00  0.00     0.000 C 
BRANCH   3   4
ATOM      4  C   UNL     1      20.983 -21.732  16.882  1.00  0.00     0.000 C 
BRANCH   4   5
ATOM      5  C   UNL     1      21.263 -20.219  16.755  1.00  0.00     0.000 C 
BRANCH   5   6
ATOM      6  C   UNL     1      22.745 -19.815  16.891  1.00  0.00     0.000 C 
BRANCH   6   7
ATOM      7  C   UNL     1      23.102 -18.427  16.328  1.00  0.00     0.000 C 
BRANCH   7   8
ATOM      8  C   UNL     1      22.943 -17.303  17.365  1.00  0.00     0.000 C 
BRANCH   8   9
ATOM      9  C   UNL     1      23.606 -17.636  18.715  1.00  0.00     0.000 C 
BRANCH   9  10
ATOM     10  C   UNL     1      22.947 -16.988  19.949  1.00  0.00     0.000 C 
BRANCH  10  11
ATOM     11  C   UNL     1      22.858 -15.454  19.849  1.00  0.00     0.000 C 
BRANCH  11  12
ATOM     12  C   UNL     1      23.274 -14.755  21.161  1.00  0.00     0.000 C 
BRANCH  12  13
ATOM     13  C   UNL     1      22.938 -13.255  21.197  1.00  0.00     0.006 C 
BRANCH  13  14
ATOM     14  C   UNL     1      21.430 -12.982  21.198  1.00  0.00     0.053 C 
BRANCH  14  15
ATOM     15  C   UNL     1      21.099 -11.879  22.156  1.00  0.00     0.041 C 
ATOM     16  O   UNL     1      21.939 -10.969  22.391  1.00  0.00    -0.550 OA
ATOM     17  O   UNL     1      19.844 -11.829  22.752  1.00  0.00    -0.550 OA
ENDBRANCH  14  15
ENDBRANCH  13  14
ENDBRANCH  12  13
ENDBRANCH  11  12
ENDBRANCH  10  11
ENDBRANCH   9  10
ENDBRANCH   8   9
ENDBRANCH   7   8
ENDBRANCH   6   7
ENDBRANCH   5   6
ENDBRANCH   4   5
ENDBRANCH   3   4
ENDBRANCH   2   3
ENDBRANCH   1   2
BRANCH   1  18
ATOM     18  C   UNL     1      17.834 -23.018  15.573  1.00  0.00     0.000 C 
BRANCH  18  19
ATOM     19  C   UNL     1      17.361 -21.684  14.972  1.00  0.00     0.000 C 
BRANCH  19  20
ATOM     20  C   UNL     1      18.497 -20.903  14.289  1.00  0.00     0.000 C 
BRANCH  20  21
ATOM     21  C   UNL     1      18.984 -21.568  12.990  1.00  0.00     0.000 C 
BRANCH  21  22
ATOM     22  C   UNL     1      18.851 -20.664  11.746  1.00  0.00     0.000 C 
BRANCH  22  23
ATOM     23  C   UNL     1      17.991 -21.309  10.648  1.00  0.00     0.000 C 
BRANCH  23  24
ATOM     24  C   UNL     1      17.478 -22.687  11.082  1.00  0.00    -0.000 C 
BRANCH  24  25
ATOM     25  C   UNL     1      16.016 -22.607  11.544  1.00  0.00    -0.000 C 
BRANCH  25  26
ATOM     26  C   UNL     1      15.299 -21.338  11.050  1.00  0.00    -0.000 C 
BRANCH  26  27
ATOM     27  C   UNL     1      14.928 -20.328  12.154  1.00  0.00    -0.000 C 
BRANCH  27  28
ATOM     28  C   UNL     1      14.096 -20.902  13.317  1.00  0.00    -0.000 C 
BRANCH  28  29
ATOM     29  C   UNL     1      12.569 -20.800  13.137  1.00  0.00    -0.000 C 
BRANCH  29  30
ATOM     30  C   UNL     1      12.160 -19.756  12.088  1.00  0.00    -0.000 C 
BRANCH  30  31
ATOM     31  C   UNL     1      11.429 -20.417  10.912  1.00  0.00    -0.003 C 
ATOM     32  C   UNL     1      10.144 -21.096  11.374  1.00  0.00     0.004 C 
ENDBRANCH  30  31
ENDBRANCH  29  30
ENDBRANCH  28  29
ENDBRANCH  27  28
ENDBRANCH  26  27
ENDBRANCH  25  26
ENDBRANCH  24  25
ENDBRANCH  23  24
ENDBRANCH  22  23
ENDBRANCH  21  22
ENDBRANCH  20  21
ENDBRANCH  19  20
ENDBRANCH  18  19
ENDBRANCH   1  18
TORSDOF 28
ENDMDL
MODEL 5
REMARK VINA RESULT:    -5.599      1.314      2.268
REMARK INTER + INTRA:         -15.918
REMARK INTER:                 -14.729
REMARK INTRA:                  -1.189
REMARK UNBOUND:                -1.154
REMARK SMILES CCCCCCCCCCCCCCCCCCCCCCCCCCCCCC(=O)[O-]
REMARK SMILES IDX 16 1 17 2 18 3 19 4 20 5 21 6 22 7 23 8 24 9 25 10 26 11
REMARK SMILES IDX 27 12 28 13 29 14 30 15 31 16 32 17 15 18 14 19 13 20 12 21
REMARK SMILES IDX 11 22 10 23 9 24 8 25 7 26 6 27 5 28 4 29 3 30 2 31 1 32
REMARK H PARENT
REMARK Flexibility Score: inf
ROOT
ATOM      1  C   UNL     1      21.453 -10.920  23.045  1.00  0.00     0.000 C 
ENDROOT
BRANCH   1   2
ATOM      2  C   UNL     1      22.491 -11.133  21.922  1.00  0.00     0.000 C 
BRANCH   2   3
ATOM      3  C   UNL     1      22.997 -12.585  21.803  1.00  0.00     0.000 C 
BRANCH   3   4
ATOM      4  C   UNL     1      22.178 -13.491  20.867  1.00  0.00     0.000 C 
BRANCH   4   5
ATOM      5  C   UNL     1      22.864 -14.818  20.479  1.00  0.00     0.000 C 
BRANCH   5   6
ATOM      6  C   UNL     1      22.707 -15.228  19.000  1.00  0.00     0.000 C 
BRANCH   6   7
ATOM      7  C   UNL     1      23.086 -16.685  18.678  1.00  0.00     0.000 C 
BRANCH   7   8
ATOM      8  C   UNL     1      23.094 -16.980  17.170  1.00  0.00     0.000 C 
BRANCH   8   9
ATOM      9  C   UNL     1      23.289 -18.474  16.851  1.00  0.00     0.000 C 
BRANCH   9  10
ATOM     10  C   UNL     1      22.000 -19.251  16.522  1.00  0.00     0.000 C 
BRANCH  10  11
ATOM     11  C   UNL     1      21.709 -20.386  17.522  1.00  0.00     0.000 C 
BRANCH  11  12
ATOM     12  C   UNL     1      20.298 -20.984  17.337  1.00  0.00     0.000 C 
BRANCH  12  13
ATOM     13  C   UNL     1      20.111 -21.729  16.004  1.00  0.00     0.006 C 
BRANCH  13  14
ATOM     14  C   UNL     1      18.923 -21.205  15.189  1.00  0.00     0.053 C 
BRANCH  14  15
ATOM     15  C   UNL     1      18.938 -21.788  13.809  1.00  0.00     0.041 C 
ATOM     16  O   UNL     1      18.971 -23.037  13.649  1.00  0.00    -0.550 OA
ATOM     17  O   UNL     1      18.867 -20.951  12.701  1.00  0.00    -0.550 OA
ENDBRANCH  14  15
ENDBRANCH  13  14
ENDBRANCH  12  13
ENDBRANCH  11  12
ENDBRANCH  10  11
ENDBRANCH   9  10
ENDBRANCH   8   9
ENDBRANCH   7   8
ENDBRANCH   6   7
ENDBRANCH   5   6
ENDBRANCH   4   5
ENDBRANCH   3   4
ENDBRANCH   2   3
ENDBRANCH   1   2
BRANCH   1  18
ATOM     18  C   UNL     1      21.353  -9.450  23.491  1.00  0.00     0.000 C 
BRANCH  18  19
ATOM     19  C   UNL     1      20.656  -9.290  24.852  1.00  0.00     0.000 C 
BRANCH  19  20
ATOM     20  C   UNL     1      21.160  -8.068  25.639  1.00  0.00     0.000 C 
BRANCH  20  21
ATOM     21  C   UNL     1      21.065  -6.759  24.836  1.00  0.00     0.000 C 
BRANCH  21  22
ATOM     22  C   UNL     1      19.642  -6.163  24.791  1.00  0.00     0.000 C 
BRANCH  22  23
ATOM     23  C   UNL     1      19.408  -5.308  23.536  1.00  0.00     0.000 C 
BRANCH  23  24
ATOM     24  C   UNL     1      18.857  -3.924  23.900  1.00  0.00    -0.000 C 
BRANCH  24  25
ATOM     25  C   UNL     1      17.489  -3.690  23.244  1.00  0.00    -0.000 C 
BRANCH  25  26
ATOM     26  C   UNL     1      16.382  -3.362  24.261  1.00  0.00    -0.000 C 
BRANCH  26  27
ATOM     27  C   UNL     1      15.997  -4.520  25.203  1.00  0.00    -0.000 C 
BRANCH  27  28
ATOM     28  C   UNL     1      14.504  -4.593  25.577  1.00  0.00    -0.000 C 
BRANCH  28  29
ATOM     29  C   UNL     1      13.840  -5.963  25.342  1.00  0.00    -0.000 C 
BRANCH  29  30
ATOM     30  C   UNL     1      12.320  -5.936  25.565  1.00  0.00    -0.000 C 
BRANCH  30  31
ATOM     31  C   UNL     1      11.933  -4.853  26.580  1.00  0.00    -0.003 C 
ATOM     32  C   UNL     1      10.427  -4.835  26.818  1.00  0.00     0.004 C 
ENDBRANCH  30  31
ENDBRANCH  29  30
ENDBRANCH  28  29
ENDBRANCH  27  28
ENDBRANCH  26  27
ENDBRANCH  25  26
ENDBRANCH  24  25
ENDBRANCH  23  24
ENDBRANCH  22  23
ENDBRANCH  21  22
ENDBRANCH  20  21
ENDBRANCH  19  20
ENDBRANCH  18  19
ENDBRANCH   1  18
TORSDOF 28
ENDMDL
MODEL 6
REMARK VINA RESULT:    -5.484      6.110     15.405
REMARK INTER + INTRA:         -15.615
REMARK INTER:                 -13.526
REMARK INTRA:                  -2.089
REMARK UNBOUND:                -1.154
REMARK SMILES CCCCCCCCCCCCCCCCCCCCCCCCCCCCCC(=O)[O-]
REMARK SMILES IDX 16 1 17 2 18 3 19 4 20 5 21 6 22 7 23 8 24 9 25 10 26 11
REMARK SMILES IDX 27 12 28 13 29 14 30 15 31 16 32 17 15 18 14 19 13 20 12 21
REMARK SMILES IDX 11 22 10 23 9 24 8 25 7 26 6 27 5 28 4 29 3 30 2 31 1 32
REMARK H PARENT
REMARK Flexibility Score: inf
ROOT
ATOM      1  C   UNL     1      18.228 -21.464  14.948  1.00  0.00     0.000 C 
ENDROOT
BRANCH   1   2
ATOM      2  C   UNL     1      18.877 -21.192  16.323  1.00  0.00     0.000 C 
BRANCH   2   3
ATOM      3  C   UNL     1      19.804 -22.322  16.814  1.00  0.00     0.000 C 
BRANCH   3   4
ATOM      4  C   UNL     1      20.998 -21.866  17.671  1.00  0.00     0.000 C 
BRANCH   4   5
ATOM      5  C   UNL     1      21.911 -20.812  17.009  1.00  0.00     0.000 C 
BRANCH   5   6
ATOM      6  C   UNL     1      22.096 -19.509  17.814  1.00  0.00     0.000 C 
BRANCH   6   7
ATOM      7  C   UNL     1      22.647 -18.315  17.014  1.00  0.00     0.000 C 
BRANCH   7   8
ATOM      8  C   UNL     1      23.050 -17.132  17.910  1.00  0.00     0.000 C 
BRANCH   8   9
ATOM      9  C   UNL     1      23.009 -17.475  19.410  1.00  0.00     0.000 C 
BRANCH   9  10
ATOM     10  C   UNL     1      23.245 -16.288  20.364  1.00  0.00     0.000 C 
BRANCH  10  11
ATOM     11  C   UNL     1      22.635 -14.971  19.849  1.00  0.00     0.000 C 
BRANCH  11  12
ATOM     12  C   UNL     1      22.890 -13.791  20.811  1.00  0.00     0.000 C 
BRANCH  12  13
ATOM     13  C   UNL     1      21.610 -13.050  21.234  1.00  0.00     0.006 C 
BRANCH  13  14
ATOM     14  C   UNL     1      21.898 -11.763  22.017  1.00  0.00     0.053 C 
BRANCH  14  15
ATOM     15  C   UNL     1      20.749 -11.433  22.920  1.00  0.00     0.041 C 
ATOM     16  O   UNL     1      19.621 -11.963  22.732  1.00  0.00    -0.550 OA
ATOM     17  O   UNL     1      20.937 -10.575  23.998  1.00  0.00    -0.550 OA
ENDBRANCH  14  15
ENDBRANCH  13  14
ENDBRANCH  12  13
ENDBRANCH  11  12
ENDBRANCH  10  11
ENDBRANCH   9  10
ENDBRANCH   8   9
ENDBRANCH   7   8
ENDBRANCH   6   7
ENDBRANCH   5   6
ENDBRANCH   4   5
ENDBRANCH   3   4
ENDBRANCH   2   3
ENDBRANCH   1   2
BRANCH   1  18
ATOM     18  C   UNL     1      19.243 -21.416  13.792  1.00  0.00     0.000 C 
BRANCH  18  19
ATOM     19  C   UNL     1      18.832 -20.433  12.683  1.00  0.00     0.000 C 
BRANCH  19  20
ATOM     20  C   UNL     1      18.941 -21.044  11.276  1.00  0.00     0.000 C 
BRANCH  20  21
ATOM     21  C   UNL     1      17.851 -22.092  10.991  1.00  0.00     0.000 C 
BRANCH  21  22
ATOM     22  C   UNL     1      16.673 -21.546  10.156  1.00  0.00     0.000 C 
BRANCH  22  23
ATOM     23  C   UNL     1      15.325 -21.714  10.874  1.00  0.00     0.000 C 
BRANCH  23  24
ATOM     24  C   UNL     1      15.447 -21.390  12.369  1.00  0.00    -0.000 C 
BRANCH  24  25
ATOM     25  C   UNL     1      14.889 -19.993  12.674  1.00  0.00    -0.000 C 
BRANCH  25  26
ATOM     26  C   UNL     1      13.352 -19.937  12.632  1.00  0.00    -0.000 C 
BRANCH  26  27
ATOM     27  C   UNL     1      12.645 -21.296  12.803  1.00  0.00    -0.000 C 
BRANCH  27  28
ATOM     28  C   UNL     1      11.650 -21.664  11.685  1.00  0.00    -0.000 C 
BRANCH  28  29
ATOM     29  C   UNL     1      11.123 -20.472  10.865  1.00  0.00    -0.000 C 
BRANCH  29  30
ATOM     30  C   UNL     1       9.589 -20.390  10.849  1.00  0.00    -0.000 C 
BRANCH  30  31
ATOM     31  C   UNL     1       9.069 -19.617  12.068  1.00  0.00    -0.003 C 
ATOM     32  C   UNL     1      10.055 -18.535  12.495  1.00  0.00     0.004 C 
ENDBRANCH  30  31
ENDBRANCH  29  30
ENDBRANCH  28  29
ENDBRANCH  27  28
ENDBRANCH  26  27
ENDBRANCH  25  26
ENDBRANCH  24  25
ENDBRANCH  23  24
ENDBRANCH  22  23
ENDBRANCH  21  22
ENDBRANCH  20  21
ENDBRANCH  19  20
ENDBRANCH  18  19
ENDBRANCH   1  18
TORSDOF 28
ENDMDL
MODEL 7
REMARK VINA RESULT:    -5.482      9.594     14.390
REMARK INTER + INTRA:         -15.610
REMARK INTER:                 -12.150
REMARK INTRA:                  -3.459
REMARK UNBOUND:                -1.154
REMARK SMILES CCCCCCCCCCCCCCCCCCCCCCCCCCCCCC(=O)[O-]
REMARK SMILES IDX 16 1 17 2 18 3 19 4 20 5 21 6 22 7 23 8 24 9 25 10 26 11
REMARK SMILES IDX 27 12 28 13 29 14 30 15 31 16 32 17 15 18 14 19 13 20 12 21
REMARK SMILES IDX 11 22 10 23 9 24 8 25 7 26 6 27 5 28 4 29 3 30 2 31 1 32
REMARK H PARENT
REMARK Flexibility Score: inf
ROOT
ATOM      1  C   UNL     1      15.227 -20.840  11.751  1.00  0.00     0.000 C 
ENDROOT
BRANCH   1   2
ATOM      2  C   UNL     1      16.122 -22.026  11.331  1.00  0.00     0.000 C 
BRANCH   2   3
ATOM      3  C   UNL     1      17.323 -21.626  10.451  1.00  0.00     0.000 C 
BRANCH   3   4
ATOM      4  C   UNL     1      18.609 -21.272  11.218  1.00  0.00     0.000 C 
BRANCH   4   5
ATOM      5  C   UNL     1      18.846 -22.088  12.506  1.00  0.00     0.000 C 
BRANCH   5   6
ATOM      6  C   UNL     1      18.948 -21.254  13.799  1.00  0.00     0.000 C 
BRANCH   6   7
ATOM      7  C   UNL     1      17.813 -21.478  14.816  1.00  0.00     0.000 C 
BRANCH   7   8
ATOM      8  C   UNL     1      17.992 -22.765  15.636  1.00  0.00     0.000 C 
BRANCH   8   9
ATOM      9  C   UNL     1      18.927 -22.581  16.845  1.00  0.00     0.000 C 
BRANCH   9  10
ATOM     10  C   UNL     1      18.755 -21.259  17.617  1.00  0.00     0.000 C 
BRANCH  10  11
ATOM     11  C   UNL     1      20.088 -20.532  17.873  1.00  0.00     0.000 C 
BRANCH  11  12
ATOM     12  C   UNL     1      21.015 -20.555  16.638  1.00  0.00     0.000 C 
BRANCH  12  13
ATOM     13  C   UNL     1      21.978 -19.359  16.565  1.00  0.00     0.006 C 
BRANCH  13  14
ATOM     14  C   UNL     1      22.734 -19.120  17.877  1.00  0.00     0.053 C 
BRANCH  14  15
ATOM     15  C   UNL     1      23.022 -17.661  18.056  1.00  0.00     0.041 C 
ATOM     16  O   UNL     1      23.240 -16.929  17.054  1.00  0.00    -0.550 OA
ATOM     17  O   UNL     1      23.002 -17.100  19.329  1.00  0.00    -0.550 OA
ENDBRANCH  14  15
ENDBRANCH  13  14
ENDBRANCH  12  13
ENDBRANCH  11  12
ENDBRANCH  10  11
ENDBRANCH   9  10
ENDBRANCH   8   9
ENDBRANCH   7   8
ENDBRANCH   6   7
ENDBRANCH   5   6
ENDBRANCH   4   5
ENDBRANCH   3   4
ENDBRANCH   2   3
ENDBRANCH   1   2
BRANCH   1  18
ATOM     18  C   UNL     1      14.688 -20.980  13.186  1.00  0.00     0.000 C 
BRANCH  18  19
ATOM     19  C   UNL     1      14.579 -22.446  13.637  1.00  0.00     0.000 C 
BRANCH  19  20
ATOM     20  C   UNL     1      13.147 -22.843  14.032  1.00  0.00     0.000 C 
BRANCH  20  21
ATOM     21  C   UNL     1      12.235 -23.084  12.816  1.00  0.00     0.000 C 
BRANCH  21  22
ATOM     22  C   UNL     1      10.929 -22.261  12.850  1.00  0.00     0.000 C 
BRANCH  22  23
ATOM     23  C   UNL     1      10.992 -21.114  13.870  1.00  0.00     0.000 C 
BRANCH  23  24
ATOM     24  C   UNL     1      10.534 -19.789  13.246  1.00  0.00    -0.000 C 
BRANCH  24  25
ATOM     25  C   UNL     1      10.957 -19.703  11.773  1.00  0.00    -0.000 C 
BRANCH  25  26
ATOM     26  C   UNL     1      11.552 -18.334  11.398  1.00  0.00    -0.000 C 
BRANCH  26  27
ATOM     27  C   UNL     1      12.890 -17.993  12.084  1.00  0.00    -0.000 C 
BRANCH  27  28
ATOM     28  C   UNL     1      13.147 -16.491  12.311  1.00  0.00    -0.000 C 
BRANCH  28  29
ATOM     29  C   UNL     1      13.997 -15.804  11.225  1.00  0.00    -0.000 C 
BRANCH  29  30
ATOM     30  C   UNL     1      14.991 -14.784  11.801  1.00  0.00    -0.000 C 
BRANCH  30  31
ATOM     31  C   UNL     1      14.763 -14.584  13.305  1.00  0.00    -0.003 C 
ATOM     32  C   UNL     1      15.127 -13.166  13.732  1.00  0.00     0.004 C 
ENDBRANCH  30  31
ENDBRANCH  29  30
ENDBRANCH  28  29
ENDBRANCH  27  28
ENDBRANCH  26  27
ENDBRANCH  25  26
ENDBRANCH  24  25
ENDBRANCH  23  24
ENDBRANCH  22  23
ENDBRANCH  21  22
ENDBRANCH  20  21
ENDBRANCH  19  20
ENDBRANCH  18  19
ENDBRANCH   1  18
TORSDOF 28
ENDMDL
MODEL 8
REMARK VINA RESULT:    -5.477      4.454      9.205
REMARK INTER + INTRA:         -15.596
REMARK INTER:                 -13.797
REMARK INTRA:                  -1.799
REMARK UNBOUND:                -1.154
REMARK SMILES CCCCCCCCCCCCCCCCCCCCCCCCCCCCCC(=O)[O-]
REMARK SMILES IDX 16 1 17 2 18 3 19 4 20 5 21 6 22 7 23 8 24 9 25 10 26 11
REMARK SMILES IDX 27 12 28 13 29 14 30 15 31 16 32 17 15 18 14 19 13 20 12 21
REMARK SMILES IDX 11 22 10 23 9 24 8 25 7 26 6 27 5 28 4 29 3 30 2 31 1 32
REMARK H PARENT
REMARK Flexibility Score: inf
ROOT
ATOM      1  C   UNL     1      19.397  -5.030  24.541  1.00  0.00     0.000 C 
ENDROOT
BRANCH   1   2
ATOM      2  C   UNL     1      20.687  -4.395  23.979  1.00  0.00     0.000 C 
BRANCH   2   3
ATOM      3  C   UNL     1      21.924  -4.585  24.880  1.00  0.00     0.000 C 
BRANCH   3   4
ATOM      4  C   UNL     1      21.722  -5.523  26.083  1.00  0.00     0.000 C 
BRANCH   4   5
ATOM      5  C   UNL     1      22.217  -6.969  25.874  1.00  0.00     0.000 C 
BRANCH   5   6
ATOM      6  C   UNL     1      21.116  -8.048  25.899  1.00  0.00     0.000 C 
BRANCH   6   7
ATOM      7  C   UNL     1      20.947  -8.846  24.593  1.00  0.00     0.000 C 
BRANCH   7   8
ATOM      8  C   UNL     1      20.487 -10.293  24.834  1.00  0.00     0.000 C 
BRANCH   8   9
ATOM      9  C   UNL     1      20.438 -11.130  23.543  1.00  0.00     0.000 C 
BRANCH   9  10
ATOM     10  C   UNL     1      21.596 -10.886  22.555  1.00  0.00     0.000 C 
BRANCH  10  11
ATOM     11  C   UNL     1      21.806 -12.053  21.573  1.00  0.00     0.000 C 
BRANCH  11  12
ATOM     12  C   UNL     1      23.232 -12.638  21.654  1.00  0.00     0.000 C 
BRANCH  12  13
ATOM     13  C   UNL     1      23.314 -14.127  21.275  1.00  0.00     0.006 C 
BRANCH  13  14
ATOM     14  C   UNL     1      22.319 -14.517  20.176  1.00  0.00     0.053 C 
BRANCH  14  15
ATOM     15  C   UNL     1      22.850 -15.665  19.373  1.00  0.00     0.041 C 
ATOM     16  O   UNL     1      22.929 -15.579  18.118  1.00  0.00    -0.550 OA
ATOM     17  O   UNL     1      23.301 -16.812  20.016  1.00  0.00    -0.550 OA
ENDBRANCH  14  15
ENDBRANCH  13  14
ENDBRANCH  12  13
ENDBRANCH  11  12
ENDBRANCH  10  11
ENDBRANCH   9  10
ENDBRANCH   8   9
ENDBRANCH   7   8
ENDBRANCH   6   7
ENDBRANCH   5   6
ENDBRANCH   4   5
ENDBRANCH   3   4
ENDBRANCH   2   3
ENDBRANCH   1   2
BRANCH   1  18
ATOM     18  C   UNL     1      18.136  -4.592  23.776  1.00  0.00     0.000 C 
BRANCH  18  19
ATOM     19  C   UNL     1      17.520  -3.300  24.337  1.00  0.00     0.000 C 
BRANCH  19  20
ATOM     20  C   UNL     1      16.131  -3.523  24.959  1.00  0.00     0.000 C 
BRANCH  20  21
ATOM     21  C   UNL     1      15.887  -4.985  25.370  1.00  0.00     0.000 C 
BRANCH  21  22
ATOM     22  C   UNL     1      14.396  -5.387  25.368  1.00  0.00     0.000 C 
BRANCH  22  23
ATOM     23  C   UNL     1      14.061  -6.384  26.487  1.00  0.00     0.000 C 
BRANCH  23  24
ATOM     24  C   UNL     1      13.972  -5.684  27.848  1.00  0.00    -0.000 C 
BRANCH  24  25
ATOM     25  C   UNL     1      13.092  -4.428  27.761  1.00  0.00    -0.000 C 
BRANCH  25  26
ATOM     26  C   UNL     1      11.607  -4.750  27.516  1.00  0.00    -0.000 C 
BRANCH  26  27
ATOM     27  C   UNL     1      11.042  -4.241  26.175  1.00  0.00    -0.000 C 
BRANCH  27  28
ATOM     28  C   UNL     1       9.611  -4.708  25.846  1.00  0.00    -0.000 C 
BRANCH  28  29
ATOM     29  C   UNL     1       8.536  -4.276  26.861  1.00  0.00    -0.000 C 
BRANCH  29  30
ATOM     30  C   UNL     1       7.106  -4.434  26.321  1.00  0.00    -0.000 C 
BRANCH  30  31
ATOM     31  C   UNL     1       7.119  -4.741  24.818  1.00  0.00    -0.003 C 
ATOM     32  C   UNL     1       6.310  -5.996  24.506  1.00  0.00     0.004 C 
ENDBRANCH  30  31
ENDBRANCH  29  30
ENDBRANCH  28  29
ENDBRANCH  27  28
ENDBRANCH  26  27
ENDBRANCH  25  26
ENDBRANCH  24  25
ENDBRANCH  23  24
ENDBRANCH  22  23
ENDBRANCH  21  22
ENDBRANCH  20  21
ENDBRANCH  19  20
ENDBRANCH  18  19
ENDBRANCH   1  18
TORSDOF 28
ENDMDL
MODEL 9
REMARK VINA RESULT:    -5.474      6.378     11.710
REMARK INTER + INTRA:         -15.589
REMARK INTER:                 -14.174
REMARK INTRA:                  -1.415
REMARK UNBOUND:                -1.154
REMARK SMILES CCCCCCCCCCCCCCCCCCCCCCCCCCCCCC(=O)[O-]
REMARK SMILES IDX 16 1 17 2 18 3 19 4 20 5 21 6 22 7 23 8 24 9 25 10 26 11
REMARK SMILES IDX 27 12 28 13 29 14 30 15 31 16 32 17 15 18 14 19 13 20 12 21
REMARK SMILES IDX 11 22 10 23 9 24 8 25 7 26 6 27 5 28 4 29 3 30 2 31 1 32
REMARK H PARENT
REMARK Flexibility Score: inf
ROOT
ATOM      1  C   UNL     1      12.928 -19.955  12.422  1.00  0.00     0.000 C 
ENDROOT
BRANCH   1   2
ATOM      2  C   UNL     1      13.745 -21.070  11.734  1.00  0.00     0.000 C 
BRANCH   2   3
ATOM      3  C   UNL     1      15.258 -20.782  11.654  1.00  0.00     0.000 C 
BRANCH   3   4
ATOM      4  C   UNL     1      16.044 -21.038  12.951  1.00  0.00     0.000 C 
BRANCH   4   5
ATOM      5  C   UNL     1      17.392 -20.293  13.055  1.00  0.00     0.000 C 
BRANCH   5   6
ATOM      6  C   UNL     1      18.588 -21.162  13.493  1.00  0.00     0.000 C 
BRANCH   6   7
ATOM      7  C   UNL     1      18.299 -22.150  14.638  1.00  0.00     0.000 C 
BRANCH   7   8
ATOM      8  C   UNL     1      18.513 -21.530  16.029  1.00  0.00     0.000 C 
BRANCH   8   9
ATOM      9  C   UNL     1      19.856 -20.788  16.154  1.00  0.00     0.000 C 
BRANCH   9  10
ATOM     10  C   UNL     1      20.598 -20.989  17.490  1.00  0.00     0.000 C 
BRANCH  10  11
ATOM     11  C   UNL     1      21.677 -19.921  17.746  1.00  0.00     0.000 C 
BRANCH  11  12
ATOM     12  C   UNL     1      22.119 -19.210  16.449  1.00  0.00     0.000 C 
BRANCH  12  13
ATOM     13  C   UNL     1      23.273 -18.214  16.651  1.00  0.00     0.006 C 
BRANCH  13  14
ATOM     14  C   UNL     1      23.377 -17.706  18.094  1.00  0.00     0.053 C 
BRANCH  14  15
ATOM     15  C   UNL     1      23.000 -16.259  18.167  1.00  0.00     0.041 C 
ATOM     16  O   UNL     1      22.978 -15.664  19.277  1.00  0.00    -0.550 OA
ATOM     17  O   UNL     1      22.719 -15.554  17.001  1.00  0.00    -0.550 OA
ENDBRANCH  14  15
ENDBRANCH  13  14
ENDBRANCH  12  13
ENDBRANCH  11  12
ENDBRANCH  10  11
ENDBRANCH   9  10
ENDBRANCH   8   9
ENDBRANCH   7   8
ENDBRANCH   6   7
ENDBRANCH   5   6
ENDBRANCH   4   5
ENDBRANCH   3   4
ENDBRANCH   2   3
ENDBRANCH   1   2
BRANCH   1  18
ATOM     18  C   UNL     1      12.032 -19.181  11.439  1.00  0.00     0.000 C 
BRANCH  18  19
ATOM     19  C   UNL     1      11.161 -18.124  12.137  1.00  0.00     0.000 C 
BRANCH  19  20
ATOM     20  C   UNL     1      11.863 -16.760  12.257  1.00  0.00     0.000 C 
BRANCH  20  21
ATOM     21  C   UNL     1      13.188 -16.698  11.478  1.00  0.00     0.000 C 
BRANCH  21  22
ATOM     22  C   UNL     1      14.323 -15.986  12.247  1.00  0.00     0.000 C 
BRANCH  22  23
ATOM     23  C   UNL     1      14.372 -14.480  11.948  1.00  0.00     0.000 C 
BRANCH  23  24
ATOM     24  C   UNL     1      15.565 -13.813  12.643  1.00  0.00    -0.000 C 
BRANCH  24  25
ATOM     25  C   UNL     1      15.129 -13.133  13.948  1.00  0.00    -0.000 C 
BRANCH  25  26
ATOM     26  C   UNL     1      15.814 -13.724  15.193  1.00  0.00    -0.000 C 
BRANCH  26  27
ATOM     27  C   UNL     1      15.666 -12.887  16.478  1.00  0.00    -0.000 C 
BRANCH  27  28
ATOM     28  C   UNL     1      15.847 -13.667  17.795  1.00  0.00    -0.000 C 
BRANCH  28  29
ATOM     29  C   UNL     1      14.980 -13.173  18.968  1.00  0.00    -0.000 C 
BRANCH  29  30
ATOM     30  C   UNL     1      14.681 -14.276  19.996  1.00  0.00    -0.000 C 
BRANCH  30  31
ATOM     31  C   UNL     1      14.477 -13.681  21.395  1.00  0.00    -0.003 C 
ATOM     32  C   UNL     1      15.492 -12.579  21.678  1.00  0.00     0.004 C 
ENDBRANCH  30  31
ENDBRANCH  29  30
ENDBRANCH  28  29
ENDBRANCH  27  28
ENDBRANCH  26  27
ENDBRANCH  25  26
ENDBRANCH  24  25
ENDBRANCH  23  24
ENDBRANCH  22  23
ENDBRANCH  21  22
ENDBRANCH  20  21
ENDBRANCH  19  20
ENDBRANCH  18  19
ENDBRANCH   1  18
TORSDOF 28
ENDMDL
