MODEL 1
REMARK VINA RESULT:    -4.014      0.000      0.000
REMARK INTER + INTRA:         -10.021
REMARK INTER:                  -7.768
REMARK INTRA:                  -2.253
REMARK UNBOUND:                -2.253
REMARK SMILES CCCCCCCCCCCCCCCCCC(=O)[O-]
REMARK SMILES IDX 10 1 11 2 12 3 13 4 14 5 15 6 16 7 17 8 18 9 19 10 20 11
REMARK SMILES IDX 9 12 8 13 7 14 6 15 5 16 4 17 3 18 2 19 1 20
REMARK H PARENT
REMARK Flexibility Score: inf
ROOT
ATOM      1  C   UNL     1      -8.463  26.857  21.691  1.00  0.00     0.000 C 
ENDROOT
BRANCH   1   2
ATOM      2  C   UNL     1      -7.807  25.629  22.342  1.00  0.00     0.000 C 
BRANCH   2   3
ATOM      3  C   UNL     1      -8.830  24.555  22.740  1.00  0.00     0.000 C 
BRANCH   3   4
ATOM      4  C   UNL     1      -8.483  23.204  22.103  1.00  0.00     0.000 C 
BRANCH   4   5
ATOM      5  C   UNL     1      -9.710  22.282  22.062  1.00  0.00     0.000 C 
BRANCH   5   6
ATOM      6  C   UNL     1     -10.821  22.824  21.137  1.00  0.00     0.000 C 
BRANCH   6   7
ATOM      7  C   UNL     1     -10.591  22.505  19.647  1.00  0.00     0.006 C 
BRANCH   7   8
ATOM      8  C   UNL     1     -11.125  23.578  18.688  1.00  0.00     0.053 C 
BRANCH   8   9
ATOM      9  C   UNL     1     -10.059  24.554  18.293  1.00  0.00     0.041 C 
ATOM     10  O   UNL     1      -8.956  24.565  18.900  1.00  0.00    -0.550 OA
ATOM     11  O   UNL     1     -10.272  25.435  17.241  1.00  0.00    -0.550 OA
ENDBRANCH   8   9
ENDBRANCH   7   8
ENDBRANCH   6   7
ENDBRANCH   5   6
ENDBRANCH   4   5
ENDBRANCH   3   4
ENDBRANCH   2   3
ENDBRANCH   1   2
BRANCH   1  12
ATOM     12  C   UNL     1      -9.989  26.714  21.561  1.00  0.00     0.000 C 
BRANCH  12  13
ATOM     13  C   UNL     1     -10.662  27.984  21.017  1.00  0.00    -0.000 C 
BRANCH  13  14
ATOM     14  C   UNL     1     -10.481  29.216  21.930  1.00  0.00    -0.000 C 
BRANCH  14  15
ATOM     15  C   UNL     1     -11.125  29.016  23.313  1.00  0.00    -0.000 C 
BRANCH  15  16
ATOM     16  C   UNL     1     -10.281  29.612  24.449  1.00  0.00    -0.000 C 
BRANCH  16  17
ATOM     17  C   UNL     1      -8.800  29.206  24.361  1.00  0.00    -0.000 C 
BRANCH  17  18
ATOM     18  C   UNL     1      -8.486  27.923  25.152  1.00  0.00    -0.000 C 
BRANCH  18  19
ATOM     19  C   UNL     1      -9.677  27.340  25.935  1.00  0.00    -0.003 C 
ATOM     20  C   UNL     1     -10.201  26.033  25.342  1.00  0.00     0.004 C 
ENDBRANCH  18  19
ENDBRANCH  17  18
ENDBRANCH  16  17
ENDBRANCH  15  16
ENDBRANCH  14  15
ENDBRANCH  13  14
ENDBRANCH  12  13
ENDBRANCH   1  12
TORSDOF 16
ENDMDL
MODEL 2
REMARK VINA RESULT:    -3.993      2.400      6.244
REMARK INTER + INTRA:          -9.982
REMARK INTER:                  -8.288
REMARK INTRA:                  -1.694
REMARK UNBOUND:                -2.253
REMARK SMILES CCCCCCCCCCCCCCCCCC(=O)[O-]
REMARK SMILES IDX 10 1 11 2 12 3 13 4 14 5 15 6 16 7 17 8 18 9 19 10 20 11
REMARK SMILES IDX 9 12 8 13 7 14 6 15 5 16 4 17 3 18 2 19 1 20
REMARK H PARENT
REMARK Flexibility Score: inf
ROOT
ATOM      1  C   UNL     1      -7.723  26.372  22.632  1.00  0.00     0.000 C 
ENDROOT
BRANCH   1   2
ATOM      2  C   UNL     1      -7.537  25.995  24.110  1.00  0.00     0.000 C 
BRANCH   2   3
ATOM      3  C   UNL     1      -8.743  25.234  24.681  1.00  0.00     0.000 C 
BRANCH   3   4
ATOM      4  C   UNL     1     -10.059  25.813  24.148  1.00  0.00     0.000 C 
BRANCH   4   5
ATOM      5  C   UNL     1     -10.934  26.340  25.295  1.00  0.00     0.000 C 
BRANCH   5   6
ATOM      6  C   UNL     1     -10.271  27.514  26.047  1.00  0.00     0.000 C 
BRANCH   6   7
ATOM      7  C   UNL     1     -10.800  28.896  25.619  1.00  0.00     0.006 C 
BRANCH   7   8
ATOM      8  C   UNL     1     -11.043  29.033  24.110  1.00  0.00     0.053 C 
BRANCH   8   9
ATOM      9  C   UNL     1      -9.796  29.423  23.376  1.00  0.00     0.041 C 
ATOM     10  O   UNL     1      -9.693  29.200  22.142  1.00  0.00    -0.550 OA
ATOM     11  O   UNL     1      -8.757  30.053  24.049  1.00  0.00    -0.550 OA
ENDBRANCH   8   9
ENDBRANCH   7   8
ENDBRANCH   6   7
ENDBRANCH   5   6
ENDBRANCH   4   5
ENDBRANCH   3   4
ENDBRANCH   2   3
ENDBRANCH   1   2
BRANCH   1  12
ATOM     12  C   UNL     1      -7.945  25.146  21.732  1.00  0.00     0.000 C 
BRANCH  12  13
ATOM     13  C   UNL     1      -8.942  25.416  20.593  1.00  0.00    -0.000 C 
BRANCH  13  14
ATOM     14  C   UNL     1      -8.626  24.634  19.300  1.00  0.00    -0.000 C 
BRANCH  14  15
ATOM     15  C   UNL     1      -9.826  24.592  18.337  1.00  0.00    -0.000 C 
BRANCH  15  16
ATOM     16  C   UNL     1     -10.964  23.697  18.850  1.00  0.00    -0.000 C 
BRANCH  16  17
ATOM     17  C   UNL     1     -10.642  22.198  18.716  1.00  0.00    -0.000 C 
BRANCH  17  18
ATOM     18  C   UNL     1     -10.939  21.407  20.002  1.00  0.00    -0.000 C 
BRANCH  18  19
ATOM     19  C   UNL     1     -10.097  21.821  21.223  1.00  0.00    -0.003 C 
ATOM     20  C   UNL     1     -10.889  22.627  22.251  1.00  0.00     0.004 C 
ENDBRANCH  18  19
ENDBRANCH  17  18
ENDBRANCH  16  17
ENDBRANCH  15  16
ENDBRANCH  14  15
ENDBRANCH  13  14
ENDBRANCH  12  13
ENDBRANCH   1  12
TORSDOF 16
ENDMDL
MODEL 3
REMARK VINA RESULT:    -3.862      1.712      6.139
REMARK INTER + INTRA:          -9.727
REMARK INTER:                  -8.152
REMARK INTRA:                  -1.575
REMARK UNBOUND:                -2.253
REMARK SMILES CCCCCCCCCCCCCCCCCC(=O)[O-]
REMARK SMILES IDX 10 1 11 2 12 3 13 4 14 5 15 6 16 7 17 8 18 9 19 10 20 11
REMARK SMILES IDX 9 12 8 13 7 14 6 15 5 16 4 17 3 18 2 19 1 20
REMARK H PARENT
REMARK Flexibility Score: inf
ROOT
ATOM      1  C   UNL     1      -7.339  26.048  22.794  1.00  0.00     0.000 C 
ENDROOT
BRANCH   1   2
ATOM      2  C   UNL     1      -7.151  25.895  24.312  1.00  0.00     0.000 C 
BRANCH   2   3
ATOM      3  C   UNL     1      -8.420  26.247  25.102  1.00  0.00     0.000 C 
BRANCH   3   4
ATOM      4  C   UNL     1      -8.759  27.735  24.962  1.00  0.00     0.000 C 
BRANCH   4   5
ATOM      5  C   UNL     1     -10.076  28.071  25.676  1.00  0.00     0.000 C 
BRANCH   5   6
ATOM      6  C   UNL     1     -10.997  28.965  24.817  1.00  0.00     0.000 C 
BRANCH   6   7
ATOM      7  C   UNL     1     -10.566  29.053  23.340  1.00  0.00     0.006 C 
BRANCH   7   8
ATOM      8  C   UNL     1     -11.102  27.914  22.464  1.00  0.00     0.053 C 
BRANCH   8   9
ATOM      9  C   UNL     1     -10.899  28.188  21.004  1.00  0.00     0.041 C 
ATOM     10  O   UNL     1     -10.876  27.237  20.180  1.00  0.00    -0.550 OA
ATOM     11  O   UNL     1     -10.759  29.493  20.551  1.00  0.00    -0.550 OA
ENDBRANCH   8   9
ENDBRANCH   7   8
ENDBRANCH   6   7
ENDBRANCH   5   6
ENDBRANCH   4   5
ENDBRANCH   3   4
ENDBRANCH   2   3
ENDBRANCH   1   2
BRANCH   1  12
ATOM     12  C   UNL     1      -8.538  25.246  22.263  1.00  0.00     0.000 C 
BRANCH  12  13
ATOM     13  C   UNL     1      -8.138  23.859  21.732  1.00  0.00    -0.000 C 
BRANCH  13  14
ATOM     14  C   UNL     1      -8.821  22.693  22.479  1.00  0.00    -0.000 C 
BRANCH  14  15
ATOM     15  C   UNL     1     -10.343  22.889  22.595  1.00  0.00    -0.000 C 
BRANCH  15  16
ATOM     16  C   UNL     1     -11.124  22.094  21.538  1.00  0.00    -0.000 C 
BRANCH  16  17
ATOM     17  C   UNL     1     -10.279  21.784  20.290  1.00  0.00    -0.000 C 
BRANCH  17  18
ATOM     18  C   UNL     1     -11.099  21.832  18.988  1.00  0.00    -0.000 C 
BRANCH  18  19
ATOM     19  C   UNL     1     -11.123  23.206  18.292  1.00  0.00    -0.003 C 
ATOM     20  C   UNL     1      -9.950  24.100  18.694  1.00  0.00     0.004 C 
ENDBRANCH  18  19
ENDBRANCH  17  18
ENDBRANCH  16  17
ENDBRANCH  15  16
ENDBRANCH  14  15
ENDBRANCH  13  14
ENDBRANCH  12  13
ENDBRANCH   1  12
TORSDOF 16
ENDMDL
MODEL 4
REMARK VINA RESULT:    -3.736      2.016      5.775
REMARK INTER + INTRA:          -9.484
REMARK INTER:                  -7.351
REMARK INTRA:                  -2.133
REMARK UNBOUND:                -2.253
REMARK SMILES CCCCCCCCCCCCCCCCCC(=O)[O-]
REMARK SMILES IDX 10 1 11 2 12 3 13 4 14 5 15 6 16 7 17 8 18 9 19 10 20 11
REMARK SMILES IDX 9 12 8 13 7 14 6 15 5 16 4 17 3 18 2 19 1 20
REMARK H PARENT
REMARK Flexibility Score: inf
ROOT
ATOM      1  C   UNL     1      -7.596  25.018  21.398  1.00  0.00     0.000 C 
ENDROOT
BRANCH   1   2
ATOM      2  C   UNL     1      -7.435  26.121  22.456  1.00  0.00     0.000 C 
BRANCH   2   3
ATOM      3  C   UNL     1      -7.042  25.565  23.833  1.00  0.00     0.000 C 
BRANCH   3   4
ATOM      4  C   UNL     1      -8.144  25.830  24.866  1.00  0.00     0.000 C 
BRANCH   4   5
ATOM      5  C   UNL     1      -8.205  27.318  25.240  1.00  0.00     0.000 C 
BRANCH   5   6
ATOM      6  C   UNL     1      -9.654  27.815  25.434  1.00  0.00     0.000 C 
BRANCH   6   7
ATOM      7  C   UNL     1     -10.599  27.422  24.281  1.00  0.00     0.006 C 
BRANCH   7   8
ATOM      8  C   UNL     1     -11.125  28.614  23.470  1.00  0.00     0.053 C 
BRANCH   8   9
ATOM      9  C   UNL     1     -10.355  28.810  22.199  1.00  0.00     0.041 C 
ATOM     10  O   UNL     1      -9.169  29.231  22.237  1.00  0.00    -0.550 OA
ATOM     11  O   UNL     1     -10.936  28.505  20.976  1.00  0.00    -0.550 OA
ENDBRANCH   8   9
ENDBRANCH   7   8
ENDBRANCH   6   7
ENDBRANCH   5   6
ENDBRANCH   4   5
ENDBRANCH   3   4
ENDBRANCH   2   3
ENDBRANCH   1   2
BRANCH   1  12
ATOM     12  C   UNL     1      -8.663  25.359  20.345  1.00  0.00     0.000 C 
BRANCH  12  13
ATOM     13  C   UNL     1      -8.488  24.564  19.041  1.00  0.00    -0.000 C 
BRANCH  13  14
ATOM     14  C   UNL     1      -9.768  24.503  18.180  1.00  0.00    -0.000 C 
BRANCH  14  15
ATOM     15  C   UNL     1     -10.927  23.801  18.910  1.00  0.00    -0.000 C 
BRANCH  15  16
ATOM     16  C   UNL     1     -10.752  22.276  18.966  1.00  0.00    -0.000 C 
BRANCH  16  17
ATOM     17  C   UNL     1     -10.942  21.711  20.384  1.00  0.00    -0.000 C 
BRANCH  17  18
ATOM     18  C   UNL     1     -11.121  22.811  21.445  1.00  0.00    -0.000 C 
BRANCH  18  19
ATOM     19  C   UNL     1     -10.127  22.742  22.619  1.00  0.00    -0.003 C 
ATOM     20  C   UNL     1      -8.802  22.079  22.243  1.00  0.00     0.004 C 
ENDBRANCH  18  19
ENDBRANCH  17  18
ENDBRANCH  16  17
ENDBRANCH  15  16
ENDBRANCH  14  15
ENDBRANCH  13  14
ENDBRANCH  12  13
ENDBRANCH   1  12
TORSDOF 16
ENDMDL
MODEL 5
REMARK VINA RESULT:    -3.670      2.304      6.493
REMARK INTER + INTRA:          -9.355
REMARK INTER:                  -7.836
REMARK INTRA:                  -1.519
REMARK UNBOUND:                -2.253
REMARK SMILES CCCCCCCCCCCCCCCCCC(=O)[O-]
REMARK SMILES IDX 10 1 11 2 12 3 13 4 14 5 15 6 16 7 17 8 18 9 19 10 20 11
REMARK SMILES IDX 9 12 8 13 7 14 6 15 5 16 4 17 3 18 2 19 1 20
REMARK H PARENT
REMARK Flexibility Score: inf
ROOT
ATOM      1  C   UNL     1      -8.898  26.848  20.465  1.00  0.00     0.000 C 
ENDROOT
BRANCH   1   2
ATOM      2  C   UNL     1     -10.083  27.050  21.423  1.00  0.00     0.000 C 
BRANCH   2   3
ATOM      3  C   UNL     1     -10.954  28.255  21.037  1.00  0.00     0.000 C 
BRANCH   3   4
ATOM      4  C   UNL     1     -11.025  29.270  22.185  1.00  0.00     0.000 C 
BRANCH   4   5
ATOM      5  C   UNL     1      -9.751  29.226  23.041  1.00  0.00     0.000 C 
BRANCH   5   6
ATOM      6  C   UNL     1     -10.043  29.462  24.539  1.00  0.00     0.000 C 
BRANCH   6   7
ATOM      7  C   UNL     1     -10.804  28.301  25.208  1.00  0.00     0.006 C 
BRANCH   7   8
ATOM      8  C   UNL     1      -9.914  27.366  26.038  1.00  0.00     0.053 C 
BRANCH   8   9
ATOM      9  C   UNL     1      -9.059  26.493  25.170  1.00  0.00     0.041 C 
ATOM     10  O   UNL     1      -7.844  26.773  24.994  1.00  0.00    -0.550 OA
ATOM     11  O   UNL     1      -9.595  25.359  24.575  1.00  0.00    -0.550 OA
ENDBRANCH   8   9
ENDBRANCH   7   8
ENDBRANCH   6   7
ENDBRANCH   5   6
ENDBRANCH   4   5
ENDBRANCH   3   4
ENDBRANCH   2   3
ENDBRANCH   1   2
BRANCH   1  12
ATOM     12  C   UNL     1      -8.968  25.510  19.712  1.00  0.00     0.000 C 
BRANCH  12  13
ATOM     13  C   UNL     1      -9.992  25.524  18.566  1.00  0.00    -0.000 C 
BRANCH  13  14
ATOM     14  C   UNL     1     -10.464  24.116  18.144  1.00  0.00    -0.000 C 
BRANCH  14  15
ATOM     15  C   UNL     1     -11.121  23.350  19.305  1.00  0.00    -0.000 C 
BRANCH  15  16
ATOM     16  C   UNL     1     -10.714  21.869  19.341  1.00  0.00    -0.000 C 
BRANCH  16  17
ATOM     17  C   UNL     1     -10.761  21.277  20.760  1.00  0.00    -0.000 C 
BRANCH  17  18
ATOM     18  C   UNL     1     -10.372  22.298  21.845  1.00  0.00    -0.000 C 
BRANCH  18  19
ATOM     19  C   UNL     1      -8.894  22.250  22.274  1.00  0.00    -0.003 C 
ATOM     20  C   UNL     1      -8.167  23.578  22.067  1.00  0.00     0.004 C 
ENDBRANCH  18  19
ENDBRANCH  17  18
ENDBRANCH  16  17
ENDBRANCH  15  16
ENDBRANCH  14  15
ENDBRANCH  13  14
ENDBRANCH  12  13
ENDBRANCH   1  12
TORSDOF 16
ENDMDL
MODEL 6
REMARK VINA RESULT:    -3.655      1.795      3.361
REMARK INTER + INTRA:          -9.328
REMARK INTER:                  -7.263
REMARK INTRA:                  -2.064
REMARK UNBOUND:                -2.253
REMARK SMILES CCCCCCCCCCCCCCCCCC(=O)[O-]
REMARK SMILES IDX 10 1 11 2 12 3 13 4 14 5 15 6 16 7 17 8 18 9 19 10 20 11
REMARK SMILES IDX 9 12 8 13 7 14 6 15 5 16 4 17 3 18 2 19 1 20
REMARK H PARENT
REMARK Flexibility Score: inf
ROOT
ATOM      1  C   UNL     1      -9.629  28.079  22.173  1.00  0.00     0.000 C 
ENDROOT
BRANCH   1   2
ATOM      2  C   UNL     1      -9.981  26.807  21.385  1.00  0.00     0.000 C 
BRANCH   2   3
ATOM      3  C   UNL     1      -9.203  26.695  20.066  1.00  0.00     0.000 C 
BRANCH   3   4
ATOM      4  C   UNL     1     -10.040  25.989  18.993  1.00  0.00     0.000 C 
BRANCH   4   5
ATOM      5  C   UNL     1      -9.576  24.538  18.797  1.00  0.00     0.000 C 
BRANCH   5   6
ATOM      6  C   UNL     1     -10.675  23.517  19.164  1.00  0.00     0.000 C 
BRANCH   6   7
ATOM      7  C   UNL     1     -10.817  23.284  20.680  1.00  0.00     0.006 C 
BRANCH   7   8
ATOM      8  C   UNL     1     -10.012  22.089  21.208  1.00  0.00     0.053 C 
BRANCH   8   9
ATOM      9  C   UNL     1      -8.860  22.525  22.062  1.00  0.00     0.041 C 
ATOM     10  O   UNL     1      -8.491  21.816  23.034  1.00  0.00    -0.550 OA
ATOM     11  O   UNL     1      -8.179  23.699  21.771  1.00  0.00    -0.550 OA
ENDBRANCH   8   9
ENDBRANCH   7   8
ENDBRANCH   6   7
ENDBRANCH   5   6
ENDBRANCH   4   5
ENDBRANCH   3   4
ENDBRANCH   2   3
ENDBRANCH   1   2
BRANCH   1  12
ATOM     12  C   UNL     1     -10.814  29.052  22.284  1.00  0.00     0.000 C 
BRANCH  12  13
ATOM     13  C   UNL     1     -10.790  29.875  23.583  1.00  0.00    -0.000 C 
BRANCH  13  14
ATOM     14  C   UNL     1     -10.069  29.164  24.748  1.00  0.00    -0.000 C 
BRANCH  14  15
ATOM     15  C   UNL     1     -11.034  28.320  25.600  1.00  0.00    -0.000 C 
BRANCH  15  16
ATOM     16  C   UNL     1     -10.306  27.484  26.663  1.00  0.00    -0.000 C 
BRANCH  16  17
ATOM     17  C   UNL     1     -10.355  25.976  26.363  1.00  0.00    -0.000 C 
BRANCH  17  18
ATOM     18  C   UNL     1      -9.889  25.636  24.936  1.00  0.00    -0.000 C 
BRANCH  18  19
ATOM     19  C   UNL     1      -8.416  25.202  24.825  1.00  0.00    -0.003 C 
ATOM     20  C   UNL     1      -7.471  26.364  24.521  1.00  0.00     0.004 C 
ENDBRANCH  18  19
ENDBRANCH  17  18
ENDBRANCH  16  17
ENDBRANCH  15  16
ENDBRANCH  14  15
ENDBRANCH  13  14
ENDBRANCH  12  13
ENDBRANCH   1  12
TORSDOF 16
ENDMDL
MODEL 7
REMARK VINA RESULT:    -3.632      1.234      2.782
REMARK INTER + INTRA:          -9.283
REMARK INTER:                  -7.609
REMARK INTRA:                  -1.674
REMARK UNBOUND:                -2.253
REMARK SMILES CCCCCCCCCCCCCCCCCC(=O)[O-]
REMARK SMILES IDX 10 1 11 2 12 3 13 4 14 5 15 6 16 7 17 8 18 9 19 10 20 11
REMARK SMILES IDX 9 12 8 13 7 14 6 15 5 16 4 17 3 18 2 19 1 20
REMARK H PARENT
REMARK Flexibility Score: inf
ROOT
ATOM      1  C   UNL     1      -6.655  25.983  23.549  1.00  0.00     0.000 C 
ENDROOT
BRANCH   1   2
ATOM      2  C   UNL     1      -7.392  25.641  22.245  1.00  0.00     0.000 C 
BRANCH   2   3
ATOM      3  C   UNL     1      -8.571  24.682  22.467  1.00  0.00     0.000 C 
BRANCH   3   4
ATOM      4  C   UNL     1      -8.153  23.230  22.205  1.00  0.00     0.000 C 
BRANCH   4   5
ATOM      5  C   UNL     1      -9.338  22.399  21.692  1.00  0.00     0.000 C 
BRANCH   5   6
ATOM      6  C   UNL     1     -10.647  23.215  21.636  1.00  0.00     0.000 C 
BRANCH   6   7
ATOM      7  C   UNL     1     -11.125  23.515  20.202  1.00  0.00     0.006 C 
BRANCH   7   8
ATOM      8  C   UNL     1     -11.069  25.001  19.822  1.00  0.00     0.053 C 
BRANCH   8   9
ATOM      9  C   UNL     1      -9.732  25.384  19.263  1.00  0.00     0.041 C 
ATOM     10  O   UNL     1      -9.334  26.576  19.338  1.00  0.00    -0.550 OA
ATOM     11  O   UNL     1      -8.916  24.424  18.680  1.00  0.00    -0.550 OA
ENDBRANCH   8   9
ENDBRANCH   7   8
ENDBRANCH   6   7
ENDBRANCH   5   6
ENDBRANCH   4   5
ENDBRANCH   3   4
ENDBRANCH   2   3
ENDBRANCH   1   2
BRANCH   1  12
ATOM     12  C   UNL     1      -7.599  26.510  24.641  1.00  0.00     0.000 C 
BRANCH  12  13
ATOM     13  C   UNL     1      -8.514  25.416  25.217  1.00  0.00    -0.000 C 
BRANCH  13  14
ATOM     14  C   UNL     1      -9.804  25.968  25.861  1.00  0.00    -0.000 C 
BRANCH  14  15
ATOM     15  C   UNL     1      -9.583  27.338  26.526  1.00  0.00    -0.000 C 
BRANCH  15  16
ATOM     16  C   UNL     1     -10.820  28.243  26.439  1.00  0.00    -0.000 C 
BRANCH  16  17
ATOM     17  C   UNL     1     -11.125  28.690  24.998  1.00  0.00    -0.000 C 
BRANCH  17  18
ATOM     18  C   UNL     1     -10.189  29.810  24.511  1.00  0.00    -0.000 C 
BRANCH  18  19
ATOM     19  C   UNL     1      -9.239  29.404  23.369  1.00  0.00    -0.003 C 
ATOM     20  C   UNL     1      -9.839  28.353  22.436  1.00  0.00     0.004 C 
ENDBRANCH  18  19
ENDBRANCH  17  18
ENDBRANCH  16  17
ENDBRANCH  15  16
ENDBRANCH  14  15
ENDBRANCH  13  14
ENDBRANCH  12  13
ENDBRANCH   1  12
TORSDOF 16
ENDMDL
MODEL 8
REMARK VINA RESULT:    -3.504      2.741      6.371
REMARK INTER + INTRA:          -9.035
REMARK INTER:                  -7.016
REMARK INTRA:                  -2.018
REMARK UNBOUND:                -2.253
REMARK SMILES CCCCCCCCCCCCCCCCCC(=O)[O-]
REMARK SMILES IDX 10 1 11 2 12 3 13 4 14 5 15 6 16 7 17 8 18 9 19 10 20 11
REMARK SMILES IDX 9 12 8 13 7 14 6 15 5 16 4 17 3 18 2 19 1 20
REMARK H PARENT
REMARK Flexibility Score: inf
ROOT
ATOM      1  C   UNL     1     -10.850  26.453  20.088  1.00  0.00     0.000 C 
ENDROOT
BRANCH   1   2
ATOM      2  C   UNL     1     -10.942  26.971  21.532  1.00  0.00     0.000 C 
BRANCH   2   3
ATOM      3  C   UNL     1     -11.118  28.495  21.602  1.00  0.00     0.000 C 
BRANCH   3   4
ATOM      4  C   UNL     1      -9.833  29.175  22.089  1.00  0.00     0.000 C 
BRANCH   4   5
ATOM      5  C   UNL     1      -9.407  28.632  23.461  1.00  0.00     0.000 C 
BRANCH   5   6
ATOM      6  C   UNL     1     -10.184  29.294  24.620  1.00  0.00     0.000 C 
BRANCH   6   7
ATOM      7  C   UNL     1     -11.043  28.304  25.429  1.00  0.00     0.006 C 
BRANCH   7   8
ATOM      8  C   UNL     1     -10.244  27.448  26.421  1.00  0.00     0.053 C 
BRANCH   8   9
ATOM      9  C   UNL     1     -10.119  26.028  25.960  1.00  0.00     0.041 C 
ATOM     10  O   UNL     1     -11.124  25.419  25.509  1.00  0.00    -0.550 OA
ATOM     11  O   UNL     1      -8.890  25.383  26.005  1.00  0.00    -0.550 OA
ENDBRANCH   8   9
ENDBRANCH   7   8
ENDBRANCH   6   7
ENDBRANCH   5   6
ENDBRANCH   4   5
ENDBRANCH   3   4
ENDBRANCH   2   3
ENDBRANCH   1   2
BRANCH   1  12
ATOM     12  C   UNL     1      -9.415  26.484  19.538  1.00  0.00     0.000 C 
BRANCH  12  13
ATOM     13  C   UNL     1      -8.537  25.353  20.100  1.00  0.00    -0.000 C 
BRANCH  13  14
ATOM     14  C   UNL     1      -7.782  25.741  21.388  1.00  0.00    -0.000 C 
BRANCH  14  15
ATOM     15  C   UNL     1      -8.359  25.044  22.633  1.00  0.00    -0.000 C 
BRANCH  15  16
ATOM     16  C   UNL     1      -8.946  23.661  22.317  1.00  0.00    -0.000 C 
BRANCH  16  17
ATOM     17  C   UNL     1     -10.470  23.605  22.520  1.00  0.00    -0.000 C 
BRANCH  17  18
ATOM     18  C   UNL     1     -11.125  22.414  21.799  1.00  0.00    -0.000 C 
BRANCH  18  19
ATOM     19  C   UNL     1     -10.147  21.517  21.016  1.00  0.00    -0.003 C 
ATOM     20  C   UNL     1     -10.640  21.181  19.609  1.00  0.00     0.004 C 
ENDBRANCH  18  19
ENDBRANCH  17  18
ENDBRANCH  16  17
ENDBRANCH  15  16
ENDBRANCH  14  15
ENDBRANCH  13  14
ENDBRANCH  12  13
ENDBRANCH   1  12
TORSDOF 16
ENDMDL
MODEL 9
REMARK VINA RESULT:    -3.253      2.659      6.858
REMARK INTER + INTRA:          -8.549
REMARK INTER:                  -6.711
REMARK INTRA:                  -1.838
REMARK UNBOUND:                -2.253
REMARK SMILES CCCCCCCCCCCCCCCCCC(=O)[O-]
REMARK SMILES IDX 10 1 11 2 12 3 13 4 14 5 15 6 16 7 17 8 18 9 19 10 20 11
REMARK SMILES IDX 9 12 8 13 7 14 6 15 5 16 4 17 3 18 2 19 1 20
REMARK H PARENT
REMARK Flexibility Score: inf
ROOT
ATOM      1  C   UNL     1      -7.514  26.041  21.697  1.00  0.00     0.000 C 
ENDROOT
BRANCH   1   2
ATOM      2  C   UNL     1      -8.408  26.905  22.600  1.00  0.00     0.000 C 
BRANCH   2   3
ATOM      3  C   UNL     1      -9.785  27.178  21.980  1.00  0.00     0.000 C 
BRANCH   3   4
ATOM      4  C   UNL     1     -10.261  28.599  22.304  1.00  0.00     0.000 C 
BRANCH   4   5
ATOM      5  C   UNL     1      -9.400  29.231  23.407  1.00  0.00     0.000 C 
BRANCH   5   6
ATOM      6  C   UNL     1     -10.249  29.770  24.579  1.00  0.00     0.000 C 
BRANCH   6   7
ATOM      7  C   UNL     1     -11.068  28.679  25.297  1.00  0.00     0.006 C 
BRANCH   7   8
ATOM      8  C   UNL     1     -10.288  27.923  26.381  1.00  0.00     0.053 C 
BRANCH   8   9
ATOM      9  C   UNL     1     -10.574  26.453  26.352  1.00  0.00     0.041 C 
ATOM     10  O   UNL     1     -10.295  25.775  25.328  1.00  0.00    -0.550 OA
ATOM     11  O   UNL     1     -11.125  25.825  27.461  1.00  0.00    -0.550 OA
ENDBRANCH   8   9
ENDBRANCH   7   8
ENDBRANCH   6   7
ENDBRANCH   5   6
ENDBRANCH   4   5
ENDBRANCH   3   4
ENDBRANCH   2   3
ENDBRANCH   1   2
BRANCH   1  12
ATOM     12  C   UNL     1      -7.957  24.569  21.660  1.00  0.00     0.000 C 
BRANCH  12  13
ATOM     13  C   UNL     1      -8.749  24.154  22.911  1.00  0.00    -0.000 C 
BRANCH  13  14
ATOM     14  C   UNL     1      -9.604  22.885  22.705  1.00  0.00    -0.000 C 
BRANCH  14  15
ATOM     15  C   UNL     1      -9.663  22.456  21.228  1.00  0.00    -0.000 C 
BRANCH  15  16
ATOM     16  C   UNL     1     -11.050  22.677  20.605  1.00  0.00    -0.000 C 
BRANCH  16  17
ATOM     17  C   UNL     1     -10.976  23.018  19.107  1.00  0.00    -0.000 C 
BRANCH  17  18
ATOM     18  C   UNL     1      -9.664  23.723  18.719  1.00  0.00    -0.000 C 
BRANCH  18  19
ATOM     19  C   UNL     1      -9.804  25.229  18.429  1.00  0.00    -0.003 C 
ATOM     20  C   UNL     1     -11.087  25.832  19.001  1.00  0.00     0.004 C 
ENDBRANCH  18  19
ENDBRANCH  17  18
ENDBRANCH  16  17
ENDBRANCH  15  16
ENDBRANCH  14  15
ENDBRANCH  13  14
ENDBRANCH  12  13
ENDBRANCH   1  12
TORSDOF 16
ENDMDL
