MODEL 1
REMARK VINA RESULT:    -3.634      0.000      0.000
REMARK INTER + INTRA:          -7.392
REMARK INTER:                  -6.184
REMARK INTRA:                  -1.208
REMARK UNBOUND:                -1.208
REMARK SMILES CCCCCCCCCCCCCC(=O)[O-]
REMARK SMILES IDX 8 1 9 2 10 3 11 4 12 5 13 6 14 7 15 8 16 9 7 10 6 11 5 12
REMARK SMILES IDX 4 13 3 14 2 15 1 16
REMARK H PARENT
REMARK Flexibility Score: inf
ROOT
ATOM      1  C   UNL     1     -44.627 -36.846  14.332  1.00  0.00     0.000 C 
ENDROOT
BRANCH   1   2
ATOM      2  C   UNL     1     -44.294 -38.225  14.916  1.00  0.00     0.000 C 
BRANCH   2   3
ATOM      3  C   UNL     1     -44.465 -38.231  16.443  1.00  0.00     0.000 C 
BRANCH   3   4
ATOM      4  C   UNL     1     -45.940 -38.264  16.874  1.00  0.00     0.000 C 
BRANCH   4   5
ATOM      5  C   UNL     1     -46.124 -37.995  18.377  1.00  0.00     0.006 C 
BRANCH   5   6
ATOM      6  C   UNL     1     -45.528 -36.646  18.801  1.00  0.00     0.053 C 
BRANCH   6   7
ATOM      7  C   UNL     1     -44.563 -36.797  19.937  1.00  0.00     0.041 C 
ATOM      8  O   UNL     1     -43.339 -36.561  19.766  1.00  0.00    -0.550 OA
ATOM      9  O   UNL     1     -45.013 -37.228  21.179  1.00  0.00    -0.550 OA
ENDBRANCH   6   7
ENDBRANCH   5   6
ENDBRANCH   4   5
ENDBRANCH   3   4
ENDBRANCH   2   3
ENDBRANCH   1   2
BRANCH   1  10
ATOM     10  C   UNL     1     -44.651 -36.890  12.797  1.00  0.00     0.000 C 
BRANCH  10  11
ATOM     11  C   UNL     1     -45.294 -35.638  12.171  1.00  0.00    -0.000 C 
BRANCH  11  12
ATOM     12  C   UNL     1     -45.998 -34.701  13.171  1.00  0.00    -0.000 C 
BRANCH  12  13
ATOM     13  C   UNL     1     -45.564 -33.226  13.099  1.00  0.00    -0.000 C 
BRANCH  13  14
ATOM     14  C   UNL     1     -45.235 -32.605  14.474  1.00  0.00    -0.000 C 
BRANCH  14  15
ATOM     15  C   UNL     1     -45.749 -33.460  15.642  1.00  0.00    -0.003 C 
ATOM     16  C   UNL     1     -44.605 -33.885  16.558  1.00  0.00     0.004 C 
ENDBRANCH  14  15
ENDBRANCH  13  14
ENDBRANCH  12  13
ENDBRANCH  11  12
ENDBRANCH  10  11
ENDBRANCH   1  10
TORSDOF 12
ENDMDL
MODEL 2
REMARK VINA RESULT:    -3.576      2.452      4.362
REMARK INTER + INTRA:          -7.293
REMARK INTER:                  -5.792
REMARK INTRA:                  -1.501
REMARK UNBOUND:                -1.208
REMARK SMILES CCCCCCCCCCCCCC(=O)[O-]
REMARK SMILES IDX 8 1 9 2 10 3 11 4 12 5 13 6 14 7 15 8 16 9 7 10 6 11 5 12
REMARK SMILES IDX 4 13 3 14 2 15 1 16
REMARK H PARENT
REMARK Flexibility Score: inf
ROOT
ATOM      1  C   UNL     1     -45.651 -38.296  17.337  1.00  0.00     0.000 C 
ENDROOT
BRANCH   1   2
ATOM      2  C   UNL     1     -45.933 -37.498  18.616  1.00  0.00     0.000 C 
BRANCH   2   3
ATOM      3  C   UNL     1     -44.918 -36.356  18.785  1.00  0.00     0.000 C 
BRANCH   3   4
ATOM      4  C   UNL     1     -45.584 -34.971  18.813  1.00  0.00     0.000 C 
BRANCH   4   5
ATOM      5  C   UNL     1     -45.868 -34.422  17.404  1.00  0.00     0.006 C 
BRANCH   5   6
ATOM      6  C   UNL     1     -44.581 -34.189  16.603  1.00  0.00     0.053 C 
BRANCH   6   7
ATOM      7  C   UNL     1     -44.327 -32.731  16.369  1.00  0.00     0.041 C 
ATOM      8  O   UNL     1     -45.288 -31.943  16.169  1.00  0.00    -0.550 OA
ATOM      9  O   UNL     1     -43.025 -32.248  16.343  1.00  0.00    -0.550 OA
ENDBRANCH   6   7
ENDBRANCH   5   6
ENDBRANCH   4   5
ENDBRANCH   3   4
ENDBRANCH   2   3
ENDBRANCH   1   2
BRANCH   1  10
ATOM     10  C   UNL     1     -44.241 -37.999  16.802  1.00  0.00     0.000 C 
BRANCH  10  11
ATOM     11  C   UNL     1     -44.196 -37.871  15.268  1.00  0.00    -0.000 C 
BRANCH  11  12
ATOM     12  C   UNL     1     -45.535 -37.490  14.608  1.00  0.00    -0.000 C 
BRANCH  12  13
ATOM     13  C   UNL     1     -45.525 -37.484  13.068  1.00  0.00    -0.000 C 
BRANCH  13  14
ATOM     14  C   UNL     1     -44.910 -36.209  12.454  1.00  0.00    -0.000 C 
BRANCH  14  15
ATOM     15  C   UNL     1     -45.954 -35.109  12.212  1.00  0.00    -0.003 C 
ATOM     16  C   UNL     1     -45.680 -33.889  13.086  1.00  0.00     0.004 C 
ENDBRANCH  14  15
ENDBRANCH  13  14
ENDBRANCH  12  13
ENDBRANCH  11  12
ENDBRANCH  10  11
ENDBRANCH   1  10
TORSDOF 12
ENDMDL
MODEL 3
REMARK VINA RESULT:    -3.279      2.687      5.751
REMARK INTER + INTRA:          -6.788
REMARK INTER:                  -6.070
REMARK INTRA:                  -0.718
REMARK UNBOUND:                -1.208
REMARK SMILES CCCCCCCCCCCCCC(=O)[O-]
REMARK SMILES IDX 8 1 9 2 10 3 11 4 12 5 13 6 14 7 15 8 16 9 7 10 6 11 5 12
REMARK SMILES IDX 4 13 3 14 2 15 1 16
REMARK H PARENT
REMARK Flexibility Score: inf
ROOT
ATOM      1  C   UNL     1     -43.909 -38.194  14.685  1.00  0.00     0.000 C 
ENDROOT
BRANCH   1   2
ATOM      2  C   UNL     1     -44.278 -37.775  13.256  1.00  0.00     0.000 C 
BRANCH   2   3
ATOM      3  C   UNL     1     -45.570 -36.944  13.244  1.00  0.00     0.000 C 
BRANCH   3   4
ATOM      4  C   UNL     1     -45.580 -35.879  12.135  1.00  0.00     0.000 C 
BRANCH   4   5
ATOM      5  C   UNL     1     -46.028 -34.498  12.643  1.00  0.00     0.006 C 
BRANCH   5   6
ATOM      6  C   UNL     1     -45.711 -34.298  14.131  1.00  0.00     0.053 C 
BRANCH   6   7
ATOM      7  C   UNL     1     -45.361 -32.875  14.439  1.00  0.00     0.041 C 
ATOM      8  O   UNL     1     -44.639 -32.213  13.648  1.00  0.00    -0.550 OA
ATOM      9  O   UNL     1     -45.810 -32.287  15.616  1.00  0.00    -0.550 OA
ENDBRANCH   6   7
ENDBRANCH   5   6
ENDBRANCH   4   5
ENDBRANCH   3   4
ENDBRANCH   2   3
ENDBRANCH   1   2
BRANCH   1  10
ATOM     10  C   UNL     1     -45.045 -37.864  15.665  1.00  0.00     0.000 C 
BRANCH  10  11
ATOM     11  C   UNL     1     -44.715 -38.251  17.118  1.00  0.00    -0.000 C 
BRANCH  11  12
ATOM     12  C   UNL     1     -45.872 -38.068  18.119  1.00  0.00    -0.000 C 
BRANCH  12  13
ATOM     13  C   UNL     1     -45.746 -36.844  19.045  1.00  0.00    -0.000 C 
BRANCH  13  14
ATOM     14  C   UNL     1     -45.050 -37.149  20.389  1.00  0.00    -0.000 C 
BRANCH  14  15
ATOM     15  C   UNL     1     -44.431 -35.897  21.028  1.00  0.00    -0.003 C 
ATOM     16  C   UNL     1     -45.408 -35.232  21.993  1.00  0.00     0.004 C 
ENDBRANCH  14  15
ENDBRANCH  13  14
ENDBRANCH  12  13
ENDBRANCH  11  12
ENDBRANCH  10  11
ENDBRANCH   1  10
TORSDOF 12
ENDMDL
MODEL 4
REMARK VINA RESULT:    -3.260      2.092      3.972
REMARK INTER + INTRA:          -6.756
REMARK INTER:                  -6.097
REMARK INTRA:                  -0.659
REMARK UNBOUND:                -1.208
REMARK SMILES CCCCCCCCCCCCCC(=O)[O-]
REMARK SMILES IDX 8 1 9 2 10 3 11 4 12 5 13 6 14 7 15 8 16 9 7 10 6 11 5 12
REMARK SMILES IDX 4 13 3 14 2 15 1 16
REMARK H PARENT
REMARK Flexibility Score: inf
ROOT
ATOM      1  C   UNL     1     -45.722 -38.263  17.314  1.00  0.00     0.000 C 
ENDROOT
BRANCH   1   2
ATOM      2  C   UNL     1     -46.086 -37.584  18.641  1.00  0.00     0.000 C 
BRANCH   2   3
ATOM      3  C   UNL     1     -44.988 -36.600  19.073  1.00  0.00     0.000 C 
BRANCH   3   4
ATOM      4  C   UNL     1     -44.501 -36.850  20.510  1.00  0.00     0.000 C 
BRANCH   4   5
ATOM      5  C   UNL     1     -45.301 -36.051  21.553  1.00  0.00     0.006 C 
BRANCH   5   6
ATOM      6  C   UNL     1     -45.385 -34.560  21.201  1.00  0.00     0.053 C 
BRANCH   6   7
ATOM      7  C   UNL     1     -44.841 -33.698  22.298  1.00  0.00     0.041 C 
ATOM      8  O   UNL     1     -43.711 -33.940  22.796  1.00  0.00    -0.550 OA
ATOM      9  O   UNL     1     -45.598 -32.642  22.792  1.00  0.00    -0.550 OA
ENDBRANCH   6   7
ENDBRANCH   5   6
ENDBRANCH   4   5
ENDBRANCH   3   4
ENDBRANCH   2   3
ENDBRANCH   1   2
BRANCH   1  10
ATOM     10  C   UNL     1     -44.256 -37.991  16.941  1.00  0.00     0.000 C 
BRANCH  10  11
ATOM     11  C   UNL     1     -43.995 -38.087  15.427  1.00  0.00    -0.000 C 
BRANCH  11  12
ATOM     12  C   UNL     1     -45.124 -37.534  14.536  1.00  0.00    -0.000 C 
BRANCH  12  13
ATOM     13  C   UNL     1     -44.840 -37.572  13.023  1.00  0.00    -0.000 C 
BRANCH  13  14
ATOM     14  C   UNL     1     -44.576 -36.183  12.404  1.00  0.00    -0.000 C 
BRANCH  14  15
ATOM     15  C   UNL     1     -45.873 -35.413  12.113  1.00  0.00    -0.003 C 
ATOM     16  C   UNL     1     -45.958 -34.141  12.952  1.00  0.00     0.004 C 
ENDBRANCH  14  15
ENDBRANCH  13  14
ENDBRANCH  12  13
ENDBRANCH  11  12
ENDBRANCH  10  11
ENDBRANCH   1  10
TORSDOF 12
ENDMDL
MODEL 5
REMARK VINA RESULT:    -3.218      8.799     12.421
REMARK INTER + INTRA:          -6.684
REMARK INTER:                  -5.298
REMARK INTRA:                  -1.386
REMARK UNBOUND:                -1.208
REMARK SMILES CCCCCCCCCCCCCC(=O)[O-]
REMARK SMILES IDX 8 1 9 2 10 3 11 4 12 5 13 6 14 7 15 8 16 9 7 10 6 11 5 12
REMARK SMILES IDX 4 13 3 14 2 15 1 16
REMARK H PARENT
REMARK Flexibility Score: inf
ROOT
ATOM      1  C   UNL     1     -41.491 -33.283  27.264  1.00  0.00     0.000 C 
ENDROOT
BRANCH   1   2
ATOM      2  C   UNL     1     -42.939 -33.728  27.504  1.00  0.00     0.000 C 
BRANCH   2   3
ATOM      3  C   UNL     1     -43.833 -32.526  27.845  1.00  0.00     0.000 C 
BRANCH   3   4
ATOM      4  C   UNL     1     -45.055 -32.414  26.918  1.00  0.00     0.000 C 
BRANCH   4   5
ATOM      5  C   UNL     1     -44.692 -31.875  25.523  1.00  0.00     0.006 C 
BRANCH   5   6
ATOM      6  C   UNL     1     -44.799 -32.955  24.439  1.00  0.00     0.053 C 
BRANCH   6   7
ATOM      7  C   UNL     1     -43.537 -33.069  23.641  1.00  0.00     0.041 C 
ATOM      8  O   UNL     1     -43.438 -33.929  22.727  1.00  0.00    -0.550 OA
ATOM      9  O   UNL     1     -42.456 -32.244  23.928  1.00  0.00    -0.550 OA
ENDBRANCH   6   7
ENDBRANCH   5   6
ENDBRANCH   4   5
ENDBRANCH   3   4
ENDBRANCH   2   3
ENDBRANCH   1   2
BRANCH   1  10
ATOM     10  C   UNL     1     -41.136 -32.071  28.138  1.00  0.00     0.000 C 
BRANCH  10  11
ATOM     11  C   UNL     1     -39.643 -32.020  28.514  1.00  0.00    -0.000 C 
BRANCH  11  12
ATOM     12  C   UNL     1     -38.908 -33.372  28.441  1.00  0.00    -0.000 C 
BRANCH  12  13
ATOM     13  C   UNL     1     -37.695 -33.404  27.493  1.00  0.00    -0.000 C 
BRANCH  13  14
ATOM     14  C   UNL     1     -37.964 -34.139  26.162  1.00  0.00    -0.000 C 
BRANCH  14  15
ATOM     15  C   UNL     1     -37.798 -33.223  24.940  1.00  0.00    -0.003 C 
ATOM     16  C   UNL     1     -39.022 -32.333  24.749  1.00  0.00     0.004 C 
ENDBRANCH  14  15
ENDBRANCH  13  14
ENDBRANCH  12  13
ENDBRANCH  11  12
ENDBRANCH  10  11
ENDBRANCH   1  10
TORSDOF 12
ENDMDL
MODEL 6
REMARK VINA RESULT:    -3.148      2.831      6.147
REMARK INTER + INTRA:          -6.565
REMARK INTER:                  -5.275
REMARK INTRA:                  -1.290
REMARK UNBOUND:                -1.208
REMARK SMILES CCCCCCCCCCCCCC(=O)[O-]
REMARK SMILES IDX 8 1 9 2 10 3 11 4 12 5 13 6 14 7 15 8 16 9 7 10 6 11 5 12
REMARK SMILES IDX 4 13 3 14 2 15 1 16
REMARK H PARENT
REMARK Flexibility Score: inf
ROOT
ATOM      1  C   UNL     1     -44.424 -34.197  17.115  1.00  0.00     0.000 C 
ENDROOT
BRANCH   1   2
ATOM      2  C   UNL     1     -44.656 -33.057  16.115  1.00  0.00     0.000 C 
BRANCH   2   3
ATOM      3  C   UNL     1     -45.809 -33.394  15.157  1.00  0.00     0.000 C 
BRANCH   3   4
ATOM      4  C   UNL     1     -45.474 -33.073  13.691  1.00  0.00     0.000 C 
BRANCH   4   5
ATOM      5  C   UNL     1     -46.050 -34.110  12.711  1.00  0.00     0.006 C 
BRANCH   5   6
ATOM      6  C   UNL     1     -46.123 -35.512  13.329  1.00  0.00     0.053 C 
BRANCH   6   7
ATOM      7  C   UNL     1     -45.000 -36.385  12.859  1.00  0.00     0.041 C 
ATOM      8  O   UNL     1     -44.228 -35.991  11.947  1.00  0.00    -0.550 OA
ATOM      9  O   UNL     1     -44.823 -37.648  13.412  1.00  0.00    -0.550 OA
ENDBRANCH   6   7
ENDBRANCH   5   6
ENDBRANCH   4   5
ENDBRANCH   3   4
ENDBRANCH   2   3
ENDBRANCH   1   2
BRANCH   1  10
ATOM     10  C   UNL     1     -45.530 -35.257  17.007  1.00  0.00     0.000 C 
BRANCH  10  11
ATOM     11  C   UNL     1     -44.983 -36.670  16.733  1.00  0.00    -0.000 C 
BRANCH  11  12
ATOM     12  C   UNL     1     -44.756 -37.534  17.989  1.00  0.00    -0.000 C 
BRANCH  12  13
ATOM     13  C   UNL     1     -45.595 -37.133  19.217  1.00  0.00    -0.000 C 
BRANCH  13  14
ATOM     14  C   UNL     1     -44.781 -37.045  20.525  1.00  0.00    -0.000 C 
BRANCH  14  15
ATOM     15  C   UNL     1     -45.337 -35.990  21.494  1.00  0.00    -0.003 C 
ATOM     16  C   UNL     1     -45.551 -34.655  20.789  1.00  0.00     0.004 C 
ENDBRANCH  14  15
ENDBRANCH  13  14
ENDBRANCH  12  13
ENDBRANCH  11  12
ENDBRANCH  10  11
ENDBRANCH   1  10
TORSDOF 12
ENDMDL
MODEL 7
REMARK VINA RESULT:    -3.132      6.928     10.841
REMARK INTER + INTRA:          -6.538
REMARK INTER:                  -5.788
REMARK INTRA:                  -0.750
REMARK UNBOUND:                -1.208
REMARK SMILES CCCCCCCCCCCCCC(=O)[O-]
REMARK SMILES IDX 8 1 9 2 10 3 11 4 12 5 13 6 14 7 15 8 16 9 7 10 6 11 5 12
REMARK SMILES IDX 4 13 3 14 2 15 1 16
REMARK H PARENT
REMARK Flexibility Score: inf
ROOT
ATOM      1  C   UNL     1     -42.296 -32.199  24.135  1.00  0.00     0.000 C 
ENDROOT
BRANCH   1   2
ATOM      2  C   UNL     1     -43.588 -32.999  24.349  1.00  0.00     0.000 C 
BRANCH   2   3
ATOM      3  C   UNL     1     -44.147 -33.506  23.011  1.00  0.00     0.000 C 
BRANCH   3   4
ATOM      4  C   UNL     1     -45.565 -34.086  23.143  1.00  0.00     0.000 C 
BRANCH   4   5
ATOM      5  C   UNL     1     -45.786 -35.318  22.249  1.00  0.00     0.006 C 
BRANCH   5   6
ATOM      6  C   UNL     1     -44.644 -35.518  21.245  1.00  0.00     0.053 C 
BRANCH   6   7
ATOM      7  C   UNL     1     -44.677 -36.883  20.630  1.00  0.00     0.041 C 
ATOM      8  O   UNL     1     -44.097 -37.100  19.534  1.00  0.00    -0.550 OA
ATOM      9  O   UNL     1     -45.375 -37.910  21.253  1.00  0.00    -0.550 OA
ENDBRANCH   6   7
ENDBRANCH   5   6
ENDBRANCH   4   5
ENDBRANCH   3   4
ENDBRANCH   2   3
ENDBRANCH   1   2
BRANCH   1  10
ATOM     10  C   UNL     1     -41.506 -32.069  25.446  1.00  0.00     0.000 C 
BRANCH  10  11
ATOM     11  C   UNL     1     -42.076 -32.943  26.579  1.00  0.00    -0.000 C 
BRANCH  11  12
ATOM     12  C   UNL     1     -41.282 -32.894  27.899  1.00  0.00    -0.000 C 
BRANCH  12  13
ATOM     13  C   UNL     1     -39.807 -32.475  27.758  1.00  0.00    -0.000 C 
BRANCH  13  14
ATOM     14  C   UNL     1     -38.820 -33.416  28.481  1.00  0.00    -0.000 C 
BRANCH  14  15
ATOM     15  C   UNL     1     -37.726 -33.953  27.546  1.00  0.00    -0.003 C 
ATOM     16  C   UNL     1     -38.198 -33.961  26.096  1.00  0.00     0.004 C 
ENDBRANCH  14  15
ENDBRANCH  13  14
ENDBRANCH  12  13
ENDBRANCH  11  12
ENDBRANCH  10  11
ENDBRANCH   1  10
TORSDOF 12
ENDMDL
MODEL 8
REMARK VINA RESULT:    -3.116      3.905      7.074
REMARK INTER + INTRA:          -6.510
REMARK INTER:                  -5.688
REMARK INTRA:                  -0.822
REMARK UNBOUND:                -1.208
REMARK SMILES CCCCCCCCCCCCCC(=O)[O-]
REMARK SMILES IDX 8 1 9 2 10 3 11 4 12 5 13 6 14 7 15 8 16 9 7 10 6 11 5 12
REMARK SMILES IDX 4 13 3 14 2 15 1 16
REMARK H PARENT
REMARK Flexibility Score: inf
ROOT
ATOM      1  C   UNL     1     -44.190 -36.776  20.133  1.00  0.00     0.000 C 
ENDROOT
BRANCH   1   2
ATOM      2  C   UNL     1     -44.645 -37.145  18.715  1.00  0.00     0.000 C 
BRANCH   2   3
ATOM      3  C   UNL     1     -44.705 -35.900  17.817  1.00  0.00     0.000 C 
BRANCH   3   4
ATOM      4  C   UNL     1     -45.130 -36.228  16.376  1.00  0.00     0.000 C 
BRANCH   4   5
ATOM      5  C   UNL     1     -45.069 -37.735  16.070  1.00  0.00     0.006 C 
BRANCH   5   6
ATOM      6  C   UNL     1     -43.995 -38.071  15.027  1.00  0.00     0.053 C 
BRANCH   6   7
ATOM      7  C   UNL     1     -44.506 -37.907  13.629  1.00  0.00     0.041 C 
ATOM      8  O   UNL     1     -45.032 -38.879  13.026  1.00  0.00    -0.550 OA
ATOM      9  O   UNL     1     -44.375 -36.685  12.980  1.00  0.00    -0.550 OA
ENDBRANCH   6   7
ENDBRANCH   5   6
ENDBRANCH   4   5
ENDBRANCH   3   4
ENDBRANCH   2   3
ENDBRANCH   1   2
BRANCH   1  10
ATOM     10  C   UNL     1     -45.286 -37.094  21.161  1.00  0.00     0.000 C 
BRANCH  10  11
ATOM     11  C   UNL     1     -45.743 -35.855  21.954  1.00  0.00    -0.000 C 
BRANCH  11  12
ATOM     12  C   UNL     1     -45.383 -34.503  21.309  1.00  0.00    -0.000 C 
BRANCH  12  13
ATOM     13  C   UNL     1     -45.066 -33.370  22.303  1.00  0.00    -0.000 C 
BRANCH  13  14
ATOM     14  C   UNL     1     -43.732 -33.558  23.057  1.00  0.00    -0.000 C 
BRANCH  14  15
ATOM     15  C   UNL     1     -43.722 -32.850  24.420  1.00  0.00    -0.003 C 
ATOM     16  C   UNL     1     -45.060 -33.012  25.134  1.00  0.00     0.004 C 
ENDBRANCH  14  15
ENDBRANCH  13  14
ENDBRANCH  12  13
ENDBRANCH  11  12
ENDBRANCH  10  11
ENDBRANCH   1  10
TORSDOF 12
ENDMDL
MODEL 9
REMARK VINA RESULT:    -3.031      1.993      5.036
REMARK INTER + INTRA:          -6.366
REMARK INTER:                  -5.615
REMARK INTRA:                  -0.751
REMARK UNBOUND:                -1.208
REMARK SMILES CCCCCCCCCCCCCC(=O)[O-]
REMARK SMILES IDX 8 1 9 2 10 3 11 4 12 5 13 6 14 7 15 8 16 9 7 10 6 11 5 12
REMARK SMILES IDX 4 13 3 14 2 15 1 16
REMARK H PARENT
REMARK Flexibility Score: inf
ROOT
ATOM      1  C   UNL     1     -44.605 -36.272  12.740  1.00  0.00     0.000 C 
ENDROOT
BRANCH   1   2
ATOM      2  C   UNL     1     -45.838 -35.524  12.216  1.00  0.00     0.000 C 
BRANCH   2   3
ATOM      3  C   UNL     1     -46.125 -34.277  13.066  1.00  0.00     0.000 C 
BRANCH   3   4
ATOM      4  C   UNL     1     -44.867 -33.429  13.319  1.00  0.00     0.000 C 
BRANCH   4   5
ATOM      5  C   UNL     1     -45.184 -32.093  14.013  1.00  0.00     0.006 C 
BRANCH   5   6
ATOM      6  C   UNL     1     -44.339 -31.882  15.276  1.00  0.00     0.053 C 
BRANCH   6   7
ATOM      7  C   UNL     1     -44.716 -32.840  16.364  1.00  0.00     0.041 C 
ATOM      8  O   UNL     1     -44.010 -33.859  16.585  1.00  0.00    -0.550 OA
ATOM      9  O   UNL     1     -45.864 -32.623  17.115  1.00  0.00    -0.550 OA
ENDBRANCH   6   7
ENDBRANCH   5   6
ENDBRANCH   4   5
ENDBRANCH   3   4
ENDBRANCH   2   3
ENDBRANCH   1   2
BRANCH   1  10
ATOM     10  C   UNL     1     -44.932 -37.748  13.012  1.00  0.00     0.000 C 
BRANCH  10  11
ATOM     11  C   UNL     1     -45.478 -37.990  14.432  1.00  0.00    -0.000 C 
BRANCH  11  12
ATOM     12  C   UNL     1     -44.445 -37.820  15.562  1.00  0.00    -0.000 C 
BRANCH  12  13
ATOM     13  C   UNL     1     -44.942 -38.217  16.965  1.00  0.00    -0.000 C 
BRANCH  13  14
ATOM     14  C   UNL     1     -45.499 -37.034  17.786  1.00  0.00    -0.000 C 
BRANCH  14  15
ATOM     15  C   UNL     1     -45.236 -37.188  19.292  1.00  0.00    -0.003 C 
ATOM     16  C   UNL     1     -44.573 -35.940  19.865  1.00  0.00     0.004 C 
ENDBRANCH  14  15
ENDBRANCH  13  14
ENDBRANCH  12  13
ENDBRANCH  11  12
ENDBRANCH  10  11
ENDBRANCH   1  10
TORSDOF 12
ENDMDL
