MODEL 1
REMARK VINA RESULT:    -6.497      0.000      0.000
REMARK INTER + INTRA:         -10.873
REMARK INTER:                 -10.295
REMARK INTRA:                  -0.578
REMARK UNBOUND:                -0.578
REMARK SMILES CCCCCCCCCCCC(=O)[O-]
REMARK SMILES IDX 7 1 8 2 9 3 10 4 11 5 12 6 13 7 14 8 6 9 5 10 4 11 3 12 2 13
REMARK SMILES IDX 1 14
REMARK H PARENT
REMARK Flexibility Score: inf
ROOT
ATOM      1  C   UNL     1     -22.075 -23.450  30.348  1.00  0.00     0.000 C 
ENDROOT
BRANCH   1   2
ATOM      2  C   UNL     1     -23.110 -24.586  30.425  1.00  0.00     0.000 C 
BRANCH   2   3
ATOM      3  C   UNL     1     -23.459 -25.160  29.043  1.00  0.00     0.000 C 
BRANCH   3   4
ATOM      4  C   UNL     1     -23.887 -26.637  29.107  1.00  0.00     0.006 C 
BRANCH   4   5
ATOM      5  C   UNL     1     -25.406 -26.794  29.243  1.00  0.00     0.053 C 
BRANCH   5   6
ATOM      6  C   UNL     1     -25.785 -27.393  30.563  1.00  0.00     0.041 C 
ATOM      7  O   UNL     1     -26.290 -28.546  30.617  1.00  0.00    -0.550 OA
ATOM      8  O   UNL     1     -25.612 -26.662  31.732  1.00  0.00    -0.550 OA
ENDBRANCH   5   6
ENDBRANCH   4   5
ENDBRANCH   3   4
ENDBRANCH   2   3
ENDBRANCH   1   2
BRANCH   1   9
ATOM      9  C   UNL     1     -22.036 -22.773  28.968  1.00  0.00     0.000 C 
BRANCH   9  10
ATOM     10  C   UNL     1     -22.258 -21.254  29.051  1.00  0.00    -0.000 C 
BRANCH  10  11
ATOM     11  C   UNL     1     -21.990 -20.686  30.457  1.00  0.00    -0.000 C 
BRANCH  11  12
ATOM     12  C   UNL     1     -21.257 -19.329  30.490  1.00  0.00    -0.000 C 
BRANCH  12  13
ATOM     13  C   UNL     1     -20.871 -18.765  29.112  1.00  0.00    -0.003 C 
ATOM     14  C   UNL     1     -20.095 -17.452  29.201  1.00  0.00     0.004 C 
ENDBRANCH  12  13
ENDBRANCH  11  12
ENDBRANCH  10  11
ENDBRANCH   9  10
ENDBRANCH   1   9
TORSDOF 10
ENDMDL
MODEL 2
REMARK VINA RESULT:    -6.479      1.390      2.507
REMARK INTER + INTRA:         -10.844
REMARK INTER:                  -9.960
REMARK INTRA:                  -0.884
REMARK UNBOUND:                -0.578
REMARK SMILES CCCCCCCCCCCC(=O)[O-]
REMARK SMILES IDX 7 1 8 2 9 3 10 4 11 5 12 6 13 7 14 8 6 9 5 10 4 11 3 12 2 13
REMARK SMILES IDX 1 14
REMARK H PARENT
REMARK Flexibility Score: inf
ROOT
ATOM      1  C   UNL     1     -22.404 -20.961  29.929  1.00  0.00     0.000 C 
ENDROOT
BRANCH   1   2
ATOM      2  C   UNL     1     -22.092 -21.893  28.745  1.00  0.00     0.000 C 
BRANCH   2   3
ATOM      3  C   UNL     1     -21.797 -23.334  29.190  1.00  0.00     0.000 C 
BRANCH   3   4
ATOM      4  C   UNL     1     -23.001 -24.271  28.992  1.00  0.00     0.006 C 
BRANCH   4   5
ATOM      5  C   UNL     1     -23.401 -24.982  30.291  1.00  0.00     0.053 C 
BRANCH   5   6
ATOM      6  C   UNL     1     -24.560 -25.907  30.081  1.00  0.00     0.041 C 
ATOM      7  O   UNL     1     -25.508 -25.935  30.909  1.00  0.00    -0.550 OA
ATOM      8  O   UNL     1     -24.575 -26.764  28.987  1.00  0.00    -0.550 OA
ENDBRANCH   5   6
ENDBRANCH   4   5
ENDBRANCH   3   4
ENDBRANCH   2   3
ENDBRANCH   1   2
BRANCH   1   9
ATOM      9  C   UNL     1     -21.998 -21.564  31.284  1.00  0.00     0.000 C 
BRANCH   9  10
ATOM     10  C   UNL     1     -20.885 -20.759  31.977  1.00  0.00    -0.000 C 
BRANCH  10  11
ATOM     11  C   UNL     1     -20.919 -19.262  31.619  1.00  0.00    -0.000 C 
BRANCH  11  12
ATOM     12  C   UNL     1     -19.552 -18.637  31.271  1.00  0.00    -0.000 C 
BRANCH  12  13
ATOM     13  C   UNL     1     -19.313 -18.390  29.772  1.00  0.00    -0.003 C 
ATOM     14  C   UNL     1     -20.538 -17.820  29.059  1.00  0.00     0.004 C 
ENDBRANCH  12  13
ENDBRANCH  11  12
ENDBRANCH  10  11
ENDBRANCH   9  10
ENDBRANCH   1   9
TORSDOF 10
ENDMDL
MODEL 3
REMARK VINA RESULT:    -6.451      4.775      8.472
REMARK INTER + INTRA:         -10.800
REMARK INTER:                 -10.238
REMARK INTRA:                  -0.562
REMARK UNBOUND:                -0.578
REMARK SMILES CCCCCCCCCCCC(=O)[O-]
REMARK SMILES IDX 7 1 8 2 9 3 10 4 11 5 12 6 13 7 14 8 6 9 5 10 4 11 3 12 2 13
REMARK SMILES IDX 1 14
REMARK H PARENT
REMARK Flexibility Score: inf
ROOT
ATOM      1  C   UNL     1     -22.130 -20.944  30.378  1.00  0.00     0.000 C 
ENDROOT
BRANCH   1   2
ATOM      2  C   UNL     1     -21.268 -19.669  30.390  1.00  0.00     0.000 C 
BRANCH   2   3
ATOM      3  C   UNL     1     -21.189 -18.998  29.009  1.00  0.00     0.000 C 
BRANCH   3   4
ATOM      4  C   UNL     1     -20.473 -17.637  29.054  1.00  0.00     0.006 C 
BRANCH   4   5
ATOM      5  C   UNL     1     -19.006 -17.769  29.483  1.00  0.00     0.053 C 
BRANCH   5   6
ATOM      6  C   UNL     1     -18.717 -16.976  30.721  1.00  0.00     0.041 C 
ATOM      7  O   UNL     1     -18.973 -17.456  31.856  1.00  0.00    -0.550 OA
ATOM      8  O   UNL     1     -18.196 -15.692  30.616  1.00  0.00    -0.550 OA
ENDBRANCH   5   6
ENDBRANCH   4   5
ENDBRANCH   3   4
ENDBRANCH   2   3
ENDBRANCH   1   2
BRANCH   1   9
ATOM      9  C   UNL     1     -22.032 -21.716  29.052  1.00  0.00     0.000 C 
BRANCH   9  10
ATOM     10  C   UNL     1     -22.386 -23.205  29.210  1.00  0.00    -0.000 C 
BRANCH  10  11
ATOM     11  C   UNL     1     -22.401 -23.663  30.680  1.00  0.00    -0.000 C 
BRANCH  11  12
ATOM     12  C   UNL     1     -23.355 -24.834  30.994  1.00  0.00    -0.000 C 
BRANCH  12  13
ATOM     13  C   UNL     1     -24.288 -25.241  29.839  1.00  0.00    -0.003 C 
ATOM     14  C   UNL     1     -23.843 -26.524  29.138  1.00  0.00     0.004 C 
ENDBRANCH  12  13
ENDBRANCH  11  12
ENDBRANCH  10  11
ENDBRANCH   9  10
ENDBRANCH   1   9
TORSDOF 10
ENDMDL
MODEL 4
REMARK VINA RESULT:    -6.441      4.625      7.741
REMARK INTER + INTRA:         -10.784
REMARK INTER:                 -10.016
REMARK INTRA:                  -0.768
REMARK UNBOUND:                -0.578
REMARK SMILES CCCCCCCCCCCC(=O)[O-]
REMARK SMILES IDX 7 1 8 2 9 3 10 4 11 5 12 6 13 7 14 8 6 9 5 10 4 11 3 12 2 13
REMARK SMILES IDX 1 14
REMARK H PARENT
REMARK Flexibility Score: inf
ROOT
ATOM      1  C   UNL     1     -22.066 -22.893  29.601  1.00  0.00     0.000 C 
ENDROOT
BRANCH   1   2
ATOM      2  C   UNL     1     -21.936 -21.736  28.594  1.00  0.00     0.000 C 
BRANCH   2   3
ATOM      3  C   UNL     1     -22.356 -20.385  29.192  1.00  0.00     0.000 C 
BRANCH   3   4
ATOM      4  C   UNL     1     -21.207 -19.361  29.202  1.00  0.00     0.006 C 
BRANCH   4   5
ATOM      5  C   UNL     1     -20.681 -19.096  30.618  1.00  0.00     0.053 C 
BRANCH   5   6
ATOM      6  C   UNL     1     -19.409 -18.303  30.597  1.00  0.00     0.041 C 
ATOM      7  O   UNL     1     -18.625 -18.387  29.616  1.00  0.00    -0.550 OA
ATOM      8  O   UNL     1     -19.076 -17.497  31.679  1.00  0.00    -0.550 OA
ENDBRANCH   5   6
ENDBRANCH   4   5
ENDBRANCH   3   4
ENDBRANCH   2   3
ENDBRANCH   1   2
BRANCH   1   9
ATOM      9  C   UNL     1     -22.256 -22.405  31.046  1.00  0.00     0.000 C 
BRANCH   9  10
ATOM     10  C   UNL     1     -23.247 -23.276  31.837  1.00  0.00    -0.000 C 
BRANCH  10  11
ATOM     11  C   UNL     1     -23.267 -24.741  31.361  1.00  0.00    -0.000 C 
BRANCH  11  12
ATOM     12  C   UNL     1     -24.671 -25.354  31.178  1.00  0.00    -0.000 C 
BRANCH  12  13
ATOM     13  C   UNL     1     -24.946 -25.945  29.785  1.00  0.00    -0.003 C 
ATOM     14  C   UNL     1     -23.670 -26.317  29.033  1.00  0.00     0.004 C 
ENDBRANCH  12  13
ENDBRANCH  11  12
ENDBRANCH  10  11
ENDBRANCH   9  10
ENDBRANCH   1   9
TORSDOF 10
ENDMDL
MODEL 5
REMARK VINA RESULT:    -6.392      0.795      1.617
REMARK INTER + INTRA:         -10.706
REMARK INTER:                 -10.272
REMARK INTRA:                  -0.434
REMARK UNBOUND:                -0.578
REMARK SMILES CCCCCCCCCCCC(=O)[O-]
REMARK SMILES IDX 7 1 8 2 9 3 10 4 11 5 12 6 13 7 14 8 6 9 5 10 4 11 3 12 2 13
REMARK SMILES IDX 1 14
REMARK H PARENT
REMARK Flexibility Score: inf
ROOT
ATOM      1  C   UNL     1     -22.361 -23.142  31.056  1.00  0.00     0.000 C 
ENDROOT
BRANCH   1   2
ATOM      2  C   UNL     1     -22.193 -23.312  29.535  1.00  0.00     0.000 C 
BRANCH   2   3
ATOM      3  C   UNL     1     -23.056 -24.451  28.970  1.00  0.00     0.000 C 
BRANCH   3   4
ATOM      4  C   UNL     1     -23.597 -25.382  30.069  1.00  0.00     0.006 C 
BRANCH   4   5
ATOM      5  C   UNL     1     -24.842 -26.153  29.612  1.00  0.00     0.053 C 
BRANCH   5   6
ATOM      6  C   UNL     1     -25.443 -26.947  30.732  1.00  0.00     0.041 C 
ATOM      7  O   UNL     1     -25.348 -26.542  31.920  1.00  0.00    -0.550 OA
ATOM      8  O   UNL     1     -26.080 -28.153  30.464  1.00  0.00    -0.550 OA
ENDBRANCH   5   6
ENDBRANCH   4   5
ENDBRANCH   3   4
ENDBRANCH   2   3
ENDBRANCH   1   2
BRANCH   1   9
ATOM      9  C   UNL     1     -21.949 -21.745  31.547  1.00  0.00     0.000 C 
BRANCH   9  10
ATOM     10  C   UNL     1     -22.301 -20.638  30.539  1.00  0.00    -0.000 C 
BRANCH  10  11
ATOM     11  C   UNL     1     -21.264 -19.501  30.512  1.00  0.00    -0.000 C 
BRANCH  11  12
ATOM     12  C   UNL     1     -20.869 -19.003  29.106  1.00  0.00    -0.000 C 
BRANCH  12  13
ATOM     13  C   UNL     1     -20.404 -17.538  29.042  1.00  0.00    -0.003 C 
ATOM     14  C   UNL     1     -18.936 -17.361  29.424  1.00  0.00     0.004 C 
ENDBRANCH  12  13
ENDBRANCH  11  12
ENDBRANCH  10  11
ENDBRANCH   9  10
ENDBRANCH   1   9
TORSDOF 10
ENDMDL
MODEL 6
REMARK VINA RESULT:    -6.371      4.663      8.319
REMARK INTER + INTRA:         -10.673
REMARK INTER:                 -10.210
REMARK INTRA:                  -0.463
REMARK UNBOUND:                -0.578
REMARK SMILES CCCCCCCCCCCC(=O)[O-]
REMARK SMILES IDX 7 1 8 2 9 3 10 4 11 5 12 6 13 7 14 8 6 9 5 10 4 11 3 12 2 13
REMARK SMILES IDX 1 14
REMARK H PARENT
REMARK Flexibility Score: inf
ROOT
ATOM      1  C   UNL     1     -22.229 -22.715  29.028  1.00  0.00     0.000 C 
ENDROOT
BRANCH   1   2
ATOM      2  C   UNL     1     -22.019 -21.190  29.065  1.00  0.00     0.000 C 
BRANCH   2   3
ATOM      3  C   UNL     1     -22.135 -20.614  30.485  1.00  0.00     0.000 C 
BRANCH   3   4
ATOM      4  C   UNL     1     -21.236 -19.383  30.697  1.00  0.00     0.006 C 
BRANCH   4   5
ATOM      5  C   UNL     1     -20.871 -18.698  29.374  1.00  0.00     0.053 C 
BRANCH   5   6
ATOM      6  C   UNL     1     -19.945 -17.539  29.587  1.00  0.00     0.041 C 
ATOM      7  O   UNL     1     -19.499 -16.893  28.603  1.00  0.00    -0.550 OA
ATOM      8  O   UNL     1     -19.548 -17.196  30.874  1.00  0.00    -0.550 OA
ENDBRANCH   5   6
ENDBRANCH   4   5
ENDBRANCH   3   4
ENDBRANCH   2   3
ENDBRANCH   1   2
BRANCH   1   9
ATOM      9  C   UNL     1     -22.290 -23.341  30.431  1.00  0.00     0.000 C 
BRANCH   9  10
ATOM     10  C   UNL     1     -23.092 -24.653  30.456  1.00  0.00    -0.000 C 
BRANCH  10  11
ATOM     11  C   UNL     1     -23.462 -25.154  29.047  1.00  0.00    -0.000 C 
BRANCH  11  12
ATOM     12  C   UNL     1     -23.974 -26.608  28.980  1.00  0.00    -0.000 C 
BRANCH  12  13
ATOM     13  C   UNL     1     -25.494 -26.771  29.151  1.00  0.00    -0.003 C 
ATOM     14  C   UNL     1     -26.082 -27.857  28.252  1.00  0.00     0.004 C 
ENDBRANCH  12  13
ENDBRANCH  11  12
ENDBRANCH  10  11
ENDBRANCH   9  10
ENDBRANCH   1   9
TORSDOF 10
ENDMDL
MODEL 7
REMARK VINA RESULT:    -6.181      1.839      3.545
REMARK INTER + INTRA:         -10.372
REMARK INTER:                  -9.975
REMARK INTRA:                  -0.397
REMARK UNBOUND:                -0.578
REMARK SMILES CCCCCCCCCCCC(=O)[O-]
REMARK SMILES IDX 7 1 8 2 9 3 10 4 11 5 12 6 13 7 14 8 6 9 5 10 4 11 3 12 2 13
REMARK SMILES IDX 1 14
REMARK H PARENT
REMARK Flexibility Score: inf
ROOT
ATOM      1  C   UNL     1     -22.195 -20.565  29.883  1.00  0.00     0.000 C 
ENDROOT
BRANCH   1   2
ATOM      2  C   UNL     1     -21.703 -21.049  31.259  1.00  0.00     0.000 C 
BRANCH   2   3
ATOM      3  C   UNL     1     -22.399 -22.342  31.713  1.00  0.00     0.000 C 
BRANCH   3   4
ATOM      4  C   UNL     1     -22.452 -23.405  30.602  1.00  0.00     0.006 C 
BRANCH   4   5
ATOM      5  C   UNL     1     -23.157 -24.687  31.061  1.00  0.00     0.053 C 
BRANCH   5   6
ATOM      6  C   UNL     1     -23.924 -25.327  29.944  1.00  0.00     0.041 C 
ATOM      7  O   UNL     1     -25.123 -25.672  30.113  1.00  0.00    -0.550 OA
ATOM      8  O   UNL     1     -23.302 -25.574  28.726  1.00  0.00    -0.550 OA
ENDBRANCH   5   6
ENDBRANCH   4   5
ENDBRANCH   3   4
ENDBRANCH   2   3
ENDBRANCH   1   2
BRANCH   1   9
ATOM      9  C   UNL     1     -21.262 -19.517  29.254  1.00  0.00     0.000 C 
BRANCH   9  10
ATOM     10  C   UNL     1     -20.318 -18.875  30.284  1.00  0.00    -0.000 C 
BRANCH  10  11
ATOM     11  C   UNL     1     -19.089 -18.210  29.636  1.00  0.00    -0.000 C 
BRANCH  11  12
ATOM     12  C   UNL     1     -19.398 -17.008  28.719  1.00  0.00    -0.000 C 
BRANCH  12  13
ATOM     13  C   UNL     1     -18.163 -16.264  28.184  1.00  0.00    -0.003 C 
ATOM     14  C   UNL     1     -17.592 -15.260  29.183  1.00  0.00     0.004 C 
ENDBRANCH  12  13
ENDBRANCH  11  12
ENDBRANCH  10  11
ENDBRANCH   9  10
ENDBRANCH   1   9
TORSDOF 10
ENDMDL
MODEL 8
REMARK VINA RESULT:    -5.992      3.991      7.905
REMARK INTER + INTRA:         -10.072
REMARK INTER:                  -9.670
REMARK INTRA:                  -0.402
REMARK UNBOUND:                -0.578
REMARK SMILES CCCCCCCCCCCC(=O)[O-]
REMARK SMILES IDX 7 1 8 2 9 3 10 4 11 5 12 6 13 7 14 8 6 9 5 10 4 11 3 12 2 13
REMARK SMILES IDX 1 14
REMARK H PARENT
REMARK Flexibility Score: inf
ROOT
ATOM      1  C   UNL     1     -23.094 -24.027  29.057  1.00  0.00     0.000 C 
ENDROOT
BRANCH   1   2
ATOM      2  C   UNL     1     -22.012 -23.686  30.097  1.00  0.00     0.000 C 
BRANCH   2   3
ATOM      3  C   UNL     1     -22.579 -22.943  31.316  1.00  0.00     0.000 C 
BRANCH   3   4
ATOM      4  C   UNL     1     -21.870 -21.602  31.573  1.00  0.00     0.006 C 
BRANCH   4   5
ATOM      5  C   UNL     1     -22.052 -20.619  30.409  1.00  0.00     0.053 C 
BRANCH   5   6
ATOM      6  C   UNL     1     -21.143 -19.434  30.538  1.00  0.00     0.041 C 
ATOM      7  O   UNL     1     -20.892 -18.947  31.671  1.00  0.00    -0.550 OA
ATOM      8  O   UNL     1     -20.601 -18.849  29.400  1.00  0.00    -0.550 OA
ENDBRANCH   5   6
ENDBRANCH   4   5
ENDBRANCH   3   4
ENDBRANCH   2   3
ENDBRANCH   1   2
BRANCH   1   9
ATOM      9  C   UNL     1     -23.495 -25.511  29.081  1.00  0.00     0.000 C 
BRANCH   9  10
ATOM     10  C   UNL     1     -24.469 -25.839  30.225  1.00  0.00    -0.000 C 
BRANCH  10  11
ATOM     11  C   UNL     1     -25.372 -27.047  29.914  1.00  0.00    -0.000 C 
BRANCH  11  12
ATOM     12  C   UNL     1     -26.024 -27.039  28.515  1.00  0.00    -0.000 C 
BRANCH  12  13
ATOM     13  C   UNL     1     -26.418 -28.424  27.974  1.00  0.00    -0.003 C 
ATOM     14  C   UNL     1     -26.929 -28.378  26.535  1.00  0.00     0.004 C 
ENDBRANCH  12  13
ENDBRANCH  11  12
ENDBRANCH  10  11
ENDBRANCH   9  10
ENDBRANCH   1   9
TORSDOF 10
ENDMDL
MODEL 9
REMARK VINA RESULT:    -5.814      5.902      9.471
REMARK INTER + INTRA:          -9.791
REMARK INTER:                  -9.282
REMARK INTRA:                  -0.508
REMARK UNBOUND:                -0.578
REMARK SMILES CCCCCCCCCCCC(=O)[O-]
REMARK SMILES IDX 7 1 8 2 9 3 10 4 11 5 12 6 13 7 14 8 6 9 5 10 4 11 3 12 2 13
REMARK SMILES IDX 1 14
REMARK H PARENT
REMARK Flexibility Score: inf
ROOT
ATOM      1  C   UNL     1     -20.977 -18.859  29.548  1.00  0.00     0.000 C 
ENDROOT
BRANCH   1   2
ATOM      2  C   UNL     1     -20.747 -18.788  31.068  1.00  0.00     0.000 C 
BRANCH   2   3
ATOM      3  C   UNL     1     -19.389 -18.167  31.431  1.00  0.00     0.000 C 
BRANCH   3   4
ATOM      4  C   UNL     1     -18.834 -17.267  30.313  1.00  0.00     0.006 C 
BRANCH   4   5
ATOM      5  C   UNL     1     -18.182 -15.993  30.866  1.00  0.00     0.053 C 
BRANCH   5   6
ATOM      6  C   UNL     1     -17.755 -15.068  29.768  1.00  0.00     0.041 C 
ATOM      7  O   UNL     1     -17.464 -15.524  28.631  1.00  0.00    -0.550 OA
ATOM      8  O   UNL     1     -17.647 -13.704  30.012  1.00  0.00    -0.550 OA
ENDBRANCH   5   6
ENDBRANCH   4   5
ENDBRANCH   3   4
ENDBRANCH   2   3
ENDBRANCH   1   2
BRANCH   1   9
ATOM      9  C   UNL     1     -21.621 -20.183  29.105  1.00  0.00     0.000 C 
BRANCH   9  10
ATOM     10  C   UNL     1     -22.415 -20.858  30.236  1.00  0.00    -0.000 C 
BRANCH  10  11
ATOM     11  C   UNL     1     -22.049 -22.343  30.419  1.00  0.00    -0.000 C 
BRANCH  11  12
ATOM     12  C   UNL     1     -22.120 -23.201  29.139  1.00  0.00    -0.000 C 
BRANCH  12  13
ATOM     13  C   UNL     1     -23.066 -24.411  29.220  1.00  0.00    -0.003 C 
ATOM     14  C   UNL     1     -23.321 -24.875  30.653  1.00  0.00     0.004 C 
ENDBRANCH  12  13
ENDBRANCH  11  12
ENDBRANCH  10  11
ENDBRANCH   9  10
ENDBRANCH   1   9
TORSDOF 10
ENDMDL
