MODEL 1
REMARK VINA RESULT:    30.558      0.000      0.000
REMARK INTER + INTRA:          36.425
REMARK INTER:                  35.918
REMARK INTRA:                   0.507
REMARK UNBOUND:                 0.507
REMARK SMILES O=c1c(O)c(-c2ccc(O)cc2)oc2cc(O)cc(O)c12
REMARK SMILES IDX 5 1 3 2 2 3 1 4 21 5 19 6 18 7 16 8 15 9 14 10 13 11 6 12
REMARK SMILES IDX 7 13 8 14 9 15 12 16 11 17 10 18 4 20 20 22 17 24
REMARK H PARENT 10 19 4 21 20 23 17 25
REMARK Flexibility Score: inf
ROOT
ATOM      1  C   UNL     1      10.863  12.024  29.744  1.00  0.00     0.180 A 
ATOM      2  C   UNL     1      12.154  12.346  30.196  1.00  0.00     0.208 A 
ATOM      3  C   UNL     1      12.955  13.200  29.421  1.00  0.00     0.238 A 
ATOM      4  O   UNL     1      14.129  13.441  29.805  1.00  0.00    -0.285 OA
ATOM      5  C   UNL     1      12.449  13.735  28.212  1.00  0.00     0.111 A 
ATOM      6  C   UNL     1      13.157  14.641  27.367  1.00  0.00     0.134 A 
ATOM      7  C   UNL     1      12.611  15.002  26.129  1.00  0.00     0.093 A 
ATOM      8  C   UNL     1      11.355  14.543  25.735  1.00  0.00     0.123 A 
ATOM      9  C   UNL     1      10.628  13.704  26.579  1.00  0.00     0.094 A 
ATOM     10  C   UNL     1      11.162  13.297  27.804  1.00  0.00     0.146 A 
ATOM     11  O   UNL     1      10.442  12.489  28.573  1.00  0.00    -0.452 OA
ENDROOT
BRANCH   1  12
ATOM     12  C   UNL     1       9.950  11.151  30.518  1.00  0.00     0.021 A 
ATOM     13  C   UNL     1      10.471  10.332  31.532  1.00  0.00     0.016 A 
ATOM     14  C   UNL     1       9.631   9.484  32.259  1.00  0.00     0.047 A 
ATOM     15  C   UNL     1       8.262   9.433  31.970  1.00  0.00     0.115 A 
ATOM     16  C   UNL     1       8.577  11.080  30.219  1.00  0.00     0.016 A 
ATOM     17  C   UNL     1       7.739  10.230  30.947  1.00  0.00     0.047 A 
BRANCH  15  18
ATOM     18  O   UNL     1       7.414   8.592  32.688  1.00  0.00    -0.508 OA
ATOM     19  H   UNL     1       6.621   8.140  32.250  1.00  0.00     0.293 HD
ENDBRANCH  15  18
ENDBRANCH   1  12
BRANCH   2  20
ATOM     20  O   UNL     1      12.642  11.790  31.382  1.00  0.00    -0.502 OA
ATOM     21  H   UNL     1      12.903  12.355  32.180  1.00  0.00     0.293 HD
ENDBRANCH   2  20
BRANCH   6  22
ATOM     22  O   UNL     1      14.378  15.231  27.707  1.00  0.00    -0.507 OA
ATOM     23  H   UNL     1      14.481  16.152  28.104  1.00  0.00     0.293 HD
ENDBRANCH   6  22
BRANCH   8  24
ATOM     24  O   UNL     1      10.836  14.936  24.504  1.00  0.00    -0.508 OA
ATOM     25  H   UNL     1      11.415  14.979  23.673  1.00  0.00     0.293 HD
ENDBRANCH   8  24
TORSDOF 5
ENDMDL
MODEL 2
REMARK VINA RESULT:    32.137      2.094      3.492
REMARK INTER + INTRA:          38.280
REMARK INTER:                  37.800
REMARK INTRA:                   0.480
REMARK UNBOUND:                 0.507
REMARK SMILES O=c1c(O)c(-c2ccc(O)cc2)oc2cc(O)cc(O)c12
REMARK SMILES IDX 5 1 3 2 2 3 1 4 21 5 19 6 18 7 16 8 15 9 14 10 13 11 6 12
REMARK SMILES IDX 7 13 8 14 9 15 12 16 11 17 10 18 4 20 20 22 17 24
REMARK H PARENT 10 19 4 21 20 23 17 25
REMARK Flexibility Score: inf
ROOT
ATOM      1  C   UNL     1      11.116  12.021  30.896  1.00  0.00     0.180 A 
ATOM      2  C   UNL     1      11.620  11.912  29.589  1.00  0.00     0.208 A 
ATOM      3  C   UNL     1      12.532  12.875  29.127  1.00  0.00     0.238 A 
ATOM      4  O   UNL     1      12.938  12.802  27.938  1.00  0.00    -0.285 OA
ATOM      5  C   UNL     1      12.941  13.925  29.984  1.00  0.00     0.111 A 
ATOM      6  C   UNL     1      13.890  14.933  29.635  1.00  0.00     0.134 A 
ATOM      7  C   UNL     1      14.121  15.998  30.513  1.00  0.00     0.093 A 
ATOM      8  C   UNL     1      13.488  16.059  31.755  1.00  0.00     0.123 A 
ATOM      9  C   UNL     1      12.603  15.047  32.131  1.00  0.00     0.094 A 
ATOM     10  C   UNL     1      12.325  13.991  31.261  1.00  0.00     0.146 A 
ATOM     11  O   UNL     1      11.469  13.055  31.652  1.00  0.00    -0.452 OA
ENDROOT
BRANCH   1  12
ATOM     12  C   UNL     1      10.171  11.032  31.463  1.00  0.00     0.021 A 
ATOM     13  C   UNL     1       9.426  10.214  30.599  1.00  0.00     0.016 A 
ATOM     14  C   UNL     1       8.512   9.289  31.113  1.00  0.00     0.047 A 
ATOM     15  C   UNL     1       8.321   9.181  32.496  1.00  0.00     0.115 A 
ATOM     16  C   UNL     1       9.960  10.933  32.851  1.00  0.00     0.016 A 
ATOM     17  C   UNL     1       9.044  10.008  33.362  1.00  0.00     0.047 A 
BRANCH  15  18
ATOM     18  O   UNL     1       7.413   8.263  33.020  1.00  0.00    -0.508 OA
ATOM     19  H   UNL     1       6.937   7.593  32.428  1.00  0.00     0.293 HD
ENDBRANCH  15  18
ENDBRANCH   1  12
BRANCH   2  20
ATOM     20  O   UNL     1      11.186  10.879  28.753  1.00  0.00    -0.502 OA
ATOM     21  H   UNL     1      11.813  10.168  28.398  1.00  0.00     0.293 HD
ENDBRANCH   2  20
BRANCH   6  22
ATOM     22  O   UNL     1      14.646  14.918  28.459  1.00  0.00    -0.507 OA
ATOM     23  H   UNL     1      14.270  15.052  27.533  1.00  0.00     0.293 HD
ENDBRANCH   6  22
BRANCH   8  24
ATOM     24  O   UNL     1      13.754  17.125  32.610  1.00  0.00    -0.508 OA
ATOM     25  H   UNL     1      13.902  18.064  32.257  1.00  0.00     0.293 HD
ENDBRANCH   8  24
TORSDOF 5
ENDMDL
