MODEL 1
REMARK VINA RESULT:    -5.810      0.000      0.000
REMARK INTER + INTRA:          -6.080
REMARK INTER:                  -6.320
REMARK INTRA:                   0.240
REMARK UNBOUND:                 0.240
REMARK SMILES C[C@@H]1[C@H]2C3=CC[C@@H]4[C@@]5(C)CC[C@@H](O)C(C)(C)[C@H]5CC[C@]4(C)[C@@]3(C)CC[C@]2(C(=O)[O-])CC[C@@H]1C
REMARK SMILES IDX 26 1 30 2 25 3 3 4 31 5 24 6 4 7 2 8 32 9 22 10 5 11 1 12
REMARK SMILES IDX 33 13 23 14 20 15 6 16 7 17 19 18 21 19 8 20 18 21 17 22
REMARK SMILES IDX 10 23 9 24 14 25 11 26 12 27 15 28 16 29 27 30 28 31 29 32
REMARK SMILES IDX 13 33
REMARK H PARENT 13 34
REMARK Flexibility Score: inf
ROOT
ATOM      1  C   UNL     1       9.169  -1.562  -4.428  1.00  0.00     0.017 C 
ATOM      2  C   UNL     1      10.125  -0.801  -3.438  1.00  0.00     0.014 C 
ATOM      3  C   UNL     1       9.208  -3.087  -4.081  1.00  0.00     0.014 C 
ATOM      4  C   UNL     1       7.692  -1.081  -4.264  1.00  0.00     0.030 C 
ATOM      5  C   UNL     1       9.442   0.313  -2.624  1.00  0.00     0.004 C 
ATOM      6  C   UNL     1       8.152  -3.964  -4.815  1.00  0.00     0.013 C 
ATOM      7  C   UNL     1       6.785  -1.949  -5.152  1.00  0.00    -0.063 C 
ATOM      8  C   UNL     1       7.505   0.477  -4.339  1.00  0.00    -0.003 C 
ATOM      9  C   UNL     1       8.637   1.241  -3.549  1.00  0.00    -0.011 C 
ATOM     10  C   UNL     1       6.672  -3.430  -4.765  1.00  0.00    -0.006 C 
ATOM     11  C   UNL     1       6.497  -1.541  -6.395  1.00  0.00    -0.027 C 
ATOM     12  C   UNL     1       6.065   0.840  -3.908  1.00  0.00     0.008 C 
ATOM     13  C   UNL     1       8.175   2.491  -2.778  1.00  0.00     0.008 C 
ATOM     14  C   UNL     1       6.148  -3.513  -3.287  1.00  0.00     0.017 C 
ATOM     15  C   UNL     1       5.691  -4.289  -5.734  1.00  0.00    -0.020 C 
ATOM     16  C   UNL     1       5.813  -2.362  -7.426  1.00  0.00     0.032 C 
ATOM     17  C   UNL     1       5.893  -3.914  -7.258  1.00  0.00     0.006 C 
ATOM     18  C   UNL     1       4.195  -4.002  -5.415  1.00  0.00     0.008 C 
ATOM     19  C   UNL     1       5.991  -5.804  -5.466  1.00  0.00     0.012 C 
ATOM     20  C   UNL     1       4.899  -4.614  -8.325  1.00  0.00    -0.025 C 
ATOM     21  C   UNL     1       3.197  -4.707  -6.347  1.00  0.00     0.005 C 
ATOM     22  C   UNL     1       3.384  -4.461  -7.874  1.00  0.00     0.003 C 
ATOM     23  C   UNL     1       5.247  -6.121  -8.566  1.00  0.00     0.010 C 
ATOM     24  C   UNL     1       5.145  -3.907  -9.704  1.00  0.00     0.012 C 
ATOM     25  C   UNL     1       2.334  -5.302  -8.743  1.00  0.00    -0.006 C 
ATOM     26  C   UNL     1       4.258  -6.870  -9.477  1.00  0.00     0.033 C 
ATOM     27  C   UNL     1       2.813  -6.777  -8.969  1.00  0.00     0.120 C 
ATOM     28  C   UNL     1       2.080  -4.624 -10.125  1.00  0.00     0.014 C 
ATOM     29  C   UNL     1       0.932  -5.332  -8.063  1.00  0.00     0.014 C 
ENDROOT
BRANCH   1  30
ATOM     30  C   UNL     1       9.662  -1.318  -5.859  1.00  0.00     0.048 C 
ATOM     31  O   UNL     1       9.704  -2.249  -6.705  1.00  0.00    -0.550 OA
ATOM     32  O   UNL     1      10.117  -0.063  -6.242  1.00  0.00    -0.550 OA
ENDBRANCH   1  30
BRANCH  27  33
ATOM     33  O   UNL     1       2.712  -7.538  -7.792  1.00  0.00    -0.393 OA
ATOM     34  H   UNL     1       3.530  -8.100  -7.726  1.00  0.00     0.210 HD
ENDBRANCH  27  33
TORSDOF 2
ENDMDL
