MODEL 1
REMARK VINA RESULT:    -5.657      0.000      0.000
REMARK INTER + INTRA:          -9.719
REMARK INTER:                  -7.807
REMARK INTRA:                  -1.912
REMARK UNBOUND:                -1.912
REMARK SMILES CC[C@@H](CC[C@@H](C)[C@H]1CC[C@@H]2[C@@H]3CC=C4C[C@H](O)CC[C@@]4(C)[C@@H]3CC[C@@]21C)C(C)C
REMARK SMILES IDX 5 1 4 2 3 3 2 4 1 5 28 6 29 7 30 8 6 9 7 10 8 11 9 12 26 13
REMARK SMILES IDX 10 14 11 15 25 16 27 17 12 18 24 19 23 20 13 21 21 22 14 23
REMARK SMILES IDX 15 24 20 25 22 26 16 27 19 28 17 29 18 30
REMARK H PARENT 18 31
REMARK Flexibility Score: inf
ROOT
ATOM      1  C   UNL     1       9.507  14.531  14.620  1.00  0.00     0.004 C 
ENDROOT
BRANCH   1   2
ATOM      2  C   UNL     1       8.763  15.796  15.115  1.00  0.00     0.004 C 
BRANCH   2   3
ATOM      3  C   UNL     1       8.873  17.076  14.234  1.00  0.00    -0.009 C 
BRANCH   3   4
ATOM      4  C   UNL     1       8.602  18.418  14.989  1.00  0.00     0.000 C 
ATOM      5  C   UNL     1       9.690  19.500  14.998  1.00  0.00     0.004 C 
ENDBRANCH   3   4
BRANCH   3   6
ATOM      6  C   UNL     1       8.366  16.926  12.763  1.00  0.00    -0.014 C 
ATOM      7  C   UNL     1       9.390  17.453  11.742  1.00  0.00     0.007 C 
ATOM      8  C   UNL     1       6.967  17.494  12.475  1.00  0.00     0.007 C 
ENDBRANCH   3   6
ENDBRANCH   2   3
ENDBRANCH   1   2
BRANCH   1   9
ATOM      9  C   UNL     1      11.044  14.542  14.920  1.00  0.00    -0.011 C 
ATOM     10  C   UNL     1      11.396  13.291  15.754  1.00  0.00     0.008 C 
BRANCH   9  11
ATOM     11  C   UNL     1      11.910  14.594  13.607  1.00  0.00    -0.002 C 
ATOM     12  C   UNL     1      11.076  14.513  12.327  1.00  0.00     0.005 C 
ATOM     13  C   UNL     1      12.854  15.835  13.374  1.00  0.00    -0.026 C 
ATOM     14  C   UNL     1      12.034  14.875  11.215  1.00  0.00     0.005 C 
ATOM     15  C   UNL     1      12.924  15.968  11.811  1.00  0.00    -0.001 C 
ATOM     16  C   UNL     1      14.259  15.602  14.001  1.00  0.00     0.007 C 
ATOM     17  C   UNL     1      12.250  17.140  13.962  1.00  0.00     0.012 C 
ATOM     18  C   UNL     1      14.343  16.075  11.177  1.00  0.00     0.000 C 
ATOM     19  C   UNL     1      15.389  16.508  13.459  1.00  0.00     0.005 C 
ATOM     20  C   UNL     1      15.202  17.050  12.007  1.00  0.00     0.003 C 
ATOM     21  C   UNL     1      15.106  14.752  10.941  1.00  0.00     0.031 C 
ATOM     22  C   UNL     1      16.560  17.392  11.274  1.00  0.00    -0.008 C 
ATOM     23  C   UNL     1      16.526  14.980  10.494  1.00  0.00    -0.027 C 
ATOM     24  C   UNL     1      17.202  16.141  10.667  1.00  0.00    -0.065 C 
ATOM     25  C   UNL     1      16.314  18.397  10.097  1.00  0.00     0.014 C 
ATOM     26  C   UNL     1      17.545  18.057  12.281  1.00  0.00     0.016 C 
ATOM     27  C   UNL     1      18.470  16.349   9.872  1.00  0.00     0.063 C 
ATOM     28  C   UNL     1      17.544  18.605   9.176  1.00  0.00     0.033 C 
ATOM     29  C   UNL     1      18.148  17.271   8.689  1.00  0.00     0.118 C 
BRANCH  29  30
ATOM     30  O   UNL     1      19.326  17.517   7.964  1.00  0.00    -0.393 OA
ATOM     31  H   UNL     1      19.650  18.411   8.249  1.00  0.00     0.210 HD
ENDBRANCH  29  30
ENDBRANCH   9  11
ENDBRANCH   1   9
TORSDOF 7
ENDMDL
MODEL 2
REMARK VINA RESULT:    -5.411      1.696      3.424
REMARK INTER + INTRA:          -9.379
REMARK INTER:                  -8.320
REMARK INTRA:                  -1.059
REMARK UNBOUND:                -1.912
REMARK SMILES CC[C@@H](CC[C@@H](C)[C@H]1CC[C@@H]2[C@@H]3CC=C4C[C@H](O)CC[C@@]4(C)[C@@H]3CC[C@@]21C)C(C)C
REMARK SMILES IDX 5 1 4 2 3 3 2 4 1 5 28 6 29 7 30 8 6 9 7 10 8 11 9 12 26 13
REMARK SMILES IDX 10 14 11 15 25 16 27 17 12 18 24 19 23 20 13 21 21 22 14 23
REMARK SMILES IDX 15 24 20 25 22 26 16 27 19 28 17 29 18 30
REMARK H PARENT 18 31
REMARK Flexibility Score: inf
ROOT
ATOM      1  C   UNL     1       9.472  16.179  13.510  1.00  0.00     0.004 C 
ENDROOT
BRANCH   1   2
ATOM      2  C   UNL     1      10.356  14.910  13.596  1.00  0.00     0.004 C 
BRANCH   2   3
ATOM      3  C   UNL     1      11.115  14.660  14.932  1.00  0.00    -0.009 C 
BRANCH   3   4
ATOM      4  C   UNL     1      12.650  14.950  14.881  1.00  0.00     0.000 C 
ATOM      5  C   UNL     1      13.492  14.312  13.769  1.00  0.00     0.004 C 
ENDBRANCH   3   4
BRANCH   3   6
ATOM      6  C   UNL     1      10.607  13.447  15.778  1.00  0.00    -0.014 C 
ATOM      7  C   UNL     1      11.330  13.345  17.133  1.00  0.00     0.007 C 
ATOM      8  C   UNL     1      10.597  12.088  15.061  1.00  0.00     0.007 C 
ENDBRANCH   3   6
ENDBRANCH   2   3
ENDBRANCH   1   2
BRANCH   1   9
ATOM      9  C   UNL     1      10.244  17.458  13.042  1.00  0.00    -0.011 C 
ATOM     10  C   UNL     1      10.595  18.308  14.283  1.00  0.00     0.008 C 
BRANCH   9  11
ATOM     11  C   UNL     1      11.544  17.108  12.225  1.00  0.00    -0.002 C 
ATOM     12  C   UNL     1      11.264  16.756  10.763  1.00  0.00     0.005 C 
ATOM     13  C   UNL     1      12.699  18.179  12.150  1.00  0.00    -0.026 C 
ATOM     14  C   UNL     1      12.621  16.752  10.097  1.00  0.00     0.005 C 
ATOM     15  C   UNL     1      13.384  17.897  10.765  1.00  0.00    -0.001 C 
ATOM     16  C   UNL     1      13.695  18.021  13.334  1.00  0.00     0.007 C 
ATOM     17  C   UNL     1      12.143  19.630  12.149  1.00  0.00     0.012 C 
ATOM     18  C   UNL     1      14.934  17.739  10.767  1.00  0.00     0.000 C 
ATOM     19  C   UNL     1      15.081  18.676  13.132  1.00  0.00     0.005 C 
ATOM     20  C   UNL     1      15.559  18.834  11.655  1.00  0.00     0.003 C 
ATOM     21  C   UNL     1      15.495  16.351  11.149  1.00  0.00     0.031 C 
ATOM     22  C   UNL     1      17.131  18.881  11.495  1.00  0.00    -0.008 C 
ATOM     23  C   UNL     1      16.994  16.358  11.293  1.00  0.00    -0.027 C 
ATOM     24  C   UNL     1      17.737  17.474  11.484  1.00  0.00    -0.065 C 
ATOM     25  C   UNL     1      17.528  19.562  10.140  1.00  0.00     0.014 C 
ATOM     26  C   UNL     1      17.750  19.714  12.655  1.00  0.00     0.016 C 
ATOM     27  C   UNL     1      19.228  17.382  11.259  1.00  0.00     0.063 C 
ATOM     28  C   UNL     1      19.033  19.438   9.788  1.00  0.00     0.033 C 
ATOM     29  C   UNL     1      19.545  17.986   9.885  1.00  0.00     0.118 C 
BRANCH  29  30
ATOM     30  O   UNL     1      20.934  17.954   9.678  1.00  0.00    -0.393 OA
ATOM     31  H   UNL     1      21.079  17.501   8.806  1.00  0.00     0.210 HD
ENDBRANCH  29  30
ENDBRANCH   9  11
ENDBRANCH   1   9
TORSDOF 7
ENDMDL
MODEL 3
REMARK VINA RESULT:    -5.244      3.789      7.124
REMARK INTER + INTRA:          -9.149
REMARK INTER:                  -8.544
REMARK INTRA:                  -0.605
REMARK UNBOUND:                -1.912
REMARK SMILES CC[C@@H](CC[C@@H](C)[C@H]1CC[C@@H]2[C@@H]3CC=C4C[C@H](O)CC[C@@]4(C)[C@@H]3CC[C@@]21C)C(C)C
REMARK SMILES IDX 5 1 4 2 3 3 2 4 1 5 28 6 29 7 30 8 6 9 7 10 8 11 9 12 26 13
REMARK SMILES IDX 10 14 11 15 25 16 27 17 12 18 24 19 23 20 13 21 21 22 14 23
REMARK SMILES IDX 15 24 20 25 22 26 16 27 19 28 17 29 18 30
REMARK H PARENT 18 31
REMARK Flexibility Score: inf
ROOT
ATOM      1  C   UNL     1      13.534  14.989  14.334  1.00  0.00     0.004 C 
ENDROOT
BRANCH   1   2
ATOM      2  C   UNL     1      13.182  14.021  15.491  1.00  0.00     0.004 C 
BRANCH   2   3
ATOM      3  C   UNL     1      11.687  13.932  15.915  1.00  0.00    -0.009 C 
BRANCH   3   4
ATOM      4  C   UNL     1      11.447  13.462  17.386  1.00  0.00     0.000 C 
ATOM      5  C   UNL     1      12.076  14.260  18.535  1.00  0.00     0.004 C 
ENDBRANCH   3   4
BRANCH   3   6
ATOM      6  C   UNL     1      10.699  13.451  14.802  1.00  0.00    -0.014 C 
ATOM      7  C   UNL     1       9.402  14.280  14.783  1.00  0.00     0.007 C 
ATOM      8  C   UNL     1      10.386  11.946  14.790  1.00  0.00     0.007 C 
ENDBRANCH   3   6
ENDBRANCH   2   3
ENDBRANCH   1   2
BRANCH   1   9
ATOM      9  C   UNL     1      13.513  16.500  14.745  1.00  0.00    -0.011 C 
ATOM     10  C   UNL     1      14.778  17.185  14.182  1.00  0.00     0.008 C 
BRANCH   9  11
ATOM     11  C   UNL     1      12.215  17.239  14.246  1.00  0.00    -0.002 C 
ATOM     12  C   UNL     1      12.128  18.692  14.715  1.00  0.00     0.005 C 
ATOM     13  C   UNL     1      11.940  17.317  12.696  1.00  0.00    -0.026 C 
ATOM     14  C   UNL     1      11.003  19.296  13.906  1.00  0.00     0.005 C 
ATOM     15  C   UNL     1      11.133  18.653  12.523  1.00  0.00    -0.001 C 
ATOM     16  C   UNL     1      11.132  16.082  12.203  1.00  0.00     0.007 C 
ATOM     17  C   UNL     1      13.258  17.417  11.878  1.00  0.00     0.012 C 
ATOM     18  C   UNL     1       9.807  18.573  11.710  1.00  0.00     0.000 C 
ATOM     19  C   UNL     1      10.413  16.255  10.844  1.00  0.00     0.005 C 
ATOM     20  C   UNL     1      10.031  17.715  10.448  1.00  0.00     0.003 C 
ATOM     21  C   UNL     1       8.548  18.096  12.469  1.00  0.00     0.031 C 
ATOM     22  C   UNL     1       8.799  17.806   9.460  1.00  0.00    -0.008 C 
ATOM     23  C   UNL     1       7.371  17.886  11.553  1.00  0.00    -0.027 C 
ATOM     24  C   UNL     1       7.468  17.719  10.213  1.00  0.00    -0.065 C 
ATOM     25  C   UNL     1       8.805  19.175   8.697  1.00  0.00     0.014 C 
ATOM     26  C   UNL     1       8.888  16.664   8.407  1.00  0.00     0.016 C 
ATOM     27  C   UNL     1       6.213  17.871   9.385  1.00  0.00     0.063 C 
ATOM     28  C   UNL     1       7.512  19.452   7.887  1.00  0.00     0.033 C 
ATOM     29  C   UNL     1       6.235  19.259   8.732  1.00  0.00     0.118 C 
BRANCH  29  30
ATOM     30  O   UNL     1       5.099  19.401   7.918  1.00  0.00    -0.393 OA
ATOM     31  H   UNL     1       5.425  19.429   6.980  1.00  0.00     0.210 HD
ENDBRANCH  29  30
ENDBRANCH   9  11
ENDBRANCH   1   9
TORSDOF 7
ENDMDL
MODEL 4
REMARK VINA RESULT:    -5.111      1.453      1.938
REMARK INTER + INTRA:          -8.965
REMARK INTER:                  -7.167
REMARK INTRA:                  -1.799
REMARK UNBOUND:                -1.912
REMARK SMILES CC[C@@H](CC[C@@H](C)[C@H]1CC[C@@H]2[C@@H]3CC=C4C[C@H](O)CC[C@@]4(C)[C@@H]3CC[C@@]21C)C(C)C
REMARK SMILES IDX 5 1 4 2 3 3 2 4 1 5 28 6 29 7 30 8 6 9 7 10 8 11 9 12 26 13
REMARK SMILES IDX 10 14 11 15 25 16 27 17 12 18 24 19 23 20 13 21 21 22 14 23
REMARK SMILES IDX 15 24 20 25 22 26 16 27 19 28 17 29 18 30
REMARK H PARENT 18 31
REMARK Flexibility Score: inf
ROOT
ATOM      1  C   UNL     1      10.994  14.421  13.564  1.00  0.00     0.004 C 
ENDROOT
BRANCH   1   2
ATOM      2  C   UNL     1       9.858  15.412  13.919  1.00  0.00     0.004 C 
BRANCH   2   3
ATOM      3  C   UNL     1       9.450  16.448  12.831  1.00  0.00    -0.009 C 
BRANCH   3   4
ATOM      4  C   UNL     1       8.506  17.590  13.330  1.00  0.00     0.000 C 
ATOM      5  C   UNL     1       7.673  17.367  14.598  1.00  0.00     0.004 C 
ENDBRANCH   3   4
BRANCH   3   6
ATOM      6  C   UNL     1       9.232  15.866  11.396  1.00  0.00    -0.014 C 
ATOM      7  C   UNL     1      10.204  16.476  10.371  1.00  0.00     0.007 C 
ATOM      8  C   UNL     1       7.788  15.905  10.871  1.00  0.00     0.007 C 
ENDBRANCH   3   6
ENDBRANCH   2   3
ENDBRANCH   1   2
BRANCH   1   9
ATOM      9  C   UNL     1      12.399  14.848  14.108  1.00  0.00    -0.011 C 
ATOM     10  C   UNL     1      12.880  13.790  15.126  1.00  0.00     0.008 C 
BRANCH   9  11
ATOM     11  C   UNL     1      13.457  15.029  12.957  1.00  0.00    -0.002 C 
ATOM     12  C   UNL     1      12.962  14.539  11.595  1.00  0.00     0.005 C 
ATOM     13  C   UNL     1      14.015  16.475  12.666  1.00  0.00    -0.026 C 
ATOM     14  C   UNL     1      13.972  15.064  10.601  1.00  0.00     0.005 C 
ATOM     15  C   UNL     1      14.356  16.446  11.133  1.00  0.00    -0.001 C 
ATOM     16  C   UNL     1      15.269  16.783  13.535  1.00  0.00     0.007 C 
ATOM     17  C   UNL     1      12.944  17.571  12.921  1.00  0.00     0.012 C 
ATOM     18  C   UNL     1      15.776  16.936  10.720  1.00  0.00     0.000 C 
ATOM     19  C   UNL     1      16.162  17.939  13.030  1.00  0.00     0.005 C 
ATOM     20  C   UNL     1      16.120  18.224  11.496  1.00  0.00     0.003 C 
ATOM     21  C   UNL     1      16.930  15.914  10.835  1.00  0.00     0.031 C 
ATOM     22  C   UNL     1      17.433  18.903  10.936  1.00  0.00    -0.008 C 
ATOM     23  C   UNL     1      18.277  16.539  10.583  1.00  0.00    -0.027 C 
ATOM     24  C   UNL     1      18.528  17.868  10.660  1.00  0.00    -0.065 C 
ATOM     25  C   UNL     1      17.142  19.635   9.581  1.00  0.00     0.014 C 
ATOM     26  C   UNL     1      17.950  19.960  11.956  1.00  0.00     0.016 C 
ATOM     27  C   UNL     1      19.809  18.385  10.048  1.00  0.00     0.063 C 
ATOM     28  C   UNL     1      18.413  20.125   8.842  1.00  0.00     0.033 C 
ATOM     29  C   UNL     1      19.473  19.013   8.690  1.00  0.00     0.118 C 
BRANCH  29  30
ATOM     30  O   UNL     1      20.645  19.545   8.127  1.00  0.00    -0.393 OA
ATOM     31  H   UNL     1      21.025  20.166   8.802  1.00  0.00     0.210 HD
ENDBRANCH  29  30
ENDBRANCH   9  11
ENDBRANCH   1   9
TORSDOF 7
ENDMDL
MODEL 5
REMARK VINA RESULT:    -5.080     17.668     19.609
REMARK INTER + INTRA:          -8.922
REMARK INTER:                  -7.821
REMARK INTRA:                  -1.101
REMARK UNBOUND:                -1.912
REMARK SMILES CC[C@@H](CC[C@@H](C)[C@H]1CC[C@@H]2[C@@H]3CC=C4C[C@H](O)CC[C@@]4(C)[C@@H]3CC[C@@]21C)C(C)C
REMARK SMILES IDX 5 1 4 2 3 3 2 4 1 5 28 6 29 7 30 8 6 9 7 10 8 11 9 12 26 13
REMARK SMILES IDX 10 14 11 15 25 16 27 17 12 18 24 19 23 20 13 21 21 22 14 23
REMARK SMILES IDX 15 24 20 25 22 26 16 27 19 28 17 29 18 30
REMARK H PARENT 18 31
REMARK Flexibility Score: inf
ROOT
ATOM      1  C   UNL     1       4.346   4.289  25.689  1.00  0.00     0.004 C 
ENDROOT
BRANCH   1   2
ATOM      2  C   UNL     1       4.606   3.709  24.276  1.00  0.00     0.004 C 
BRANCH   2   3
ATOM      3  C   UNL     1       4.004   2.308  23.960  1.00  0.00    -0.009 C 
BRANCH   3   4
ATOM      4  C   UNL     1       3.037   1.747  25.053  1.00  0.00     0.000 C 
ATOM      5  C   UNL     1       2.845   0.230  25.170  1.00  0.00     0.004 C 
ENDBRANCH   3   4
BRANCH   3   6
ATOM      6  C   UNL     1       4.960   1.316  23.222  1.00  0.00    -0.014 C 
ATOM      7  C   UNL     1       6.395   1.376  23.775  1.00  0.00     0.007 C 
ATOM      8  C   UNL     1       4.962   1.406  21.687  1.00  0.00     0.007 C 
ENDBRANCH   3   6
ENDBRANCH   2   3
ENDBRANCH   1   2
BRANCH   1   9
ATOM      9  C   UNL     1       5.586   4.214  26.642  1.00  0.00    -0.011 C 
ATOM     10  C   UNL     1       5.452   2.959  27.533  1.00  0.00     0.008 C 
BRANCH   9  11
ATOM     11  C   UNL     1       6.948   4.189  25.852  1.00  0.00    -0.002 C 
ATOM     12  C   UNL     1       7.215   5.473  25.065  1.00  0.00     0.005 C 
ATOM     13  C   UNL     1       8.282   3.946  26.657  1.00  0.00    -0.026 C 
ATOM     14  C   UNL     1       8.662   5.375  24.640  1.00  0.00     0.005 C 
ATOM     15  C   UNL     1       9.370   4.713  25.824  1.00  0.00    -0.001 C 
ATOM     16  C   UNL     1       8.603   2.428  26.773  1.00  0.00     0.007 C 
ATOM     17  C   UNL     1       8.218   4.558  28.084  1.00  0.00     0.012 C 
ATOM     18  C   UNL     1      10.661   3.923  25.457  1.00  0.00     0.000 C 
ATOM     19  C   UNL     1      10.070   2.081  27.115  1.00  0.00     0.005 C 
ATOM     20  C   UNL     1      11.144   3.130  26.689  1.00  0.00     0.003 C 
ATOM     21  C   UNL     1      10.590   3.001  24.219  1.00  0.00     0.031 C 
ATOM     22  C   UNL     1      12.581   2.514  26.454  1.00  0.00    -0.008 C 
ATOM     23  C   UNL     1      11.826   2.155  24.060  1.00  0.00    -0.027 C 
ATOM     24  C   UNL     1      12.706   1.898  25.057  1.00  0.00    -0.065 C 
ATOM     25  C   UNL     1      13.682   3.623  26.566  1.00  0.00     0.014 C 
ATOM     26  C   UNL     1      12.870   1.434  27.537  1.00  0.00     0.016 C 
ATOM     27  C   UNL     1      14.061   1.343  24.682  1.00  0.00     0.063 C 
ATOM     28  C   UNL     1      15.092   3.161  26.117  1.00  0.00     0.033 C 
ATOM     29  C   UNL     1      15.078   2.489  24.728  1.00  0.00     0.118 C 
BRANCH  29  30
ATOM     30  O   UNL     1      16.354   1.983  24.430  1.00  0.00    -0.393 OA
ATOM     31  H   UNL     1      16.529   2.200  23.477  1.00  0.00     0.210 HD
ENDBRANCH  29  30
ENDBRANCH   9  11
ENDBRANCH   1   9
TORSDOF 7
ENDMDL
MODEL 6
REMARK VINA RESULT:    -5.004      1.413      2.839
REMARK INTER + INTRA:          -8.818
REMARK INTER:                  -7.909
REMARK INTRA:                  -0.909
REMARK UNBOUND:                -1.912
REMARK SMILES CC[C@@H](CC[C@@H](C)[C@H]1CC[C@@H]2[C@@H]3CC=C4C[C@H](O)CC[C@@]4(C)[C@@H]3CC[C@@]21C)C(C)C
REMARK SMILES IDX 5 1 4 2 3 3 2 4 1 5 28 6 29 7 30 8 6 9 7 10 8 11 9 12 26 13
REMARK SMILES IDX 10 14 11 15 25 16 27 17 12 18 24 19 23 20 13 21 21 22 14 23
REMARK SMILES IDX 15 24 20 25 22 26 16 27 19 28 17 29 18 30
REMARK H PARENT 18 31
REMARK Flexibility Score: inf
ROOT
ATOM      1  C   UNL     1       9.403  15.027  14.157  1.00  0.00     0.004 C 
ENDROOT
BRANCH   1   2
ATOM      2  C   UNL     1       8.683  16.334  14.572  1.00  0.00     0.004 C 
BRANCH   2   3
ATOM      3  C   UNL     1       8.296  17.325  13.436  1.00  0.00    -0.009 C 
BRANCH   3   4
ATOM      4  C   UNL     1       8.504  16.778  11.986  1.00  0.00     0.000 C 
ATOM      5  C   UNL     1       7.310  16.738  11.026  1.00  0.00     0.004 C 
ENDBRANCH   3   4
BRANCH   3   6
ATOM      6  C   UNL     1       8.606  18.831  13.722  1.00  0.00    -0.014 C 
ATOM      7  C   UNL     1       9.355  19.498  12.554  1.00  0.00     0.007 C 
ATOM      8  C   UNL     1       9.302  19.129  15.059  1.00  0.00     0.007 C 
ENDBRANCH   3   6
ENDBRANCH   2   3
ENDBRANCH   1   2
BRANCH   1   9
ATOM      9  C   UNL     1      10.376  14.466  15.247  1.00  0.00    -0.011 C 
ATOM     10  C   UNL     1      10.280  12.924  15.254  1.00  0.00     0.008 C 
BRANCH   9  11
ATOM     11  C   UNL     1      11.864  14.927  15.017  1.00  0.00    -0.002 C 
ATOM     12  C   UNL     1      12.889  13.828  15.301  1.00  0.00     0.005 C 
ATOM     13  C   UNL     1      12.271  15.478  13.597  1.00  0.00    -0.026 C 
ATOM     14  C   UNL     1      14.191  14.357  14.745  1.00  0.00     0.005 C 
ATOM     15  C   UNL     1      13.792  15.106  13.472  1.00  0.00    -0.001 C 
ATOM     16  C   UNL     1      12.038  17.013  13.497  1.00  0.00     0.007 C 
ATOM     17  C   UNL     1      11.487  14.773  12.456  1.00  0.00     0.012 C 
ATOM     18  C   UNL     1      14.763  16.251  13.053  1.00  0.00     0.000 C 
ATOM     19  C   UNL     1      12.807  17.732  12.365  1.00  0.00     0.005 C 
ATOM     20  C   UNL     1      14.135  17.058  11.898  1.00  0.00     0.003 C 
ATOM     21  C   UNL     1      15.249  17.200  14.171  1.00  0.00     0.031 C 
ATOM     22  C   UNL     1      15.175  18.068  11.266  1.00  0.00    -0.008 C 
ATOM     23  C   UNL     1      16.033  18.368  13.633  1.00  0.00    -0.027 C 
ATOM     24  C   UNL     1      15.984  18.791  12.347  1.00  0.00    -0.065 C 
ATOM     25  C   UNL     1      16.201  17.307  10.358  1.00  0.00     0.014 C 
ATOM     26  C   UNL     1      14.424  19.107  10.383  1.00  0.00     0.016 C 
ATOM     27  C   UNL     1      17.067  19.729  11.866  1.00  0.00     0.063 C 
ATOM     28  C   UNL     1      17.395  18.176   9.888  1.00  0.00     0.033 C 
ATOM     29  C   UNL     1      18.083  18.913  11.056  1.00  0.00     0.118 C 
BRANCH  29  30
ATOM     30  O   UNL     1      19.073  19.777  10.559  1.00  0.00    -0.393 OA
ATOM     31  H   UNL     1      18.799  20.016   9.634  1.00  0.00     0.210 HD
ENDBRANCH  29  30
ENDBRANCH   9  11
ENDBRANCH   1   9
TORSDOF 7
ENDMDL
MODEL 7
REMARK VINA RESULT:    -4.993      1.858      3.281
REMARK INTER + INTRA:          -8.802
REMARK INTER:                  -8.639
REMARK INTRA:                  -0.163
REMARK UNBOUND:                -1.912
REMARK SMILES CC[C@@H](CC[C@@H](C)[C@H]1CC[C@@H]2[C@@H]3CC=C4C[C@H](O)CC[C@@]4(C)[C@@H]3CC[C@@]21C)C(C)C
REMARK SMILES IDX 5 1 4 2 3 3 2 4 1 5 28 6 29 7 30 8 6 9 7 10 8 11 9 12 26 13
REMARK SMILES IDX 10 14 11 15 25 16 27 17 12 18 24 19 23 20 13 21 21 22 14 23
REMARK SMILES IDX 15 24 20 25 22 26 16 27 19 28 17 29 18 30
REMARK H PARENT 18 31
REMARK Flexibility Score: inf
ROOT
ATOM      1  C   UNL     1      10.547  15.683  12.536  1.00  0.00     0.004 C 
ENDROOT
BRANCH   1   2
ATOM      2  C   UNL     1       9.920  15.145  13.845  1.00  0.00     0.004 C 
BRANCH   2   3
ATOM      3  C   UNL     1      10.892  14.798  15.010  1.00  0.00    -0.009 C 
BRANCH   3   4
ATOM      4  C   UNL     1      12.391  15.154  14.744  1.00  0.00     0.000 C 
ATOM      5  C   UNL     1      12.881  16.579  15.030  1.00  0.00     0.004 C 
ENDBRANCH   3   4
BRANCH   3   6
ATOM      6  C   UNL     1      10.560  13.489  15.798  1.00  0.00    -0.014 C 
ATOM      7  C   UNL     1      11.367  13.381  17.104  1.00  0.00     0.007 C 
ATOM      8  C   UNL     1      10.646  12.183  14.993  1.00  0.00     0.007 C 
ENDBRANCH   3   6
ENDBRANCH   2   3
ENDBRANCH   1   2
BRANCH   1   9
ATOM      9  C   UNL     1      10.470  14.679  11.337  1.00  0.00    -0.011 C 
ATOM     10  C   UNL     1       9.265  15.058  10.448  1.00  0.00     0.008 C 
BRANCH   9  11
ATOM     11  C   UNL     1      11.797  14.654  10.490  1.00  0.00    -0.002 C 
ATOM     12  C   UNL     1      11.553  14.685   8.980  1.00  0.00     0.005 C 
ATOM     13  C   UNL     1      12.867  15.788  10.731  1.00  0.00    -0.026 C 
ATOM     14  C   UNL     1      12.910  14.956   8.372  1.00  0.00     0.005 C 
ATOM     15  C   UNL     1      13.579  15.935   9.339  1.00  0.00    -0.001 C 
ATOM     16  C   UNL     1      13.866  15.392  11.856  1.00  0.00     0.007 C 
ATOM     17  C   UNL     1      12.202  17.142  11.101  1.00  0.00     0.012 C 
ATOM     18  C   UNL     1      15.136  15.895   9.339  1.00  0.00     0.000 C 
ATOM     19  C   UNL     1      15.199  16.176  11.870  1.00  0.00     0.005 C 
ATOM     20  C   UNL     1      15.671  16.756  10.501  1.00  0.00     0.003 C 
ATOM     21  C   UNL     1      15.801  14.500   9.354  1.00  0.00     0.031 C 
ATOM     22  C   UNL     1      17.236  16.958  10.399  1.00  0.00    -0.008 C 
ATOM     23  C   UNL     1      17.294  14.576   9.532  1.00  0.00    -0.027 C 
ATOM     24  C   UNL     1      17.948  15.652  10.031  1.00  0.00    -0.065 C 
ATOM     25  C   UNL     1      17.587  18.001   9.284  1.00  0.00     0.014 C 
ATOM     26  C   UNL     1      17.783  17.495  11.754  1.00  0.00     0.016 C 
ATOM     27  C   UNL     1      19.443  15.732   9.828  1.00  0.00     0.063 C 
ATOM     28  C   UNL     1      19.099  18.086   8.951  1.00  0.00     0.033 C 
ATOM     29  C   UNL     1      19.720  16.701   8.672  1.00  0.00     0.118 C 
BRANCH  29  30
ATOM     30  O   UNL     1      21.108  16.826   8.500  1.00  0.00    -0.393 OA
ATOM     31  H   UNL     1      21.249  17.164   7.576  1.00  0.00     0.210 HD
ENDBRANCH  29  30
ENDBRANCH   9  11
ENDBRANCH   1   9
TORSDOF 7
ENDMDL
MODEL 8
REMARK VINA RESULT:    -4.874      1.385      3.011
REMARK INTER + INTRA:          -8.638
REMARK INTER:                  -6.983
REMARK INTRA:                  -1.655
REMARK UNBOUND:                -1.912
REMARK SMILES CC[C@@H](CC[C@@H](C)[C@H]1CC[C@@H]2[C@@H]3CC=C4C[C@H](O)CC[C@@]4(C)[C@@H]3CC[C@@]21C)C(C)C
REMARK SMILES IDX 5 1 4 2 3 3 2 4 1 5 28 6 29 7 30 8 6 9 7 10 8 11 9 12 26 13
REMARK SMILES IDX 10 14 11 15 25 16 27 17 12 18 24 19 23 20 13 21 21 22 14 23
REMARK SMILES IDX 15 24 20 25 22 26 16 27 19 28 17 29 18 30
REMARK H PARENT 18 31
REMARK Flexibility Score: inf
ROOT
ATOM      1  C   UNL     1      10.246  15.463  14.525  1.00  0.00     0.004 C 
ENDROOT
BRANCH   1   2
ATOM      2  C   UNL     1       8.878  16.074  14.136  1.00  0.00     0.004 C 
BRANCH   2   3
ATOM      3  C   UNL     1       8.661  17.585  14.442  1.00  0.00    -0.009 C 
BRANCH   3   4
ATOM      4  C   UNL     1       7.305  18.172  13.929  1.00  0.00     0.000 C 
ATOM      5  C   UNL     1       6.867  17.885  12.487  1.00  0.00     0.004 C 
ENDBRANCH   3   4
BRANCH   3   6
ATOM      6  C   UNL     1       9.942  18.478  14.368  1.00  0.00    -0.014 C 
ATOM      7  C   UNL     1       9.886  19.653  15.360  1.00  0.00     0.007 C 
ATOM      8  C   UNL     1      10.337  18.966  12.965  1.00  0.00     0.007 C 
ENDBRANCH   3   6
ENDBRANCH   2   3
ENDBRANCH   1   2
BRANCH   1   9
ATOM      9  C   UNL     1      11.176  15.160  13.302  1.00  0.00    -0.011 C 
ATOM     10  C   UNL     1      10.352  15.308  12.004  1.00  0.00     0.008 C 
BRANCH   9  11
ATOM     11  C   UNL     1      12.441  16.097  13.264  1.00  0.00    -0.002 C 
ATOM     12  C   UNL     1      13.043  16.358  14.646  1.00  0.00     0.005 C 
ATOM     13  C   UNL     1      13.674  15.664  12.382  1.00  0.00    -0.026 C 
ATOM     14  C   UNL     1      14.381  17.005  14.372  1.00  0.00     0.005 C 
ATOM     15  C   UNL     1      14.907  16.292  13.124  1.00  0.00    -0.001 C 
ATOM     16  C   UNL     1      13.540  16.195  10.925  1.00  0.00     0.007 C 
ATOM     17  C   UNL     1      13.844  14.120  12.343  1.00  0.00     0.012 C 
ATOM     18  C   UNL     1      15.896  17.130  12.260  1.00  0.00     0.000 C 
ATOM     19  C   UNL     1      14.853  16.243  10.111  1.00  0.00     0.005 C 
ATOM     20  C   UNL     1      16.171  16.390  10.934  1.00  0.00     0.003 C 
ATOM     21  C   UNL     1      15.512  18.601  11.985  1.00  0.00     0.031 C 
ATOM     22  C   UNL     1      17.354  17.063  10.131  1.00  0.00    -0.008 C 
ATOM     23  C   UNL     1      16.439  19.262  10.999  1.00  0.00    -0.027 C 
ATOM     24  C   UNL     1      17.242  18.591  10.139  1.00  0.00    -0.065 C 
ATOM     25  C   UNL     1      18.736  16.702  10.777  1.00  0.00     0.014 C 
ATOM     26  C   UNL     1      17.354  16.540   8.665  1.00  0.00     0.016 C 
ATOM     27  C   UNL     1      18.360  19.354   9.467  1.00  0.00     0.063 C 
ATOM     28  C   UNL     1      19.931  17.505  10.204  1.00  0.00     0.033 C 
ATOM     29  C   UNL     1      19.670  19.026  10.195  1.00  0.00     0.118 C 
BRANCH  29  30
ATOM     30  O   UNL     1      20.729  19.689   9.554  1.00  0.00    -0.393 OA
ATOM     31  H   UNL     1      20.323  20.239   8.834  1.00  0.00     0.210 HD
ENDBRANCH  29  30
ENDBRANCH   9  11
ENDBRANCH   1   9
TORSDOF 7
ENDMDL
MODEL 9
REMARK VINA RESULT:    -4.674      1.545      3.038
REMARK INTER + INTRA:          -8.362
REMARK INTER:                  -6.773
REMARK INTRA:                  -1.589
REMARK UNBOUND:                -1.912
REMARK SMILES CC[C@@H](CC[C@@H](C)[C@H]1CC[C@@H]2[C@@H]3CC=C4C[C@H](O)CC[C@@]4(C)[C@@H]3CC[C@@]21C)C(C)C
REMARK SMILES IDX 5 1 4 2 3 3 2 4 1 5 28 6 29 7 30 8 6 9 7 10 8 11 9 12 26 13
REMARK SMILES IDX 10 14 11 15 25 16 27 17 12 18 24 19 23 20 13 21 21 22 14 23
REMARK SMILES IDX 15 24 20 25 22 26 16 27 19 28 17 29 18 30
REMARK H PARENT 18 31
REMARK Flexibility Score: inf
ROOT
ATOM      1  C   UNL     1       9.575  16.460  13.980  1.00  0.00     0.004 C 
ENDROOT
BRANCH   1   2
ATOM      2  C   UNL     1       8.230  16.373  13.218  1.00  0.00     0.004 C 
BRANCH   2   3
ATOM      3  C   UNL     1       7.942  17.473  12.155  1.00  0.00    -0.009 C 
BRANCH   3   4
ATOM      4  C   UNL     1       6.858  18.521  12.570  1.00  0.00     0.000 C 
ATOM      5  C   UNL     1       5.643  18.737  11.659  1.00  0.00     0.004 C 
ENDBRANCH   3   4
BRANCH   3   6
ATOM      6  C   UNL     1       8.000  17.002  10.665  1.00  0.00    -0.014 C 
ATOM      7  C   UNL     1       8.316  15.500  10.546  1.00  0.00     0.007 C 
ATOM      8  C   UNL     1       8.906  17.826   9.737  1.00  0.00     0.007 C 
ENDBRANCH   3   6
ENDBRANCH   2   3
ENDBRANCH   1   2
BRANCH   1   9
ATOM      9  C   UNL     1      10.458  17.685  13.569  1.00  0.00    -0.011 C 
ATOM     10  C   UNL     1      10.096  18.885  14.472  1.00  0.00     0.008 C 
BRANCH   9  11
ATOM     11  C   UNL     1      11.999  17.371  13.658  1.00  0.00    -0.002 C 
ATOM     12  C   UNL     1      12.327  16.212  14.601  1.00  0.00     0.005 C 
ATOM     13  C   UNL     1      12.775  17.021  12.330  1.00  0.00    -0.026 C 
ATOM     14  C   UNL     1      13.775  15.881  14.320  1.00  0.00     0.005 C 
ATOM     15  C   UNL     1      13.930  16.071  12.810  1.00  0.00    -0.001 C 
ATOM     16  C   UNL     1      13.324  18.303  11.642  1.00  0.00     0.007 C 
ATOM     17  C   UNL     1      11.878  16.251  11.322  1.00  0.00     0.012 C 
ATOM     18  C   UNL     1      15.372  16.425  12.339  1.00  0.00     0.000 C 
ATOM     19  C   UNL     1      14.465  18.075  10.623  1.00  0.00     0.005 C 
ATOM     20  C   UNL     1      15.344  16.805  10.844  1.00  0.00     0.003 C 
ATOM     21  C   UNL     1      16.130  17.498  13.152  1.00  0.00     0.031 C 
ATOM     22  C   UNL     1      16.804  16.927  10.251  1.00  0.00    -0.008 C 
ATOM     23  C   UNL     1      17.435  17.890  12.510  1.00  0.00    -0.027 C 
ATOM     24  C   UNL     1      17.738  17.675  11.207  1.00  0.00    -0.065 C 
ATOM     25  C   UNL     1      17.427  15.508  10.019  1.00  0.00     0.014 C 
ATOM     26  C   UNL     1      16.751  17.663   8.880  1.00  0.00     0.016 C 
ATOM     27  C   UNL     1      19.184  17.791  10.786  1.00  0.00     0.063 C 
ATOM     28  C   UNL     1      18.936  15.530   9.666  1.00  0.00     0.033 C 
ATOM     29  C   UNL     1      19.762  16.376  10.658  1.00  0.00     0.118 C 
BRANCH  29  30
ATOM     30  O   UNL     1      21.093  16.461  10.219  1.00  0.00    -0.393 OA
ATOM     31  H   UNL     1      21.072  16.357   9.231  1.00  0.00     0.210 HD
ENDBRANCH  29  30
ENDBRANCH   9  11
ENDBRANCH   1   9
TORSDOF 7
ENDMDL
