MODEL 1
REMARK VINA RESULT:    -4.485      0.000      0.000
REMARK INTER + INTRA:          -4.924
REMARK INTER:                  -4.879
REMARK INTRA:                  -0.046
REMARK UNBOUND:                -0.046
REMARK SMILES COc1cc2ccc(=O)oc2cc1O
REMARK SMILES IDX 3 1 13 2 12 3 11 4 5 5 4 6 6 7 7 8 8 9 9 10 10 11 2 12 1 13
REMARK SMILES IDX 14 14
REMARK H PARENT 14 15
REMARK Flexibility Score: inf
ROOT
ATOM      1  C   UNL     1     173.881 187.026 179.683  1.00  0.00     0.161 A 
ATOM      2  C   UNL     1     174.641 188.162 179.340  1.00  0.00     0.161 A 
ATOM      3  C   UNL     1     174.505 188.746 178.076  1.00  0.00     0.098 A 
ATOM      4  C   UNL     1     173.617 188.208 177.141  1.00  0.00     0.142 A 
ATOM      5  C   UNL     1     172.852 187.071 177.475  1.00  0.00     0.022 A 
ATOM      6  C   UNL     1     172.984 186.484 178.740  1.00  0.00     0.062 A 
ATOM      7  C   UNL     1     171.972 186.557 176.517  1.00  0.00     0.019 A 
ATOM      8  C   UNL     1     171.875 187.177 175.272  1.00  0.00     0.094 A 
ATOM      9  C   UNL     1     172.665 188.301 175.011  1.00  0.00     0.336 A 
ATOM     10  O   UNL     1     172.593 188.875 173.893  1.00  0.00    -0.246 OA
ATOM     11  O   UNL     1     173.496 188.770 175.940  1.00  0.00    -0.423 OA
ENDROOT
BRANCH   1  12
ATOM     12  O   UNL     1     174.042 186.467 180.962  1.00  0.00    -0.493 OA
ATOM     13  C   UNL     1     173.020 185.777 181.675  1.00  0.00     0.278 C 
ENDBRANCH   1  12
BRANCH   2  14
ATOM     14  O   UNL     1     175.539 188.728 180.247  1.00  0.00    -0.504 OA
ATOM     15  H   UNL     1     176.496 188.942 179.996  1.00  0.00     0.293 HD
ENDBRANCH   2  14
TORSDOF 2
ENDMDL
MODEL 2
REMARK VINA RESULT:    -4.440     20.817     21.737
REMARK INTER + INTRA:          -4.875
REMARK INTER:                  -4.810
REMARK INTRA:                  -0.065
REMARK UNBOUND:                -0.046
REMARK SMILES COc1cc2ccc(=O)oc2cc1O
REMARK SMILES IDX 3 1 13 2 12 3 11 4 5 5 4 6 6 7 7 8 8 9 9 10 10 11 2 12 1 13
REMARK SMILES IDX 14 14
REMARK H PARENT 14 15
REMARK Flexibility Score: inf
ROOT
ATOM      1  C   UNL     1     190.668 174.900 173.443  1.00  0.00     0.161 A 
ATOM      2  C   UNL     1     190.068 173.951 174.295  1.00  0.00     0.161 A 
ATOM      3  C   UNL     1     189.958 174.207 175.667  1.00  0.00     0.098 A 
ATOM      4  C   UNL     1     190.441 175.402 176.204  1.00  0.00     0.142 A 
ATOM      5  C   UNL     1     191.042 176.358 175.359  1.00  0.00     0.022 A 
ATOM      6  C   UNL     1     191.154 176.106 173.985  1.00  0.00     0.062 A 
ATOM      7  C   UNL     1     191.515 177.545 175.927  1.00  0.00     0.019 A 
ATOM      8  C   UNL     1     191.380 177.749 177.300  1.00  0.00     0.094 A 
ATOM      9  C   UNL     1     190.773 176.757 178.076  1.00  0.00     0.336 A 
ATOM     10  O   UNL     1     190.642 176.922 179.317  1.00  0.00    -0.246 OA
ATOM     11  O   UNL     1     190.331 175.636 177.511  1.00  0.00    -0.423 OA
ENDROOT
BRANCH   1  12
ATOM     12  O   UNL     1     190.761 174.611 172.071  1.00  0.00    -0.493 OA
ATOM     13  C   UNL     1     189.856 175.090 171.082  1.00  0.00     0.278 C 
ENDBRANCH   1  12
BRANCH   2  14
ATOM     14  O   UNL     1     189.575 172.745 173.796  1.00  0.00    -0.504 OA
ATOM     15  H   UNL     1     190.170 171.940 173.643  1.00  0.00     0.293 HD
ENDBRANCH   2  14
TORSDOF 2
ENDMDL
MODEL 3
REMARK VINA RESULT:    -4.438     20.029     20.796
REMARK INTER + INTRA:          -4.873
REMARK INTER:                  -4.808
REMARK INTRA:                  -0.064
REMARK UNBOUND:                -0.046
REMARK SMILES COc1cc2ccc(=O)oc2cc1O
REMARK SMILES IDX 3 1 13 2 12 3 11 4 5 5 4 6 6 7 7 8 8 9 9 10 10 11 2 12 1 13
REMARK SMILES IDX 14 14
REMARK H PARENT 14 15
REMARK Flexibility Score: inf
ROOT
ATOM      1  C   UNL     1     190.271 177.078 179.458  1.00  0.00     0.161 A 
ATOM      2  C   UNL     1     189.586 175.876 179.725  1.00  0.00     0.161 A 
ATOM      3  C   UNL     1     189.465 174.898 178.732  1.00  0.00     0.098 A 
ATOM      4  C   UNL     1     190.019 175.102 177.467  1.00  0.00     0.142 A 
ATOM      5  C   UNL     1     190.708 176.302 177.189  1.00  0.00     0.022 A 
ATOM      6  C   UNL     1     190.832 177.284 178.180  1.00  0.00     0.062 A 
ATOM      7  C   UNL     1     191.252 176.477 175.913  1.00  0.00     0.019 A 
ATOM      8  C   UNL     1     191.102 175.470 174.960  1.00  0.00     0.094 A 
ATOM      9  C   UNL     1     190.408 174.306 175.307  1.00  0.00     0.336 A 
ATOM     10  O   UNL     1     190.260 173.386 174.461  1.00  0.00    -0.246 OA
ATOM     11  O   UNL     1     189.898 174.165 176.528  1.00  0.00    -0.423 OA
ENDROOT
BRANCH   1  12
ATOM     12  O   UNL     1     190.375 178.038 180.478  1.00  0.00    -0.493 OA
ATOM     13  C   UNL     1     191.499 178.181 181.340  1.00  0.00     0.278 C 
ENDBRANCH   1  12
BRANCH   2  14
ATOM     14  O   UNL     1     189.017 175.636 180.977  1.00  0.00    -0.504 OA
ATOM     15  H   UNL     1     188.091 175.964 181.222  1.00  0.00     0.293 HD
ENDBRANCH   2  14
TORSDOF 2
ENDMDL
MODEL 4
REMARK VINA RESULT:    -4.417      1.818      5.407
REMARK INTER + INTRA:          -4.850
REMARK INTER:                  -4.784
REMARK INTRA:                  -0.065
REMARK UNBOUND:                -0.046
REMARK SMILES COc1cc2ccc(=O)oc2cc1O
REMARK SMILES IDX 3 1 13 2 12 3 11 4 5 5 4 6 6 7 7 8 8 9 9 10 10 11 2 12 1 13
REMARK SMILES IDX 14 14
REMARK H PARENT 14 15
REMARK Flexibility Score: inf
ROOT
ATOM      1  C   UNL     1     173.032 189.376 174.254  1.00  0.00     0.161 A 
ATOM      2  C   UNL     1     174.413 189.657 174.267  1.00  0.00     0.161 A 
ATOM      3  C   UNL     1     175.186 189.342 175.390  1.00  0.00     0.098 A 
ATOM      4  C   UNL     1     174.597 188.749 176.510  1.00  0.00     0.142 A 
ATOM      5  C   UNL     1     173.216 188.464 176.506  1.00  0.00     0.022 A 
ATOM      6  C   UNL     1     172.438 188.777 175.384  1.00  0.00     0.062 A 
ATOM      7  C   UNL     1     172.656 187.870 177.642  1.00  0.00     0.019 A 
ATOM      8  C   UNL     1     173.471 187.578 178.735  1.00  0.00     0.094 A 
ATOM      9  C   UNL     1     174.833 187.888 178.667  1.00  0.00     0.336 A 
ATOM     10  O   UNL     1     175.586 187.633 179.643  1.00  0.00    -0.246 OA
ATOM     11  O   UNL     1     175.341 188.454 177.574  1.00  0.00    -0.423 OA
ENDROOT
BRANCH   1  12
ATOM     12  O   UNL     1     172.287 189.704 173.109  1.00  0.00    -0.493 OA
ATOM     13  C   UNL     1     171.925 188.779 172.089  1.00  0.00     0.278 C 
ENDBRANCH   1  12
BRANCH   2  14
ATOM     14  O   UNL     1     175.037 190.249 173.168  1.00  0.00    -0.504 OA
ATOM     15  H   UNL     1     175.923 189.917 172.807  1.00  0.00     0.293 HD
ENDBRANCH   2  14
TORSDOF 2
ENDMDL
MODEL 5
REMARK VINA RESULT:    -4.400     20.427     21.402
REMARK INTER + INTRA:          -4.832
REMARK INTER:                  -4.768
REMARK INTRA:                  -0.064
REMARK UNBOUND:                -0.046
REMARK SMILES COc1cc2ccc(=O)oc2cc1O
REMARK SMILES IDX 3 1 13 2 12 3 11 4 5 5 4 6 6 7 7 8 8 9 9 10 10 11 2 12 1 13
REMARK SMILES IDX 14 14
REMARK H PARENT 14 15
REMARK Flexibility Score: inf
ROOT
ATOM      1  C   UNL     1     190.072 173.795 174.307  1.00  0.00     0.161 A 
ATOM      2  C   UNL     1     188.687 173.534 174.349  1.00  0.00     0.161 A 
ATOM      3  C   UNL     1     187.955 173.795 175.512  1.00  0.00     0.098 A 
ATOM      4  C   UNL     1     188.588 174.316 176.643  1.00  0.00     0.142 A 
ATOM      5  C   UNL     1     189.973 174.582 176.611  1.00  0.00     0.022 A 
ATOM      6  C   UNL     1     190.710 174.322 175.448  1.00  0.00     0.062 A 
ATOM      7  C   UNL     1     190.578 175.103 177.760  1.00  0.00     0.019 A 
ATOM      8  C   UNL     1     189.802 175.345 178.893  1.00  0.00     0.094 A 
ATOM      9  C   UNL     1     188.433 175.058 178.851  1.00  0.00     0.336 A 
ATOM     10  O   UNL     1     187.716 175.268 179.864  1.00  0.00    -0.246 OA
ATOM     11  O   UNL     1     187.883 174.561 177.746  1.00  0.00    -0.423 OA
ENDROOT
BRANCH   1  12
ATOM     12  O   UNL     1     190.775 173.522 173.122  1.00  0.00    -0.493 OA
ATOM     13  C   UNL     1     191.059 174.485 172.112  1.00  0.00     0.278 C 
ENDBRANCH   1  12
BRANCH   2  14
ATOM     14  O   UNL     1     188.020 173.013 173.239  1.00  0.00    -0.504 OA
ATOM     15  H   UNL     1     188.513 172.670 172.424  1.00  0.00     0.293 HD
ENDBRANCH   2  14
TORSDOF 2
ENDMDL
MODEL 6
REMARK VINA RESULT:    -4.377     20.897     21.323
REMARK INTER + INTRA:          -4.807
REMARK INTER:                  -4.746
REMARK INTRA:                  -0.060
REMARK UNBOUND:                -0.046
REMARK SMILES COc1cc2ccc(=O)oc2cc1O
REMARK SMILES IDX 3 1 13 2 12 3 11 4 5 5 4 6 6 7 7 8 8 9 9 10 10 11 2 12 1 13
REMARK SMILES IDX 14 14
REMARK H PARENT 14 15
REMARK Flexibility Score: inf
ROOT
ATOM      1  C   UNL     1     190.742 176.185 177.548  1.00  0.00     0.161 A 
ATOM      2  C   UNL     1     191.132 177.228 176.683  1.00  0.00     0.161 A 
ATOM      3  C   UNL     1     191.267 176.992 175.311  1.00  0.00     0.098 A 
ATOM      4  C   UNL     1     191.019 175.722 174.784  1.00  0.00     0.142 A 
ATOM      5  C   UNL     1     190.629 174.672 175.641  1.00  0.00     0.022 A 
ATOM      6  C   UNL     1     190.492 174.904 177.016  1.00  0.00     0.062 A 
ATOM      7  C   UNL     1     190.388 173.412 175.084  1.00  0.00     0.019 A 
ATOM      8  C   UNL     1     190.538 173.231 173.709  1.00  0.00     0.094 A 
ATOM      9  C   UNL     1     190.927 174.318 172.921  1.00  0.00     0.336 A 
ATOM     10  O   UNL     1     191.069 174.175 171.678  1.00  0.00    -0.246 OA
ATOM     11  O   UNL     1     191.151 175.507 173.476  1.00  0.00    -0.423 OA
ENDROOT
BRANCH   1  12
ATOM     12  O   UNL     1     190.616 176.458 178.920  1.00  0.00    -0.493 OA
ATOM     13  C   UNL     1     189.388 176.416 179.641  1.00  0.00     0.278 C 
ENDBRANCH   1  12
BRANCH   2  14
ATOM     14  O   UNL     1     191.388 178.509 177.172  1.00  0.00    -0.504 OA
ATOM     15  H   UNL     1     192.282 178.967 177.043  1.00  0.00     0.293 HD
ENDBRANCH   2  14
TORSDOF 2
ENDMDL
MODEL 7
REMARK VINA RESULT:    -4.274      1.560      2.084
REMARK INTER + INTRA:          -4.694
REMARK INTER:                  -4.649
REMARK INTRA:                  -0.045
REMARK UNBOUND:                -0.046
REMARK SMILES COc1cc2ccc(=O)oc2cc1O
REMARK SMILES IDX 3 1 13 2 12 3 11 4 5 5 4 6 6 7 7 8 8 9 9 10 10 11 2 12 1 13
REMARK SMILES IDX 14 14
REMARK H PARENT 14 15
REMARK Flexibility Score: inf
ROOT
ATOM      1  C   UNL     1     173.916 185.208 180.650  1.00  0.00     0.161 A 
ATOM      2  C   UNL     1     174.322 186.535 180.895  1.00  0.00     0.161 A 
ATOM      3  C   UNL     1     174.008 187.547 179.981  1.00  0.00     0.098 A 
ATOM      4  C   UNL     1     173.292 187.253 178.818  1.00  0.00     0.142 A 
ATOM      5  C   UNL     1     172.881 185.928 178.565  1.00  0.00     0.022 A 
ATOM      6  C   UNL     1     173.192 184.911 179.477  1.00  0.00     0.062 A 
ATOM      7  C   UNL     1     172.165 185.665 177.393  1.00  0.00     0.019 A 
ATOM      8  C   UNL     1     171.879 186.711 176.515  1.00  0.00     0.094 A 
ATOM      9  C   UNL     1     172.318 188.001 176.832  1.00  0.00     0.336 A 
ATOM     10  O   UNL     1     172.071 188.958 176.053  1.00  0.00    -0.246 OA
ATOM     11  O   UNL     1     172.998 188.223 177.954  1.00  0.00    -0.423 OA
ENDROOT
BRANCH   1  12
ATOM     12  O   UNL     1     174.247 184.217 181.589  1.00  0.00    -0.493 OA
ATOM     13  C   UNL     1     173.492 183.030 181.811  1.00  0.00     0.278 C 
ENDBRANCH   1  12
BRANCH   2  14
ATOM     14  O   UNL     1     175.039 186.868 182.044  1.00  0.00    -0.504 OA
ATOM     15  H   UNL     1     175.552 186.178 182.580  1.00  0.00     0.293 HD
ENDBRANCH   2  14
TORSDOF 2
ENDMDL
MODEL 8
REMARK VINA RESULT:    -4.169     19.242     20.246
REMARK INTER + INTRA:          -4.580
REMARK INTER:                  -4.527
REMARK INTRA:                  -0.053
REMARK UNBOUND:                -0.046
REMARK SMILES COc1cc2ccc(=O)oc2cc1O
REMARK SMILES IDX 3 1 13 2 12 3 11 4 5 5 4 6 6 7 7 8 8 9 9 10 10 11 2 12 1 13
REMARK SMILES IDX 14 14
REMARK H PARENT 14 15
REMARK Flexibility Score: inf
ROOT
ATOM      1  C   UNL     1     189.440 174.470 176.330  1.00  0.00     0.161 A 
ATOM      2  C   UNL     1     190.008 174.857 177.560  1.00  0.00     0.161 A 
ATOM      3  C   UNL     1     189.229 174.869 178.722  1.00  0.00     0.098 A 
ATOM      4  C   UNL     1     187.882 174.500 178.675  1.00  0.00     0.142 A 
ATOM      5  C   UNL     1     187.306 174.110 177.448  1.00  0.00     0.022 A 
ATOM      6  C   UNL     1     188.082 174.096 176.282  1.00  0.00     0.062 A 
ATOM      7  C   UNL     1     185.956 173.745 177.433  1.00  0.00     0.019 A 
ATOM      8  C   UNL     1     185.224 173.775 178.621  1.00  0.00     0.094 A 
ATOM      9  C   UNL     1     185.863 174.172 179.800  1.00  0.00     0.336 A 
ATOM     10  O   UNL     1     185.221 174.206 180.882  1.00  0.00    -0.246 OA
ATOM     11  O   UNL     1     187.149 174.515 179.787  1.00  0.00    -0.423 OA
ENDROOT
BRANCH   1  12
ATOM     12  O   UNL     1     190.252 174.468 175.183  1.00  0.00    -0.493 OA
ATOM     13  C   UNL     1     190.391 173.364 174.294  1.00  0.00     0.278 C 
ENDBRANCH   1  12
BRANCH   2  14
ATOM     14  O   UNL     1     191.348 175.233 177.648  1.00  0.00    -0.504 OA
ATOM     15  H   UNL     1     191.867 175.574 176.847  1.00  0.00     0.293 HD
ENDBRANCH   2  14
TORSDOF 2
ENDMDL
MODEL 9
REMARK VINA RESULT:    -4.163     18.477     19.430
REMARK INTER + INTRA:          -4.573
REMARK INTER:                  -4.522
REMARK INTRA:                  -0.051
REMARK UNBOUND:                -0.046
REMARK SMILES COc1cc2ccc(=O)oc2cc1O
REMARK SMILES IDX 3 1 13 2 12 3 11 4 5 5 4 6 6 7 7 8 8 9 9 10 10 11 2 12 1 13
REMARK SMILES IDX 14 14
REMARK H PARENT 14 15
REMARK Flexibility Score: inf
ROOT
ATOM      1  C   UNL     1     189.790 176.836 181.000  1.00  0.00     0.161 A 
ATOM      2  C   UNL     1     188.600 177.027 181.730  1.00  0.00     0.161 A 
ATOM      3  C   UNL     1     187.431 176.352 181.360  1.00  0.00     0.098 A 
ATOM      4  C   UNL     1     187.431 175.486 180.264  1.00  0.00     0.142 A 
ATOM      5  C   UNL     1     188.618 175.288 179.528  1.00  0.00     0.022 A 
ATOM      6  C   UNL     1     189.790 175.960 179.895  1.00  0.00     0.062 A 
ATOM      7  C   UNL     1     188.586 174.414 178.437  1.00  0.00     0.019 A 
ATOM      8  C   UNL     1     187.394 173.767 178.111  1.00  0.00     0.094 A 
ATOM      9  C   UNL     1     186.256 174.011 178.887  1.00  0.00     0.336 A 
ATOM     10  O   UNL     1     185.170 173.438 178.609  1.00  0.00    -0.246 OA
ATOM     11  O   UNL     1     186.313 174.849 179.920  1.00  0.00    -0.423 OA
ENDROOT
BRANCH   1  12
ATOM     12  O   UNL     1     190.945 177.528 181.399  1.00  0.00    -0.493 OA
ATOM     13  C   UNL     1     191.792 178.261 180.519  1.00  0.00     0.278 C 
ENDBRANCH   1  12
BRANCH   2  14
ATOM     14  O   UNL     1     188.560 177.885 182.829  1.00  0.00    -0.504 OA
ATOM     15  H   UNL     1     188.240 177.580 183.741  1.00  0.00     0.293 HD
ENDBRANCH   2  14
TORSDOF 2
ENDMDL
