MODEL 1
REMARK VINA RESULT:    -3.790      0.000      0.000
REMARK INTER + INTRA:         -12.075
REMARK INTER:                  -8.222
REMARK INTRA:                  -3.853
REMARK UNBOUND:                -3.853
REMARK SMILES CCCCCCCCCCCCCCCCCCCCCC(=O)[O-]
REMARK SMILES IDX 12 1 11 2 10 3 9 4 8 5 7 6 6 7 5 8 4 9 3 10 2 11 1 12 13 13
REMARK SMILES IDX 14 14 15 15 16 16 17 17 18 18 19 19 20 20 21 21 22 22 23 23
REMARK SMILES IDX 24 24
REMARK H PARENT
REMARK Flexibility Score: inf
ROOT
ATOM      1  C   UNL     1     -10.803 -11.948  26.573  1.00  0.00     0.000 C 
ENDROOT
BRANCH   1   2
ATOM      2  C   UNL     1     -10.132 -11.720  25.211  1.00  0.00     0.000 C 
BRANCH   2   3
ATOM      3  C   UNL     1     -11.129 -11.950  24.064  1.00  0.00     0.000 C 
BRANCH   3   4
ATOM      4  C   UNL     1     -10.669 -13.047  23.090  1.00  0.00    -0.000 C 
BRANCH   4   5
ATOM      5  C   UNL     1     -10.993 -14.462  23.592  1.00  0.00    -0.000 C 
BRANCH   5   6
ATOM      6  C   UNL     1      -9.717 -15.301  23.732  1.00  0.00    -0.000 C 
BRANCH   6   7
ATOM      7  C   UNL     1      -9.765 -16.170  24.997  1.00  0.00    -0.000 C 
BRANCH   7   8
ATOM      8  C   UNL     1      -9.459 -15.362  26.270  1.00  0.00    -0.000 C 
BRANCH   8   9
ATOM      9  C   UNL     1     -10.452 -15.638  27.423  1.00  0.00    -0.000 C 
BRANCH   9  10
ATOM     10  C   UNL     1     -11.509 -16.703  27.079  1.00  0.00    -0.000 C 
BRANCH  10  11
ATOM     11  C   UNL     1     -12.960 -16.193  27.119  1.00  0.00    -0.003 C 
ATOM     12  C   UNL     1     -13.564 -16.015  25.725  1.00  0.00     0.004 C 
ENDBRANCH  10  11
ENDBRANCH   9  10
ENDBRANCH   8   9
ENDBRANCH   7   8
ENDBRANCH   6   7
ENDBRANCH   5   6
ENDBRANCH   4   5
ENDBRANCH   3   4
ENDBRANCH   2   3
ENDBRANCH   1   2
BRANCH   1  13
ATOM     13  C   UNL     1     -12.234 -12.502  26.448  1.00  0.00     0.000 C 
BRANCH  13  14
ATOM     14  C   UNL     1     -13.050 -12.516  27.757  1.00  0.00     0.000 C 
BRANCH  14  15
ATOM     15  C   UNL     1     -12.325 -11.954  28.993  1.00  0.00     0.000 C 
BRANCH  15  16
ATOM     16  C   UNL     1     -12.731 -10.506  29.318  1.00  0.00     0.000 C 
BRANCH  16  17
ATOM     17  C   UNL     1     -11.566  -9.510  29.167  1.00  0.00     0.000 C 
BRANCH  17  18
ATOM     18  C   UNL     1     -11.764  -8.430  28.084  1.00  0.00     0.000 C 
BRANCH  18  19
ATOM     19  C   UNL     1     -13.052  -8.569  27.248  1.00  0.00     0.000 C 
BRANCH  19  20
ATOM     20  C   UNL     1     -12.831  -8.962  25.777  1.00  0.00     0.006 C 
BRANCH  20  21
ATOM     21  C   UNL     1     -12.317  -7.797  24.919  1.00  0.00     0.053 C 
BRANCH  21  22
ATOM     22  C   UNL     1     -13.194  -7.599  23.724  1.00  0.00     0.041 C 
ATOM     23  O   UNL     1     -14.305  -8.190  23.649  1.00  0.00    -0.550 OA
ATOM     24  O   UNL     1     -12.808  -6.728  22.713  1.00  0.00    -0.550 OA
ENDBRANCH  21  22
ENDBRANCH  20  21
ENDBRANCH  19  20
ENDBRANCH  18  19
ENDBRANCH  17  18
ENDBRANCH  16  17
ENDBRANCH  15  16
ENDBRANCH  14  15
ENDBRANCH  13  14
ENDBRANCH   1  13
TORSDOF 20
ENDMDL
MODEL 2
REMARK VINA RESULT:    -3.768      1.342      2.566
REMARK INTER + INTRA:         -12.026
REMARK INTER:                  -8.073
REMARK INTRA:                  -3.953
REMARK UNBOUND:                -3.853
REMARK SMILES CCCCCCCCCCCCCCCCCCCCCC(=O)[O-]
REMARK SMILES IDX 12 1 11 2 10 3 9 4 8 5 7 6 6 7 5 8 4 9 3 10 2 11 1 12 13 13
REMARK SMILES IDX 14 14 15 15 16 16 17 17 18 18 19 19 20 20 21 21 22 22 23 23
REMARK SMILES IDX 24 24
REMARK H PARENT
REMARK Flexibility Score: inf
ROOT
ATOM      1  C   UNL     1     -10.160 -12.269  26.115  1.00  0.00     0.000 C 
ENDROOT
BRANCH   1   2
ATOM      2  C   UNL     1     -10.840 -13.027  24.966  1.00  0.00     0.000 C 
BRANCH   2   3
ATOM      3  C   UNL     1     -11.987 -12.198  24.367  1.00  0.00     0.000 C 
BRANCH   3   4
ATOM      4  C   UNL     1     -13.114 -13.073  23.793  1.00  0.00    -0.000 C 
BRANCH   4   5
ATOM      5  C   UNL     1     -13.066 -14.519  24.311  1.00  0.00    -0.000 C 
BRANCH   5   6
ATOM      6  C   UNL     1     -14.129 -14.750  25.392  1.00  0.00    -0.000 C 
BRANCH   6   7
ATOM      7  C   UNL     1     -13.917 -16.100  26.092  1.00  0.00    -0.000 C 
BRANCH   7   8
ATOM      8  C   UNL     1     -12.529 -16.697  25.798  1.00  0.00    -0.000 C 
BRANCH   8   9
ATOM      9  C   UNL     1     -11.510 -16.468  26.938  1.00  0.00    -0.000 C 
BRANCH   9  10
ATOM     10  C   UNL     1     -10.134 -17.102  26.668  1.00  0.00    -0.000 C 
BRANCH  10  11
ATOM     11  C   UNL     1      -9.157 -16.194  25.900  1.00  0.00    -0.003 C 
ATOM     12  C   UNL     1      -9.270 -16.350  24.383  1.00  0.00     0.004 C 
ENDBRANCH  10  11
ENDBRANCH   9  10
ENDBRANCH   8   9
ENDBRANCH   7   8
ENDBRANCH   6   7
ENDBRANCH   5   6
ENDBRANCH   4   5
ENDBRANCH   3   4
ENDBRANCH   2   3
ENDBRANCH   1   2
BRANCH   1  13
ATOM     13  C   UNL     1     -10.166 -13.058  27.437  1.00  0.00     0.000 C 
BRANCH  13  14
ATOM     14  C   UNL     1     -11.201 -12.587  28.479  1.00  0.00     0.000 C 
BRANCH  14  15
ATOM     15  C   UNL     1     -12.624 -13.145  28.295  1.00  0.00     0.000 C 
BRANCH  15  16
ATOM     16  C   UNL     1     -13.714 -12.075  28.478  1.00  0.00     0.000 C 
BRANCH  16  17
ATOM     17  C   UNL     1     -13.968 -11.257  27.199  1.00  0.00     0.000 C 
BRANCH  17  18
ATOM     18  C   UNL     1     -13.652  -9.752  27.310  1.00  0.00     0.000 C 
BRANCH  18  19
ATOM     19  C   UNL     1     -12.157  -9.388  27.210  1.00  0.00     0.000 C 
BRANCH  19  20
ATOM     20  C   UNL     1     -11.802  -8.405  26.080  1.00  0.00     0.006 C 
BRANCH  20  21
ATOM     21  C   UNL     1     -12.646  -8.621  24.816  1.00  0.00     0.053 C 
BRANCH  21  22
ATOM     22  C   UNL     1     -13.168  -7.315  24.305  1.00  0.00     0.041 C 
ATOM     23  O   UNL     1     -12.752  -6.852  23.210  1.00  0.00    -0.550 OA
ATOM     24  O   UNL     1     -14.146  -6.630  25.015  1.00  0.00    -0.550 OA
ENDBRANCH  21  22
ENDBRANCH  20  21
ENDBRANCH  19  20
ENDBRANCH  18  19
ENDBRANCH  17  18
ENDBRANCH  16  17
ENDBRANCH  15  16
ENDBRANCH  14  15
ENDBRANCH  13  14
ENDBRANCH   1  13
TORSDOF 20
ENDMDL
MODEL 3
REMARK VINA RESULT:    -3.724      3.253      7.263
REMARK INTER + INTRA:         -11.930
REMARK INTER:                  -8.104
REMARK INTRA:                  -3.826
REMARK UNBOUND:                -3.853
REMARK SMILES CCCCCCCCCCCCCCCCCCCCCC(=O)[O-]
REMARK SMILES IDX 12 1 11 2 10 3 9 4 8 5 7 6 6 7 5 8 4 9 3 10 2 11 1 12 13 13
REMARK SMILES IDX 14 14 15 15 16 16 17 17 18 18 19 19 20 20 21 21 22 22 23 23
REMARK SMILES IDX 24 24
REMARK H PARENT
REMARK Flexibility Score: inf
ROOT
ATOM      1  C   UNL     1     -11.235  -8.857  27.003  1.00  0.00     0.000 C 
ENDROOT
BRANCH   1   2
ATOM      2  C   UNL     1     -12.288  -8.597  25.916  1.00  0.00     0.000 C 
BRANCH   2   3
ATOM      3  C   UNL     1     -13.655  -8.283  26.542  1.00  0.00     0.000 C 
BRANCH   3   4
ATOM      4  C   UNL     1     -14.817  -8.963  25.800  1.00  0.00    -0.000 C 
BRANCH   4   5
ATOM      5  C   UNL     1     -14.358  -9.728  24.549  1.00  0.00    -0.000 C 
BRANCH   5   6
ATOM      6  C   UNL     1     -15.368  -9.568  23.406  1.00  0.00    -0.000 C 
BRANCH   6   7
ATOM      7  C   UNL     1     -14.690  -9.016  22.145  1.00  0.00    -0.000 C 
BRANCH   7   8
ATOM      8  C   UNL     1     -13.310  -8.405  22.445  1.00  0.00    -0.000 C 
BRANCH   8   9
ATOM      9  C   UNL     1     -13.277  -6.866  22.298  1.00  0.00    -0.000 C 
BRANCH   9  10
ATOM     10  C   UNL     1     -13.760  -6.120  23.555  1.00  0.00    -0.000 C 
BRANCH  10  11
ATOM     11  C   UNL     1     -15.231  -5.673  23.503  1.00  0.00    -0.003 C 
ATOM     12  C   UNL     1     -15.884  -5.621  24.884  1.00  0.00     0.004 C 
ENDBRANCH  10  11
ENDBRANCH   9  10
ENDBRANCH   8   9
ENDBRANCH   7   8
ENDBRANCH   6   7
ENDBRANCH   5   6
ENDBRANCH   4   5
ENDBRANCH   3   4
ENDBRANCH   2   3
ENDBRANCH   1   2
BRANCH   1  13
ATOM     13  C   UNL     1     -11.674  -8.354  28.390  1.00  0.00     0.000 C 
BRANCH  13  14
ATOM     14  C   UNL     1     -11.643  -9.412  29.513  1.00  0.00     0.000 C 
BRANCH  14  15
ATOM     15  C   UNL     1     -11.307 -10.845  29.061  1.00  0.00     0.000 C 
BRANCH  15  16
ATOM     16  C   UNL     1     -12.488 -11.817  29.228  1.00  0.00     0.000 C 
BRANCH  16  17
ATOM     17  C   UNL     1     -13.670 -11.486  28.299  1.00  0.00     0.000 C 
BRANCH  17  18
ATOM     18  C   UNL     1     -13.823 -12.413  27.077  1.00  0.00     0.000 C 
BRANCH  18  19
ATOM     19  C   UNL     1     -12.570 -12.536  26.187  1.00  0.00     0.000 C 
BRANCH  19  20
ATOM     20  C   UNL     1     -11.849 -13.894  26.265  1.00  0.00     0.006 C 
BRANCH  20  21
ATOM     21  C   UNL     1     -12.626 -14.934  27.085  1.00  0.00     0.053 C 
BRANCH  21  22
ATOM     22  C   UNL     1     -13.099 -16.047  26.206  1.00  0.00     0.041 C 
ATOM     23  O   UNL     1     -14.278 -16.045  25.761  1.00  0.00    -0.550 OA
ATOM     24  O   UNL     1     -12.227 -17.064  25.839  1.00  0.00    -0.550 OA
ENDBRANCH  21  22
ENDBRANCH  20  21
ENDBRANCH  19  20
ENDBRANCH  18  19
ENDBRANCH  17  18
ENDBRANCH  16  17
ENDBRANCH  15  16
ENDBRANCH  14  15
ENDBRANCH  13  14
ENDBRANCH   1  13
TORSDOF 20
ENDMDL
MODEL 4
REMARK VINA RESULT:    -3.714      2.945      5.913
REMARK INTER + INTRA:         -11.909
REMARK INTER:                  -8.292
REMARK INTRA:                  -3.617
REMARK UNBOUND:                -3.853
REMARK SMILES CCCCCCCCCCCCCCCCCCCCCC(=O)[O-]
REMARK SMILES IDX 12 1 11 2 10 3 9 4 8 5 7 6 6 7 5 8 4 9 3 10 2 11 1 12 13 13
REMARK SMILES IDX 14 14 15 15 16 16 17 17 18 18 19 19 20 20 21 21 22 22 23 23
REMARK SMILES IDX 24 24
REMARK H PARENT
REMARK Flexibility Score: inf
ROOT
ATOM      1  C   UNL     1      -9.786 -17.534  27.523  1.00  0.00     0.000 C 
ENDROOT
BRANCH   1   2
ATOM      2  C   UNL     1     -10.562 -18.782  27.966  1.00  0.00     0.000 C 
BRANCH   2   3
ATOM      3  C   UNL     1      -9.811 -19.527  29.081  1.00  0.00     0.000 C 
BRANCH   3   4
ATOM      4  C   UNL     1     -10.632 -19.639  30.376  1.00  0.00    -0.000 C 
BRANCH   4   5
ATOM      5  C   UNL     1     -11.973 -18.895  30.297  1.00  0.00    -0.000 C 
BRANCH   5   6
ATOM      6  C   UNL     1     -12.292 -18.195  31.623  1.00  0.00    -0.000 C 
BRANCH   6   7
ATOM      7  C   UNL     1     -12.747 -16.748  31.387  1.00  0.00    -0.000 C 
BRANCH   7   8
ATOM      8  C   UNL     1     -12.708 -16.361  29.898  1.00  0.00    -0.000 C 
BRANCH   8   9
ATOM      9  C   UNL     1     -11.868 -15.093  29.618  1.00  0.00    -0.000 C 
BRANCH   9  10
ATOM     10  C   UNL     1     -10.809 -14.809  30.697  1.00  0.00    -0.000 C 
BRANCH  10  11
ATOM     11  C   UNL     1      -9.385 -15.260  30.325  1.00  0.00    -0.003 C 
ATOM     12  C   UNL     1      -8.918 -16.472  31.132  1.00  0.00     0.004 C 
ENDBRANCH  10  11
ENDBRANCH   9  10
ENDBRANCH   8   9
ENDBRANCH   7   8
ENDBRANCH   6   7
ENDBRANCH   5   6
ENDBRANCH   4   5
ENDBRANCH   3   4
ENDBRANCH   2   3
ENDBRANCH   1   2
BRANCH   1  13
ATOM     13  C   UNL     1     -10.587 -16.646  26.554  1.00  0.00     0.000 C 
BRANCH  13  14
ATOM     14  C   UNL     1     -11.921 -17.246  26.062  1.00  0.00     0.000 C 
BRANCH  14  15
ATOM     15  C   UNL     1     -13.137 -16.306  26.144  1.00  0.00     0.000 C 
BRANCH  15  16
ATOM     16  C   UNL     1     -12.905 -14.963  25.432  1.00  0.00     0.000 C 
BRANCH  16  17
ATOM     17  C   UNL     1     -12.949 -13.761  26.393  1.00  0.00     0.000 C 
BRANCH  17  18
ATOM     18  C   UNL     1     -11.784 -12.762  26.247  1.00  0.00     0.000 C 
BRANCH  18  19
ATOM     19  C   UNL     1     -11.047 -12.419  27.557  1.00  0.00     0.000 C 
BRANCH  19  20
ATOM     20  C   UNL     1     -10.800 -10.918  27.789  1.00  0.00     0.006 C 
BRANCH  20  21
ATOM     21  C   UNL     1     -10.854 -10.098  26.492  1.00  0.00     0.053 C 
BRANCH  21  22
ATOM     22  C   UNL     1     -11.436  -8.745  26.752  1.00  0.00     0.041 C 
ATOM     23  O   UNL     1     -11.587  -8.337  27.934  1.00  0.00    -0.550 OA
ATOM     24  O   UNL     1     -11.770  -7.914  25.690  1.00  0.00    -0.550 OA
ENDBRANCH  21  22
ENDBRANCH  20  21
ENDBRANCH  19  20
ENDBRANCH  18  19
ENDBRANCH  17  18
ENDBRANCH  16  17
ENDBRANCH  15  16
ENDBRANCH  14  15
ENDBRANCH  13  14
ENDBRANCH   1  13
TORSDOF 20
ENDMDL
MODEL 5
REMARK VINA RESULT:    -3.695      3.187      6.602
REMARK INTER + INTRA:         -11.869
REMARK INTER:                  -7.642
REMARK INTRA:                  -4.227
REMARK UNBOUND:                -3.853
REMARK SMILES CCCCCCCCCCCCCCCCCCCCCC(=O)[O-]
REMARK SMILES IDX 12 1 11 2 10 3 9 4 8 5 7 6 6 7 5 8 4 9 3 10 2 11 1 12 13 13
REMARK SMILES IDX 14 14 15 15 16 16 17 17 18 18 19 19 20 20 21 21 22 22 23 23
REMARK SMILES IDX 24 24
REMARK H PARENT
REMARK Flexibility Score: inf
ROOT
ATOM      1  C   UNL     1     -13.742 -11.971  23.482  1.00  0.00     0.000 C 
ENDROOT
BRANCH   1   2
ATOM      2  C   UNL     1     -14.672 -12.416  24.619  1.00  0.00     0.000 C 
BRANCH   2   3
ATOM      3  C   UNL     1     -14.924 -11.263  25.603  1.00  0.00     0.000 C 
BRANCH   3   4
ATOM      4  C   UNL     1     -14.308  -9.936  25.132  1.00  0.00    -0.000 C 
BRANCH   4   5
ATOM      5  C   UNL     1     -13.538  -9.208  26.245  1.00  0.00    -0.000 C 
BRANCH   5   6
ATOM      6  C   UNL     1     -12.095  -8.919  25.816  1.00  0.00    -0.000 C 
BRANCH   6   7
ATOM      7  C   UNL     1     -11.280  -8.337  26.979  1.00  0.00    -0.000 C 
BRANCH   7   8
ATOM      8  C   UNL     1     -11.916  -8.645  28.347  1.00  0.00    -0.000 C 
BRANCH   8   9
ATOM      9  C   UNL     1     -11.228  -9.813  29.091  1.00  0.00    -0.000 C 
BRANCH   9  10
ATOM     10  C   UNL     1     -12.150 -10.527  30.096  1.00  0.00    -0.000 C 
BRANCH  10  11
ATOM     11  C   UNL     1     -13.479 -11.022  29.498  1.00  0.00    -0.003 C 
ATOM     12  C   UNL     1     -13.841 -12.437  29.950  1.00  0.00     0.004 C 
ENDBRANCH  10  11
ENDBRANCH   9  10
ENDBRANCH   8   9
ENDBRANCH   7   8
ENDBRANCH   6   7
ENDBRANCH   5   6
ENDBRANCH   4   5
ENDBRANCH   3   4
ENDBRANCH   2   3
ENDBRANCH   1   2
BRANCH   1  13
ATOM     13  C   UNL     1     -12.937 -13.137  22.879  1.00  0.00     0.000 C 
BRANCH  13  14
ATOM     14  C   UNL     1     -11.424 -13.117  23.181  1.00  0.00     0.000 C 
BRANCH  14  15
ATOM     15  C   UNL     1     -10.937 -11.934  24.037  1.00  0.00     0.000 C 
BRANCH  15  16
ATOM     16  C   UNL     1     -10.395 -12.370  25.409  1.00  0.00     0.000 C 
BRANCH  16  17
ATOM     17  C   UNL     1     -11.486 -12.420  26.494  1.00  0.00     0.000 C 
BRANCH  17  18
ATOM     18  C   UNL     1     -11.665 -13.789  27.181  1.00  0.00     0.000 C 
BRANCH  18  19
ATOM     19  C   UNL     1     -12.395 -14.854  26.339  1.00  0.00     0.000 C 
BRANCH  19  20
ATOM     20  C   UNL     1     -11.640 -16.186  26.180  1.00  0.00     0.006 C 
BRANCH  20  21
ATOM     21  C   UNL     1     -10.996 -16.344  24.795  1.00  0.00     0.053 C 
BRANCH  21  22
ATOM     22  C   UNL     1      -9.509 -16.206  24.890  1.00  0.00     0.041 C 
ATOM     23  O   UNL     1      -8.788 -16.416  23.879  1.00  0.00    -0.550 OA
ATOM     24  O   UNL     1      -8.922 -15.801  26.082  1.00  0.00    -0.550 OA
ENDBRANCH  21  22
ENDBRANCH  20  21
ENDBRANCH  19  20
ENDBRANCH  18  19
ENDBRANCH  17  18
ENDBRANCH  16  17
ENDBRANCH  15  16
ENDBRANCH  14  15
ENDBRANCH  13  14
ENDBRANCH   1  13
TORSDOF 20
ENDMDL
MODEL 6
REMARK VINA RESULT:    -3.688      2.948      6.639
REMARK INTER + INTRA:         -11.853
REMARK INTER:                  -7.837
REMARK INTRA:                  -4.016
REMARK UNBOUND:                -3.853
REMARK SMILES CCCCCCCCCCCCCCCCCCCCCC(=O)[O-]
REMARK SMILES IDX 12 1 11 2 10 3 9 4 8 5 7 6 6 7 5 8 4 9 3 10 2 11 1 12 13 13
REMARK SMILES IDX 14 14 15 15 16 16 17 17 18 18 19 19 20 20 21 21 22 22 23 23
REMARK SMILES IDX 24 24
REMARK H PARENT
REMARK Flexibility Score: inf
ROOT
ATOM      1  C   UNL     1     -11.250  -8.994  27.164  1.00  0.00     0.000 C 
ENDROOT
BRANCH   1   2
ATOM      2  C   UNL     1     -12.226  -8.649  26.030  1.00  0.00     0.000 C 
BRANCH   2   3
ATOM      3  C   UNL     1     -13.560  -8.135  26.594  1.00  0.00     0.000 C 
BRANCH   3   4
ATOM      4  C   UNL     1     -14.682  -9.183  26.511  1.00  0.00    -0.000 C 
BRANCH   4   5
ATOM      5  C   UNL     1     -15.463  -9.116  25.190  1.00  0.00    -0.000 C 
BRANCH   5   6
ATOM      6  C   UNL     1     -14.917 -10.131  24.178  1.00  0.00    -0.000 C 
BRANCH   6   7
ATOM      7  C   UNL     1     -14.913  -9.546  22.759  1.00  0.00    -0.000 C 
BRANCH   7   8
ATOM      8  C   UNL     1     -13.488  -9.270  22.246  1.00  0.00    -0.000 C 
BRANCH   8   9
ATOM      9  C   UNL     1     -13.245  -7.788  21.880  1.00  0.00    -0.000 C 
BRANCH   9  10
ATOM     10  C   UNL     1     -13.023  -6.882  23.105  1.00  0.00    -0.000 C 
BRANCH  10  11
ATOM     11  C   UNL     1     -14.224  -5.988  23.459  1.00  0.00    -0.003 C 
ATOM     12  C   UNL     1     -15.091  -5.652  22.246  1.00  0.00     0.004 C 
ENDBRANCH  10  11
ENDBRANCH   9  10
ENDBRANCH   8   9
ENDBRANCH   7   8
ENDBRANCH   6   7
ENDBRANCH   5   6
ENDBRANCH   4   5
ENDBRANCH   3   4
ENDBRANCH   2   3
ENDBRANCH   1   2
BRANCH   1  13
ATOM     13  C   UNL     1     -11.523  -8.194  28.450  1.00  0.00     0.000 C 
BRANCH  13  14
ATOM     14  C   UNL     1     -11.626  -9.036  29.739  1.00  0.00     0.000 C 
BRANCH  14  15
ATOM     15  C   UNL     1     -11.843 -10.545  29.525  1.00  0.00     0.000 C 
BRANCH  15  16
ATOM     16  C   UNL     1     -13.325 -10.951  29.595  1.00  0.00     0.000 C 
BRANCH  16  17
ATOM     17  C   UNL     1     -13.717 -11.970  28.509  1.00  0.00     0.000 C 
BRANCH  17  18
ATOM     18  C   UNL     1     -12.550 -12.487  27.644  1.00  0.00     0.000 C 
BRANCH  18  19
ATOM     19  C   UNL     1     -12.759 -12.366  26.121  1.00  0.00     0.000 C 
BRANCH  19  20
ATOM     20  C   UNL     1     -11.467 -12.225  25.298  1.00  0.00     0.006 C 
BRANCH  20  21
ATOM     21  C   UNL     1     -11.733 -12.049  23.797  1.00  0.00     0.053 C 
BRANCH  21  22
ATOM     22  C   UNL     1     -11.243 -13.240  23.035  1.00  0.00     0.041 C 
ATOM     23  O   UNL     1     -10.012 -13.505  22.999  1.00  0.00    -0.550 OA
ATOM     24  O   UNL     1     -12.148 -14.083  22.403  1.00  0.00    -0.550 OA
ENDBRANCH  21  22
ENDBRANCH  20  21
ENDBRANCH  19  20
ENDBRANCH  18  19
ENDBRANCH  17  18
ENDBRANCH  16  17
ENDBRANCH  15  16
ENDBRANCH  14  15
ENDBRANCH  13  14
ENDBRANCH   1  13
TORSDOF 20
ENDMDL
MODEL 7
REMARK VINA RESULT:    -3.663      3.216      5.201
REMARK INTER + INTRA:         -11.799
REMARK INTER:                  -7.906
REMARK INTRA:                  -3.892
REMARK UNBOUND:                -3.853
REMARK SMILES CCCCCCCCCCCCCCCCCCCCCC(=O)[O-]
REMARK SMILES IDX 12 1 11 2 10 3 9 4 8 5 7 6 6 7 5 8 4 9 3 10 2 11 1 12 13 13
REMARK SMILES IDX 14 14 15 15 16 16 17 17 18 18 19 19 20 20 21 21 22 22 23 23
REMARK SMILES IDX 24 24
REMARK H PARENT
REMARK Flexibility Score: inf
ROOT
ATOM      1  C   UNL     1     -15.274  -9.843  26.152  1.00  0.00     0.000 C 
ENDROOT
BRANCH   1   2
ATOM      2  C   UNL     1     -14.635 -10.708  25.056  1.00  0.00     0.000 C 
BRANCH   2   3
ATOM      3  C   UNL     1     -13.943 -11.938  25.664  1.00  0.00     0.000 C 
BRANCH   3   4
ATOM      4  C   UNL     1     -14.805 -13.207  25.576  1.00  0.00    -0.000 C 
BRANCH   4   5
ATOM      5  C   UNL     1     -14.085 -14.369  24.875  1.00  0.00    -0.000 C 
BRANCH   5   6
ATOM      6  C   UNL     1     -13.524 -15.365  25.898  1.00  0.00    -0.000 C 
BRANCH   6   7
ATOM      7  C   UNL     1     -11.989 -15.323  25.923  1.00  0.00    -0.000 C 
BRANCH   7   8
ATOM      8  C   UNL     1     -11.377 -15.588  24.536  1.00  0.00    -0.000 C 
BRANCH   8   9
ATOM      9  C   UNL     1     -10.329 -14.532  24.117  1.00  0.00    -0.000 C 
BRANCH   9  10
ATOM     10  C   UNL     1     -10.519 -13.172  24.813  1.00  0.00    -0.000 C 
BRANCH  10  11
ATOM     11  C   UNL     1     -10.692 -11.984  23.850  1.00  0.00    -0.003 C 
ATOM     12  C   UNL     1     -11.698 -12.269  22.734  1.00  0.00     0.004 C 
ENDBRANCH  10  11
ENDBRANCH   9  10
ENDBRANCH   8   9
ENDBRANCH   7   8
ENDBRANCH   6   7
ENDBRANCH   5   6
ENDBRANCH   4   5
ENDBRANCH   3   4
ENDBRANCH   2   3
ENDBRANCH   1   2
BRANCH   1  13
ATOM     13  C   UNL     1     -14.297  -8.807  26.739  1.00  0.00     0.000 C 
BRANCH  13  14
ATOM     14  C   UNL     1     -13.521  -7.973  25.699  1.00  0.00     0.000 C 
BRANCH  14  15
ATOM     15  C   UNL     1     -11.994  -8.166  25.706  1.00  0.00     0.000 C 
BRANCH  15  16
ATOM     16  C   UNL     1     -11.455  -8.636  27.068  1.00  0.00     0.000 C 
BRANCH  16  17
ATOM     17  C   UNL     1     -10.931 -10.083  27.037  1.00  0.00     0.000 C 
BRANCH  17  18
ATOM     18  C   UNL     1     -11.281 -10.934  28.274  1.00  0.00     0.000 C 
BRANCH  18  19
ATOM     19  C   UNL     1     -12.108 -10.209  29.355  1.00  0.00     0.000 C 
BRANCH  19  20
ATOM     20  C   UNL     1     -13.454 -10.874  29.696  1.00  0.00     0.006 C 
BRANCH  20  21
ATOM     21  C   UNL     1     -13.521 -12.343  29.256  1.00  0.00     0.053 C 
BRANCH  21  22
ATOM     22  C   UNL     1     -13.316 -13.251  30.428  1.00  0.00     0.041 C 
ATOM     23  O   UNL     1     -14.270 -13.493  31.214  1.00  0.00    -0.550 OA
ATOM     24  O   UNL     1     -12.087 -13.865  30.627  1.00  0.00    -0.550 OA
ENDBRANCH  21  22
ENDBRANCH  20  21
ENDBRANCH  19  20
ENDBRANCH  18  19
ENDBRANCH  17  18
ENDBRANCH  16  17
ENDBRANCH  15  16
ENDBRANCH  14  15
ENDBRANCH  13  14
ENDBRANCH   1  13
TORSDOF 20
ENDMDL
MODEL 8
REMARK VINA RESULT:    -3.642      1.685      3.171
REMARK INTER + INTRA:         -11.754
REMARK INTER:                  -8.210
REMARK INTRA:                  -3.544
REMARK UNBOUND:                -3.853
REMARK SMILES CCCCCCCCCCCCCCCCCCCCCC(=O)[O-]
REMARK SMILES IDX 12 1 11 2 10 3 9 4 8 5 7 6 6 7 5 8 4 9 3 10 2 11 1 12 13 13
REMARK SMILES IDX 14 14 15 15 16 16 17 17 18 18 19 19 20 20 21 21 22 22 23 23
REMARK SMILES IDX 24 24
REMARK H PARENT
REMARK Flexibility Score: inf
ROOT
ATOM      1  C   UNL     1     -12.872 -12.381  27.981  1.00  0.00     0.000 C 
ENDROOT
BRANCH   1   2
ATOM      2  C   UNL     1     -13.618 -12.751  26.691  1.00  0.00     0.000 C 
BRANCH   2   3
ATOM      3  C   UNL     1     -14.361 -11.533  26.120  1.00  0.00     0.000 C 
BRANCH   3   4
ATOM      4  C   UNL     1     -14.112 -11.338  24.616  1.00  0.00    -0.000 C 
BRANCH   4   5
ATOM      5  C   UNL     1     -12.994 -12.243  24.076  1.00  0.00    -0.000 C 
BRANCH   5   6
ATOM      6  C   UNL     1     -11.737 -11.426  23.749  1.00  0.00    -0.000 C 
BRANCH   6   7
ATOM      7  C   UNL     1     -10.500 -12.022  24.435  1.00  0.00    -0.000 C 
BRANCH   7   8
ATOM      8  C   UNL     1     -10.601 -13.549  24.595  1.00  0.00    -0.000 C 
BRANCH   8   9
ATOM      9  C   UNL     1     -10.124 -14.052  25.977  1.00  0.00    -0.000 C 
BRANCH   9  10
ATOM     10  C   UNL     1      -9.800 -15.557  26.003  1.00  0.00    -0.000 C 
BRANCH  10  11
ATOM     11  C   UNL     1     -10.790 -16.434  25.218  1.00  0.00    -0.003 C 
ATOM     12  C   UNL     1     -11.804 -17.137  26.122  1.00  0.00     0.004 C 
ENDBRANCH  10  11
ENDBRANCH   9  10
ENDBRANCH   8   9
ENDBRANCH   7   8
ENDBRANCH   6   7
ENDBRANCH   5   6
ENDBRANCH   4   5
ENDBRANCH   3   4
ENDBRANCH   2   3
ENDBRANCH   1   2
BRANCH   1  13
ATOM     13  C   UNL     1     -11.814 -11.284  27.765  1.00  0.00     0.000 C 
BRANCH  13  14
ATOM     14  C   UNL     1     -11.945 -10.053  28.687  1.00  0.00     0.000 C 
BRANCH  14  15
ATOM     15  C   UNL     1     -11.876  -8.689  27.978  1.00  0.00     0.000 C 
BRANCH  15  16
ATOM     16  C   UNL     1     -11.458  -8.801  26.502  1.00  0.00     0.000 C 
BRANCH  16  17
ATOM     17  C   UNL     1     -12.478  -8.163  25.541  1.00  0.00     0.000 C 
BRANCH  17  18
ATOM     18  C   UNL     1     -13.878  -7.920  26.140  1.00  0.00     0.000 C 
BRANCH  18  19
ATOM     19  C   UNL     1     -14.972  -7.550  25.118  1.00  0.00     0.000 C 
BRANCH  19  20
ATOM     20  C   UNL     1     -15.267  -6.044  24.999  1.00  0.00     0.006 C 
BRANCH  20  21
ATOM     21  C   UNL     1     -14.251  -5.305  24.118  1.00  0.00     0.053 C 
BRANCH  21  22
ATOM     22  C   UNL     1     -14.255  -5.867  22.731  1.00  0.00     0.041 C 
ATOM     23  O   UNL     1     -15.223  -5.637  21.958  1.00  0.00    -0.550 OA
ATOM     24  O   UNL     1     -13.170  -6.605  22.275  1.00  0.00    -0.550 OA
ENDBRANCH  21  22
ENDBRANCH  20  21
ENDBRANCH  19  20
ENDBRANCH  18  19
ENDBRANCH  17  18
ENDBRANCH  16  17
ENDBRANCH  15  16
ENDBRANCH  14  15
ENDBRANCH  13  14
ENDBRANCH   1  13
TORSDOF 20
ENDMDL
MODEL 9
REMARK VINA RESULT:    -3.640      3.637      6.648
REMARK INTER + INTRA:         -11.749
REMARK INTER:                  -7.748
REMARK INTRA:                  -4.000
REMARK UNBOUND:                -3.853
REMARK SMILES CCCCCCCCCCCCCCCCCCCCCC(=O)[O-]
REMARK SMILES IDX 12 1 11 2 10 3 9 4 8 5 7 6 6 7 5 8 4 9 3 10 2 11 1 12 13 13
REMARK SMILES IDX 14 14 15 15 16 16 17 17 18 18 19 19 20 20 21 21 22 22 23 23
REMARK SMILES IDX 24 24
REMARK H PARENT
REMARK Flexibility Score: inf
ROOT
ATOM      1  C   UNL     1     -11.264  -9.953  29.153  1.00  0.00     0.000 C 
ENDROOT
BRANCH   1   2
ATOM      2  C   UNL     1     -11.648  -8.682  28.384  1.00  0.00     0.000 C 
BRANCH   2   3
ATOM      3  C   UNL     1     -11.285  -8.810  26.897  1.00  0.00     0.000 C 
BRANCH   3   4
ATOM      4  C   UNL     1     -12.481  -8.541  25.969  1.00  0.00    -0.000 C 
BRANCH   4   5
ATOM      5  C   UNL     1     -13.797  -8.345  26.737  1.00  0.00    -0.000 C 
BRANCH   5   6
ATOM      6  C   UNL     1     -14.962  -9.031  26.013  1.00  0.00    -0.000 C 
BRANCH   6   7
ATOM      7  C   UNL     1     -14.558  -9.449  24.592  1.00  0.00    -0.000 C 
BRANCH   7   8
ATOM      8  C   UNL     1     -15.132 -10.824  24.204  1.00  0.00    -0.000 C 
BRANCH   8   9
ATOM      9  C   UNL     1     -14.266 -11.578  23.170  1.00  0.00    -0.000 C 
BRANCH   9  10
ATOM     10  C   UNL     1     -14.144 -13.086  23.455  1.00  0.00    -0.000 C 
BRANCH  10  11
ATOM     11  C   UNL     1     -15.490 -13.810  23.629  1.00  0.00    -0.003 C 
ATOM     12  C   UNL     1     -15.639 -14.462  25.004  1.00  0.00     0.004 C 
ENDBRANCH  10  11
ENDBRANCH   9  10
ENDBRANCH   8   9
ENDBRANCH   7   8
ENDBRANCH   6   7
ENDBRANCH   5   6
ENDBRANCH   4   5
ENDBRANCH   3   4
ENDBRANCH   2   3
ENDBRANCH   1   2
BRANCH   1  13
ATOM     13  C   UNL     1     -12.359 -10.413  30.132  1.00  0.00     0.000 C 
BRANCH  13  14
ATOM     14  C   UNL     1     -13.629 -10.992  29.473  1.00  0.00     0.000 C 
BRANCH  14  15
ATOM     15  C   UNL     1     -13.432 -12.316  28.712  1.00  0.00     0.000 C 
BRANCH  15  16
ATOM     16  C   UNL     1     -13.671 -12.176  27.198  1.00  0.00     0.000 C 
BRANCH  16  17
ATOM     17  C   UNL     1     -12.371 -12.265  26.378  1.00  0.00     0.000 C 
BRANCH  17  18
ATOM     18  C   UNL     1     -11.507 -13.513  26.652  1.00  0.00     0.000 C 
BRANCH  18  19
ATOM     19  C   UNL     1     -11.302 -14.445  25.441  1.00  0.00     0.000 C 
BRANCH  19  20
ATOM     20  C   UNL     1     -12.157 -15.725  25.456  1.00  0.00     0.006 C 
BRANCH  20  21
ATOM     21  C   UNL     1     -12.612 -16.121  26.868  1.00  0.00     0.053 C 
BRANCH  21  22
ATOM     22  C   UNL     1     -11.725 -17.191  27.422  1.00  0.00     0.041 C 
ATOM     23  O   UNL     1     -10.892 -17.772  26.677  1.00  0.00    -0.550 OA
ATOM     24  O   UNL     1     -11.785 -17.515  28.772  1.00  0.00    -0.550 OA
ENDBRANCH  21  22
ENDBRANCH  20  21
ENDBRANCH  19  20
ENDBRANCH  18  19
ENDBRANCH  17  18
ENDBRANCH  16  17
ENDBRANCH  15  16
ENDBRANCH  14  15
ENDBRANCH  13  14
ENDBRANCH   1  13
TORSDOF 20
ENDMDL
