MODEL 1
REMARK VINA RESULT:    -4.359      0.000      0.000
REMARK INTER + INTRA:          -9.711
REMARK INTER:                  -7.927
REMARK INTRA:                  -1.784
REMARK UNBOUND:                -1.784
REMARK SMILES CCCCCCCCCCCCCCCC(=O)[O-]
REMARK SMILES IDX 9 1 10 2 11 3 12 4 13 5 14 6 15 7 16 8 17 9 18 10 8 11 7 12
REMARK SMILES IDX 6 13 5 14 4 15 3 16 2 17 1 18
REMARK H PARENT
REMARK Flexibility Score: inf
ROOT
ATOM      1  C   UNL     1      29.946  -5.304  -4.609  1.00  0.00     0.000 C 
ENDROOT
BRANCH   1   2
ATOM      2  C   UNL     1      29.809  -3.877  -4.056  1.00  0.00     0.000 C 
BRANCH   2   3
ATOM      3  C   UNL     1      29.179  -3.841  -2.654  1.00  0.00     0.000 C 
BRANCH   3   4
ATOM      4  C   UNL     1      28.022  -2.833  -2.554  1.00  0.00     0.000 C 
BRANCH   4   5
ATOM      5  C   UNL     1      27.418  -2.752  -1.139  1.00  0.00     0.000 C 
BRANCH   5   6
ATOM      6  C   UNL     1      28.077  -1.719  -0.207  1.00  0.00     0.006 C 
BRANCH   6   7
ATOM      7  C   UNL     1      29.050  -2.352   0.796  1.00  0.00     0.053 C 
BRANCH   7   8
ATOM      8  C   UNL     1      28.322  -2.781   2.031  1.00  0.00     0.041 C 
ATOM      9  O   UNL     1      27.921  -3.968   2.150  1.00  0.00    -0.550 OA
ATOM     10  O   UNL     1      28.128  -1.882   3.072  1.00  0.00    -0.550 OA
ENDBRANCH   7   8
ENDBRANCH   6   7
ENDBRANCH   5   6
ENDBRANCH   4   5
ENDBRANCH   3   4
ENDBRANCH   2   3
ENDBRANCH   1   2
BRANCH   1  11
ATOM     11  C   UNL     1      29.712  -6.345  -3.504  1.00  0.00     0.000 C 
BRANCH  11  12
ATOM     12  C   UNL     1      28.779  -7.483  -3.947  1.00  0.00    -0.000 C 
BRANCH  12  13
ATOM     13  C   UNL     1      29.199  -8.104  -5.291  1.00  0.00    -0.000 C 
BRANCH  13  14
ATOM     14  C   UNL     1      28.170  -7.850  -6.405  1.00  0.00    -0.000 C 
BRANCH  14  15
ATOM     15  C   UNL     1      26.855  -7.252  -5.873  1.00  0.00    -0.000 C 
BRANCH  15  16
ATOM     16  C   UNL     1      26.636  -5.804  -6.336  1.00  0.00    -0.000 C 
BRANCH  16  17
ATOM     17  C   UNL     1      26.310  -4.856  -5.172  1.00  0.00    -0.003 C 
ATOM     18  C   UNL     1      26.059  -5.634  -3.883  1.00  0.00     0.004 C 
ENDBRANCH  16  17
ENDBRANCH  15  16
ENDBRANCH  14  15
ENDBRANCH  13  14
ENDBRANCH  12  13
ENDBRANCH  11  12
ENDBRANCH   1  11
TORSDOF 14
ENDMDL
MODEL 2
REMARK VINA RESULT:    -4.202      3.680      6.826
REMARK INTER + INTRA:          -9.425
REMARK INTER:                  -7.084
REMARK INTRA:                  -2.341
REMARK UNBOUND:                -1.784
REMARK SMILES CCCCCCCCCCCCCCCC(=O)[O-]
REMARK SMILES IDX 9 1 10 2 11 3 12 4 13 5 14 6 15 7 16 8 17 9 18 10 8 11 7 12
REMARK SMILES IDX 6 13 5 14 4 15 3 16 2 17 1 18
REMARK H PARENT
REMARK Flexibility Score: inf
ROOT
ATOM      1  C   UNL     1      27.297  -3.817  -4.967  1.00  0.00     0.000 C 
ENDROOT
BRANCH   1   2
ATOM      2  C   UNL     1      28.646  -3.685  -5.691  1.00  0.00     0.000 C 
BRANCH   2   3
ATOM      3  C   UNL     1      29.839  -4.063  -4.796  1.00  0.00     0.000 C 
BRANCH   3   4
ATOM      4  C   UNL     1      29.435  -4.989  -3.636  1.00  0.00     0.000 C 
BRANCH   4   5
ATOM      5  C   UNL     1      29.991  -6.418  -3.789  1.00  0.00     0.000 C 
BRANCH   5   6
ATOM      6  C   UNL     1      28.929  -7.512  -4.002  1.00  0.00     0.006 C 
BRANCH   6   7
ATOM      7  C   UNL     1      29.126  -8.291  -5.310  1.00  0.00     0.053 C 
BRANCH   7   8
ATOM      8  C   UNL     1      28.155  -7.823  -6.348  1.00  0.00     0.041 C 
ATOM      9  O   UNL     1      27.140  -7.160  -6.013  1.00  0.00    -0.550 OA
ATOM     10  O   UNL     1      28.399  -8.077  -7.692  1.00  0.00    -0.550 OA
ENDBRANCH   7   8
ENDBRANCH   6   7
ENDBRANCH   5   6
ENDBRANCH   4   5
ENDBRANCH   3   4
ENDBRANCH   2   3
ENDBRANCH   1   2
BRANCH   1  11
ATOM     11  C   UNL     1      26.717  -2.435  -4.633  1.00  0.00     0.000 C 
BRANCH  11  12
ATOM     12  C   UNL     1      27.518  -1.284  -5.264  1.00  0.00    -0.000 C 
BRANCH  12  13
ATOM     13  C   UNL     1      28.021  -0.272  -4.219  1.00  0.00    -0.000 C 
BRANCH  13  14
ATOM     14  C   UNL     1      29.503  -0.479  -3.863  1.00  0.00    -0.000 C 
BRANCH  14  15
ATOM     15  C   UNL     1      29.695  -1.193  -2.513  1.00  0.00    -0.000 C 
BRANCH  15  16
ATOM     16  C   UNL     1      28.412  -1.217  -1.670  1.00  0.00    -0.000 C 
BRANCH  16  17
ATOM     17  C   UNL     1      28.181  -2.573  -0.985  1.00  0.00    -0.003 C 
ATOM     18  C   UNL     1      26.740  -3.041  -1.167  1.00  0.00     0.004 C 
ENDBRANCH  16  17
ENDBRANCH  15  16
ENDBRANCH  14  15
ENDBRANCH  13  14
ENDBRANCH  12  13
ENDBRANCH  11  12
ENDBRANCH   1  11
TORSDOF 14
ENDMDL
MODEL 3
REMARK VINA RESULT:    -4.179      3.821      6.702
REMARK INTER + INTRA:          -9.384
REMARK INTER:                  -7.218
REMARK INTRA:                  -2.165
REMARK UNBOUND:                -1.784
REMARK SMILES CCCCCCCCCCCCCCCC(=O)[O-]
REMARK SMILES IDX 9 1 10 2 11 3 12 4 13 5 14 6 15 7 16 8 17 9 18 10 8 11 7 12
REMARK SMILES IDX 6 13 5 14 4 15 3 16 2 17 1 18
REMARK H PARENT
REMARK Flexibility Score: inf
ROOT
ATOM      1  C   UNL     1      29.853  -5.305  -3.539  1.00  0.00     0.000 C 
ENDROOT
BRANCH   1   2
ATOM      2  C   UNL     1      28.469  -5.912  -3.819  1.00  0.00     0.000 C 
BRANCH   2   3
ATOM      3  C   UNL     1      27.324  -4.917  -3.570  1.00  0.00     0.000 C 
BRANCH   3   4
ATOM      4  C   UNL     1      26.382  -4.788  -4.780  1.00  0.00     0.000 C 
BRANCH   4   5
ATOM      5  C   UNL     1      27.083  -5.083  -6.120  1.00  0.00     0.000 C 
BRANCH   5   6
ATOM      6  C   UNL     1      26.480  -6.244  -6.931  1.00  0.00     0.006 C 
BRANCH   6   7
ATOM      7  C   UNL     1      26.813  -7.621  -6.344  1.00  0.00     0.053 C 
BRANCH   7   8
ATOM      8  C   UNL     1      28.136  -8.100  -6.852  1.00  0.00     0.041 C 
ATOM      9  O   UNL     1      28.440  -7.954  -8.065  1.00  0.00    -0.550 OA
ATOM     10  O   UNL     1      29.055  -8.666  -5.976  1.00  0.00    -0.550 OA
ENDBRANCH   7   8
ENDBRANCH   6   7
ENDBRANCH   5   6
ENDBRANCH   4   5
ENDBRANCH   3   4
ENDBRANCH   2   3
ENDBRANCH   1   2
BRANCH   1  11
ATOM     11  C   UNL     1      29.806  -3.772  -3.617  1.00  0.00     0.000 C 
BRANCH  11  12
ATOM     12  C   UNL     1      30.053  -3.240  -5.038  1.00  0.00    -0.000 C 
BRANCH  12  13
ATOM     13  C   UNL     1      29.599  -1.779  -5.209  1.00  0.00    -0.000 C 
BRANCH  13  14
ATOM     14  C   UNL     1      28.092  -1.660  -5.493  1.00  0.00    -0.000 C 
BRANCH  14  15
ATOM     15  C   UNL     1      27.312  -1.049  -4.316  1.00  0.00    -0.000 C 
BRANCH  15  16
ATOM     16  C   UNL     1      28.163  -0.077  -3.485  1.00  0.00    -0.000 C 
BRANCH  16  17
ATOM     17  C   UNL     1      28.259  -0.491  -2.009  1.00  0.00    -0.003 C 
ATOM     18  C   UNL     1      27.432  -1.744  -1.735  1.00  0.00     0.004 C 
ENDBRANCH  16  17
ENDBRANCH  15  16
ENDBRANCH  14  15
ENDBRANCH  13  14
ENDBRANCH  12  13
ENDBRANCH  11  12
ENDBRANCH   1  11
TORSDOF 14
ENDMDL
MODEL 4
REMARK VINA RESULT:    -4.155      3.824      6.762
REMARK INTER + INTRA:          -9.339
REMARK INTER:                  -7.164
REMARK INTRA:                  -2.176
REMARK UNBOUND:                -1.784
REMARK SMILES CCCCCCCCCCCCCCCC(=O)[O-]
REMARK SMILES IDX 9 1 10 2 11 3 12 4 13 5 14 6 15 7 16 8 17 9 18 10 8 11 7 12
REMARK SMILES IDX 6 13 5 14 4 15 3 16 2 17 1 18
REMARK H PARENT
REMARK Flexibility Score: inf
ROOT
ATOM      1  C   UNL     1      26.879  -4.277  -5.125  1.00  0.00     0.000 C 
ENDROOT
BRANCH   1   2
ATOM      2  C   UNL     1      28.273  -4.257  -5.771  1.00  0.00     0.000 C 
BRANCH   2   3
ATOM      3  C   UNL     1      29.406  -4.176  -4.734  1.00  0.00     0.000 C 
BRANCH   3   4
ATOM      4  C   UNL     1      30.109  -5.527  -4.523  1.00  0.00     0.000 C 
BRANCH   4   5
ATOM      5  C   UNL     1      29.385  -6.428  -3.504  1.00  0.00     0.000 C 
BRANCH   5   6
ATOM      6  C   UNL     1      28.508  -7.534  -4.118  1.00  0.00     0.006 C 
BRANCH   6   7
ATOM      7  C   UNL     1      29.072  -8.085  -5.434  1.00  0.00     0.053 C 
BRANCH   7   8
ATOM      8  C   UNL     1      28.086  -7.902  -6.543  1.00  0.00     0.041 C 
ATOM      9  O   UNL     1      28.423  -8.123  -7.735  1.00  0.00    -0.550 OA
ATOM     10  O   UNL     1      26.776  -7.534  -6.256  1.00  0.00    -0.550 OA
ENDBRANCH   7   8
ENDBRANCH   6   7
ENDBRANCH   5   6
ENDBRANCH   4   5
ENDBRANCH   3   4
ENDBRANCH   2   3
ENDBRANCH   1   2
BRANCH   1  11
ATOM     11  C   UNL     1      26.735  -3.147  -4.095  1.00  0.00     0.000 C 
BRANCH  11  12
ATOM     12  C   UNL     1      26.817  -3.650  -2.644  1.00  0.00    -0.000 C 
BRANCH  12  13
ATOM     13  C   UNL     1      27.715  -2.764  -1.761  1.00  0.00    -0.000 C 
BRANCH  13  14
ATOM     14  C   UNL     1      27.816  -1.322  -2.285  1.00  0.00    -0.000 C 
BRANCH  14  15
ATOM     15  C   UNL     1      29.214  -0.987  -2.834  1.00  0.00    -0.000 C 
BRANCH  15  16
ATOM     16  C   UNL     1      29.170   0.048  -3.968  1.00  0.00    -0.000 C 
BRANCH  16  17
ATOM     17  C   UNL     1      29.437  -0.575  -5.347  1.00  0.00    -0.003 C 
ATOM     18  C   UNL     1      28.189  -0.523  -6.224  1.00  0.00     0.004 C 
ENDBRANCH  16  17
ENDBRANCH  15  16
ENDBRANCH  14  15
ENDBRANCH  13  14
ENDBRANCH  12  13
ENDBRANCH  11  12
ENDBRANCH   1  11
TORSDOF 14
ENDMDL
MODEL 5
REMARK VINA RESULT:    -4.127      1.525      2.939
REMARK INTER + INTRA:          -9.289
REMARK INTER:                  -7.126
REMARK INTRA:                  -2.162
REMARK UNBOUND:                -1.784
REMARK SMILES CCCCCCCCCCCCCCCC(=O)[O-]
REMARK SMILES IDX 9 1 10 2 11 3 12 4 13 5 14 6 15 7 16 8 17 9 18 10 8 11 7 12
REMARK SMILES IDX 6 13 5 14 4 15 3 16 2 17 1 18
REMARK H PARENT
REMARK Flexibility Score: inf
ROOT
ATOM      1  C   UNL     1      27.726  -3.881  -5.706  1.00  0.00     0.000 C 
ENDROOT
BRANCH   1   2
ATOM      2  C   UNL     1      27.982  -2.368  -5.609  1.00  0.00     0.000 C 
BRANCH   2   3
ATOM      3  C   UNL     1      27.082  -1.680  -4.569  1.00  0.00     0.000 C 
BRANCH   3   4
ATOM      4  C   UNL     1      27.855  -1.261  -3.307  1.00  0.00     0.000 C 
BRANCH   4   5
ATOM      5  C   UNL     1      29.237  -1.934  -3.198  1.00  0.00     0.000 C 
BRANCH   5   6
ATOM      6  C   UNL     1      29.521  -2.629  -1.854  1.00  0.00     0.006 C 
BRANCH   6   7
ATOM      7  C   UNL     1      28.265  -2.795  -0.988  1.00  0.00     0.053 C 
BRANCH   7   8
ATOM      8  C   UNL     1      28.548  -2.399   0.426  1.00  0.00     0.041 C 
ATOM      9  O   UNL     1      29.209  -1.356   0.672  1.00  0.00    -0.550 OA
ATOM     10  O   UNL     1      28.041  -3.156   1.476  1.00  0.00    -0.550 OA
ENDBRANCH   7   8
ENDBRANCH   6   7
ENDBRANCH   5   6
ENDBRANCH   4   5
ENDBRANCH   3   4
ENDBRANCH   2   3
ENDBRANCH   1   2
BRANCH   1  11
ATOM     11  C   UNL     1      26.452  -4.272  -4.944  1.00  0.00     0.000 C 
BRANCH  11  12
ATOM     12  C   UNL     1      26.728  -5.230  -3.774  1.00  0.00    -0.000 C 
BRANCH  12  13
ATOM     13  C   UNL     1      28.211  -5.633  -3.678  1.00  0.00    -0.000 C 
BRANCH  13  14
ATOM     14  C   UNL     1      28.412  -7.156  -3.751  1.00  0.00    -0.000 C 
BRANCH  14  15
ATOM     15  C   UNL     1      29.413  -7.570  -4.845  1.00  0.00    -0.000 C 
BRANCH  15  16
ATOM     16  C   UNL     1      28.755  -8.389  -5.966  1.00  0.00    -0.000 C 
BRANCH  16  17
ATOM     17  C   UNL     1      28.068  -7.504  -7.017  1.00  0.00    -0.003 C 
ATOM     18  C   UNL     1      26.560  -7.450  -6.788  1.00  0.00     0.004 C 
ENDBRANCH  16  17
ENDBRANCH  15  16
ENDBRANCH  14  15
ENDBRANCH  13  14
ENDBRANCH  12  13
ENDBRANCH  11  12
ENDBRANCH   1  11
TORSDOF 14
ENDMDL
MODEL 6
REMARK VINA RESULT:    -4.125      1.016      2.302
REMARK INTER + INTRA:          -9.285
REMARK INTER:                  -7.456
REMARK INTRA:                  -1.829
REMARK UNBOUND:                -1.784
REMARK SMILES CCCCCCCCCCCCCCCC(=O)[O-]
REMARK SMILES IDX 9 1 10 2 11 3 12 4 13 5 14 6 15 7 16 8 17 9 18 10 8 11 7 12
REMARK SMILES IDX 6 13 5 14 4 15 3 16 2 17 1 18
REMARK H PARENT
REMARK Flexibility Score: inf
ROOT
ATOM      1  C   UNL     1      27.232  -3.490  -4.154  1.00  0.00     0.000 C 
ENDROOT
BRANCH   1   2
ATOM      2  C   UNL     1      26.841  -4.095  -2.797  1.00  0.00     0.000 C 
BRANCH   2   3
ATOM      3  C   UNL     1      26.920  -3.076  -1.649  1.00  0.00     0.000 C 
BRANCH   3   4
ATOM      4  C   UNL     1      27.621  -1.772  -2.065  1.00  0.00     0.000 C 
BRANCH   4   5
ATOM      5  C   UNL     1      29.010  -1.605  -1.421  1.00  0.00     0.000 C 
BRANCH   5   6
ATOM      6  C   UNL     1      29.381  -2.679  -0.382  1.00  0.00     0.006 C 
BRANCH   6   7
ATOM      7  C   UNL     1      29.556  -2.109   1.032  1.00  0.00     0.053 C 
BRANCH   7   8
ATOM      8  C   UNL     1      28.406  -2.507   1.901  1.00  0.00     0.041 C 
ATOM      9  O   UNL     1      27.912  -3.661   1.811  1.00  0.00    -0.550 OA
ATOM     10  O   UNL     1      27.910  -1.619   2.849  1.00  0.00    -0.550 OA
ENDBRANCH   7   8
ENDBRANCH   6   7
ENDBRANCH   5   6
ENDBRANCH   4   5
ENDBRANCH   3   4
ENDBRANCH   2   3
ENDBRANCH   1   2
BRANCH   1  11
ATOM     11  C   UNL     1      28.499  -4.159  -4.708  1.00  0.00     0.000 C 
BRANCH  11  12
ATOM     12  C   UNL     1      29.340  -4.837  -3.615  1.00  0.00    -0.000 C 
BRANCH  12  13
ATOM     13  C   UNL     1      29.981  -6.152  -4.093  1.00  0.00    -0.000 C 
BRANCH  13  14
ATOM     14  C   UNL     1      28.991  -7.329  -4.080  1.00  0.00    -0.000 C 
BRANCH  14  15
ATOM     15  C   UNL     1      29.188  -8.284  -5.270  1.00  0.00    -0.000 C 
BRANCH  15  16
ATOM     16  C   UNL     1      28.309  -7.916  -6.475  1.00  0.00    -0.000 C 
BRANCH  16  17
ATOM     17  C   UNL     1      26.922  -7.404  -6.058  1.00  0.00    -0.003 C 
ATOM     18  C   UNL     1      26.542  -6.150  -6.840  1.00  0.00     0.004 C 
ENDBRANCH  16  17
ENDBRANCH  15  16
ENDBRANCH  14  15
ENDBRANCH  13  14
ENDBRANCH  12  13
ENDBRANCH  11  12
ENDBRANCH   1  11
TORSDOF 14
ENDMDL
MODEL 7
REMARK VINA RESULT:    -4.086      3.860      7.010
REMARK INTER + INTRA:          -9.215
REMARK INTER:                  -6.953
REMARK INTRA:                  -2.261
REMARK UNBOUND:                -1.784
REMARK SMILES CCCCCCCCCCCCCCCC(=O)[O-]
REMARK SMILES IDX 9 1 10 2 11 3 12 4 13 5 14 6 15 7 16 8 17 9 18 10 8 11 7 12
REMARK SMILES IDX 6 13 5 14 4 15 3 16 2 17 1 18
REMARK H PARENT
REMARK Flexibility Score: inf
ROOT
ATOM      1  C   UNL     1      26.723  -3.596  -4.778  1.00  0.00     0.000 C 
ENDROOT
BRANCH   1   2
ATOM      2  C   UNL     1      26.994  -4.478  -3.549  1.00  0.00     0.000 C 
BRANCH   2   3
ATOM      3  C   UNL     1      26.270  -5.833  -3.619  1.00  0.00     0.000 C 
BRANCH   3   4
ATOM      4  C   UNL     1      27.240  -7.024  -3.534  1.00  0.00     0.000 C 
BRANCH   4   5
ATOM      5  C   UNL     1      28.717  -6.605  -3.668  1.00  0.00     0.000 C 
BRANCH   5   6
ATOM      6  C   UNL     1      29.331  -6.816  -5.063  1.00  0.00     0.006 C 
BRANCH   6   7
ATOM      7  C   UNL     1      28.712  -8.000  -5.818  1.00  0.00     0.053 C 
BRANCH   7   8
ATOM      8  C   UNL     1      28.030  -7.526  -7.062  1.00  0.00     0.041 C 
ATOM      9  O   UNL     1      28.422  -7.922  -8.190  1.00  0.00    -0.550 OA
ATOM     10  O   UNL     1      26.927  -6.685  -6.973  1.00  0.00    -0.550 OA
ENDBRANCH   7   8
ENDBRANCH   6   7
ENDBRANCH   5   6
ENDBRANCH   4   5
ENDBRANCH   3   4
ENDBRANCH   2   3
ENDBRANCH   1   2
BRANCH   1  11
ATOM     11  C   UNL     1      28.036  -3.202  -5.470  1.00  0.00     0.000 C 
BRANCH  11  12
ATOM     12  C   UNL     1      28.184  -1.682  -5.645  1.00  0.00    -0.000 C 
BRANCH  12  13
ATOM     13  C   UNL     1      27.276  -0.886  -4.691  1.00  0.00    -0.000 C 
BRANCH  13  14
ATOM     14  C   UNL     1      28.039  -0.334  -3.475  1.00  0.00    -0.000 C 
BRANCH  14  15
ATOM     15  C   UNL     1      27.442  -0.804  -2.137  1.00  0.00    -0.000 C 
BRANCH  15  16
ATOM     16  C   UNL     1      28.304  -1.873  -1.449  1.00  0.00    -0.000 C 
BRANCH  16  17
ATOM     17  C   UNL     1      29.729  -1.937  -2.017  1.00  0.00    -0.003 C 
ATOM     18  C   UNL     1      30.123  -3.373  -2.352  1.00  0.00     0.004 C 
ENDBRANCH  16  17
ENDBRANCH  15  16
ENDBRANCH  14  15
ENDBRANCH  13  14
ENDBRANCH  12  13
ENDBRANCH  11  12
ENDBRANCH   1  11
TORSDOF 14
ENDMDL
MODEL 8
REMARK VINA RESULT:    -4.018      2.060      3.334
REMARK INTER + INTRA:          -9.090
REMARK INTER:                  -7.249
REMARK INTRA:                  -1.842
REMARK UNBOUND:                -1.784
REMARK SMILES CCCCCCCCCCCCCCCC(=O)[O-]
REMARK SMILES IDX 9 1 10 2 11 3 12 4 13 5 14 6 15 7 16 8 17 9 18 10 8 11 7 12
REMARK SMILES IDX 6 13 5 14 4 15 3 16 2 17 1 18
REMARK H PARENT
REMARK Flexibility Score: inf
ROOT
ATOM      1  C   UNL     1      27.963  -2.382  -5.749  1.00  0.00     0.000 C 
ENDROOT
BRANCH   1   2
ATOM      2  C   UNL     1      27.108  -1.807  -4.609  1.00  0.00     0.000 C 
BRANCH   2   3
ATOM      3  C   UNL     1      27.290  -0.289  -4.439  1.00  0.00     0.000 C 
BRANCH   3   4
ATOM      4  C   UNL     1      27.979   0.076  -3.113  1.00  0.00     0.000 C 
BRANCH   4   5
ATOM      5  C   UNL     1      29.369  -0.571  -2.961  1.00  0.00     0.000 C 
BRANCH   5   6
ATOM      6  C   UNL     1      29.621  -1.264  -1.609  1.00  0.00     0.006 C 
BRANCH   6   7
ATOM      7  C   UNL     1      28.996  -2.663  -1.528  1.00  0.00     0.053 C 
BRANCH   7   8
ATOM      8  C   UNL     1      27.788  -2.645  -0.646  1.00  0.00     0.041 C 
ATOM      9  O   UNL     1      27.853  -2.148   0.508  1.00  0.00    -0.550 OA
ATOM     10  O   UNL     1      26.575  -3.133  -1.118  1.00  0.00    -0.550 OA
ENDBRANCH   7   8
ENDBRANCH   6   7
ENDBRANCH   5   6
ENDBRANCH   4   5
ENDBRANCH   3   4
ENDBRANCH   2   3
ENDBRANCH   1   2
BRANCH   1  11
ATOM     11  C   UNL     1      28.178  -3.892  -5.565  1.00  0.00     0.000 C 
BRANCH  11  12
ATOM     12  C   UNL     1      27.437  -4.454  -4.341  1.00  0.00    -0.000 C 
BRANCH  12  13
ATOM     13  C   UNL     1      26.388  -5.515  -4.721  1.00  0.00    -0.000 C 
BRANCH  13  14
ATOM     14  C   UNL     1      26.457  -5.906  -6.206  1.00  0.00    -0.000 C 
BRANCH  14  15
ATOM     15  C   UNL     1      26.742  -7.404  -6.414  1.00  0.00    -0.000 C 
BRANCH  15  16
ATOM     16  C   UNL     1      28.218  -7.686  -6.733  1.00  0.00    -0.000 C 
BRANCH  16  17
ATOM     17  C   UNL     1      28.931  -8.446  -5.604  1.00  0.00    -0.003 C 
ATOM     18  C   UNL     1      29.708  -7.490  -4.704  1.00  0.00     0.004 C 
ENDBRANCH  16  17
ENDBRANCH  15  16
ENDBRANCH  14  15
ENDBRANCH  13  14
ENDBRANCH  12  13
ENDBRANCH  11  12
ENDBRANCH   1  11
TORSDOF 14
ENDMDL
MODEL 9
REMARK VINA RESULT:    -4.006      3.618      4.901
REMARK INTER + INTRA:          -9.068
REMARK INTER:                  -6.764
REMARK INTRA:                  -2.304
REMARK UNBOUND:                -1.784
REMARK SMILES CCCCCCCCCCCCCCCC(=O)[O-]
REMARK SMILES IDX 9 1 10 2 11 3 12 4 13 5 14 6 15 7 16 8 17 9 18 10 8 11 7 12
REMARK SMILES IDX 6 13 5 14 4 15 3 16 2 17 1 18
REMARK H PARENT
REMARK Flexibility Score: inf
ROOT
ATOM      1  C   UNL     1      27.173  -4.232  -4.627  1.00  0.00     0.000 C 
ENDROOT
BRANCH   1   2
ATOM      2  C   UNL     1      26.750  -2.938  -3.914  1.00  0.00     0.000 C 
BRANCH   2   3
ATOM      3  C   UNL     1      27.161  -2.915  -2.433  1.00  0.00     0.000 C 
BRANCH   3   4
ATOM      4  C   UNL     1      27.931  -1.637  -2.056  1.00  0.00     0.000 C 
BRANCH   4   5
ATOM      5  C   UNL     1      29.204  -1.433  -2.899  1.00  0.00     0.000 C 
BRANCH   5   6
ATOM      6  C   UNL     1      29.237  -0.136  -3.728  1.00  0.00     0.006 C 
BRANCH   6   7
ATOM      7  C   UNL     1      29.431  -0.389  -5.229  1.00  0.00     0.053 C 
BRANCH   7   8
ATOM      8  C   UNL     1      28.129  -0.254  -5.953  1.00  0.00     0.041 C 
ATOM      9  O   UNL     1      27.166   0.355  -5.419  1.00  0.00    -0.550 OA
ATOM     10  O   UNL     1      27.994  -0.758  -7.241  1.00  0.00    -0.550 OA
ENDBRANCH   7   8
ENDBRANCH   6   7
ENDBRANCH   5   6
ENDBRANCH   4   5
ENDBRANCH   3   4
ENDBRANCH   2   3
ENDBRANCH   1   2
BRANCH   1  11
ATOM     11  C   UNL     1      28.354  -3.975  -5.574  1.00  0.00     0.000 C 
BRANCH  11  12
ATOM     12  C   UNL     1      29.704  -4.397  -4.972  1.00  0.00    -0.000 C 
BRANCH  12  13
ATOM     13  C   UNL     1      29.543  -5.251  -3.701  1.00  0.00    -0.000 C 
BRANCH  13  14
ATOM     14  C   UNL     1      29.936  -6.721  -3.925  1.00  0.00    -0.000 C 
BRANCH  14  15
ATOM     15  C   UNL     1      28.743  -7.596  -4.350  1.00  0.00    -0.000 C 
BRANCH  15  16
ATOM     16  C   UNL     1      29.002  -8.349  -5.663  1.00  0.00    -0.000 C 
BRANCH  16  17
ATOM     17  C   UNL     1      28.187  -7.787  -6.837  1.00  0.00    -0.003 C 
ATOM     18  C   UNL     1      26.792  -7.364  -6.383  1.00  0.00     0.004 C 
ENDBRANCH  16  17
ENDBRANCH  15  16
ENDBRANCH  14  15
ENDBRANCH  13  14
ENDBRANCH  12  13
ENDBRANCH  11  12
ENDBRANCH   1  11
TORSDOF 14
ENDMDL
