MODEL 1
REMARK VINA RESULT:    -5.067      0.000      0.000
REMARK INTER + INTRA:         -11.851
REMARK INTER:                  -9.806
REMARK INTRA:                  -2.045
REMARK UNBOUND:                -2.045
REMARK SMILES CCCCCCCCCCCCCCCCCC(=O)[O-]
REMARK SMILES IDX 10 1 11 2 12 3 13 4 14 5 15 6 16 7 17 8 18 9 19 10 20 11
REMARK SMILES IDX 9 12 8 13 7 14 6 15 5 16 4 17 3 18 2 19 1 20
REMARK H PARENT
REMARK Flexibility Score: inf
ROOT
ATOM      1  C   UNL     1       0.172  45.963   8.567  1.00  0.00     0.000 C 
ENDROOT
BRANCH   1   2
ATOM      2  C   UNL     1       0.399  45.678  10.063  1.00  0.00     0.000 C 
BRANCH   2   3
ATOM      3  C   UNL     1       1.389  44.534  10.364  1.00  0.00     0.000 C 
BRANCH   3   4
ATOM      4  C   UNL     1       1.905  43.769   9.128  1.00  0.00     0.000 C 
BRANCH   4   5
ATOM      5  C   UNL     1       3.086  42.819   9.393  1.00  0.00     0.000 C 
BRANCH   5   6
ATOM      6  C   UNL     1       4.024  43.329  10.501  1.00  0.00     0.000 C 
BRANCH   6   7
ATOM      7  C   UNL     1       3.804  42.610  11.846  1.00  0.00     0.006 C 
BRANCH   7   8
ATOM      8  C   UNL     1       2.976  41.319  11.748  1.00  0.00     0.053 C 
BRANCH   8   9
ATOM      9  C   UNL     1       3.618  40.183  12.484  1.00  0.00     0.041 C 
ATOM     10  O   UNL     1       4.823  40.259  12.841  1.00  0.00    -0.550 OA
ATOM     11  O   UNL     1       2.875  39.053  12.804  1.00  0.00    -0.550 OA
ENDBRANCH   8   9
ENDBRANCH   7   8
ENDBRANCH   6   7
ENDBRANCH   5   6
ENDBRANCH   4   5
ENDBRANCH   3   4
ENDBRANCH   2   3
ENDBRANCH   1   2
BRANCH   1  12
ATOM     12  C   UNL     1       0.115  47.465   8.248  1.00  0.00     0.000 C 
BRANCH  12  13
ATOM     13  C   UNL     1       1.372  48.182   8.762  1.00  0.00    -0.000 C 
BRANCH  13  14
ATOM     14  C   UNL     1       2.483  48.266   7.702  1.00  0.00    -0.000 C 
BRANCH  14  15
ATOM     15  C   UNL     1       3.716  47.421   8.071  1.00  0.00    -0.000 C 
BRANCH  15  16
ATOM     16  C   UNL     1       3.799  47.126   9.579  1.00  0.00    -0.000 C 
BRANCH  16  17
ATOM     17  C   UNL     1       5.206  46.696  10.023  1.00  0.00    -0.000 C 
BRANCH  17  18
ATOM     18  C   UNL     1       6.283  47.372   9.161  1.00  0.00    -0.000 C 
BRANCH  18  19
ATOM     19  C   UNL     1       6.683  48.757   9.693  1.00  0.00    -0.003 C 
ATOM     20  C   UNL     1       6.461  49.871   8.670  1.00  0.00     0.004 C 
ENDBRANCH  18  19
ENDBRANCH  17  18
ENDBRANCH  16  17
ENDBRANCH  15  16
ENDBRANCH  14  15
ENDBRANCH  13  14
ENDBRANCH  12  13
ENDBRANCH   1  12
TORSDOF 16
ENDMDL
MODEL 2
REMARK VINA RESULT:    -5.032      0.922      1.740
REMARK INTER + INTRA:         -11.785
REMARK INTER:                  -9.730
REMARK INTRA:                  -2.055
REMARK UNBOUND:                -2.045
REMARK SMILES CCCCCCCCCCCCCCCCCC(=O)[O-]
REMARK SMILES IDX 10 1 11 2 12 3 13 4 14 5 15 6 16 7 17 8 18 9 19 10 20 11
REMARK SMILES IDX 9 12 8 13 7 14 6 15 5 16 4 17 3 18 2 19 1 20
REMARK H PARENT
REMARK Flexibility Score: inf
ROOT
ATOM      1  C   UNL     1      -0.224  45.703   8.543  1.00  0.00     0.000 C 
ENDROOT
BRANCH   1   2
ATOM      2  C   UNL     1       0.691  44.502   8.236  1.00  0.00     0.000 C 
BRANCH   2   3
ATOM      3  C   UNL     1       1.579  44.044   9.411  1.00  0.00     0.000 C 
BRANCH   3   4
ATOM      4  C   UNL     1       1.179  44.601  10.793  1.00  0.00     0.000 C 
BRANCH   4   5
ATOM      5  C   UNL     1       1.930  43.987  11.987  1.00  0.00     0.000 C 
BRANCH   5   6
ATOM      6  C   UNL     1       3.459  44.069  11.836  1.00  0.00     0.000 C 
BRANCH   6   7
ATOM      7  C   UNL     1       4.137  42.686  11.886  1.00  0.00     0.006 C 
BRANCH   7   8
ATOM      8  C   UNL     1       3.180  41.502  11.675  1.00  0.00     0.053 C 
BRANCH   8   9
ATOM      9  C   UNL     1       3.580  40.306  12.485  1.00  0.00     0.041 C 
ATOM     10  O   UNL     1       2.751  39.385  12.708  1.00  0.00    -0.550 OA
ATOM     11  O   UNL     1       4.878  40.195  12.966  1.00  0.00    -0.550 OA
ENDBRANCH   8   9
ENDBRANCH   7   8
ENDBRANCH   6   7
ENDBRANCH   5   6
ENDBRANCH   4   5
ENDBRANCH   3   4
ENDBRANCH   2   3
ENDBRANCH   1   2
BRANCH   1  12
ATOM     12  C   UNL     1      -0.227  46.753   7.422  1.00  0.00     0.000 C 
BRANCH  12  13
ATOM     13  C   UNL     1      -0.133  48.172   8.001  1.00  0.00    -0.000 C 
BRANCH  13  14
ATOM     14  C   UNL     1       1.211  48.443   8.697  1.00  0.00    -0.000 C 
BRANCH  14  15
ATOM     15  C   UNL     1       2.356  48.682   7.696  1.00  0.00    -0.000 C 
BRANCH  15  16
ATOM     16  C   UNL     1       3.521  47.696   7.887  1.00  0.00    -0.000 C 
BRANCH  16  17
ATOM     17  C   UNL     1       3.558  47.085   9.297  1.00  0.00    -0.000 C 
BRANCH  17  18
ATOM     18  C   UNL     1       5.004  46.819   9.740  1.00  0.00    -0.000 C 
BRANCH  18  19
ATOM     19  C   UNL     1       5.969  47.935   9.309  1.00  0.00    -0.003 C 
ATOM     20  C   UNL     1       7.437  47.529   9.435  1.00  0.00     0.004 C 
ENDBRANCH  18  19
ENDBRANCH  17  18
ENDBRANCH  16  17
ENDBRANCH  15  16
ENDBRANCH  14  15
ENDBRANCH  13  14
ENDBRANCH  12  13
ENDBRANCH   1  12
TORSDOF 16
ENDMDL
MODEL 3
REMARK VINA RESULT:    -5.009      3.115      6.691
REMARK INTER + INTRA:         -11.740
REMARK INTER:                 -10.119
REMARK INTRA:                  -1.621
REMARK UNBOUND:                -2.045
REMARK SMILES CCCCCCCCCCCCCCCCCC(=O)[O-]
REMARK SMILES IDX 10 1 11 2 12 3 13 4 14 5 15 6 16 7 17 8 18 9 19 10 20 11
REMARK SMILES IDX 9 12 8 13 7 14 6 15 5 16 4 17 3 18 2 19 1 20
REMARK H PARENT
REMARK Flexibility Score: inf
ROOT
ATOM      1  C   UNL     1       1.082  44.376   9.143  1.00  0.00     0.000 C 
ENDROOT
BRANCH   1   2
ATOM      2  C   UNL     1       0.400  45.241   8.068  1.00  0.00     0.000 C 
BRANCH   2   3
ATOM      3  C   UNL     1      -0.220  46.555   8.587  1.00  0.00     0.000 C 
BRANCH   3   4
ATOM      4  C   UNL     1       0.547  47.838   8.207  1.00  0.00     0.000 C 
BRANCH   4   5
ATOM      5  C   UNL     1       2.052  47.648   7.946  1.00  0.00     0.000 C 
BRANCH   5   6
ATOM      6  C   UNL     1       2.856  47.415   9.236  1.00  0.00     0.000 C 
BRANCH   6   7
ATOM      7  C   UNL     1       4.112  46.552   9.007  1.00  0.00     0.006 C 
BRANCH   7   8
ATOM      8  C   UNL     1       5.262  46.830   9.987  1.00  0.00     0.053 C 
BRANCH   8   9
ATOM      9  C   UNL     1       6.306  47.723   9.389  1.00  0.00     0.041 C 
ATOM     10  O   UNL     1       5.969  48.770   8.776  1.00  0.00    -0.550 OA
ATOM     11  O   UNL     1       7.652  47.416   9.538  1.00  0.00    -0.550 OA
ENDBRANCH   8   9
ENDBRANCH   7   8
ENDBRANCH   6   7
ENDBRANCH   5   6
ENDBRANCH   4   5
ENDBRANCH   3   4
ENDBRANCH   2   3
ENDBRANCH   1   2
BRANCH   1  12
ATOM     12  C   UNL     1       0.701  44.790  10.573  1.00  0.00     0.000 C 
BRANCH  12  13
ATOM     13  C   UNL     1       1.505  43.990  11.608  1.00  0.00    -0.000 C 
BRANCH  13  14
ATOM     14  C   UNL     1       2.845  44.655  11.962  1.00  0.00    -0.000 C 
BRANCH  14  15
ATOM     15  C   UNL     1       4.033  43.682  11.857  1.00  0.00    -0.000 C 
BRANCH  15  16
ATOM     16  C   UNL     1       3.715  42.452  10.989  1.00  0.00    -0.000 C 
BRANCH  16  17
ATOM     17  C   UNL     1       3.264  41.240  11.818  1.00  0.00    -0.000 C 
BRANCH  17  18
ATOM     18  C   UNL     1       4.441  40.649  12.608  1.00  0.00    -0.000 C 
BRANCH  18  19
ATOM     19  C   UNL     1       4.154  39.229  13.123  1.00  0.00    -0.003 C 
ATOM     20  C   UNL     1       2.822  38.674  12.616  1.00  0.00     0.004 C 
ENDBRANCH  18  19
ENDBRANCH  17  18
ENDBRANCH  16  17
ENDBRANCH  15  16
ENDBRANCH  14  15
ENDBRANCH  13  14
ENDBRANCH  12  13
ENDBRANCH   1  12
TORSDOF 16
ENDMDL
MODEL 4
REMARK VINA RESULT:    -4.892      1.311      4.061
REMARK INTER + INTRA:         -11.513
REMARK INTER:                  -9.148
REMARK INTRA:                  -2.365
REMARK UNBOUND:                -2.045
REMARK SMILES CCCCCCCCCCCCCCCCCC(=O)[O-]
REMARK SMILES IDX 10 1 11 2 12 3 13 4 14 5 15 6 16 7 17 8 18 9 19 10 20 11
REMARK SMILES IDX 9 12 8 13 7 14 6 15 5 16 4 17 3 18 2 19 1 20
REMARK H PARENT
REMARK Flexibility Score: inf
ROOT
ATOM      1  C   UNL     1       3.781  47.534   8.276  1.00  0.00     0.000 C 
ENDROOT
BRANCH   1   2
ATOM      2  C   UNL     1       4.793  46.958   9.284  1.00  0.00     0.000 C 
BRANCH   2   3
ATOM      3  C   UNL     1       4.452  45.552   9.817  1.00  0.00     0.000 C 
BRANCH   3   4
ATOM      4  C   UNL     1       4.140  45.479  11.327  1.00  0.00     0.000 C 
BRANCH   4   5
ATOM      5  C   UNL     1       4.042  44.057  11.906  1.00  0.00     0.000 C 
BRANCH   5   6
ATOM      6  C   UNL     1       4.068  42.967  10.821  1.00  0.00     0.000 C 
BRANCH   6   7
ATOM      7  C   UNL     1       2.909  41.962  10.959  1.00  0.00     0.006 C 
BRANCH   7   8
ATOM      8  C   UNL     1       2.710  41.413  12.380  1.00  0.00     0.053 C 
BRANCH   8   9
ATOM      9  C   UNL     1       3.502  40.163  12.615  1.00  0.00     0.041 C 
ATOM     10  O   UNL     1       2.937  39.038  12.578  1.00  0.00    -0.550 OA
ATOM     11  O   UNL     1       4.870  40.239  12.842  1.00  0.00    -0.550 OA
ENDBRANCH   8   9
ENDBRANCH   7   8
ENDBRANCH   6   7
ENDBRANCH   5   6
ENDBRANCH   4   5
ENDBRANCH   3   4
ENDBRANCH   2   3
ENDBRANCH   1   2
BRANCH   1  12
ATOM     12  C   UNL     1       2.401  47.795   8.899  1.00  0.00     0.000 C 
BRANCH  12  13
ATOM     13  C   UNL     1       1.498  48.566   7.925  1.00  0.00    -0.000 C 
BRANCH  13  14
ATOM     14  C   UNL     1       0.002  48.336   8.194  1.00  0.00    -0.000 C 
BRANCH  14  15
ATOM     15  C   UNL     1      -0.597  47.237   7.298  1.00  0.00    -0.000 C 
BRANCH  15  16
ATOM     16  C   UNL     1      -0.756  45.896   8.035  1.00  0.00    -0.000 C 
BRANCH  16  17
ATOM     17  C   UNL     1       0.364  44.898   7.701  1.00  0.00    -0.000 C 
BRANCH  17  18
ATOM     18  C   UNL     1       1.002  44.343   8.983  1.00  0.00    -0.000 C 
BRANCH  18  19
ATOM     19  C   UNL     1       0.805  45.272  10.192  1.00  0.00    -0.003 C 
ATOM     20  C   UNL     1       0.277  44.536  11.423  1.00  0.00     0.004 C 
ENDBRANCH  18  19
ENDBRANCH  17  18
ENDBRANCH  16  17
ENDBRANCH  15  16
ENDBRANCH  14  15
ENDBRANCH  13  14
ENDBRANCH  12  13
ENDBRANCH   1  12
TORSDOF 16
ENDMDL
MODEL 5
REMARK VINA RESULT:    -4.867      3.151      5.825
REMARK INTER + INTRA:         -11.466
REMARK INTER:                  -9.250
REMARK INTRA:                  -2.216
REMARK UNBOUND:                -2.045
REMARK SMILES CCCCCCCCCCCCCCCCCC(=O)[O-]
REMARK SMILES IDX 10 1 11 2 12 3 13 4 14 5 15 6 16 7 17 8 18 9 19 10 20 11
REMARK SMILES IDX 9 12 8 13 7 14 6 15 5 16 4 17 3 18 2 19 1 20
REMARK H PARENT
REMARK Flexibility Score: inf
ROOT
ATOM      1  C   UNL     1       2.944  42.927   9.279  1.00  0.00     0.000 C 
ENDROOT
BRANCH   1   2
ATOM      2  C   UNL     1       3.159  42.276  10.657  1.00  0.00     0.000 C 
BRANCH   2   3
ATOM      3  C   UNL     1       2.364  42.919  11.812  1.00  0.00     0.000 C 
BRANCH   3   4
ATOM      4  C   UNL     1       3.038  44.138  12.474  1.00  0.00     0.000 C 
BRANCH   4   5
ATOM      5  C   UNL     1       4.316  44.637  11.777  1.00  0.00     0.000 C 
BRANCH   5   6
ATOM      6  C   UNL     1       4.111  45.970  11.037  1.00  0.00     0.000 C 
BRANCH   6   7
ATOM      7  C   UNL     1       4.930  46.062   9.736  1.00  0.00     0.006 C 
BRANCH   7   8
ATOM      8  C   UNL     1       4.962  47.462   9.102  1.00  0.00     0.053 C 
BRANCH   8   9
ATOM      9  C   UNL     1       6.326  48.077   9.168  1.00  0.00     0.041 C 
ATOM     10  O   UNL     1       7.318  47.384   9.516  1.00  0.00    -0.550 OA
ATOM     11  O   UNL     1       6.507  49.408   8.814  1.00  0.00    -0.550 OA
ENDBRANCH   8   9
ENDBRANCH   7   8
ENDBRANCH   6   7
ENDBRANCH   5   6
ENDBRANCH   4   5
ENDBRANCH   3   4
ENDBRANCH   2   3
ENDBRANCH   1   2
BRANCH   1  12
ATOM     12  C   UNL     1       1.493  43.377   9.051  1.00  0.00     0.000 C 
BRANCH  12  13
ATOM     13  C   UNL     1       1.408  44.904   8.912  1.00  0.00    -0.000 C 
BRANCH  13  14
ATOM     14  C   UNL     1       0.612  45.561  10.053  1.00  0.00    -0.000 C 
BRANCH  14  15
ATOM     15  C   UNL     1      -0.721  46.161   9.573  1.00  0.00    -0.000 C 
BRANCH  15  16
ATOM     16  C   UNL     1      -0.935  45.990   8.060  1.00  0.00    -0.000 C 
BRANCH  16  17
ATOM     17  C   UNL     1      -0.829  47.317   7.291  1.00  0.00    -0.000 C 
BRANCH  17  18
ATOM     18  C   UNL     1      -0.654  48.497   8.258  1.00  0.00    -0.000 C 
BRANCH  18  19
ATOM     19  C   UNL     1       0.639  49.286   7.999  1.00  0.00    -0.003 C 
ATOM     20  C   UNL     1       1.852  48.380   7.785  1.00  0.00     0.004 C 
ENDBRANCH  18  19
ENDBRANCH  17  18
ENDBRANCH  16  17
ENDBRANCH  15  16
ENDBRANCH  14  15
ENDBRANCH  13  14
ENDBRANCH  12  13
ENDBRANCH   1  12
TORSDOF 16
ENDMDL
MODEL 6
REMARK VINA RESULT:    -4.852      1.028      2.459
REMARK INTER + INTRA:         -11.435
REMARK INTER:                  -9.638
REMARK INTRA:                  -1.798
REMARK UNBOUND:                -2.045
REMARK SMILES CCCCCCCCCCCCCCCCCC(=O)[O-]
REMARK SMILES IDX 10 1 11 2 12 3 13 4 14 5 15 6 16 7 17 8 18 9 19 10 20 11
REMARK SMILES IDX 9 12 8 13 7 14 6 15 5 16 4 17 3 18 2 19 1 20
REMARK H PARENT
REMARK Flexibility Score: inf
ROOT
ATOM      1  C   UNL     1       1.518  43.915   9.126  1.00  0.00     0.000 C 
ENDROOT
BRANCH   1   2
ATOM      2  C   UNL     1       2.875  43.298   8.742  1.00  0.00     0.000 C 
BRANCH   2   3
ATOM      3  C   UNL     1       4.061  43.731   9.627  1.00  0.00     0.000 C 
BRANCH   3   4
ATOM      4  C   UNL     1       3.710  44.721  10.757  1.00  0.00     0.000 C 
BRANCH   4   5
ATOM      5  C   UNL     1       3.463  44.079  12.134  1.00  0.00     0.000 C 
BRANCH   5   6
ATOM      6  C   UNL     1       2.002  43.639  12.333  1.00  0.00     0.000 C 
BRANCH   6   7
ATOM      7  C   UNL     1       1.856  42.113  12.489  1.00  0.00     0.006 C 
BRANCH   7   8
ATOM      8  C   UNL     1       2.994  41.298  11.855  1.00  0.00     0.053 C 
BRANCH   8   9
ATOM      9  C   UNL     1       3.261  40.030  12.606  1.00  0.00     0.041 C 
ATOM     10  O   UNL     1       2.320  39.233  12.860  1.00  0.00    -0.550 OA
ATOM     11  O   UNL     1       4.556  39.712  12.997  1.00  0.00    -0.550 OA
ENDBRANCH   8   9
ENDBRANCH   7   8
ENDBRANCH   6   7
ENDBRANCH   5   6
ENDBRANCH   4   5
ENDBRANCH   3   4
ENDBRANCH   2   3
ENDBRANCH   1   2
BRANCH   1  12
ATOM     12  C   UNL     1       0.716  44.399   7.909  1.00  0.00     0.000 C 
BRANCH  12  13
ATOM     13  C   UNL     1       0.285  45.862   8.084  1.00  0.00    -0.000 C 
BRANCH  13  14
ATOM     14  C   UNL     1       0.789  46.477   9.400  1.00  0.00    -0.000 C 
BRANCH  14  15
ATOM     15  C   UNL     1       1.612  47.758   9.176  1.00  0.00    -0.000 C 
BRANCH  15  16
ATOM     16  C   UNL     1       2.236  47.821   7.771  1.00  0.00    -0.000 C 
BRANCH  16  17
ATOM     17  C   UNL     1       3.763  47.992   7.806  1.00  0.00    -0.000 C 
BRANCH  17  18
ATOM     18  C   UNL     1       4.353  47.380   9.084  1.00  0.00    -0.000 C 
BRANCH  18  19
ATOM     19  C   UNL     1       5.886  47.475   9.132  1.00  0.00    -0.003 C 
ATOM     20  C   UNL     1       6.390  48.918   9.102  1.00  0.00     0.004 C 
ENDBRANCH  18  19
ENDBRANCH  17  18
ENDBRANCH  16  17
ENDBRANCH  15  16
ENDBRANCH  14  15
ENDBRANCH  13  14
ENDBRANCH  12  13
ENDBRANCH   1  12
TORSDOF 16
ENDMDL
MODEL 7
REMARK VINA RESULT:    -4.781      1.482      2.294
REMARK INTER + INTRA:         -11.297
REMARK INTER:                  -8.721
REMARK INTRA:                  -2.577
REMARK UNBOUND:                -2.045
REMARK SMILES CCCCCCCCCCCCCCCCCC(=O)[O-]
REMARK SMILES IDX 10 1 11 2 12 3 13 4 14 5 15 6 16 7 17 8 18 9 19 10 20 11
REMARK SMILES IDX 9 12 8 13 7 14 6 15 5 16 4 17 3 18 2 19 1 20
REMARK H PARENT
REMARK Flexibility Score: inf
ROOT
ATOM      1  C   UNL     1      -0.739  46.771   7.071  1.00  0.00     0.000 C 
ENDROOT
BRANCH   1   2
ATOM      2  C   UNL     1      -0.699  45.337   7.628  1.00  0.00     0.000 C 
BRANCH   2   3
ATOM      3  C   UNL     1       0.686  44.659   7.580  1.00  0.00     0.000 C 
BRANCH   3   4
ATOM      4  C   UNL     1       1.198  44.113   8.928  1.00  0.00     0.000 C 
BRANCH   4   5
ATOM      5  C   UNL     1       0.677  44.853  10.173  1.00  0.00     0.000 C 
BRANCH   5   6
ATOM      6  C   UNL     1       1.338  44.370  11.475  1.00  0.00     0.000 C 
BRANCH   6   7
ATOM      7  C   UNL     1       2.754  44.944  11.672  1.00  0.00     0.006 C 
BRANCH   7   8
ATOM      8  C   UNL     1       3.801  43.912  12.120  1.00  0.00     0.053 C 
BRANCH   8   9
ATOM      9  C   UNL     1       3.878  42.747  11.182  1.00  0.00     0.041 C 
ATOM     10  O   UNL     1       3.589  41.589  11.584  1.00  0.00    -0.550 OA
ATOM     11  O   UNL     1       4.236  42.945   9.854  1.00  0.00    -0.550 OA
ENDBRANCH   8   9
ENDBRANCH   7   8
ENDBRANCH   6   7
ENDBRANCH   5   6
ENDBRANCH   4   5
ENDBRANCH   3   4
ENDBRANCH   2   3
ENDBRANCH   1   2
BRANCH   1  12
ATOM     12  C   UNL     1      -0.910  47.834   8.167  1.00  0.00     0.000 C 
BRANCH  12  13
ATOM     13  C   UNL     1       0.440  48.174   8.816  1.00  0.00    -0.000 C 
BRANCH  13  14
ATOM     14  C   UNL     1       1.422  48.833   7.833  1.00  0.00    -0.000 C 
BRANCH  14  15
ATOM     15  C   UNL     1       2.734  48.043   7.691  1.00  0.00    -0.000 C 
BRANCH  15  16
ATOM     16  C   UNL     1       3.135  47.323   8.990  1.00  0.00    -0.000 C 
BRANCH  16  17
ATOM     17  C   UNL     1       4.397  46.462   8.828  1.00  0.00    -0.000 C 
BRANCH  17  18
ATOM     18  C   UNL     1       5.406  46.754   9.948  1.00  0.00    -0.000 C 
BRANCH  18  19
ATOM     19  C   UNL     1       6.670  47.462   9.435  1.00  0.00    -0.003 C 
ATOM     20  C   UNL     1       6.409  48.909   9.016  1.00  0.00     0.004 C 
ENDBRANCH  18  19
ENDBRANCH  17  18
ENDBRANCH  16  17
ENDBRANCH  15  16
ENDBRANCH  14  15
ENDBRANCH  13  14
ENDBRANCH  12  13
ENDBRANCH   1  12
TORSDOF 16
ENDMDL
MODEL 8
REMARK VINA RESULT:    -4.745      3.115      6.181
REMARK INTER + INTRA:         -11.229
REMARK INTER:                  -9.134
REMARK INTRA:                  -2.095
REMARK UNBOUND:                -2.045
REMARK SMILES CCCCCCCCCCCCCCCCCC(=O)[O-]
REMARK SMILES IDX 10 1 11 2 12 3 13 4 14 5 15 6 16 7 17 8 18 9 19 10 20 11
REMARK SMILES IDX 9 12 8 13 7 14 6 15 5 16 4 17 3 18 2 19 1 20
REMARK H PARENT
REMARK Flexibility Score: inf
ROOT
ATOM      1  C   UNL     1      -0.956  46.233   7.978  1.00  0.00     0.000 C 
ENDROOT
BRANCH   1   2
ATOM      2  C   UNL     1      -0.596  47.627   7.432  1.00  0.00     0.000 C 
BRANCH   2   3
ATOM      3  C   UNL     1       0.230  48.508   8.391  1.00  0.00     0.000 C 
BRANCH   3   4
ATOM      4  C   UNL     1       1.518  49.106   7.789  1.00  0.00     0.000 C 
BRANCH   4   5
ATOM      5  C   UNL     1       2.683  48.114   7.621  1.00  0.00     0.000 C 
BRANCH   5   6
ATOM      6  C   UNL     1       2.991  47.332   8.909  1.00  0.00     0.000 C 
BRANCH   6   7
ATOM      7  C   UNL     1       4.345  46.601   8.852  1.00  0.00     0.006 C 
BRANCH   7   8
ATOM      8  C   UNL     1       5.329  46.998   9.964  1.00  0.00     0.053 C 
BRANCH   8   9
ATOM      9  C   UNL     1       6.486  47.789   9.433  1.00  0.00     0.041 C 
ATOM     10  O   UNL     1       7.650  47.311   9.468  1.00  0.00    -0.550 OA
ATOM     11  O   UNL     1       6.272  49.041   8.870  1.00  0.00    -0.550 OA
ENDBRANCH   8   9
ENDBRANCH   7   8
ENDBRANCH   6   7
ENDBRANCH   5   6
ENDBRANCH   4   5
ENDBRANCH   3   4
ENDBRANCH   2   3
ENDBRANCH   1   2
BRANCH   1  12
ATOM     12  C   UNL     1       0.002  45.135   7.493  1.00  0.00     0.000 C 
BRANCH  12  13
ATOM     13  C   UNL     1       0.775  44.522   8.669  1.00  0.00    -0.000 C 
BRANCH  13  14
ATOM     14  C   UNL     1       0.421  45.173  10.016  1.00  0.00    -0.000 C 
BRANCH  14  15
ATOM     15  C   UNL     1       1.245  44.601  11.184  1.00  0.00    -0.000 C 
BRANCH  15  16
ATOM     16  C   UNL     1       2.643  44.133  10.746  1.00  0.00    -0.000 C 
BRANCH  16  17
ATOM     17  C   UNL     1       3.623  44.006  11.923  1.00  0.00    -0.000 C 
BRANCH  17  18
ATOM     18  C   UNL     1       4.155  42.570  12.040  1.00  0.00    -0.000 C 
BRANCH  18  19
ATOM     19  C   UNL     1       3.089  41.516  11.701  1.00  0.00    -0.003 C 
ATOM     20  C   UNL     1       3.271  40.217  12.485  1.00  0.00     0.004 C 
ENDBRANCH  18  19
ENDBRANCH  17  18
ENDBRANCH  16  17
ENDBRANCH  15  16
ENDBRANCH  14  15
ENDBRANCH  13  14
ENDBRANCH  12  13
ENDBRANCH   1  12
TORSDOF 16
ENDMDL
MODEL 9
REMARK VINA RESULT:    -4.728      1.660      2.761
REMARK INTER + INTRA:         -11.196
REMARK INTER:                  -9.118
REMARK INTRA:                  -2.078
REMARK UNBOUND:                -2.045
REMARK SMILES CCCCCCCCCCCCCCCCCC(=O)[O-]
REMARK SMILES IDX 10 1 11 2 12 3 13 4 14 5 15 6 16 7 17 8 18 9 19 10 20 11
REMARK SMILES IDX 9 12 8 13 7 14 6 15 5 16 4 17 3 18 2 19 1 20
REMARK H PARENT
REMARK Flexibility Score: inf
ROOT
ATOM      1  C   UNL     1       1.183  45.009  10.406  1.00  0.00     0.000 C 
ENDROOT
BRANCH   1   2
ATOM      2  C   UNL     1       1.965  44.107   9.435  1.00  0.00     0.000 C 
BRANCH   2   3
ATOM      3  C   UNL     1       3.486  44.047   9.684  1.00  0.00     0.000 C 
BRANCH   3   4
ATOM      4  C   UNL     1       3.946  44.558  11.065  1.00  0.00     0.000 C 
BRANCH   4   5
ATOM      5  C   UNL     1       3.970  43.498  12.180  1.00  0.00     0.000 C 
BRANCH   5   6
ATOM      6  C   UNL     1       3.865  42.061  11.639  1.00  0.00     0.000 C 
BRANCH   6   7
ATOM      7  C   UNL     1       2.635  41.310  12.183  1.00  0.00     0.006 C 
BRANCH   7   8
ATOM      8  C   UNL     1       1.447  42.214  12.549  1.00  0.00     0.053 C 
BRANCH   8   9
ATOM      9  C   UNL     1       0.437  41.500  13.393  1.00  0.00     0.041 C 
ATOM     10  O   UNL     1       0.748  40.437  13.992  1.00  0.00    -0.550 OA
ATOM     11  O   UNL     1      -0.839  42.026  13.545  1.00  0.00    -0.550 OA
ENDBRANCH   8   9
ENDBRANCH   7   8
ENDBRANCH   6   7
ENDBRANCH   5   6
ENDBRANCH   4   5
ENDBRANCH   3   4
ENDBRANCH   2   3
ENDBRANCH   1   2
BRANCH   1  12
ATOM     12  C   UNL     1       0.055  45.792   9.717  1.00  0.00     0.000 C 
BRANCH  12  13
ATOM     13  C   UNL     1       0.085  45.573   8.197  1.00  0.00    -0.000 C 
BRANCH  13  14
ATOM     14  C   UNL     1       0.083  46.892   7.407  1.00  0.00    -0.000 C 
BRANCH  14  15
ATOM     15  C   UNL     1       0.782  48.035   8.165  1.00  0.00    -0.000 C 
BRANCH  15  16
ATOM     16  C   UNL     1       2.265  48.176   7.784  1.00  0.00    -0.000 C 
BRANCH  16  17
ATOM     17  C   UNL     1       3.211  47.602   8.851  1.00  0.00    -0.000 C 
BRANCH  17  18
ATOM     18  C   UNL     1       4.677  47.742   8.415  1.00  0.00    -0.000 C 
BRANCH  18  19
ATOM     19  C   UNL     1       5.655  47.126   9.428  1.00  0.00    -0.003 C 
ATOM     20  C   UNL     1       7.020  47.816   9.426  1.00  0.00     0.004 C 
ENDBRANCH  18  19
ENDBRANCH  17  18
ENDBRANCH  16  17
ENDBRANCH  15  16
ENDBRANCH  14  15
ENDBRANCH  13  14
ENDBRANCH  12  13
ENDBRANCH   1  12
TORSDOF 16
ENDMDL
