MODEL 1
REMARK VINA RESULT:    34.920      0.000      0.000
REMARK INTER + INTRA:          49.844
REMARK INTER:                  48.189
REMARK INTRA:                   1.655
REMARK UNBOUND:                 1.655
REMARK SMILES CC[C@H](CC[C@@H](C)[C@@H]1CC[C@@H]2[C@@H]3CC=C4C[C@H](O)CC[C@]4(C)[C@H]3CC[C@]21C)C(C)C
REMARK SMILES IDX 5 1 4 2 3 3 2 4 1 5 28 6 29 7 30 8 6 9 7 10 8 11 9 12 26 13
REMARK SMILES IDX 10 14 11 15 25 16 27 17 12 18 24 19 23 20 13 21 21 22 14 23
REMARK SMILES IDX 15 24 20 25 22 26 16 27 19 28 17 29 18 30
REMARK H PARENT 18 31
REMARK Flexibility Score: inf
ROOT
ATOM      1  C   UNL     1      -0.693  60.392  -7.382  1.00  0.00     0.004 C 
ENDROOT
BRANCH   1   2
ATOM      2  C   UNL     1       0.292  59.285  -7.835  1.00  0.00     0.004 C 
BRANCH   2   3
ATOM      3  C   UNL     1       1.780  59.680  -8.123  1.00  0.00    -0.009 C 
BRANCH   3   4
ATOM      4  C   UNL     1       1.963  61.216  -7.935  1.00  0.00     0.000 C 
ATOM      5  C   UNL     1       2.552  61.606  -6.572  1.00  0.00     0.004 C 
ENDBRANCH   3   4
BRANCH   3   6
ATOM      6  C   UNL     1       2.845  58.875  -7.301  1.00  0.00    -0.014 C 
ATOM      7  C   UNL     1       4.289  59.193  -7.723  1.00  0.00     0.007 C 
ATOM      8  C   UNL     1       2.703  59.043  -5.778  1.00  0.00     0.007 C 
ENDBRANCH   3   6
ENDBRANCH   2   3
ENDBRANCH   1   2
BRANCH   1   9
ATOM      9  C   UNL     1      -2.065  59.906  -6.834  1.00  0.00    -0.011 C 
ATOM     10  C   UNL     1      -2.721  58.945  -7.852  1.00  0.00     0.008 C 
BRANCH   9  11
ATOM     11  C   UNL     1      -1.878  59.214  -5.425  1.00  0.00    -0.002 C 
ATOM     12  C   UNL     1      -3.211  58.875  -4.697  1.00  0.00     0.005 C 
ATOM     13  C   UNL     1      -1.059  59.983  -4.328  1.00  0.00    -0.026 C 
ATOM     14  C   UNL     1      -2.939  58.934  -3.181  1.00  0.00     0.005 C 
ATOM     15  C   UNL     1      -1.439  59.159  -3.081  1.00  0.00    -0.001 C 
ATOM     16  C   UNL     1       0.500  59.933  -4.487  1.00  0.00     0.007 C 
ATOM     17  C   UNL     1      -1.570  61.461  -4.260  1.00  0.00     0.012 C 
ATOM     18  C   UNL     1      -0.798  59.598  -1.728  1.00  0.00     0.000 C 
ATOM     19  C   UNL     1       1.298  59.751  -3.162  1.00  0.00     0.005 C 
ATOM     20  C   UNL     1       0.549  60.343  -1.943  1.00  0.00     0.003 C 
ATOM     21  C   UNL     1      -1.684  60.422  -0.788  1.00  0.00     0.031 C 
ATOM     22  C   UNL     1       1.360  60.452  -0.600  1.00  0.00    -0.008 C 
ATOM     23  C   UNL     1      -0.932  60.780   0.473  1.00  0.00    -0.027 C 
ATOM     24  C   UNL     1       0.422  60.873   0.550  1.00  0.00    -0.065 C 
ATOM     25  C   UNL     1       2.460  61.555  -0.764  1.00  0.00     0.014 C 
ATOM     26  C   UNL     1       2.039  59.099  -0.242  1.00  0.00     0.016 C 
ATOM     27  C   UNL     1       1.049  61.308   1.861  1.00  0.00     0.063 C 
ATOM     28  C   UNL     1       3.129  61.986   0.558  1.00  0.00     0.033 C 
ATOM     29  C   UNL     1       2.108  62.399   1.633  1.00  0.00     0.118 C 
BRANCH  29  30
ATOM     30  O   UNL     1       1.514  63.642   1.331  1.00  0.00    -0.393 OA
ATOM     31  H   UNL     1       2.214  64.344   1.388  1.00  0.00     0.210 HD
ENDBRANCH  29  30
ENDBRANCH   9  11
ENDBRANCH   1   9
TORSDOF 7
ENDMDL
MODEL 2
REMARK VINA RESULT:    36.809     16.419     20.223
REMARK INTER + INTRA:          52.451
REMARK INTER:                  53.427
REMARK INTRA:                  -0.976
REMARK UNBOUND:                 1.655
REMARK SMILES CC[C@H](CC[C@@H](C)[C@@H]1CC[C@@H]2[C@@H]3CC=C4C[C@H](O)CC[C@]4(C)[C@H]3CC[C@]21C)C(C)C
REMARK SMILES IDX 5 1 4 2 3 3 2 4 1 5 28 6 29 7 30 8 6 9 7 10 8 11 9 12 26 13
REMARK SMILES IDX 10 14 11 15 25 16 27 17 12 18 24 19 23 20 13 21 21 22 14 23
REMARK SMILES IDX 15 24 20 25 22 26 16 27 19 28 17 29 18 30
REMARK H PARENT 18 31
REMARK Flexibility Score: inf
ROOT
ATOM      1  C   UNL     1       6.443  77.477   6.981  1.00  0.00     0.004 C 
ENDROOT
BRANCH   1   2
ATOM      2  C   UNL     1       6.114  77.450   5.467  1.00  0.00     0.004 C 
BRANCH   2   3
ATOM      3  C   UNL     1       7.003  78.297   4.494  1.00  0.00    -0.009 C 
BRANCH   3   4
ATOM      4  C   UNL     1       8.508  78.082   4.834  1.00  0.00     0.000 C 
ATOM      5  C   UNL     1       9.468  78.738   3.831  1.00  0.00     0.004 C 
ENDBRANCH   3   4
BRANCH   3   6
ATOM      6  C   UNL     1       6.722  78.058   2.970  1.00  0.00    -0.014 C 
ATOM      7  C   UNL     1       6.228  76.633   2.671  1.00  0.00     0.007 C 
ATOM      8  C   UNL     1       5.751  79.082   2.356  1.00  0.00     0.007 C 
ENDBRANCH   3   6
ENDBRANCH   2   3
ENDBRANCH   1   2
BRANCH   1   9
ATOM      9  C   UNL     1       5.228  77.388   7.948  1.00  0.00    -0.011 C 
ATOM     10  C   UNL     1       5.622  77.949   9.334  1.00  0.00     0.008 C 
BRANCH   9  11
ATOM     11  C   UNL     1       3.989  78.164   7.343  1.00  0.00    -0.002 C 
ATOM     12  C   UNL     1       3.232  79.057   8.366  1.00  0.00     0.005 C 
ATOM     13  C   UNL     1       2.839  77.321   6.687  1.00  0.00    -0.026 C 
ATOM     14  C   UNL     1       1.758  79.125   7.922  1.00  0.00     0.005 C 
ATOM     15  C   UNL     1       1.739  78.397   6.587  1.00  0.00    -0.001 C 
ATOM     16  C   UNL     1       3.129  76.787   5.241  1.00  0.00     0.007 C 
ATOM     17  C   UNL     1       2.459  76.149   7.653  1.00  0.00     0.012 C 
ATOM     18  C   UNL     1       0.384  77.957   5.950  1.00  0.00     0.000 C 
ATOM     19  C   UNL     1       1.929  76.861   4.252  1.00  0.00     0.005 C 
ATOM     20  C   UNL     1       0.565  76.758   4.979  1.00  0.00     0.003 C 
ATOM     21  C   UNL     1      -0.760  77.649   6.922  1.00  0.00     0.031 C 
ATOM     22  C   UNL     1      -0.705  76.562   4.072  1.00  0.00    -0.008 C 
ATOM     23  C   UNL     1      -2.001  77.232   6.167  1.00  0.00    -0.027 C 
ATOM     24  C   UNL     1      -1.984  76.675   4.927  1.00  0.00    -0.065 C 
ATOM     25  C   UNL     1      -0.660  75.128   3.444  1.00  0.00     0.014 C 
ATOM     26  C   UNL     1      -0.752  77.620   2.933  1.00  0.00     0.016 C 
ATOM     27  C   UNL     1      -3.298  76.239   4.308  1.00  0.00     0.063 C 
ATOM     28  C   UNL     1      -1.980  74.682   2.783  1.00  0.00     0.033 C 
ATOM     29  C   UNL     1      -3.191  74.821   3.723  1.00  0.00     0.118 C 
BRANCH  29  30
ATOM     30  O   UNL     1      -3.172  73.842   4.738  1.00  0.00    -0.393 OA
ATOM     31  H   UNL     1      -4.091  73.750   5.101  1.00  0.00     0.210 HD
ENDBRANCH  29  30
ENDBRANCH   9  11
ENDBRANCH   1   9
TORSDOF 7
ENDMDL
