MODEL 1
REMARK VINA RESULT:    -4.104      0.000      0.000
REMARK INTER + INTRA:          -8.723
REMARK INTER:                  -6.983
REMARK INTRA:                  -1.740
REMARK UNBOUND:                -1.740
REMARK SMILES CCCCCCCCCCCCCC(=O)[O-]
REMARK SMILES IDX 8 1 9 2 10 3 11 4 12 5 13 6 14 7 15 8 16 9 7 10 6 11 5 12
REMARK SMILES IDX 4 13 3 14 2 15 1 16
REMARK H PARENT
REMARK Flexibility Score: inf
ROOT
ATOM      1  C   UNL     1      -4.711  44.152  19.185  1.00  0.00     0.000 C 
ENDROOT
BRANCH   1   2
ATOM      2  C   UNL     1      -3.601  45.160  19.531  1.00  0.00     0.000 C 
BRANCH   2   3
ATOM      3  C   UNL     1      -2.747  44.718  20.728  1.00  0.00     0.000 C 
BRANCH   3   4
ATOM      4  C   UNL     1      -1.562  43.859  20.269  1.00  0.00     0.000 C 
BRANCH   4   5
ATOM      5  C   UNL     1      -0.620  43.549  21.442  1.00  0.00     0.006 C 
BRANCH   5   6
ATOM      6  C   UNL     1      -1.099  44.183  22.754  1.00  0.00     0.053 C 
BRANCH   6   7
ATOM      7  C   UNL     1      -0.281  43.723  23.923  1.00  0.00     0.041 C 
ATOM      8  O   UNL     1       0.971  43.637  23.825  1.00  0.00    -0.550 OA
ATOM      9  O   UNL     1      -0.900  43.422  25.130  1.00  0.00    -0.550 OA
ENDBRANCH   6   7
ENDBRANCH   5   6
ENDBRANCH   4   5
ENDBRANCH   3   4
ENDBRANCH   2   3
ENDBRANCH   1   2
BRANCH   1  10
ATOM     10  C   UNL     1      -5.491  43.601  20.394  1.00  0.00     0.000 C 
BRANCH  10  11
ATOM     11  C   UNL     1      -5.397  42.075  20.595  1.00  0.00    -0.000 C 
BRANCH  11  12
ATOM     12  C   UNL     1      -4.426  41.624  21.700  1.00  0.00    -0.000 C 
BRANCH  12  13
ATOM     13  C   UNL     1      -5.001  41.807  23.113  1.00  0.00    -0.000 C 
BRANCH  13  14
ATOM     14  C   UNL     1      -4.034  42.604  23.999  1.00  0.00    -0.000 C 
BRANCH  14  15
ATOM     15  C   UNL     1      -4.692  43.845  24.623  1.00  0.00    -0.003 C 
ATOM     16  C   UNL     1      -4.681  45.054  23.688  1.00  0.00     0.004 C 
ENDBRANCH  14  15
ENDBRANCH  13  14
ENDBRANCH  12  13
ENDBRANCH  11  12
ENDBRANCH  10  11
ENDBRANCH   1  10
TORSDOF 12
ENDMDL
MODEL 2
REMARK VINA RESULT:    -4.079      2.066      3.433
REMARK INTER + INTRA:          -8.681
REMARK INTER:                  -6.546
REMARK INTRA:                  -2.135
REMARK UNBOUND:                -1.740
REMARK SMILES CCCCCCCCCCCCCC(=O)[O-]
REMARK SMILES IDX 8 1 9 2 10 3 11 4 12 5 13 6 14 7 15 8 16 9 7 10 6 11 5 12
REMARK SMILES IDX 4 13 3 14 2 15 1 16
REMARK H PARENT
REMARK Flexibility Score: inf
ROOT
ATOM      1  C   UNL     1      -2.144  44.194  18.924  1.00  0.00     0.000 C 
ENDROOT
BRANCH   1   2
ATOM      2  C   UNL     1      -1.269  43.840  20.140  1.00  0.00     0.000 C 
BRANCH   2   3
ATOM      3  C   UNL     1      -1.783  44.463  21.446  1.00  0.00     0.000 C 
BRANCH   3   4
ATOM      4  C   UNL     1      -1.029  43.901  22.657  1.00  0.00     0.000 C 
BRANCH   4   5
ATOM      5  C   UNL     1      -1.756  44.243  23.965  1.00  0.00     0.006 C 
BRANCH   5   6
ATOM      6  C   UNL     1      -3.113  44.914  23.717  1.00  0.00     0.053 C 
BRANCH   6   7
ATOM      7  C   UNL     1      -4.118  44.535  24.762  1.00  0.00     0.041 C 
ATOM      8  O   UNL     1      -4.844  43.519  24.605  1.00  0.00    -0.550 OA
ATOM      9  O   UNL     1      -4.230  45.288  25.924  1.00  0.00    -0.550 OA
ENDBRANCH   6   7
ENDBRANCH   5   6
ENDBRANCH   4   5
ENDBRANCH   3   4
ENDBRANCH   2   3
ENDBRANCH   1   2
BRANCH   1  10
ATOM     10  C   UNL     1      -3.460  44.923  19.259  1.00  0.00     0.000 C 
BRANCH  10  11
ATOM     11  C   UNL     1      -4.725  44.042  19.220  1.00  0.00    -0.000 C 
BRANCH  11  12
ATOM     12  C   UNL     1      -5.421  43.845  20.579  1.00  0.00    -0.000 C 
BRANCH  12  13
ATOM     13  C   UNL     1      -4.979  42.561  21.296  1.00  0.00    -0.000 C 
BRANCH  13  14
ATOM     14  C   UNL     1      -4.434  41.533  20.293  1.00  0.00    -0.000 C 
BRANCH  14  15
ATOM     15  C   UNL     1      -3.206  40.781  20.829  1.00  0.00    -0.003 C 
ATOM     16  C   UNL     1      -3.087  40.847  22.351  1.00  0.00     0.004 C 
ENDBRANCH  14  15
ENDBRANCH  13  14
ENDBRANCH  12  13
ENDBRANCH  11  12
ENDBRANCH  10  11
ENDBRANCH   1  10
TORSDOF 12
ENDMDL
MODEL 3
REMARK VINA RESULT:    -4.009      2.142      4.030
REMARK INTER + INTRA:          -8.561
REMARK INTER:                  -6.948
REMARK INTRA:                  -1.613
REMARK UNBOUND:                -1.740
REMARK SMILES CCCCCCCCCCCCCC(=O)[O-]
REMARK SMILES IDX 8 1 9 2 10 3 11 4 12 5 13 6 14 7 15 8 16 9 7 10 6 11 5 12
REMARK SMILES IDX 4 13 3 14 2 15 1 16
REMARK H PARENT
REMARK Flexibility Score: inf
ROOT
ATOM      1  C   UNL     1      -1.046  43.438  19.789  1.00  0.00     0.000 C 
ENDROOT
BRANCH   1   2
ATOM      2  C   UNL     1      -1.144  44.062  21.193  1.00  0.00     0.000 C 
BRANCH   2   3
ATOM      3  C   UNL     1      -0.132  43.464  22.182  1.00  0.00     0.000 C 
BRANCH   3   4
ATOM      4  C   UNL     1      -0.516  43.797  23.629  1.00  0.00     0.000 C 
BRANCH   4   5
ATOM      5  C   UNL     1      -1.756  44.701  23.674  1.00  0.00     0.006 C 
BRANCH   5   6
ATOM      6  C   UNL     1      -2.748  44.271  24.763  1.00  0.00     0.053 C 
BRANCH   6   7
ATOM      7  C   UNL     1      -4.012  45.075  24.711  1.00  0.00     0.041 C 
ATOM      8  O   UNL     1      -5.092  44.588  25.138  1.00  0.00    -0.550 OA
ATOM      9  O   UNL     1      -3.990  46.375  24.220  1.00  0.00    -0.550 OA
ENDBRANCH   6   7
ENDBRANCH   5   6
ENDBRANCH   4   5
ENDBRANCH   3   4
ENDBRANCH   2   3
ENDBRANCH   1   2
BRANCH   1  10
ATOM     10  C   UNL     1      -1.732  44.245  18.669  1.00  0.00     0.000 C 
BRANCH  10  11
ATOM     11  C   UNL     1      -2.583  43.413  17.690  1.00  0.00    -0.000 C 
BRANCH  11  12
ATOM     12  C   UNL     1      -4.075  43.791  17.644  1.00  0.00    -0.000 C 
BRANCH  12  13
ATOM     13  C   UNL     1      -4.520  44.617  18.859  1.00  0.00    -0.000 C 
BRANCH  13  14
ATOM     14  C   UNL     1      -5.275  43.741  19.870  1.00  0.00    -0.000 C 
BRANCH  14  15
ATOM     15  C   UNL     1      -4.734  43.892  21.301  1.00  0.00    -0.003 C 
ATOM     16  C   UNL     1      -4.394  42.550  21.949  1.00  0.00     0.004 C 
ENDBRANCH  14  15
ENDBRANCH  13  14
ENDBRANCH  12  13
ENDBRANCH  11  12
ENDBRANCH  10  11
ENDBRANCH   1  10
TORSDOF 12
ENDMDL
MODEL 4
REMARK VINA RESULT:    -4.004      2.518      4.163
REMARK INTER + INTRA:          -8.554
REMARK INTER:                  -6.565
REMARK INTRA:                  -1.989
REMARK UNBOUND:                -1.740
REMARK SMILES CCCCCCCCCCCCCC(=O)[O-]
REMARK SMILES IDX 8 1 9 2 10 3 11 4 12 5 13 6 14 7 15 8 16 9 7 10 6 11 5 12
REMARK SMILES IDX 4 13 3 14 2 15 1 16
REMARK H PARENT
REMARK Flexibility Score: inf
ROOT
ATOM      1  C   UNL     1      -2.644  44.760  20.710  1.00  0.00     0.000 C 
ENDROOT
BRANCH   1   2
ATOM      2  C   UNL     1      -3.009  44.638  19.220  1.00  0.00     0.000 C 
BRANCH   2   3
ATOM      3  C   UNL     1      -4.436  44.117  18.997  1.00  0.00     0.000 C 
BRANCH   3   4
ATOM      4  C   UNL     1      -5.187  43.988  20.328  1.00  0.00     0.000 C 
BRANCH   4   5
ATOM      5  C   UNL     1      -5.664  42.546  20.554  1.00  0.00     0.006 C 
BRANCH   5   6
ATOM      6  C   UNL     1      -4.694  41.745  21.432  1.00  0.00     0.053 C 
BRANCH   6   7
ATOM      7  C   UNL     1      -3.938  40.724  20.636  1.00  0.00     0.041 C 
ATOM      8  O   UNL     1      -2.877  41.044  20.039  1.00  0.00    -0.550 OA
ATOM      9  O   UNL     1      -4.390  39.411  20.581  1.00  0.00    -0.550 OA
ENDBRANCH   6   7
ENDBRANCH   5   6
ENDBRANCH   4   5
ENDBRANCH   3   4
ENDBRANCH   2   3
ENDBRANCH   1   2
BRANCH   1  10
ATOM     10  C   UNL     1      -1.380  43.988  21.137  1.00  0.00     0.000 C 
BRANCH  10  11
ATOM     11  C   UNL     1      -1.072  44.019  22.647  1.00  0.00    -0.000 C 
BRANCH  11  12
ATOM     12  C   UNL     1      -2.167  43.417  23.545  1.00  0.00    -0.000 C 
BRANCH  12  13
ATOM     13  C   UNL     1      -2.876  44.470  24.410  1.00  0.00    -0.000 C 
BRANCH  13  14
ATOM     14  C   UNL     1      -4.353  44.600  24.012  1.00  0.00    -0.000 C 
BRANCH  14  15
ATOM     15  C   UNL     1      -4.687  45.981  23.426  1.00  0.00    -0.003 C 
ATOM     16  C   UNL     1      -3.652  47.045  23.789  1.00  0.00     0.004 C 
ENDBRANCH  14  15
ENDBRANCH  13  14
ENDBRANCH  12  13
ENDBRANCH  11  12
ENDBRANCH  10  11
ENDBRANCH   1  10
TORSDOF 12
ENDMDL
MODEL 5
REMARK VINA RESULT:    -4.000      1.998      4.026
REMARK INTER + INTRA:          -8.546
REMARK INTER:                  -6.845
REMARK INTRA:                  -1.701
REMARK UNBOUND:                -1.740
REMARK SMILES CCCCCCCCCCCCCC(=O)[O-]
REMARK SMILES IDX 8 1 9 2 10 3 11 4 12 5 13 6 14 7 15 8 16 9 7 10 6 11 5 12
REMARK SMILES IDX 4 13 3 14 2 15 1 16
REMARK H PARENT
REMARK Flexibility Score: inf
ROOT
ATOM      1  C   UNL     1      -4.461  43.524  21.112  1.00  0.00     0.000 C 
ENDROOT
BRANCH   1   2
ATOM      2  C   UNL     1      -4.675  44.632  22.159  1.00  0.00     0.000 C 
BRANCH   2   3
ATOM      3  C   UNL     1      -3.415  45.476  22.399  1.00  0.00     0.000 C 
BRANCH   3   4
ATOM      4  C   UNL     1      -2.146  44.646  22.173  1.00  0.00     0.000 C 
BRANCH   4   5
ATOM      5  C   UNL     1      -1.374  44.452  23.486  1.00  0.00     0.006 C 
BRANCH   5   6
ATOM      6  C   UNL     1      -1.656  43.088  24.129  1.00  0.00     0.053 C 
BRANCH   6   7
ATOM      7  C   UNL     1      -2.342  43.230  25.454  1.00  0.00     0.041 C 
ATOM      8  O   UNL     1      -2.060  42.451  26.401  1.00  0.00    -0.550 OA
ATOM      9  O   UNL     1      -3.270  44.246  25.650  1.00  0.00    -0.550 OA
ENDBRANCH   6   7
ENDBRANCH   5   6
ENDBRANCH   4   5
ENDBRANCH   3   4
ENDBRANCH   2   3
ENDBRANCH   1   2
BRANCH   1  10
ATOM     10  C   UNL     1      -5.165  43.760  19.761  1.00  0.00     0.000 C 
BRANCH  10  11
ATOM     11  C   UNL     1      -4.373  44.614  18.750  1.00  0.00    -0.000 C 
BRANCH  11  12
ATOM     12  C   UNL     1      -4.035  43.906  17.426  1.00  0.00    -0.000 C 
BRANCH  12  13
ATOM     13  C   UNL     1      -2.560  43.491  17.330  1.00  0.00    -0.000 C 
BRANCH  13  14
ATOM     14  C   UNL     1      -1.719  44.205  18.398  1.00  0.00    -0.000 C 
BRANCH  14  15
ATOM     15  C   UNL     1      -0.816  43.240  19.182  1.00  0.00    -0.003 C 
ATOM     16  C   UNL     1      -1.510  41.919  19.516  1.00  0.00     0.004 C 
ENDBRANCH  14  15
ENDBRANCH  13  14
ENDBRANCH  12  13
ENDBRANCH  11  12
ENDBRANCH  10  11
ENDBRANCH   1  10
TORSDOF 12
ENDMDL
MODEL 6
REMARK VINA RESULT:    -3.981      1.912      4.686
REMARK INTER + INTRA:          -8.513
REMARK INTER:                  -6.813
REMARK INTRA:                  -1.700
REMARK UNBOUND:                -1.740
REMARK SMILES CCCCCCCCCCCCCC(=O)[O-]
REMARK SMILES IDX 8 1 9 2 10 3 11 4 12 5 13 6 14 7 15 8 16 9 7 10 6 11 5 12
REMARK SMILES IDX 4 13 3 14 2 15 1 16
REMARK H PARENT
REMARK Flexibility Score: inf
ROOT
ATOM      1  C   UNL     1      -0.961  44.220  23.495  1.00  0.00     0.000 C 
ENDROOT
BRANCH   1   2
ATOM      2  C   UNL     1      -1.057  43.109  24.556  1.00  0.00     0.000 C 
BRANCH   2   3
ATOM      3  C   UNL     1      -1.664  41.811  24.005  1.00  0.00     0.000 C 
BRANCH   3   4
ATOM      4  C   UNL     1      -3.141  42.006  23.642  1.00  0.00     0.000 C 
BRANCH   4   5
ATOM      5  C   UNL     1      -3.909  42.667  24.796  1.00  0.00     0.006 C 
BRANCH   5   6
ATOM      6  C   UNL     1      -4.723  43.882  24.331  1.00  0.00     0.053 C 
BRANCH   6   7
ATOM      7  C   UNL     1      -4.271  45.142  25.004  1.00  0.00     0.041 C 
ATOM      8  O   UNL     1      -3.839  46.107  24.320  1.00  0.00    -0.550 OA
ATOM      9  O   UNL     1      -4.358  45.263  26.386  1.00  0.00    -0.550 OA
ENDBRANCH   6   7
ENDBRANCH   5   6
ENDBRANCH   4   5
ENDBRANCH   3   4
ENDBRANCH   2   3
ENDBRANCH   1   2
BRANCH   1  10
ATOM     10  C   UNL     1      -0.424  43.767  22.124  1.00  0.00     0.000 C 
BRANCH  10  11
ATOM     11  C   UNL     1      -1.390  43.974  20.941  1.00  0.00    -0.000 C 
BRANCH  11  12
ATOM     12  C   UNL     1      -2.681  44.739  21.283  1.00  0.00    -0.000 C 
BRANCH  12  13
ATOM     13  C   UNL     1      -3.460  45.185  20.036  1.00  0.00    -0.000 C 
BRANCH  13  14
ATOM     14  C   UNL     1      -4.419  44.082  19.566  1.00  0.00    -0.000 C 
BRANCH  14  15
ATOM     15  C   UNL     1      -5.426  43.673  20.652  1.00  0.00    -0.003 C 
ATOM     16  C   UNL     1      -5.633  42.161  20.730  1.00  0.00     0.004 C 
ENDBRANCH  14  15
ENDBRANCH  13  14
ENDBRANCH  12  13
ENDBRANCH  11  12
ENDBRANCH  10  11
ENDBRANCH   1  10
TORSDOF 12
ENDMDL
MODEL 7
REMARK VINA RESULT:    -3.963      1.512      2.920
REMARK INTER + INTRA:          -8.484
REMARK INTER:                  -6.416
REMARK INTRA:                  -2.068
REMARK UNBOUND:                -1.740
REMARK SMILES CCCCCCCCCCCCCC(=O)[O-]
REMARK SMILES IDX 8 1 9 2 10 3 11 4 12 5 13 6 14 7 15 8 16 9 7 10 6 11 5 12
REMARK SMILES IDX 4 13 3 14 2 15 1 16
REMARK H PARENT
REMARK Flexibility Score: inf
ROOT
ATOM      1  C   UNL     1      -2.158  44.254  19.900  1.00  0.00     0.000 C 
ENDROOT
BRANCH   1   2
ATOM      2  C   UNL     1      -1.738  44.266  21.381  1.00  0.00     0.000 C 
BRANCH   2   3
ATOM      3  C   UNL     1      -2.749  44.992  22.281  1.00  0.00     0.000 C 
BRANCH   3   4
ATOM      4  C   UNL     1      -2.268  45.017  23.737  1.00  0.00     0.000 C 
BRANCH   4   5
ATOM      5  C   UNL     1      -0.930  44.277  23.887  1.00  0.00     0.006 C 
BRANCH   5   6
ATOM      6  C   UNL     1      -1.025  43.100  24.866  1.00  0.00     0.053 C 
BRANCH   6   7
ATOM      7  C   UNL     1      -0.539  41.824  24.248  1.00  0.00     0.041 C 
ATOM      8  O   UNL     1      -0.882  40.714  24.734  1.00  0.00    -0.550 OA
ATOM      9  O   UNL     1       0.266  41.862  23.117  1.00  0.00    -0.550 OA
ENDBRANCH   6   7
ENDBRANCH   5   6
ENDBRANCH   4   5
ENDBRANCH   3   4
ENDBRANCH   2   3
ENDBRANCH   1   2
BRANCH   1  10
ATOM     10  C   UNL     1      -3.446  45.038  19.582  1.00  0.00     0.000 C 
BRANCH  10  11
ATOM     11  C   UNL     1      -4.654  44.174  19.167  1.00  0.00    -0.000 C 
BRANCH  11  12
ATOM     12  C   UNL     1      -5.529  43.680  20.333  1.00  0.00    -0.000 C 
BRANCH  12  13
ATOM     13  C   UNL     1      -5.248  42.219  20.714  1.00  0.00    -0.000 C 
BRANCH  13  14
ATOM     14  C   UNL     1      -5.058  42.076  22.231  1.00  0.00    -0.000 C 
BRANCH  14  15
ATOM     15  C   UNL     1      -3.749  41.358  22.596  1.00  0.00    -0.003 C 
ATOM     16  C   UNL     1      -2.979  40.870  21.369  1.00  0.00     0.004 C 
ENDBRANCH  14  15
ENDBRANCH  13  14
ENDBRANCH  12  13
ENDBRANCH  11  12
ENDBRANCH  10  11
ENDBRANCH   1  10
TORSDOF 12
ENDMDL
MODEL 8
REMARK VINA RESULT:    -3.961      1.540      2.342
REMARK INTER + INTRA:          -8.480
REMARK INTER:                  -6.514
REMARK INTRA:                  -1.966
REMARK UNBOUND:                -1.740
REMARK SMILES CCCCCCCCCCCCCC(=O)[O-]
REMARK SMILES IDX 8 1 9 2 10 3 11 4 12 5 13 6 14 7 15 8 16 9 7 10 6 11 5 12
REMARK SMILES IDX 4 13 3 14 2 15 1 16
REMARK H PARENT
REMARK Flexibility Score: inf
ROOT
ATOM      1  C   UNL     1      -2.469  43.068  18.257  1.00  0.00     0.000 C 
ENDROOT
BRANCH   1   2
ATOM      2  C   UNL     1      -1.317  43.970  18.737  1.00  0.00     0.000 C 
BRANCH   2   3
ATOM      3  C   UNL     1      -0.835  43.618  20.153  1.00  0.00     0.000 C 
BRANCH   3   4
ATOM      4  C   UNL     1      -1.632  42.440  20.726  1.00  0.00     0.000 C 
BRANCH   4   5
ATOM      5  C   UNL     1      -1.627  42.468  22.262  1.00  0.00     0.006 C 
BRANCH   5   6
ATOM      6  C   UNL     1      -1.018  43.763  22.817  1.00  0.00     0.053 C 
BRANCH   6   7
ATOM      7  C   UNL     1      -0.107  43.495  23.976  1.00  0.00     0.041 C 
ATOM      8  O   UNL     1       1.142  43.565  23.829  1.00  0.00    -0.550 OA
ATOM      9  O   UNL     1      -0.638  43.201  25.225  1.00  0.00    -0.550 OA
ENDBRANCH   6   7
ENDBRANCH   5   6
ENDBRANCH   4   5
ENDBRANCH   3   4
ENDBRANCH   2   3
ENDBRANCH   1   2
BRANCH   1  10
ATOM     10  C   UNL     1      -3.746  43.816  17.829  1.00  0.00     0.000 C 
BRANCH  10  11
ATOM     11  C   UNL     1      -4.416  44.655  18.936  1.00  0.00    -0.000 C 
BRANCH  11  12
ATOM     12  C   UNL     1      -5.135  43.838  20.025  1.00  0.00    -0.000 C 
BRANCH  12  13
ATOM     13  C   UNL     1      -4.739  44.260  21.447  1.00  0.00    -0.000 C 
BRANCH  13  14
ATOM     14  C   UNL     1      -3.796  45.472  21.417  1.00  0.00    -0.000 C 
BRANCH  14  15
ATOM     15  C   UNL     1      -3.819  46.271  22.729  1.00  0.00    -0.003 C 
ATOM     16  C   UNL     1      -4.240  45.425  23.930  1.00  0.00     0.004 C 
ENDBRANCH  14  15
ENDBRANCH  13  14
ENDBRANCH  12  13
ENDBRANCH  11  12
ENDBRANCH  10  11
ENDBRANCH   1  10
TORSDOF 12
ENDMDL
MODEL 9
REMARK VINA RESULT:    -3.930      1.415      3.040
REMARK INTER + INTRA:          -8.428
REMARK INTER:                  -6.467
REMARK INTRA:                  -1.961
REMARK UNBOUND:                -1.740
REMARK SMILES CCCCCCCCCCCCCC(=O)[O-]
REMARK SMILES IDX 8 1 9 2 10 3 11 4 12 5 13 6 14 7 15 8 16 9 7 10 6 11 5 12
REMARK SMILES IDX 4 13 3 14 2 15 1 16
REMARK H PARENT
REMARK Flexibility Score: inf
ROOT
ATOM      1  C   UNL     1      -4.612  42.670  19.592  1.00  0.00     0.000 C 
ENDROOT
BRANCH   1   2
ATOM      2  C   UNL     1      -5.553  42.420  20.784  1.00  0.00     0.000 C 
BRANCH   2   3
ATOM      3  C   UNL     1      -4.816  41.899  22.027  1.00  0.00     0.000 C 
BRANCH   3   4
ATOM      4  C   UNL     1      -3.545  41.138  21.631  1.00  0.00     0.000 C 
BRANCH   4   5
ATOM      5  C   UNL     1      -2.501  41.187  22.757  1.00  0.00     0.006 C 
BRANCH   5   6
ATOM      6  C   UNL     1      -3.052  41.841  24.031  1.00  0.00     0.053 C 
BRANCH   6   7
ATOM      7  C   UNL     1      -1.984  42.576  24.783  1.00  0.00     0.041 C 
ATOM      8  O   UNL     1      -0.825  42.675  24.303  1.00  0.00    -0.550 OA
ATOM      9  O   UNL     1      -2.280  43.179  25.999  1.00  0.00    -0.550 OA
ENDBRANCH   6   7
ENDBRANCH   5   6
ENDBRANCH   4   5
ENDBRANCH   3   4
ENDBRANCH   2   3
ENDBRANCH   1   2
BRANCH   1  10
ATOM     10  C   UNL     1      -4.708  44.077  18.971  1.00  0.00     0.000 C 
BRANCH  10  11
ATOM     11  C   UNL     1      -3.621  45.070  19.429  1.00  0.00    -0.000 C 
BRANCH  11  12
ATOM     12  C   UNL     1      -2.380  44.424  20.070  1.00  0.00    -0.000 C 
BRANCH  12  13
ATOM     13  C   UNL     1      -2.276  44.696  21.578  1.00  0.00    -0.000 C 
BRANCH  13  14
ATOM     14  C   UNL     1      -3.565  45.340  22.108  1.00  0.00    -0.000 C 
BRANCH  14  15
ATOM     15  C   UNL     1      -3.479  45.686  23.603  1.00  0.00    -0.003 C 
ATOM     16  C   UNL     1      -3.758  47.162  23.887  1.00  0.00     0.004 C 
ENDBRANCH  14  15
ENDBRANCH  13  14
ENDBRANCH  12  13
ENDBRANCH  11  12
ENDBRANCH  10  11
ENDBRANCH   1  10
TORSDOF 12
ENDMDL
