MODEL 1
REMARK VINA RESULT:    -3.941      0.000      0.000
REMARK INTER + INTRA:         -10.245
REMARK INTER:                  -7.628
REMARK INTRA:                  -2.617
REMARK UNBOUND:                -2.617
REMARK SMILES CCCCCCCCCCCCCCCCCC(=O)[O-]
REMARK SMILES IDX 10 1 11 2 12 3 13 4 14 5 15 6 16 7 17 8 18 9 19 10 20 11
REMARK SMILES IDX 9 12 8 13 7 14 6 15 5 16 4 17 3 18 2 19 1 20
REMARK H PARENT
REMARK Flexibility Score: inf
ROOT
ATOM      1  C   UNL     1      17.378 -33.924  -1.991  1.00  0.00     0.000 C 
ENDROOT
BRANCH   1   2
ATOM      2  C   UNL     1      17.135 -35.380  -1.553  1.00  0.00     0.000 C 
BRANCH   2   3
ATOM      3  C   UNL     1      17.932 -36.394  -2.386  1.00  0.00     0.000 C 
BRANCH   3   4
ATOM      4  C   UNL     1      17.219 -37.755  -2.424  1.00  0.00     0.000 C 
BRANCH   4   5
ATOM      5  C   UNL     1      15.753 -37.667  -1.972  1.00  0.00     0.000 C 
BRANCH   5   6
ATOM      6  C   UNL     1      15.465 -38.518  -0.726  1.00  0.00     0.000 C 
BRANCH   6   7
ATOM      7  C   UNL     1      16.757 -39.138  -0.173  1.00  0.00     0.006 C 
BRANCH   7   8
ATOM      8  C   UNL     1      17.140 -38.560   1.196  1.00  0.00     0.053 C 
BRANCH   8   9
ATOM      9  C   UNL     1      18.604 -38.707   1.471  1.00  0.00     0.041 C 
ATOM     10  O   UNL     1      19.001 -39.427   2.426  1.00  0.00    -0.550 OA
ATOM     11  O   UNL     1      19.530 -38.024   0.694  1.00  0.00    -0.550 OA
ENDBRANCH   8   9
ENDBRANCH   7   8
ENDBRANCH   6   7
ENDBRANCH   5   6
ENDBRANCH   4   5
ENDBRANCH   3   4
ENDBRANCH   2   3
ENDBRANCH   1   2
BRANCH   1  12
ATOM     12  C   UNL     1      16.111 -33.053  -2.099  1.00  0.00     0.000 C 
BRANCH  12  13
ATOM     13  C   UNL     1      14.785 -33.835  -2.140  1.00  0.00    -0.000 C 
BRANCH  13  14
ATOM     14  C   UNL     1      13.705 -33.225  -1.234  1.00  0.00    -0.000 C 
BRANCH  14  15
ATOM     15  C   UNL     1      13.865 -33.713   0.213  1.00  0.00    -0.000 C 
BRANCH  15  16
ATOM     16  C   UNL     1      13.928 -35.247   0.325  1.00  0.00    -0.000 C 
BRANCH  16  17
ATOM     17  C   UNL     1      14.652 -35.780   1.575  1.00  0.00    -0.000 C 
BRANCH  17  18
ATOM     18  C   UNL     1      16.078 -35.234   1.786  1.00  0.00    -0.000 C 
BRANCH  18  19
ATOM     19  C   UNL     1      16.607 -35.416   3.225  1.00  0.00    -0.003 C 
ATOM     20  C   UNL     1      15.892 -34.519   4.234  1.00  0.00     0.004 C 
ENDBRANCH  18  19
ENDBRANCH  17  18
ENDBRANCH  16  17
ENDBRANCH  15  16
ENDBRANCH  14  15
ENDBRANCH  13  14
ENDBRANCH  12  13
ENDBRANCH   1  12
TORSDOF 16
ENDMDL
MODEL 2
REMARK VINA RESULT:    -3.886      1.044      4.129
REMARK INTER + INTRA:         -10.138
REMARK INTER:                  -7.358
REMARK INTRA:                  -2.781
REMARK UNBOUND:                -2.617
REMARK SMILES CCCCCCCCCCCCCCCCCC(=O)[O-]
REMARK SMILES IDX 10 1 11 2 12 3 13 4 14 5 15 6 16 7 17 8 18 9 19 10 20 11
REMARK SMILES IDX 9 12 8 13 7 14 6 15 5 16 4 17 3 18 2 19 1 20
REMARK H PARENT
REMARK Flexibility Score: inf
ROOT
ATOM      1  C   UNL     1      13.774 -34.356  -1.607  1.00  0.00     0.000 C 
ENDROOT
BRANCH   1   2
ATOM      2  C   UNL     1      13.230 -35.340  -0.555  1.00  0.00     0.000 C 
BRANCH   2   3
ATOM      3  C   UNL     1      13.698 -35.007   0.870  1.00  0.00     0.000 C 
BRANCH   3   4
ATOM      4  C   UNL     1      14.521 -36.162   1.461  1.00  0.00     0.000 C 
BRANCH   4   5
ATOM      5  C   UNL     1      15.602 -35.678   2.441  1.00  0.00     0.000 C 
BRANCH   5   6
ATOM      6  C   UNL     1      16.791 -36.645   2.537  1.00  0.00     0.000 C 
BRANCH   6   7
ATOM      7  C   UNL     1      16.340 -38.096   2.305  1.00  0.00     0.006 C 
BRANCH   7   8
ATOM      8  C   UNL     1      17.188 -38.806   1.242  1.00  0.00     0.053 C 
BRANCH   8   9
ATOM      9  C   UNL     1      18.642 -38.803   1.600  1.00  0.00     0.041 C 
ATOM     10  O   UNL     1      19.037 -39.369   2.655  1.00  0.00    -0.550 OA
ATOM     11  O   UNL     1      19.557 -38.146   0.788  1.00  0.00    -0.550 OA
ENDBRANCH   8   9
ENDBRANCH   7   8
ENDBRANCH   6   7
ENDBRANCH   5   6
ENDBRANCH   4   5
ENDBRANCH   3   4
ENDBRANCH   2   3
ENDBRANCH   1   2
BRANCH   1  12
ATOM     12  C   UNL     1      14.826 -33.357  -1.086  1.00  0.00     0.000 C 
BRANCH  12  13
ATOM     13  C   UNL     1      15.848 -32.882  -2.135  1.00  0.00    -0.000 C 
BRANCH  13  14
ATOM     14  C   UNL     1      17.171 -33.659  -2.074  1.00  0.00    -0.000 C 
BRANCH  14  15
ATOM     15  C   UNL     1      17.348 -34.332  -0.705  1.00  0.00    -0.000 C 
BRANCH  15  16
ATOM     16  C   UNL     1      17.605 -35.847  -0.810  1.00  0.00    -0.000 C 
BRANCH  16  17
ATOM     17  C   UNL     1      17.235 -36.477  -2.166  1.00  0.00    -0.000 C 
BRANCH  17  18
ATOM     18  C   UNL     1      15.880 -37.210  -2.198  1.00  0.00    -0.000 C 
BRANCH  18  19
ATOM     19  C   UNL     1      16.005 -38.739  -2.375  1.00  0.00    -0.003 C 
ATOM     20  C   UNL     1      14.849 -39.336  -3.175  1.00  0.00     0.004 C 
ENDBRANCH  18  19
ENDBRANCH  17  18
ENDBRANCH  16  17
ENDBRANCH  15  16
ENDBRANCH  14  15
ENDBRANCH  13  14
ENDBRANCH  12  13
ENDBRANCH   1  12
TORSDOF 16
ENDMDL
MODEL 3
REMARK VINA RESULT:    -3.813      1.582      3.361
REMARK INTER + INTRA:          -9.997
REMARK INTER:                  -6.622
REMARK INTRA:                  -3.375
REMARK UNBOUND:                -2.617
REMARK SMILES CCCCCCCCCCCCCCCCCC(=O)[O-]
REMARK SMILES IDX 10 1 11 2 12 3 13 4 14 5 15 6 16 7 17 8 18 9 19 10 20 11
REMARK SMILES IDX 9 12 8 13 7 14 6 15 5 16 4 17 3 18 2 19 1 20
REMARK H PARENT
REMARK Flexibility Score: inf
ROOT
ATOM      1  C   UNL     1      17.143 -34.129  -0.724  1.00  0.00     0.000 C 
ENDROOT
BRANCH   1   2
ATOM      2  C   UNL     1      17.238 -34.753  -2.128  1.00  0.00     0.000 C 
BRANCH   2   3
ATOM      3  C   UNL     1      17.893 -36.142  -2.119  1.00  0.00     0.000 C 
BRANCH   3   4
ATOM      4  C   UNL     1      16.829 -37.251  -2.141  1.00  0.00     0.000 C 
BRANCH   4   5
ATOM      5  C   UNL     1      17.094 -38.347  -1.096  1.00  0.00     0.000 C 
BRANCH   5   6
ATOM      6  C   UNL     1      18.533 -38.319  -0.560  1.00  0.00     0.000 C 
BRANCH   6   7
ATOM      7  C   UNL     1      18.552 -38.449   0.971  1.00  0.00     0.006 C 
BRANCH   7   8
ATOM      8  C   UNL     1      17.534 -39.478   1.479  1.00  0.00     0.053 C 
BRANCH   8   9
ATOM      9  C   UNL     1      18.107 -40.861   1.499  1.00  0.00     0.041 C 
ATOM     10  O   UNL     1      18.949 -41.188   2.377  1.00  0.00    -0.550 OA
ATOM     11  O   UNL     1      17.737 -41.781   0.525  1.00  0.00    -0.550 OA
ENDBRANCH   8   9
ENDBRANCH   7   8
ENDBRANCH   6   7
ENDBRANCH   5   6
ENDBRANCH   4   5
ENDBRANCH   3   4
ENDBRANCH   2   3
ENDBRANCH   1   2
BRANCH   1  12
ATOM     12  C   UNL     1      17.909 -34.884   0.381  1.00  0.00     0.000 C 
BRANCH  12  13
ATOM     13  C   UNL     1      17.052 -35.323   1.582  1.00  0.00    -0.000 C 
BRANCH  13  14
ATOM     14  C   UNL     1      15.544 -35.241   1.301  1.00  0.00    -0.000 C 
BRANCH  14  15
ATOM     15  C   UNL     1      14.945 -36.643   1.115  1.00  0.00    -0.000 C 
BRANCH  15  16
ATOM     16  C   UNL     1      13.864 -36.692   0.019  1.00  0.00    -0.000 C 
BRANCH  16  17
ATOM     17  C   UNL     1      13.543 -35.336  -0.639  1.00  0.00    -0.000 C 
BRANCH  17  18
ATOM     18  C   UNL     1      13.650 -35.315  -2.176  1.00  0.00    -0.000 C 
BRANCH  18  19
ATOM     19  C   UNL     1      13.583 -33.897  -2.783  1.00  0.00    -0.003 C 
ATOM     20  C   UNL     1      13.918 -32.805  -1.769  1.00  0.00     0.004 C 
ENDBRANCH  18  19
ENDBRANCH  17  18
ENDBRANCH  16  17
ENDBRANCH  15  16
ENDBRANCH  14  15
ENDBRANCH  13  14
ENDBRANCH  12  13
ENDBRANCH   1  12
TORSDOF 16
ENDMDL
MODEL 4
REMARK VINA RESULT:    -3.756      1.013      4.238
REMARK INTER + INTRA:          -9.886
REMARK INTER:                  -7.350
REMARK INTRA:                  -2.536
REMARK UNBOUND:                -2.617
REMARK SMILES CCCCCCCCCCCCCCCCCC(=O)[O-]
REMARK SMILES IDX 10 1 11 2 12 3 13 4 14 5 15 6 16 7 17 8 18 9 19 10 20 11
REMARK SMILES IDX 9 12 8 13 7 14 6 15 5 16 4 17 3 18 2 19 1 20
REMARK H PARENT
REMARK Flexibility Score: inf
ROOT
ATOM      1  C   UNL     1      14.792 -33.990  -2.070  1.00  0.00     0.000 C 
ENDROOT
BRANCH   1   2
ATOM      2  C   UNL     1      13.958 -34.078  -0.778  1.00  0.00     0.000 C 
BRANCH   2   3
ATOM      3  C   UNL     1      13.371 -35.478  -0.544  1.00  0.00     0.000 C 
BRANCH   3   4
ATOM      4  C   UNL     1      14.114 -36.203   0.589  1.00  0.00     0.000 C 
BRANCH   4   5
ATOM      5  C   UNL     1      15.143 -35.303   1.292  1.00  0.00     0.000 C 
BRANCH   5   6
ATOM      6  C   UNL     1      15.899 -36.031   2.413  1.00  0.00     0.000 C 
BRANCH   6   7
ATOM      7  C   UNL     1      17.252 -36.559   1.911  1.00  0.00     0.006 C 
BRANCH   7   8
ATOM      8  C   UNL     1      17.173 -38.023   1.462  1.00  0.00     0.053 C 
BRANCH   8   9
ATOM      9  C   UNL     1      18.530 -38.590   1.177  1.00  0.00     0.041 C 
ATOM     10  O   UNL     1      19.435 -37.858   0.696  1.00  0.00    -0.550 OA
ATOM     11  O   UNL     1      18.785 -39.935   1.412  1.00  0.00    -0.550 OA
ENDBRANCH   8   9
ENDBRANCH   7   8
ENDBRANCH   6   7
ENDBRANCH   5   6
ENDBRANCH   4   5
ENDBRANCH   3   4
ENDBRANCH   2   3
ENDBRANCH   1   2
BRANCH   1  12
ATOM     12  C   UNL     1      16.032 -33.078  -1.986  1.00  0.00     0.000 C 
BRANCH  12  13
ATOM     13  C   UNL     1      17.384 -33.815  -2.000  1.00  0.00    -0.000 C 
BRANCH  13  14
ATOM     14  C   UNL     1      17.294 -35.237  -1.426  1.00  0.00    -0.000 C 
BRANCH  14  15
ATOM     15  C   UNL     1      17.845 -36.266  -2.425  1.00  0.00    -0.000 C 
BRANCH  15  16
ATOM     16  C   UNL     1      17.295 -37.685  -2.187  1.00  0.00    -0.000 C 
BRANCH  16  17
ATOM     17  C   UNL     1      15.764 -37.816  -2.291  1.00  0.00    -0.000 C 
BRANCH  17  18
ATOM     18  C   UNL     1      15.262 -39.127  -2.925  1.00  0.00    -0.000 C 
BRANCH  18  19
ATOM     19  C   UNL     1      15.011 -40.256  -1.901  1.00  0.00    -0.003 C 
ATOM     20  C   UNL     1      14.537 -39.729  -0.548  1.00  0.00     0.004 C 
ENDBRANCH  18  19
ENDBRANCH  17  18
ENDBRANCH  16  17
ENDBRANCH  15  16
ENDBRANCH  14  15
ENDBRANCH  13  14
ENDBRANCH  12  13
ENDBRANCH   1  12
TORSDOF 16
ENDMDL
MODEL 5
REMARK VINA RESULT:    -3.737      1.528      2.254
REMARK INTER + INTRA:          -9.849
REMARK INTER:                  -6.946
REMARK INTRA:                  -2.903
REMARK UNBOUND:                -2.617
REMARK SMILES CCCCCCCCCCCCCCCCCC(=O)[O-]
REMARK SMILES IDX 10 1 11 2 12 3 13 4 14 5 15 6 16 7 17 8 18 9 19 10 20 11
REMARK SMILES IDX 9 12 8 13 7 14 6 15 5 16 4 17 3 18 2 19 1 20
REMARK H PARENT
REMARK Flexibility Score: inf
ROOT
ATOM      1  C   UNL     1      15.872 -32.927  -2.104  1.00  0.00     0.000 C 
ENDROOT
BRANCH   1   2
ATOM      2  C   UNL     1      17.251 -33.611  -2.131  1.00  0.00     0.000 C 
BRANCH   2   3
ATOM      3  C   UNL     1      17.275 -34.934  -1.351  1.00  0.00     0.000 C 
BRANCH   3   4
ATOM      4  C   UNL     1      17.540 -36.121  -2.290  1.00  0.00     0.000 C 
BRANCH   4   5
ATOM      5  C   UNL     1      17.800 -37.431  -1.531  1.00  0.00     0.000 C 
BRANCH   5   6
ATOM      6  C   UNL     1      18.243 -37.197  -0.079  1.00  0.00     0.000 C 
BRANCH   6   7
ATOM      7  C   UNL     1      18.950 -38.437   0.488  1.00  0.00     0.006 C 
BRANCH   7   8
ATOM      8  C   UNL     1      18.188 -39.053   1.668  1.00  0.00     0.053 C 
BRANCH   8   9
ATOM      9  C   UNL     1      17.971 -40.522   1.482  1.00  0.00     0.041 C 
ATOM     10  O   UNL     1      16.900 -40.946   0.971  1.00  0.00    -0.550 OA
ATOM     11  O   UNL     1      18.936 -41.427   1.906  1.00  0.00    -0.550 OA
ENDBRANCH   8   9
ENDBRANCH   7   8
ENDBRANCH   6   7
ENDBRANCH   5   6
ENDBRANCH   4   5
ENDBRANCH   3   4
ENDBRANCH   2   3
ENDBRANCH   1   2
BRANCH   1  12
ATOM     12  C   UNL     1      14.948 -33.364  -0.949  1.00  0.00     0.000 C 
BRANCH  12  13
ATOM     13  C   UNL     1      13.609 -33.986  -1.386  1.00  0.00    -0.000 C 
BRANCH  13  14
ATOM     14  C   UNL     1      13.770 -35.013  -2.517  1.00  0.00    -0.000 C 
BRANCH  14  15
ATOM     15  C   UNL     1      13.877 -36.437  -1.951  1.00  0.00    -0.000 C 
BRANCH  15  16
ATOM     16  C   UNL     1      13.694 -36.490  -0.423  1.00  0.00    -0.000 C 
BRANCH  16  17
ATOM     17  C   UNL     1      14.539 -37.558   0.297  1.00  0.00    -0.000 C 
BRANCH  17  18
ATOM     18  C   UNL     1      15.035 -37.162   1.701  1.00  0.00    -0.000 C 
BRANCH  18  19
ATOM     19  C   UNL     1      15.309 -35.651   1.859  1.00  0.00    -0.003 C 
ATOM     20  C   UNL     1      16.590 -35.363   2.640  1.00  0.00     0.004 C 
ENDBRANCH  18  19
ENDBRANCH  17  18
ENDBRANCH  16  17
ENDBRANCH  15  16
ENDBRANCH  14  15
ENDBRANCH  13  14
ENDBRANCH  12  13
ENDBRANCH   1  12
TORSDOF 16
ENDMDL
MODEL 6
REMARK VINA RESULT:    -3.734      1.464      3.606
REMARK INTER + INTRA:          -9.843
REMARK INTER:                  -6.978
REMARK INTRA:                  -2.865
REMARK UNBOUND:                -2.617
REMARK SMILES CCCCCCCCCCCCCCCCCC(=O)[O-]
REMARK SMILES IDX 10 1 11 2 12 3 13 4 14 5 15 6 16 7 17 8 18 9 19 10 20 11
REMARK SMILES IDX 9 12 8 13 7 14 6 15 5 16 4 17 3 18 2 19 1 20
REMARK H PARENT
REMARK Flexibility Score: inf
ROOT
ATOM      1  C   UNL     1      17.402 -33.919  -1.764  1.00  0.00     0.000 C 
ENDROOT
BRANCH   1   2
ATOM      2  C   UNL     1      17.225 -35.397  -2.157  1.00  0.00     0.000 C 
BRANCH   2   3
ATOM      3  C   UNL     1      17.714 -36.365  -1.069  1.00  0.00     0.000 C 
BRANCH   3   4
ATOM      4  C   UNL     1      17.645 -35.711   0.319  1.00  0.00     0.000 C 
BRANCH   4   5
ATOM      5  C   UNL     1      16.465 -36.225   1.159  1.00  0.00     0.000 C 
BRANCH   5   6
ATOM      6  C   UNL     1      16.902 -37.205   2.257  1.00  0.00     0.000 C 
BRANCH   6   7
ATOM      7  C   UNL     1      16.236 -38.577   2.068  1.00  0.00     0.006 C 
BRANCH   7   8
ATOM      8  C   UNL     1      16.779 -39.323   0.843  1.00  0.00     0.053 C 
BRANCH   8   9
ATOM      9  C   UNL     1      18.228 -39.665   0.999  1.00  0.00     0.041 C 
ATOM     10  O   UNL     1      19.081 -39.191   0.202  1.00  0.00    -0.550 OA
ATOM     11  O   UNL     1      18.634 -40.533   2.004  1.00  0.00    -0.550 OA
ENDBRANCH   8   9
ENDBRANCH   7   8
ENDBRANCH   6   7
ENDBRANCH   5   6
ENDBRANCH   4   5
ENDBRANCH   3   4
ENDBRANCH   2   3
ENDBRANCH   1   2
BRANCH   1  12
ATOM     12  C   UNL     1      16.220 -32.999  -2.129  1.00  0.00     0.000 C 
BRANCH  12  13
ATOM     13  C   UNL     1      14.835 -33.669  -2.083  1.00  0.00    -0.000 C 
BRANCH  13  14
ATOM     14  C   UNL     1      14.273 -33.779  -0.657  1.00  0.00    -0.000 C 
BRANCH  14  15
ATOM     15  C   UNL     1      13.475 -35.080  -0.483  1.00  0.00    -0.000 C 
BRANCH  15  16
ATOM     16  C   UNL     1      13.569 -36.009  -1.707  1.00  0.00    -0.000 C 
BRANCH  16  17
ATOM     17  C   UNL     1      14.163 -37.402  -1.423  1.00  0.00    -0.000 C 
BRANCH  17  18
ATOM     18  C   UNL     1      14.289 -38.321  -2.653  1.00  0.00    -0.000 C 
BRANCH  18  19
ATOM     19  C   UNL     1      15.648 -39.048  -2.748  1.00  0.00    -0.003 C 
ATOM     20  C   UNL     1      15.718 -40.014  -3.930  1.00  0.00     0.004 C 
ENDBRANCH  18  19
ENDBRANCH  17  18
ENDBRANCH  16  17
ENDBRANCH  15  16
ENDBRANCH  14  15
ENDBRANCH  13  14
ENDBRANCH  12  13
ENDBRANCH   1  12
TORSDOF 16
ENDMDL
MODEL 7
REMARK VINA RESULT:    -3.731      1.905      3.784
REMARK INTER + INTRA:          -9.837
REMARK INTER:                  -7.020
REMARK INTRA:                  -2.816
REMARK UNBOUND:                -2.617
REMARK SMILES CCCCCCCCCCCCCCCCCC(=O)[O-]
REMARK SMILES IDX 10 1 11 2 12 3 13 4 14 5 15 6 16 7 17 8 18 9 19 10 20 11
REMARK SMILES IDX 9 12 8 13 7 14 6 15 5 16 4 17 3 18 2 19 1 20
REMARK H PARENT
REMARK Flexibility Score: inf
ROOT
ATOM      1  C   UNL     1      17.257 -35.198  -1.500  1.00  0.00     0.000 C 
ENDROOT
BRANCH   1   2
ATOM      2  C   UNL     1      17.859 -36.244  -2.456  1.00  0.00     0.000 C 
BRANCH   2   3
ATOM      3  C   UNL     1      17.857 -37.662  -1.866  1.00  0.00     0.000 C 
BRANCH   3   4
ATOM      4  C   UNL     1      18.277 -37.641  -0.388  1.00  0.00     0.000 C 
BRANCH   4   5
ATOM      5  C   UNL     1      17.550 -38.705   0.449  1.00  0.00     0.000 C 
BRANCH   5   6
ATOM      6  C   UNL     1      17.042 -38.158   1.791  1.00  0.00     0.000 C 
BRANCH   6   7
ATOM      7  C   UNL     1      15.614 -37.609   1.656  1.00  0.00     0.006 C 
BRANCH   7   8
ATOM      8  C   UNL     1      15.589 -36.079   1.537  1.00  0.00     0.053 C 
BRANCH   8   9
ATOM      9  C   UNL     1      16.596 -35.436   2.438  1.00  0.00     0.041 C 
ATOM     10  O   UNL     1      17.614 -34.873   1.953  1.00  0.00    -0.550 OA
ATOM     11  O   UNL     1      16.431 -35.488   3.817  1.00  0.00    -0.550 OA
ENDBRANCH   8   9
ENDBRANCH   7   8
ENDBRANCH   6   7
ENDBRANCH   5   6
ENDBRANCH   4   5
ENDBRANCH   3   4
ENDBRANCH   2   3
ENDBRANCH   1   2
BRANCH   1  12
ATOM     12  C   UNL     1      17.354 -33.738  -1.983  1.00  0.00     0.000 C 
BRANCH  12  13
ATOM     13  C   UNL     1      16.013 -32.985  -2.054  1.00  0.00    -0.000 C 
BRANCH  13  14
ATOM     14  C   UNL     1      14.845 -33.792  -1.468  1.00  0.00    -0.000 C 
BRANCH  14  15
ATOM     15  C   UNL     1      13.679 -33.870  -2.466  1.00  0.00    -0.000 C 
BRANCH  15  16
ATOM     16  C   UNL     1      13.183 -35.310  -2.695  1.00  0.00    -0.000 C 
BRANCH  16  17
ATOM     17  C   UNL     1      13.837 -36.375  -1.794  1.00  0.00    -0.000 C 
BRANCH  17  18
ATOM     18  C   UNL     1      14.247 -37.675  -2.513  1.00  0.00    -0.000 C 
BRANCH  18  19
ATOM     19  C   UNL     1      14.404 -38.885  -1.567  1.00  0.00    -0.003 C 
ATOM     20  C   UNL     1      15.102 -40.069  -2.234  1.00  0.00     0.004 C 
ENDBRANCH  18  19
ENDBRANCH  17  18
ENDBRANCH  16  17
ENDBRANCH  15  16
ENDBRANCH  14  15
ENDBRANCH  13  14
ENDBRANCH  12  13
ENDBRANCH   1  12
TORSDOF 16
ENDMDL
MODEL 8
REMARK VINA RESULT:    -3.728      1.381      3.457
REMARK INTER + INTRA:          -9.832
REMARK INTER:                  -6.732
REMARK INTRA:                  -3.100
REMARK UNBOUND:                -2.617
REMARK SMILES CCCCCCCCCCCCCCCCCC(=O)[O-]
REMARK SMILES IDX 10 1 11 2 12 3 13 4 14 5 15 6 16 7 17 8 18 9 19 10 20 11
REMARK SMILES IDX 9 12 8 13 7 14 6 15 5 16 4 17 3 18 2 19 1 20
REMARK H PARENT
REMARK Flexibility Score: inf
ROOT
ATOM      1  C   UNL     1      17.363 -36.143  -0.722  1.00  0.00     0.000 C 
ENDROOT
BRANCH   1   2
ATOM      2  C   UNL     1      17.895 -35.389   0.511  1.00  0.00     0.000 C 
BRANCH   2   3
ATOM      3  C   UNL     1      16.910 -35.404   1.689  1.00  0.00     0.000 C 
BRANCH   3   4
ATOM      4  C   UNL     1      15.653 -36.218   1.343  1.00  0.00     0.000 C 
BRANCH   4   5
ATOM      5  C   UNL     1      15.463 -37.433   2.264  1.00  0.00     0.000 C 
BRANCH   5   6
ATOM      6  C   UNL     1      14.999 -38.685   1.505  1.00  0.00     0.000 C 
BRANCH   6   7
ATOM      7  C   UNL     1      16.115 -39.740   1.449  1.00  0.00     0.006 C 
BRANCH   7   8
ATOM      8  C   UNL     1      17.070 -39.513   0.270  1.00  0.00     0.053 C 
BRANCH   8   9
ATOM      9  C   UNL     1      18.453 -39.177   0.734  1.00  0.00     0.041 C 
ATOM     10  O   UNL     1      18.683 -38.982   1.958  1.00  0.00    -0.550 OA
ATOM     11  O   UNL     1      19.484 -39.046  -0.188  1.00  0.00    -0.550 OA
ENDBRANCH   8   9
ENDBRANCH   7   8
ENDBRANCH   6   7
ENDBRANCH   5   6
ENDBRANCH   4   5
ENDBRANCH   3   4
ENDBRANCH   2   3
ENDBRANCH   1   2
BRANCH   1  12
ATOM     12  C   UNL     1      17.362 -35.333  -2.033  1.00  0.00     0.000 C 
BRANCH  12  13
ATOM     13  C   UNL     1      17.462 -33.807  -1.856  1.00  0.00    -0.000 C 
BRANCH  13  14
ATOM     14  C   UNL     1      16.185 -33.071  -2.290  1.00  0.00    -0.000 C 
BRANCH  14  15
ATOM     15  C   UNL     1      15.032 -33.355  -1.317  1.00  0.00    -0.000 C 
BRANCH  15  16
ATOM     16  C   UNL     1      13.902 -34.186  -1.953  1.00  0.00    -0.000 C 
BRANCH  16  17
ATOM     17  C   UNL     1      13.127 -35.089  -0.975  1.00  0.00    -0.000 C 
BRANCH  17  18
ATOM     18  C   UNL     1      13.214 -36.598  -1.271  1.00  0.00    -0.000 C 
BRANCH  18  19
ATOM     19  C   UNL     1      14.136 -36.946  -2.460  1.00  0.00    -0.003 C 
ATOM     20  C   UNL     1      14.869 -38.273  -2.267  1.00  0.00     0.004 C 
ENDBRANCH  18  19
ENDBRANCH  17  18
ENDBRANCH  16  17
ENDBRANCH  15  16
ENDBRANCH  14  15
ENDBRANCH  13  14
ENDBRANCH  12  13
ENDBRANCH   1  12
TORSDOF 16
ENDMDL
MODEL 9
REMARK VINA RESULT:    -3.728      1.255      2.905
REMARK INTER + INTRA:          -9.831
REMARK INTER:                  -7.262
REMARK INTRA:                  -2.569
REMARK UNBOUND:                -2.617
REMARK SMILES CCCCCCCCCCCCCCCCCC(=O)[O-]
REMARK SMILES IDX 10 1 11 2 12 3 13 4 14 5 15 6 16 7 17 8 18 9 19 10 20 11
REMARK SMILES IDX 9 12 8 13 7 14 6 15 5 16 4 17 3 18 2 19 1 20
REMARK H PARENT
REMARK Flexibility Score: inf
ROOT
ATOM      1  C   UNL     1      14.313 -33.599  -1.072  1.00  0.00     0.000 C 
ENDROOT
BRANCH   1   2
ATOM      2  C   UNL     1      15.382 -32.777  -1.814  1.00  0.00     0.000 C 
BRANCH   2   3
ATOM      3  C   UNL     1      16.634 -33.600  -2.157  1.00  0.00     0.000 C 
BRANCH   3   4
ATOM      4  C   UNL     1      17.424 -33.952  -0.887  1.00  0.00     0.000 C 
BRANCH   4   5
ATOM      5  C   UNL     1      17.800 -35.441  -0.818  1.00  0.00     0.000 C 
BRANCH   5   6
ATOM      6  C   UNL     1      17.609 -36.164  -2.159  1.00  0.00     0.000 C 
BRANCH   6   7
ATOM      7  C   UNL     1      17.903 -37.665  -2.021  1.00  0.00     0.006 C 
BRANCH   7   8
ATOM      8  C   UNL     1      17.413 -38.234  -0.683  1.00  0.00     0.053 C 
BRANCH   8   9
ATOM      9  C   UNL     1      18.538 -38.806   0.122  1.00  0.00     0.041 C 
ATOM     10  O   UNL     1      19.498 -38.074   0.482  1.00  0.00    -0.550 OA
ATOM     11  O   UNL     1      18.544 -40.157   0.446  1.00  0.00    -0.550 OA
ENDBRANCH   8   9
ENDBRANCH   7   8
ENDBRANCH   6   7
ENDBRANCH   5   6
ENDBRANCH   4   5
ENDBRANCH   3   4
ENDBRANCH   2   3
ENDBRANCH   1   2
BRANCH   1  12
ATOM     12  C   UNL     1      14.089 -35.024  -1.617  1.00  0.00     0.000 C 
BRANCH  12  13
ATOM     13  C   UNL     1      13.920 -36.113  -0.541  1.00  0.00    -0.000 C 
BRANCH  13  14
ATOM     14  C   UNL     1      14.552 -35.725   0.804  1.00  0.00    -0.000 C 
BRANCH  14  15
ATOM     15  C   UNL     1      14.959 -36.975   1.598  1.00  0.00    -0.000 C 
BRANCH  15  16
ATOM     16  C   UNL     1      16.236 -36.765   2.432  1.00  0.00    -0.000 C 
BRANCH  16  17
ATOM     17  C   UNL     1      16.651 -35.295   2.629  1.00  0.00    -0.000 C 
BRANCH  17  18
ATOM     18  C   UNL     1      16.353 -34.714   4.025  1.00  0.00    -0.000 C 
BRANCH  18  19
ATOM     19  C   UNL     1      15.955 -35.779   5.070  1.00  0.00    -0.003 C 
ATOM     20  C   UNL     1      17.098 -36.125   6.024  1.00  0.00     0.004 C 
ENDBRANCH  18  19
ENDBRANCH  17  18
ENDBRANCH  16  17
ENDBRANCH  15  16
ENDBRANCH  14  15
ENDBRANCH  13  14
ENDBRANCH  12  13
ENDBRANCH   1  12
TORSDOF 16
ENDMDL
