MODEL 1
REMARK VINA RESULT:    -3.842      0.000      0.000
REMARK INTER + INTRA:          -9.651
REMARK INTER:                  -7.211
REMARK INTRA:                  -2.440
REMARK UNBOUND:                -2.440
REMARK SMILES CCCCCCCCC=CCCCCCCCC(=O)[O-]
REMARK SMILES IDX 10 1 9 2 11 3 12 4 13 5 14 6 15 7 16 8 17 9 18 10 19 11
REMARK SMILES IDX 20 12 8 13 7 14 6 15 5 16 4 17 3 18 2 19 1 20
REMARK H PARENT
REMARK Flexibility Score: inf
ROOT
ATOM      1  C   UNL     1      -9.209  -4.897  -5.464  1.00  0.00    -0.031 C 
ATOM      2  C   UNL     1      -8.606  -4.683  -6.648  1.00  0.00    -0.031 C 
ENDROOT
BRANCH   1   3
ATOM      3  C   UNL     1      -9.887  -3.829  -4.640  1.00  0.00     0.027 C 
BRANCH   3   4
ATOM      4  C   UNL     1      -9.013  -3.379  -3.460  1.00  0.00     0.004 C 
BRANCH   4   5
ATOM      5  C   UNL     1      -8.611  -1.900  -3.565  1.00  0.00     0.000 C 
BRANCH   5   6
ATOM      6  C   UNL     1      -9.558  -1.140  -4.505  1.00  0.00     0.000 C 
BRANCH   6   7
ATOM      7  C   UNL     1      -8.993   0.218  -4.958  1.00  0.00     0.000 C 
BRANCH   7   8
ATOM      8  C   UNL     1      -7.461   0.345  -4.880  1.00  0.00     0.006 C 
BRANCH   8   9
ATOM      9  C   UNL     1      -7.002   1.671  -4.261  1.00  0.00     0.053 C 
BRANCH   9  10
ATOM     10  C   UNL     1      -7.570   1.830  -2.886  1.00  0.00     0.041 C 
ATOM     11  O   UNL     1      -8.440   2.711  -2.657  1.00  0.00    -0.550 OA
ATOM     12  O   UNL     1      -7.103   1.037  -1.845  1.00  0.00    -0.550 OA
ENDBRANCH   9  10
ENDBRANCH   8   9
ENDBRANCH   7   8
ENDBRANCH   6   7
ENDBRANCH   5   6
ENDBRANCH   4   5
ENDBRANCH   3   4
ENDBRANCH   1   3
BRANCH   2  13
ATOM     13  C   UNL     1      -8.436  -3.328  -7.291  1.00  0.00     0.027 C 
BRANCH  13  14
ATOM     14  C   UNL     1      -7.120  -2.643  -6.871  1.00  0.00     0.004 C 
BRANCH  14  15
ATOM     15  C   UNL     1      -6.423  -1.883  -8.013  1.00  0.00     0.000 C 
BRANCH  15  16
ATOM     16  C   UNL     1      -5.994  -2.804  -9.167  1.00  0.00     0.000 C 
BRANCH  16  17
ATOM     17  C   UNL     1      -4.589  -3.395  -8.957  1.00  0.00    -0.000 C 
BRANCH  17  18
ATOM     18  C   UNL     1      -4.554  -4.918  -9.176  1.00  0.00    -0.000 C 
BRANCH  18  19
ATOM     19  C   UNL     1      -5.314  -5.687  -8.085  1.00  0.00    -0.003 C 
ATOM     20  C   UNL     1      -6.227  -6.774  -8.654  1.00  0.00     0.004 C 
ENDBRANCH  18  19
ENDBRANCH  17  18
ENDBRANCH  16  17
ENDBRANCH  15  16
ENDBRANCH  14  15
ENDBRANCH  13  14
ENDBRANCH   2  13
TORSDOF 15
ENDMDL
MODEL 2
REMARK VINA RESULT:    -3.796      2.929      6.501
REMARK INTER + INTRA:          -9.564
REMARK INTER:                  -7.576
REMARK INTRA:                  -1.988
REMARK UNBOUND:                -2.440
REMARK SMILES CCCCCCCCC=CCCCCCCCC(=O)[O-]
REMARK SMILES IDX 10 1 9 2 11 3 12 4 13 5 14 6 15 7 16 8 17 9 18 10 19 11
REMARK SMILES IDX 20 12 8 13 7 14 6 15 5 16 4 17 3 18 2 19 1 20
REMARK H PARENT
REMARK Flexibility Score: inf
ROOT
ATOM      1  C   UNL     1      -9.160  -3.281  -3.674  1.00  0.00    -0.031 C 
ATOM      2  C   UNL     1      -8.987  -2.003  -4.058  1.00  0.00    -0.031 C 
ENDROOT
BRANCH   1   3
ATOM      3  C   UNL     1     -10.124  -4.249  -4.318  1.00  0.00     0.027 C 
BRANCH   3   4
ATOM      4  C   UNL     1      -9.406  -5.233  -5.252  1.00  0.00     0.004 C 
BRANCH   4   5
ATOM      5  C   UNL     1      -9.361  -4.729  -6.703  1.00  0.00     0.000 C 
BRANCH   5   6
ATOM      6  C   UNL     1      -7.976  -4.964  -7.323  1.00  0.00     0.000 C 
BRANCH   6   7
ATOM      7  C   UNL     1      -7.253  -3.656  -7.693  1.00  0.00     0.000 C 
BRANCH   7   8
ATOM      8  C   UNL     1      -6.166  -3.797  -8.774  1.00  0.00     0.006 C 
BRANCH   8   9
ATOM      9  C   UNL     1      -5.003  -2.815  -8.582  1.00  0.00     0.053 C 
BRANCH   9  10
ATOM     10  C   UNL     1      -3.876  -3.478  -7.855  1.00  0.00     0.041 C 
ATOM     11  O   UNL     1      -3.822  -4.733  -7.779  1.00  0.00    -0.550 OA
ATOM     12  O   UNL     1      -2.910  -2.707  -7.219  1.00  0.00    -0.550 OA
ENDBRANCH   9  10
ENDBRANCH   8   9
ENDBRANCH   7   8
ENDBRANCH   6   7
ENDBRANCH   5   6
ENDBRANCH   4   5
ENDBRANCH   3   4
ENDBRANCH   1   3
BRANCH   2  13
ATOM     13  C   UNL     1      -9.793  -1.315  -5.133  1.00  0.00     0.027 C 
BRANCH  13  14
ATOM     14  C   UNL     1      -8.927  -0.391  -6.012  1.00  0.00     0.004 C 
BRANCH  14  15
ATOM     15  C   UNL     1      -7.443  -0.360  -5.607  1.00  0.00     0.000 C 
BRANCH  15  16
ATOM     16  C   UNL     1      -7.057   0.923  -4.852  1.00  0.00     0.000 C 
BRANCH  16  17
ATOM     17  C   UNL     1      -7.133   0.754  -3.325  1.00  0.00    -0.000 C 
BRANCH  17  18
ATOM     18  C   UNL     1      -7.576   2.043  -2.612  1.00  0.00    -0.000 C 
BRANCH  18  19
ATOM     19  C   UNL     1      -8.969   2.513  -3.058  1.00  0.00    -0.003 C 
ATOM     20  C   UNL     1     -10.068   1.500  -2.734  1.00  0.00     0.004 C 
ENDBRANCH  18  19
ENDBRANCH  17  18
ENDBRANCH  16  17
ENDBRANCH  15  16
ENDBRANCH  14  15
ENDBRANCH  13  14
ENDBRANCH   2  13
TORSDOF 15
ENDMDL
MODEL 3
REMARK VINA RESULT:    -3.794      1.612      3.467
REMARK INTER + INTRA:          -9.561
REMARK INTER:                  -7.439
REMARK INTRA:                  -2.122
REMARK UNBOUND:                -2.440
REMARK SMILES CCCCCCCCC=CCCCCCCCC(=O)[O-]
REMARK SMILES IDX 10 1 9 2 11 3 12 4 13 5 14 6 15 7 16 8 17 9 18 10 19 11
REMARK SMILES IDX 20 12 8 13 7 14 6 15 5 16 4 17 3 18 2 19 1 20
REMARK H PARENT
REMARK Flexibility Score: inf
ROOT
ATOM      1  C   UNL     1      -8.997  -1.662  -3.800  1.00  0.00    -0.031 C 
ATOM      2  C   UNL     1      -8.990  -3.007  -3.761  1.00  0.00    -0.031 C 
ENDROOT
BRANCH   1   3
ATOM      3  C   UNL     1     -10.095  -0.825  -4.412  1.00  0.00     0.027 C 
BRANCH   3   4
ATOM      4  C   UNL     1      -9.797  -0.474  -5.877  1.00  0.00     0.004 C 
BRANCH   4   5
ATOM      5  C   UNL     1      -9.697   1.042  -6.102  1.00  0.00     0.000 C 
BRANCH   5   6
ATOM      6  C   UNL     1     -10.125   1.813  -4.846  1.00  0.00     0.000 C 
BRANCH   6   7
ATOM      7  C   UNL     1      -9.542   3.237  -4.786  1.00  0.00     0.000 C 
BRANCH   7   8
ATOM      8  C   UNL     1      -8.519   3.475  -3.661  1.00  0.00     0.006 C 
BRANCH   8   9
ATOM      9  C   UNL     1      -7.122   2.942  -4.002  1.00  0.00     0.053 C 
BRANCH   9  10
ATOM     10  C   UNL     1      -6.989   1.514  -3.576  1.00  0.00     0.041 C 
ATOM     11  O   UNL     1      -7.160   1.194  -2.370  1.00  0.00    -0.550 OA
ATOM     12  O   UNL     1      -6.629   0.542  -4.502  1.00  0.00    -0.550 OA
ENDBRANCH   9  10
ENDBRANCH   8   9
ENDBRANCH   7   8
ENDBRANCH   6   7
ENDBRANCH   5   6
ENDBRANCH   4   5
ENDBRANCH   3   4
ENDBRANCH   1   3
BRANCH   2  13
ATOM     13  C   UNL     1     -10.036  -3.888  -4.400  1.00  0.00     0.027 C 
BRANCH  13  14
ATOM     14  C   UNL     1      -9.455  -4.757  -5.533  1.00  0.00     0.004 C 
BRANCH  14  15
ATOM     15  C   UNL     1      -9.246  -3.997  -6.855  1.00  0.00     0.000 C 
BRANCH  15  16
ATOM     16  C   UNL     1      -7.771  -3.947  -7.286  1.00  0.00     0.000 C 
BRANCH  16  17
ATOM     17  C   UNL     1      -7.167  -2.538  -7.155  1.00  0.00    -0.000 C 
BRANCH  17  18
ATOM     18  C   UNL     1      -6.128  -2.240  -8.250  1.00  0.00    -0.000 C 
BRANCH  18  19
ATOM     19  C   UNL     1      -6.726  -1.459  -9.431  1.00  0.00    -0.003 C 
ATOM     20  C   UNL     1      -7.748  -0.411  -8.991  1.00  0.00     0.004 C 
ENDBRANCH  18  19
ENDBRANCH  17  18
ENDBRANCH  16  17
ENDBRANCH  15  16
ENDBRANCH  14  15
ENDBRANCH  13  14
ENDBRANCH   2  13
TORSDOF 15
ENDMDL
MODEL 4
REMARK VINA RESULT:    -3.707     14.203     16.639
REMARK INTER + INTRA:          -9.397
REMARK INTER:                  -6.177
REMARK INTRA:                  -3.220
REMARK UNBOUND:                -2.440
REMARK SMILES CCCCCCCCC=CCCCCCCCC(=O)[O-]
REMARK SMILES IDX 10 1 9 2 11 3 12 4 13 5 14 6 15 7 16 8 17 9 18 10 19 11
REMARK SMILES IDX 20 12 8 13 7 14 6 15 5 16 4 17 3 18 2 19 1 20
REMARK H PARENT
REMARK Flexibility Score: inf
ROOT
ATOM      1  C   UNL     1      -3.035   6.238   4.284  1.00  0.00    -0.031 C 
ATOM      2  C   UNL     1      -4.052   5.718   4.996  1.00  0.00    -0.031 C 
ENDROOT
BRANCH   1   3
ATOM      3  C   UNL     1      -3.184   7.307   3.228  1.00  0.00     0.027 C 
BRANCH   3   4
ATOM      4  C   UNL     1      -2.770   8.689   3.753  1.00  0.00     0.004 C 
BRANCH   4   5
ATOM      5  C   UNL     1      -1.440   8.645   4.520  1.00  0.00     0.000 C 
BRANCH   5   6
ATOM      6  C   UNL     1      -1.619   9.146   5.960  1.00  0.00     0.000 C 
BRANCH   6   7
ATOM      7  C   UNL     1      -1.353   8.056   7.014  1.00  0.00     0.000 C 
BRANCH   7   8
ATOM      8  C   UNL     1      -0.288   7.017   6.621  1.00  0.00     0.006 C 
BRANCH   8   9
ATOM      9  C   UNL     1      -0.422   5.702   7.400  1.00  0.00     0.053 C 
BRANCH   9  10
ATOM     10  C   UNL     1       0.086   4.557   6.583  1.00  0.00     0.041 C 
ATOM     11  O   UNL     1       0.038   4.606   5.326  1.00  0.00    -0.550 OA
ATOM     12  O   UNL     1       0.567   3.414   7.209  1.00  0.00    -0.550 OA
ENDBRANCH   9  10
ENDBRANCH   8   9
ENDBRANCH   7   8
ENDBRANCH   6   7
ENDBRANCH   5   6
ENDBRANCH   4   5
ENDBRANCH   3   4
ENDBRANCH   1   3
BRANCH   2  13
ATOM     13  C   UNL     1      -5.508   6.060   4.787  1.00  0.00     0.027 C 
BRANCH  13  14
ATOM     14  C   UNL     1      -6.100   6.847   5.973  1.00  0.00     0.004 C 
BRANCH  14  15
ATOM     15  C   UNL     1      -5.439   8.217   6.201  1.00  0.00     0.000 C 
BRANCH  15  16
ATOM     16  C   UNL     1      -4.982   8.423   7.655  1.00  0.00     0.000 C 
BRANCH  16  17
ATOM     17  C   UNL     1      -5.262   7.196   8.539  1.00  0.00    -0.000 C 
BRANCH  17  18
ATOM     18  C   UNL     1      -3.971   6.503   9.010  1.00  0.00    -0.000 C 
BRANCH  18  19
ATOM     19  C   UNL     1      -3.922   5.020   8.615  1.00  0.00    -0.003 C 
ATOM     20  C   UNL     1      -5.298   4.353   8.644  1.00  0.00     0.004 C 
ENDBRANCH  18  19
ENDBRANCH  17  18
ENDBRANCH  16  17
ENDBRANCH  15  16
ENDBRANCH  14  15
ENDBRANCH  13  14
ENDBRANCH   2  13
TORSDOF 15
ENDMDL
MODEL 5
REMARK VINA RESULT:    -3.643      1.725      2.829
REMARK INTER + INTRA:          -9.278
REMARK INTER:                  -7.391
REMARK INTRA:                  -1.887
REMARK UNBOUND:                -2.440
REMARK SMILES CCCCCCCCC=CCCCCCCCC(=O)[O-]
REMARK SMILES IDX 10 1 9 2 11 3 12 4 13 5 14 6 15 7 16 8 17 9 18 10 19 11
REMARK SMILES IDX 20 12 8 13 7 14 6 15 5 16 4 17 3 18 2 19 1 20
REMARK H PARENT
REMARK Flexibility Score: inf
ROOT
ATOM      1  C   UNL     1      -7.123  -1.636  -6.635  1.00  0.00    -0.031 C 
ATOM      2  C   UNL     1      -6.855  -2.206  -7.824  1.00  0.00    -0.031 C 
ENDROOT
BRANCH   1   3
ATOM      3  C   UNL     1      -8.495  -1.561  -6.008  1.00  0.00     0.027 C 
BRANCH   3   4
ATOM      4  C   UNL     1      -8.649  -2.562  -4.853  1.00  0.00     0.004 C 
BRANCH   4   5
ATOM      5  C   UNL     1      -8.377  -1.916  -3.485  1.00  0.00     0.000 C 
BRANCH   5   6
ATOM      6  C   UNL     1      -8.670  -0.410  -3.522  1.00  0.00     0.000 C 
BRANCH   6   7
ATOM      7  C   UNL     1      -7.433   0.451  -3.208  1.00  0.00     0.000 C 
BRANCH   7   8
ATOM      8  C   UNL     1      -7.730   1.781  -2.493  1.00  0.00     0.006 C 
BRANCH   8   9
ATOM      9  C   UNL     1      -9.127   2.332  -2.812  1.00  0.00     0.053 C 
BRANCH   9  10
ATOM     10  C   UNL     1      -9.037   3.422  -3.832  1.00  0.00     0.041 C 
ATOM     11  O   UNL     1      -9.022   3.142  -5.059  1.00  0.00    -0.550 OA
ATOM     12  O   UNL     1      -8.920   4.746  -3.426  1.00  0.00    -0.550 OA
ENDBRANCH   9  10
ENDBRANCH   8   9
ENDBRANCH   7   8
ENDBRANCH   6   7
ENDBRANCH   5   6
ENDBRANCH   4   5
ENDBRANCH   3   4
ENDBRANCH   1   3
BRANCH   2  13
ATOM     13  C   UNL     1      -7.897  -2.779  -8.754  1.00  0.00     0.027 C 
BRANCH  13  14
ATOM     14  C   UNL     1      -7.721  -4.297  -8.965  1.00  0.00     0.004 C 
BRANCH  14  15
ATOM     15  C   UNL     1      -7.702  -5.107  -7.657  1.00  0.00     0.000 C 
BRANCH  15  16
ATOM     16  C   UNL     1      -6.664  -6.241  -7.673  1.00  0.00     0.000 C 
BRANCH  16  17
ATOM     17  C   UNL     1      -5.491  -5.951  -8.625  1.00  0.00    -0.000 C 
BRANCH  17  18
ATOM     18  C   UNL     1      -4.182  -5.654  -7.871  1.00  0.00    -0.000 C 
BRANCH  18  19
ATOM     19  C   UNL     1      -3.725  -4.197  -8.036  1.00  0.00    -0.003 C 
ATOM     20  C   UNL     1      -3.876  -3.688  -9.470  1.00  0.00     0.004 C 
ENDBRANCH  18  19
ENDBRANCH  17  18
ENDBRANCH  16  17
ENDBRANCH  15  16
ENDBRANCH  14  15
ENDBRANCH  13  14
ENDBRANCH   2  13
TORSDOF 15
ENDMDL
MODEL 6
REMARK VINA RESULT:    -3.621      1.504      4.124
REMARK INTER + INTRA:          -9.235
REMARK INTER:                  -6.532
REMARK INTRA:                  -2.703
REMARK UNBOUND:                -2.440
REMARK SMILES CCCCCCCCC=CCCCCCCCC(=O)[O-]
REMARK SMILES IDX 10 1 9 2 11 3 12 4 13 5 14 6 15 7 16 8 17 9 18 10 19 11
REMARK SMILES IDX 20 12 8 13 7 14 6 15 5 16 4 17 3 18 2 19 1 20
REMARK H PARENT
REMARK Flexibility Score: inf
ROOT
ATOM      1  C   UNL     1      -6.683  -1.267  -7.585  1.00  0.00    -0.031 C 
ATOM      2  C   UNL     1      -5.996  -2.423  -7.646  1.00  0.00    -0.031 C 
ENDROOT
BRANCH   1   3
ATOM      3  C   UNL     1      -7.353  -0.603  -8.764  1.00  0.00     0.027 C 
BRANCH   3   4
ATOM      4  C   UNL     1      -8.875  -0.810  -8.745  1.00  0.00     0.004 C 
BRANCH   4   5
ATOM      5  C   UNL     1      -9.493  -0.447  -7.387  1.00  0.00     0.000 C 
BRANCH   5   6
ATOM      6  C   UNL     1      -9.672   1.072  -7.252  1.00  0.00     0.000 C 
BRANCH   6   7
ATOM      7  C   UNL     1      -9.308   1.598  -5.852  1.00  0.00     0.000 C 
BRANCH   7   8
ATOM      8  C   UNL     1      -8.684   0.556  -4.907  1.00  0.00     0.006 C 
BRANCH   8   9
ATOM      9  C   UNL     1      -7.218   0.857  -4.571  1.00  0.00     0.053 C 
BRANCH   9  10
ATOM     10  C   UNL     1      -7.130   1.919  -3.521  1.00  0.00     0.041 C 
ATOM     11  O   UNL     1      -6.998   3.127  -3.851  1.00  0.00    -0.550 OA
ATOM     12  O   UNL     1      -7.144   1.570  -2.176  1.00  0.00    -0.550 OA
ENDBRANCH   9  10
ENDBRANCH   8   9
ENDBRANCH   7   8
ENDBRANCH   6   7
ENDBRANCH   5   6
ENDBRANCH   4   5
ENDBRANCH   3   4
ENDBRANCH   1   3
BRANCH   2  13
ATOM     13  C   UNL     1      -5.715  -3.187  -8.917  1.00  0.00     0.027 C 
BRANCH  13  14
ATOM     14  C   UNL     1      -6.805  -4.233  -9.223  1.00  0.00     0.004 C 
BRANCH  14  15
ATOM     15  C   UNL     1      -7.547  -4.741  -7.974  1.00  0.00     0.000 C 
BRANCH  15  16
ATOM     16  C   UNL     1      -9.069  -4.537  -8.061  1.00  0.00     0.000 C 
BRANCH  16  17
ATOM     17  C   UNL     1      -9.724  -4.398  -6.676  1.00  0.00    -0.000 C 
BRANCH  17  18
ATOM     18  C   UNL     1      -8.816  -3.675  -5.666  1.00  0.00    -0.000 C 
BRANCH  18  19
ATOM     19  C   UNL     1      -9.557  -3.296  -4.375  1.00  0.00    -0.003 C 
ATOM     20  C   UNL     1      -8.662  -2.572  -3.368  1.00  0.00     0.004 C 
ENDBRANCH  18  19
ENDBRANCH  17  18
ENDBRANCH  16  17
ENDBRANCH  15  16
ENDBRANCH  14  15
ENDBRANCH  13  14
ENDBRANCH   2  13
TORSDOF 15
ENDMDL
MODEL 7
REMARK VINA RESULT:    -3.598     13.710     16.590
REMARK INTER + INTRA:          -9.192
REMARK INTER:                  -6.116
REMARK INTRA:                  -3.076
REMARK UNBOUND:                -2.440
REMARK SMILES CCCCCCCCC=CCCCCCCCC(=O)[O-]
REMARK SMILES IDX 10 1 9 2 11 3 12 4 13 5 14 6 15 7 16 8 17 9 18 10 19 11
REMARK SMILES IDX 20 12 8 13 7 14 6 15 5 16 4 17 3 18 2 19 1 20
REMARK H PARENT
REMARK Flexibility Score: inf
ROOT
ATOM      1  C   UNL     1      -2.693   8.094   3.623  1.00  0.00    -0.031 C 
ATOM      2  C   UNL     1      -4.036   8.058   3.694  1.00  0.00    -0.031 C 
ENDROOT
BRANCH   1   3
ATOM      3  C   UNL     1      -1.882   9.326   3.295  1.00  0.00     0.027 C 
BRANCH   3   4
ATOM      4  C   UNL     1      -0.898   9.677   4.420  1.00  0.00     0.004 C 
BRANCH   4   5
ATOM      5  C   UNL     1      -1.617  10.064   5.721  1.00  0.00     0.000 C 
BRANCH   5   6
ATOM      6  C   UNL     1      -1.273   9.084   6.852  1.00  0.00     0.000 C 
BRANCH   6   7
ATOM      7  C   UNL     1      -2.489   8.274   7.336  1.00  0.00     0.000 C 
BRANCH   7   8
ATOM      8  C   UNL     1      -2.448   6.773   6.997  1.00  0.00     0.006 C 
BRANCH   8   9
ATOM      9  C   UNL     1      -1.030   6.267   6.700  1.00  0.00     0.053 C 
BRANCH   9  10
ATOM     10  C   UNL     1      -1.060   5.237   5.616  1.00  0.00     0.041 C 
ATOM     11  O   UNL     1      -0.003   4.641   5.279  1.00  0.00    -0.550 OA
ATOM     12  O   UNL     1      -2.246   4.970   4.943  1.00  0.00    -0.550 OA
ENDBRANCH   9  10
ENDBRANCH   8   9
ENDBRANCH   7   8
ENDBRANCH   6   7
ENDBRANCH   5   6
ENDBRANCH   4   5
ENDBRANCH   3   4
ENDBRANCH   1   3
BRANCH   2  13
ATOM     13  C   UNL     1      -4.943   9.221   3.368  1.00  0.00     0.027 C 
BRANCH  13  14
ATOM     14  C   UNL     1      -5.296  10.053   4.617  1.00  0.00     0.004 C 
BRANCH  14  15
ATOM     15  C   UNL     1      -6.395   9.424   5.492  1.00  0.00     0.000 C 
BRANCH  15  16
ATOM     16  C   UNL     1      -5.987   9.311   6.970  1.00  0.00     0.000 C 
BRANCH  16  17
ATOM     17  C   UNL     1      -6.155   7.884   7.520  1.00  0.00    -0.000 C 
BRANCH  17  18
ATOM     18  C   UNL     1      -6.706   6.909   6.464  1.00  0.00    -0.000 C 
BRANCH  18  19
ATOM     19  C   UNL     1      -5.855   5.637   6.338  1.00  0.00    -0.003 C 
ATOM     20  C   UNL     1      -5.791   5.106   4.906  1.00  0.00     0.004 C 
ENDBRANCH  18  19
ENDBRANCH  17  18
ENDBRANCH  16  17
ENDBRANCH  15  16
ENDBRANCH  14  15
ENDBRANCH  13  14
ENDBRANCH   2  13
TORSDOF 15
ENDMDL
MODEL 8
REMARK VINA RESULT:    -3.594     12.172     15.014
REMARK INTER + INTRA:          -9.186
REMARK INTER:                  -6.263
REMARK INTRA:                  -2.922
REMARK UNBOUND:                -2.440
REMARK SMILES CCCCCCCCC=CCCCCCCCC(=O)[O-]
REMARK SMILES IDX 10 1 9 2 11 3 12 4 13 5 14 6 15 7 16 8 17 9 18 10 19 11
REMARK SMILES IDX 20 12 8 13 7 14 6 15 5 16 4 17 3 18 2 19 1 20
REMARK H PARENT
REMARK Flexibility Score: inf
ROOT
ATOM      1  C   UNL     1      -2.494  -6.077   4.937  1.00  0.00    -0.031 C 
ATOM      2  C   UNL     1      -2.834  -6.462   6.181  1.00  0.00    -0.031 C 
ENDROOT
BRANCH   1   3
ATOM      3  C   UNL     1      -1.180  -6.400   4.267  1.00  0.00     0.027 C 
BRANCH   3   4
ATOM      4  C   UNL     1      -1.326  -7.534   3.242  1.00  0.00     0.004 C 
BRANCH   4   5
ATOM      5  C   UNL     1      -1.183  -8.922   3.886  1.00  0.00     0.000 C 
BRANCH   5   6
ATOM      6  C   UNL     1      -2.484  -9.726   3.753  1.00  0.00     0.000 C 
BRANCH   6   7
ATOM      7  C   UNL     1      -3.454  -9.132   2.716  1.00  0.00     0.000 C 
BRANCH   7   8
ATOM      8  C   UNL     1      -4.926  -9.072   3.162  1.00  0.00     0.006 C 
BRANCH   8   9
ATOM      9  C   UNL     1      -5.084  -8.951   4.684  1.00  0.00     0.053 C 
BRANCH   9  10
ATOM     10  C   UNL     1      -6.127  -7.933   5.021  1.00  0.00     0.041 C 
ATOM     11  O   UNL     1      -6.535  -7.130   4.142  1.00  0.00    -0.550 OA
ATOM     12  O   UNL     1      -6.612  -7.838   6.320  1.00  0.00    -0.550 OA
ENDBRANCH   9  10
ENDBRANCH   8   9
ENDBRANCH   7   8
ENDBRANCH   6   7
ENDBRANCH   5   6
ENDBRANCH   4   5
ENDBRANCH   3   4
ENDBRANCH   1   3
BRANCH   2  13
ATOM     13  C   UNL     1      -1.920  -7.199   7.130  1.00  0.00     0.027 C 
BRANCH  13  14
ATOM     14  C   UNL     1      -2.415  -8.628   7.427  1.00  0.00     0.004 C 
BRANCH  14  15
ATOM     15  C   UNL     1      -3.765  -8.677   8.165  1.00  0.00     0.000 C 
BRANCH  15  16
ATOM     16  C   UNL     1      -3.808  -7.750   9.391  1.00  0.00     0.000 C 
BRANCH  16  17
ATOM     17  C   UNL     1      -5.212  -7.172   9.642  1.00  0.00    -0.000 C 
BRANCH  17  18
ATOM     18  C   UNL     1      -5.295  -5.669   9.322  1.00  0.00    -0.000 C 
BRANCH  18  19
ATOM     19  C   UNL     1      -3.922  -4.982   9.366  1.00  0.00    -0.003 C 
ATOM     20  C   UNL     1      -3.815  -3.810   8.390  1.00  0.00     0.004 C 
ENDBRANCH  18  19
ENDBRANCH  17  18
ENDBRANCH  16  17
ENDBRANCH  15  16
ENDBRANCH  14  15
ENDBRANCH  13  14
ENDBRANCH   2  13
TORSDOF 15
ENDMDL
MODEL 9
REMARK VINA RESULT:    -3.524     13.957     16.489
REMARK INTER + INTRA:          -9.054
REMARK INTER:                  -6.179
REMARK INTRA:                  -2.874
REMARK UNBOUND:                -2.440
REMARK SMILES CCCCCCCCC=CCCCCCCCC(=O)[O-]
REMARK SMILES IDX 10 1 9 2 11 3 12 4 13 5 14 6 15 7 16 8 17 9 18 10 19 11
REMARK SMILES IDX 20 12 8 13 7 14 6 15 5 16 4 17 3 18 2 19 1 20
REMARK H PARENT
REMARK Flexibility Score: inf
ROOT
ATOM      1  C   UNL     1      -6.014   5.874   5.315  1.00  0.00    -0.031 C 
ATOM      2  C   UNL     1      -4.956   5.691   4.504  1.00  0.00    -0.031 C 
ENDROOT
BRANCH   1   3
ATOM      3  C   UNL     1      -5.924   6.105   6.805  1.00  0.00     0.027 C 
BRANCH   3   4
ATOM      4  C   UNL     1      -5.707   7.588   7.139  1.00  0.00     0.004 C 
BRANCH   4   5
ATOM      5  C   UNL     1      -4.314   7.852   7.731  1.00  0.00     0.000 C 
BRANCH   5   6
ATOM      6  C   UNL     1      -3.797   6.620   8.487  1.00  0.00     0.000 C 
BRANCH   6   7
ATOM      7  C   UNL     1      -2.269   6.630   8.679  1.00  0.00     0.000 C 
BRANCH   7   8
ATOM      8  C   UNL     1      -1.538   5.387   8.141  1.00  0.00     0.006 C 
BRANCH   8   9
ATOM      9  C   UNL     1      -0.431   5.734   7.137  1.00  0.00     0.053 C 
BRANCH   9  10
ATOM     10  C   UNL     1       0.084   4.493   6.478  1.00  0.00     0.041 C 
ATOM     11  O   UNL     1       0.043   4.377   5.225  1.00  0.00    -0.550 OA
ATOM     12  O   UNL     1       0.564   3.443   7.252  1.00  0.00    -0.550 OA
ENDBRANCH   9  10
ENDBRANCH   8   9
ENDBRANCH   7   8
ENDBRANCH   6   7
ENDBRANCH   5   6
ENDBRANCH   4   5
ENDBRANCH   3   4
ENDBRANCH   1   3
BRANCH   2  13
ATOM     13  C   UNL     1      -3.523   5.599   4.971  1.00  0.00     0.027 C 
BRANCH  13  14
ATOM     14  C   UNL     1      -2.606   6.603   4.244  1.00  0.00     0.004 C 
BRANCH  14  15
ATOM     15  C   UNL     1      -3.248   7.984   4.023  1.00  0.00     0.000 C 
BRANCH  15  16
ATOM     16  C   UNL     1      -2.326   8.955   3.268  1.00  0.00     0.000 C 
BRANCH  16  17
ATOM     17  C   UNL     1      -1.389   9.730   4.210  1.00  0.00    -0.000 C 
BRANCH  17  18
ATOM     18  C   UNL     1      -1.956   9.850   5.636  1.00  0.00    -0.000 C 
BRANCH  18  19
ATOM     19  C   UNL     1      -0.925   9.475   6.712  1.00  0.00    -0.003 C 
ATOM     20  C   UNL     1       0.460   9.188   6.131  1.00  0.00     0.004 C 
ENDBRANCH  18  19
ENDBRANCH  17  18
ENDBRANCH  16  17
ENDBRANCH  15  16
ENDBRANCH  14  15
ENDBRANCH  13  14
ENDBRANCH   2  13
TORSDOF 15
ENDMDL
