MODEL 1
REMARK VINA RESULT:    -1.784      0.000      0.000
REMARK INTER + INTRA:          -2.773
REMARK INTER:                  -3.869
REMARK INTRA:                   1.096
REMARK UNBOUND:                 1.096
REMARK SMILES CCCCCCCCCCCCCCCCCCCCCC(=O)[O-]
REMARK SMILES IDX 12 1 11 2 10 3 9 4 8 5 7 6 6 7 5 8 4 9 3 10 2 11 1 12 13 13
REMARK SMILES IDX 14 14 15 15 16 16 17 17 18 18 19 19 20 20 21 21 22 22 23 23
REMARK SMILES IDX 24 24
REMARK H PARENT
REMARK Flexibility Score: inf
ROOT
ATOM      1  C   UNL     1      10.607  -4.805  -8.532  1.00  0.00     0.000 C 
ENDROOT
BRANCH   1   2
ATOM      2  C   UNL     1      12.037  -5.357  -8.636  1.00  0.00     0.000 C 
BRANCH   2   3
ATOM      3  C   UNL     1      12.120  -6.632  -9.492  1.00  0.00     0.000 C 
BRANCH   3   4
ATOM      4  C   UNL     1      11.122  -7.713  -9.024  1.00  0.00    -0.000 C 
BRANCH   4   5
ATOM      5  C   UNL     1      10.876  -7.703  -7.506  1.00  0.00    -0.000 C 
BRANCH   5   6
ATOM      6  C   UNL     1      12.120  -8.106  -6.698  1.00  0.00    -0.000 C 
BRANCH   6   7
ATOM      7  C   UNL     1      11.926  -7.919  -5.185  1.00  0.00    -0.000 C 
BRANCH   7   8
ATOM      8  C   UNL     1      12.116  -6.456  -4.744  1.00  0.00    -0.000 C 
BRANCH   8   9
ATOM      9  C   UNL     1      10.795  -5.670  -4.721  1.00  0.00    -0.000 C 
BRANCH   9  10
ATOM     10  C   UNL     1      10.580  -4.915  -3.397  1.00  0.00    -0.000 C 
BRANCH  10  11
ATOM     11  C   UNL     1      11.756  -3.989  -3.049  1.00  0.00    -0.003 C 
ATOM     12  C   UNL     1      12.079  -2.999  -4.167  1.00  0.00     0.004 C 
ENDBRANCH  10  11
ENDBRANCH   9  10
ENDBRANCH   8   9
ENDBRANCH   7   8
ENDBRANCH   6   7
ENDBRANCH   5   6
ENDBRANCH   4   5
ENDBRANCH   3   4
ENDBRANCH   2   3
ENDBRANCH   1   2
BRANCH   1  13
ATOM     13  C   UNL     1       9.928  -5.166  -7.200  1.00  0.00     0.000 C 
BRANCH  13  14
ATOM     14  C   UNL     1       8.462  -5.589  -7.380  1.00  0.00     0.000 C 
BRANCH  14  15
ATOM     15  C   UNL     1       7.564  -4.429  -7.843  1.00  0.00     0.000 C 
BRANCH  15  16
ATOM     16  C   UNL     1       7.051  -4.618  -9.288  1.00  0.00     0.000 C 
BRANCH  16  17
ATOM     17  C   UNL     1       6.095  -3.505  -9.759  1.00  0.00     0.000 C 
BRANCH  17  18
ATOM     18  C   UNL     1       4.774  -3.407  -8.973  1.00  0.00     0.000 C 
BRANCH  18  19
ATOM     19  C   UNL     1       3.521  -3.878  -9.740  1.00  0.00     0.000 C 
BRANCH  19  20
ATOM     20  C   UNL     1       3.308  -5.403  -9.772  1.00  0.00     0.006 C 
BRANCH  20  21
ATOM     21  C   UNL     1       1.875  -5.837 -10.125  1.00  0.00     0.053 C 
BRANCH  21  22
ATOM     22  C   UNL     1       1.414  -6.987  -9.284  1.00  0.00     0.041 C 
ATOM     23  O   UNL     1       1.803  -7.098  -8.091  1.00  0.00    -0.550 OA
ATOM     24  O   UNL     1       0.568  -7.950  -9.823  1.00  0.00    -0.550 OA
ENDBRANCH  21  22
ENDBRANCH  20  21
ENDBRANCH  19  20
ENDBRANCH  18  19
ENDBRANCH  17  18
ENDBRANCH  16  17
ENDBRANCH  15  16
ENDBRANCH  14  15
ENDBRANCH  13  14
ENDBRANCH   1  13
TORSDOF 20
ENDMDL
MODEL 2
REMARK VINA RESULT:     0.301      2.350      6.457
REMARK INTER + INTRA:           1.750
REMARK INTER:                   2.226
REMARK INTRA:                  -0.477
REMARK UNBOUND:                 1.096
REMARK SMILES CCCCCCCCCCCCCCCCCCCCCC(=O)[O-]
REMARK SMILES IDX 12 1 11 2 10 3 9 4 8 5 7 6 6 7 5 8 4 9 3 10 2 11 1 12 13 13
REMARK SMILES IDX 14 14 15 15 16 16 17 17 18 18 19 19 20 20 21 21 22 22 23 23
REMARK SMILES IDX 24 24
REMARK H PARENT
REMARK Flexibility Score: inf
ROOT
ATOM      1  C   UNL     1      11.752  -6.808  -5.231  1.00  0.00     0.000 C 
ENDROOT
BRANCH   1   2
ATOM      2  C   UNL     1      11.824  -8.115  -6.036  1.00  0.00     0.000 C 
BRANCH   2   3
ATOM      3  C   UNL     1      11.169  -7.995  -7.422  1.00  0.00     0.000 C 
BRANCH   3   4
ATOM      4  C   UNL     1      12.125  -7.379  -8.466  1.00  0.00    -0.000 C 
BRANCH   4   5
ATOM      5  C   UNL     1      11.663  -6.005  -8.982  1.00  0.00    -0.000 C 
BRANCH   5   6
ATOM      6  C   UNL     1      10.596  -6.110 -10.084  1.00  0.00    -0.000 C 
BRANCH   6   7
ATOM      7  C   UNL     1       9.220  -6.516  -9.535  1.00  0.00    -0.000 C 
BRANCH   7   8
ATOM      8  C   UNL     1       8.081  -5.645 -10.096  1.00  0.00    -0.000 C 
BRANCH   8   9
ATOM      9  C   UNL     1       8.314  -4.145  -9.859  1.00  0.00    -0.000 C 
BRANCH   9  10
ATOM     10  C   UNL     1       7.030  -3.314 -10.034  1.00  0.00    -0.000 C 
BRANCH  10  11
ATOM     11  C   UNL     1       5.937  -3.699  -9.025  1.00  0.00    -0.003 C 
ATOM     12  C   UNL     1       4.572  -3.902  -9.683  1.00  0.00     0.004 C 
ENDBRANCH  10  11
ENDBRANCH   9  10
ENDBRANCH   8   9
ENDBRANCH   7   8
ENDBRANCH   6   7
ENDBRANCH   5   6
ENDBRANCH   4   5
ENDBRANCH   3   4
ENDBRANCH   2   3
ENDBRANCH   1   2
BRANCH   1  13
ATOM     13  C   UNL     1      11.364  -7.039  -3.760  1.00  0.00     0.000 C 
BRANCH  13  14
ATOM     14  C   UNL     1      10.262  -6.081  -3.283  1.00  0.00     0.000 C 
BRANCH  14  15
ATOM     15  C   UNL     1      10.767  -5.074  -2.235  1.00  0.00     0.000 C 
BRANCH  15  16
ATOM     16  C   UNL     1      12.125  -4.447  -2.623  1.00  0.00     0.000 C 
BRANCH  16  17
ATOM     17  C   UNL     1      12.022  -3.380  -3.730  1.00  0.00     0.000 C 
BRANCH  17  18
ATOM     18  C   UNL     1      10.710  -3.403  -4.536  1.00  0.00     0.000 C 
BRANCH  18  19
ATOM     19  C   UNL     1      10.869  -3.738  -6.033  1.00  0.00     0.000 C 
BRANCH  19  20
ATOM     20  C   UNL     1      10.054  -4.951  -6.522  1.00  0.00     0.006 C 
BRANCH  20  21
ATOM     21  C   UNL     1       8.559  -4.897  -6.169  1.00  0.00     0.053 C 
BRANCH  21  22
ATOM     22  C   UNL     1       7.856  -6.176  -6.508  1.00  0.00     0.041 C 
ATOM     23  O   UNL     1       6.694  -6.152  -6.996  1.00  0.00    -0.550 OA
ATOM     24  O   UNL     1       8.475  -7.397  -6.268  1.00  0.00    -0.550 OA
ENDBRANCH  21  22
ENDBRANCH  20  21
ENDBRANCH  19  20
ENDBRANCH  18  19
ENDBRANCH  17  18
ENDBRANCH  16  17
ENDBRANCH  15  16
ENDBRANCH  14  15
ENDBRANCH  13  14
ENDBRANCH   1  13
TORSDOF 20
ENDMDL
