MODEL 1
REMARK VINA RESULT:    -4.786      0.000      0.000
REMARK INTER + INTRA:         -11.960
REMARK INTER:                  -9.262
REMARK INTRA:                  -2.698
REMARK UNBOUND:                -2.698
REMARK SMILES CCCCCCCCCCCCCCCCCC(=O)[O-]
REMARK SMILES IDX 10 1 11 2 12 3 13 4 14 5 15 6 16 7 17 8 18 9 19 10 20 11
REMARK SMILES IDX 9 12 8 13 7 14 6 15 5 16 4 17 3 18 2 19 1 20
REMARK H PARENT
REMARK Flexibility Score: inf
ROOT
ATOM      1  C   UNL     1      30.106  30.412  16.810  1.00  0.00     0.000 C 
ENDROOT
BRANCH   1   2
ATOM      2  C   UNL     1      29.463  30.975  15.531  1.00  0.00     0.000 C 
BRANCH   2   3
ATOM      3  C   UNL     1      28.847  29.922  14.585  1.00  0.00     0.000 C 
BRANCH   3   4
ATOM      4  C   UNL     1      28.822  30.310  13.095  1.00  0.00     0.000 C 
BRANCH   4   5
ATOM      5  C   UNL     1      30.016  31.188  12.683  1.00  0.00     0.000 C 
BRANCH   5   6
ATOM      6  C   UNL     1      30.335  31.096  11.179  1.00  0.00     0.000 C 
BRANCH   6   7
ATOM      7  C   UNL     1      31.363  30.015  10.794  1.00  0.00     0.006 C 
BRANCH   7   8
ATOM      8  C   UNL     1      32.057  30.294   9.455  1.00  0.00     0.053 C 
BRANCH   8   9
ATOM      9  C   UNL     1      33.522  30.521   9.661  1.00  0.00     0.041 C 
ATOM     10  O   UNL     1      33.973  31.691   9.772  1.00  0.00    -0.550 OA
ATOM     11  O   UNL     1      34.395  29.441   9.692  1.00  0.00    -0.550 OA
ENDBRANCH   8   9
ENDBRANCH   7   8
ENDBRANCH   6   7
ENDBRANCH   5   6
ENDBRANCH   4   5
ENDBRANCH   3   4
ENDBRANCH   2   3
ENDBRANCH   1   2
BRANCH   1  12
ATOM     12  C   UNL     1      31.314  31.233  17.292  1.00  0.00     0.000 C 
BRANCH  12  13
ATOM     13  C   UNL     1      31.878  32.143  16.191  1.00  0.00    -0.000 C 
BRANCH  13  14
ATOM     14  C   UNL     1      32.927  31.430  15.315  1.00  0.00    -0.000 C 
BRANCH  14  15
ATOM     15  C   UNL     1      33.584  30.240  16.043  1.00  0.00    -0.000 C 
BRANCH  15  16
ATOM     16  C   UNL     1      33.692  28.967  15.179  1.00  0.00    -0.000 C 
BRANCH  16  17
ATOM     17  C   UNL     1      32.775  28.944  13.942  1.00  0.00    -0.000 C 
BRANCH  17  18
ATOM     18  C   UNL     1      31.638  27.899  14.030  1.00  0.00    -0.000 C 
BRANCH  18  19
ATOM     19  C   UNL     1      31.567  27.183  15.390  1.00  0.00    -0.003 C 
ATOM     20  C   UNL     1      30.146  26.771  15.769  1.00  0.00     0.004 C 
ENDBRANCH  18  19
ENDBRANCH  17  18
ENDBRANCH  16  17
ENDBRANCH  15  16
ENDBRANCH  14  15
ENDBRANCH  13  14
ENDBRANCH  12  13
ENDBRANCH   1  12
TORSDOF 16
ENDMDL
MODEL 2
REMARK VINA RESULT:    -4.718      2.886      5.763
REMARK INTER + INTRA:         -11.828
REMARK INTER:                  -9.636
REMARK INTRA:                  -2.193
REMARK UNBOUND:                -2.698
REMARK SMILES CCCCCCCCCCCCCCCCCC(=O)[O-]
REMARK SMILES IDX 10 1 11 2 12 3 13 4 14 5 15 6 16 7 17 8 18 9 19 10 20 11
REMARK SMILES IDX 9 12 8 13 7 14 6 15 5 16 4 17 3 18 2 19 1 20
REMARK H PARENT
REMARK Flexibility Score: inf
ROOT
ATOM      1  C   UNL     1      30.623  30.832  16.790  1.00  0.00     0.000 C 
ENDROOT
BRANCH   1   2
ATOM      2  C   UNL     1      31.778  31.813  16.522  1.00  0.00     0.000 C 
BRANCH   2   3
ATOM      3  C   UNL     1      33.019  31.198  15.840  1.00  0.00     0.000 C 
BRANCH   3   4
ATOM      4  C   UNL     1      33.349  29.752  16.253  1.00  0.00     0.000 C 
BRANCH   4   5
ATOM      5  C   UNL     1      33.358  28.776  15.065  1.00  0.00     0.000 C 
BRANCH   5   6
ATOM      6  C   UNL     1      32.436  27.561  15.282  1.00  0.00     0.000 C 
BRANCH   6   7
ATOM      7  C   UNL     1      31.012  27.713  14.713  1.00  0.00     0.006 C 
BRANCH   7   8
ATOM      8  C   UNL     1      29.923  27.230  15.681  1.00  0.00     0.053 C 
BRANCH   8   9
ATOM      9  C   UNL     1      28.624  27.049  14.959  1.00  0.00     0.041 C 
ATOM     10  O   UNL     1      28.183  27.960  14.210  1.00  0.00    -0.550 OA
ATOM     11  O   UNL     1      27.882  25.890  15.144  1.00  0.00    -0.550 OA
ENDBRANCH   8   9
ENDBRANCH   7   8
ENDBRANCH   6   7
ENDBRANCH   5   6
ENDBRANCH   4   5
ENDBRANCH   3   4
ENDBRANCH   2   3
ENDBRANCH   1   2
BRANCH   1  12
ATOM     12  C   UNL     1      29.568  30.821  15.672  1.00  0.00     0.000 C 
BRANCH  12  13
ATOM     13  C   UNL     1      30.014  31.620  14.439  1.00  0.00    -0.000 C 
BRANCH  13  14
ATOM     14  C   UNL     1      29.274  31.190  13.157  1.00  0.00    -0.000 C 
BRANCH  14  15
ATOM     15  C   UNL     1      30.239  30.952  11.977  1.00  0.00    -0.000 C 
BRANCH  15  16
ATOM     16  C   UNL     1      31.704  30.737  12.408  1.00  0.00    -0.000 C 
BRANCH  16  17
ATOM     17  C   UNL     1      32.595  30.051  11.355  1.00  0.00    -0.000 C 
BRANCH  17  18
ATOM     18  C   UNL     1      32.773  30.875  10.060  1.00  0.00    -0.000 C 
BRANCH  18  19
ATOM     19  C   UNL     1      34.223  31.324   9.812  1.00  0.00    -0.003 C 
ATOM     20  C   UNL     1      34.565  31.429   8.326  1.00  0.00     0.004 C 
ENDBRANCH  18  19
ENDBRANCH  17  18
ENDBRANCH  16  17
ENDBRANCH  15  16
ENDBRANCH  14  15
ENDBRANCH  13  14
ENDBRANCH  12  13
ENDBRANCH   1  12
TORSDOF 16
ENDMDL
MODEL 3
REMARK VINA RESULT:    -4.710      2.308      4.801
REMARK INTER + INTRA:         -11.814
REMARK INTER:                  -8.714
REMARK INTRA:                  -3.100
REMARK UNBOUND:                -2.698
REMARK SMILES CCCCCCCCCCCCCCCCCC(=O)[O-]
REMARK SMILES IDX 10 1 11 2 12 3 13 4 14 5 15 6 16 7 17 8 18 9 19 10 20 11
REMARK SMILES IDX 9 12 8 13 7 14 6 15 5 16 4 17 3 18 2 19 1 20
REMARK H PARENT
REMARK Flexibility Score: inf
ROOT
ATOM      1  C   UNL     1      30.217  30.396  17.142  1.00  0.00     0.000 C 
ENDROOT
BRANCH   1   2
ATOM      2  C   UNL     1      31.395  31.378  17.276  1.00  0.00     0.000 C 
BRANCH   2   3
ATOM      3  C   UNL     1      31.715  32.199  16.008  1.00  0.00     0.000 C 
BRANCH   3   4
ATOM      4  C   UNL     1      32.927  31.708  15.195  1.00  0.00     0.000 C 
BRANCH   4   5
ATOM      5  C   UNL     1      33.552  30.424  15.765  1.00  0.00     0.000 C 
BRANCH   5   6
ATOM      6  C   UNL     1      33.259  29.182  14.902  1.00  0.00     0.000 C 
BRANCH   6   7
ATOM      7  C   UNL     1      33.117  27.862  15.685  1.00  0.00     0.006 C 
BRANCH   7   8
ATOM      8  C   UNL     1      32.902  26.644  14.777  1.00  0.00     0.053 C 
BRANCH   8   9
ATOM      9  C   UNL     1      34.216  26.079  14.338  1.00  0.00     0.041 C 
ATOM     10  O   UNL     1      35.270  26.362  14.967  1.00  0.00    -0.550 OA
ATOM     11  O   UNL     1      34.283  25.270  13.211  1.00  0.00    -0.550 OA
ENDBRANCH   8   9
ENDBRANCH   7   8
ENDBRANCH   6   7
ENDBRANCH   5   6
ENDBRANCH   4   5
ENDBRANCH   3   4
ENDBRANCH   2   3
ENDBRANCH   1   2
BRANCH   1  12
ATOM     12  C   UNL     1      29.515  30.476  15.777  1.00  0.00     0.000 C 
BRANCH  12  13
ATOM     13  C   UNL     1      29.578  29.147  15.009  1.00  0.00    -0.000 C 
BRANCH  13  14
ATOM     14  C   UNL     1      29.627  29.350  13.481  1.00  0.00    -0.000 C 
BRANCH  14  15
ATOM     15  C   UNL     1      29.710  30.841  13.092  1.00  0.00    -0.000 C 
BRANCH  15  16
ATOM     16  C   UNL     1      30.444  31.094  11.760  1.00  0.00    -0.000 C 
BRANCH  16  17
ATOM     17  C   UNL     1      31.964  30.851  11.801  1.00  0.00    -0.000 C 
BRANCH  17  18
ATOM     18  C   UNL     1      32.479  29.936  10.667  1.00  0.00    -0.000 C 
BRANCH  18  19
ATOM     19  C   UNL     1      33.185  28.667  11.175  1.00  0.00    -0.003 C 
ATOM     20  C   UNL     1      32.239  27.473  11.299  1.00  0.00     0.004 C 
ENDBRANCH  18  19
ENDBRANCH  17  18
ENDBRANCH  16  17
ENDBRANCH  15  16
ENDBRANCH  14  15
ENDBRANCH  13  14
ENDBRANCH  12  13
ENDBRANCH   1  12
TORSDOF 16
ENDMDL
MODEL 4
REMARK VINA RESULT:    -4.701      2.972      5.163
REMARK INTER + INTRA:         -11.795
REMARK INTER:                  -9.029
REMARK INTRA:                  -2.767
REMARK UNBOUND:                -2.698
REMARK SMILES CCCCCCCCCCCCCCCCCC(=O)[O-]
REMARK SMILES IDX 10 1 11 2 12 3 13 4 14 5 15 6 16 7 17 8 18 9 19 10 20 11
REMARK SMILES IDX 9 12 8 13 7 14 6 15 5 16 4 17 3 18 2 19 1 20
REMARK H PARENT
REMARK Flexibility Score: inf
ROOT
ATOM      1  C   UNL     1      33.298  30.577  15.409  1.00  0.00     0.000 C 
ENDROOT
BRANCH   1   2
ATOM      2  C   UNL     1      32.357  31.690  15.902  1.00  0.00     0.000 C 
BRANCH   2   3
ATOM      3  C   UNL     1      31.583  31.372  17.200  1.00  0.00     0.000 C 
BRANCH   3   4
ATOM      4  C   UNL     1      30.257  30.614  17.007  1.00  0.00     0.000 C 
BRANCH   4   5
ATOM      5  C   UNL     1      29.655  30.805  15.605  1.00  0.00     0.000 C 
BRANCH   5   6
ATOM      6  C   UNL     1      29.159  29.487  14.982  1.00  0.00     0.000 C 
BRANCH   6   7
ATOM      7  C   UNL     1      30.190  28.342  14.969  1.00  0.00     0.006 C 
BRANCH   7   8
ATOM      8  C   UNL     1      29.638  27.027  15.533  1.00  0.00     0.053 C 
BRANCH   8   9
ATOM      9  C   UNL     1      28.442  26.582  14.750  1.00  0.00     0.041 C 
ATOM     10  O   UNL     1      28.537  26.378  13.511  1.00  0.00    -0.550 OA
ATOM     11  O   UNL     1      27.215  26.429  15.381  1.00  0.00    -0.550 OA
ENDBRANCH   8   9
ENDBRANCH   7   8
ENDBRANCH   6   7
ENDBRANCH   5   6
ENDBRANCH   4   5
ENDBRANCH   3   4
ENDBRANCH   2   3
ENDBRANCH   1   2
BRANCH   1  12
ATOM     12  C   UNL     1      33.564  29.496  16.471  1.00  0.00     0.000 C 
BRANCH  12  13
ATOM     13  C   UNL     1      33.560  28.080  15.876  1.00  0.00    -0.000 C 
BRANCH  13  14
ATOM     14  C   UNL     1      34.316  28.001  14.535  1.00  0.00    -0.000 C 
BRANCH  14  15
ATOM     15  C   UNL     1      33.385  27.634  13.361  1.00  0.00    -0.000 C 
BRANCH  15  16
ATOM     16  C   UNL     1      33.390  28.671  12.218  1.00  0.00    -0.000 C 
BRANCH  16  17
ATOM     17  C   UNL     1      31.996  29.156  11.777  1.00  0.00    -0.000 C 
BRANCH  17  18
ATOM     18  C   UNL     1      31.802  30.684  11.898  1.00  0.00    -0.000 C 
BRANCH  18  19
ATOM     19  C   UNL     1      30.326  31.116  11.910  1.00  0.00    -0.003 C 
ATOM     20  C   UNL     1      29.399  30.074  11.286  1.00  0.00     0.004 C 
ENDBRANCH  18  19
ENDBRANCH  17  18
ENDBRANCH  16  17
ENDBRANCH  15  16
ENDBRANCH  14  15
ENDBRANCH  13  14
ENDBRANCH  12  13
ENDBRANCH   1  12
TORSDOF 16
ENDMDL
MODEL 5
REMARK VINA RESULT:    -4.693      1.773      4.123
REMARK INTER + INTRA:         -11.781
REMARK INTER:                  -9.416
REMARK INTRA:                  -2.365
REMARK UNBOUND:                -2.698
REMARK SMILES CCCCCCCCCCCCCCCCCC(=O)[O-]
REMARK SMILES IDX 10 1 11 2 12 3 13 4 14 5 15 6 16 7 17 8 18 9 19 10 20 11
REMARK SMILES IDX 9 12 8 13 7 14 6 15 5 16 4 17 3 18 2 19 1 20
REMARK H PARENT
REMARK Flexibility Score: inf
ROOT
ATOM      1  C   UNL     1      33.642  29.929  16.159  1.00  0.00     0.000 C 
ENDROOT
BRANCH   1   2
ATOM      2  C   UNL     1      32.939  31.127  15.499  1.00  0.00     0.000 C 
BRANCH   2   3
ATOM      3  C   UNL     1      31.932  31.877  16.397  1.00  0.00     0.000 C 
BRANCH   3   4
ATOM      4  C   UNL     1      31.078  30.984  17.315  1.00  0.00     0.000 C 
BRANCH   4   5
ATOM      5  C   UNL     1      30.028  30.165  16.547  1.00  0.00     0.000 C 
BRANCH   5   6
ATOM      6  C   UNL     1      29.350  30.966  15.420  1.00  0.00     0.000 C 
BRANCH   6   7
ATOM      7  C   UNL     1      29.419  30.316  14.024  1.00  0.00     0.006 C 
BRANCH   7   8
ATOM      8  C   UNL     1      29.473  31.342  12.885  1.00  0.00     0.053 C 
BRANCH   8   9
ATOM      9  C   UNL     1      30.397  30.875  11.803  1.00  0.00     0.041 C 
ATOM     10  O   UNL     1      31.638  31.064  11.904  1.00  0.00    -0.550 OA
ATOM     11  O   UNL     1      29.883  30.267  10.665  1.00  0.00    -0.550 OA
ENDBRANCH   8   9
ENDBRANCH   7   8
ENDBRANCH   6   7
ENDBRANCH   5   6
ENDBRANCH   4   5
ENDBRANCH   3   4
ENDBRANCH   2   3
ENDBRANCH   1   2
BRANCH   1  12
ATOM     12  C   UNL     1      33.696  28.686  15.255  1.00  0.00     0.000 C 
BRANCH  12  13
ATOM     13  C   UNL     1      32.715  28.777  14.077  1.00  0.00    -0.000 C 
BRANCH  13  14
ATOM     14  C   UNL     1      31.677  27.637  14.084  1.00  0.00    -0.000 C 
BRANCH  14  15
ATOM     15  C   UNL     1      31.697  26.837  15.402  1.00  0.00    -0.000 C 
BRANCH  15  16
ATOM     16  C   UNL     1      30.399  26.048  15.669  1.00  0.00    -0.000 C 
BRANCH  16  17
ATOM     17  C   UNL     1      29.100  26.811  15.350  1.00  0.00    -0.000 C 
BRANCH  17  18
ATOM     18  C   UNL     1      27.817  25.983  15.590  1.00  0.00    -0.000 C 
BRANCH  18  19
ATOM     19  C   UNL     1      28.051  24.718  16.432  1.00  0.00    -0.003 C 
ATOM     20  C   UNL     1      27.817  24.948  17.924  1.00  0.00     0.004 C 
ENDBRANCH  18  19
ENDBRANCH  17  18
ENDBRANCH  16  17
ENDBRANCH  15  16
ENDBRANCH  14  15
ENDBRANCH  13  14
ENDBRANCH  12  13
ENDBRANCH   1  12
TORSDOF 16
ENDMDL
MODEL 6
REMARK VINA RESULT:    -4.690      3.076      5.678
REMARK INTER + INTRA:         -11.775
REMARK INTER:                  -9.171
REMARK INTRA:                  -2.605
REMARK UNBOUND:                -2.698
REMARK SMILES CCCCCCCCCCCCCCCCCC(=O)[O-]
REMARK SMILES IDX 10 1 11 2 12 3 13 4 14 5 15 6 16 7 17 8 18 9 19 10 20 11
REMARK SMILES IDX 9 12 8 13 7 14 6 15 5 16 4 17 3 18 2 19 1 20
REMARK H PARENT
REMARK Flexibility Score: inf
ROOT
ATOM      1  C   UNL     1      32.154  32.014  16.091  1.00  0.00     0.000 C 
ENDROOT
BRANCH   1   2
ATOM      2  C   UNL     1      33.076  31.053  15.322  1.00  0.00     0.000 C 
BRANCH   2   3
ATOM      3  C   UNL     1      33.675  29.902  16.160  1.00  0.00     0.000 C 
BRANCH   3   4
ATOM      4  C   UNL     1      33.315  28.484  15.682  1.00  0.00     0.000 C 
BRANCH   4   5
ATOM      5  C   UNL     1      32.772  28.455  14.244  1.00  0.00     0.000 C 
BRANCH   5   6
ATOM      6  C   UNL     1      31.466  27.649  14.113  1.00  0.00     0.000 C 
BRANCH   6   7
ATOM      7  C   UNL     1      31.196  26.653  15.258  1.00  0.00     0.006 C 
BRANCH   7   8
ATOM      8  C   UNL     1      29.886  26.936  16.005  1.00  0.00     0.053 C 
BRANCH   8   9
ATOM      9  C   UNL     1      28.782  26.078  15.469  1.00  0.00     0.041 C 
ATOM     10  O   UNL     1      27.681  26.594  15.143  1.00  0.00    -0.550 OA
ATOM     11  O   UNL     1      28.956  24.704  15.367  1.00  0.00    -0.550 OA
ENDBRANCH   8   9
ENDBRANCH   7   8
ENDBRANCH   6   7
ENDBRANCH   5   6
ENDBRANCH   4   5
ENDBRANCH   3   4
ENDBRANCH   2   3
ENDBRANCH   1   2
BRANCH   1  12
ATOM     12  C   UNL     1      31.399  31.335  17.245  1.00  0.00     0.000 C 
BRANCH  12  13
ATOM     13  C   UNL     1      30.175  30.546  16.758  1.00  0.00    -0.000 C 
BRANCH  13  14
ATOM     14  C   UNL     1      29.695  31.002  15.365  1.00  0.00    -0.000 C 
BRANCH  14  15
ATOM     15  C   UNL     1      28.636  30.050  14.772  1.00  0.00    -0.000 C 
BRANCH  15  16
ATOM     16  C   UNL     1      28.647  29.994  13.230  1.00  0.00    -0.000 C 
BRANCH  16  17
ATOM     17  C   UNL     1      29.547  31.043  12.550  1.00  0.00    -0.000 C 
BRANCH  17  18
ATOM     18  C   UNL     1      29.627  30.892  11.014  1.00  0.00    -0.000 C 
BRANCH  18  19
ATOM     19  C   UNL     1      31.054  30.652  10.494  1.00  0.00    -0.003 C 
ATOM     20  C   UNL     1      32.101  30.670  11.607  1.00  0.00     0.004 C 
ENDBRANCH  18  19
ENDBRANCH  17  18
ENDBRANCH  16  17
ENDBRANCH  15  16
ENDBRANCH  14  15
ENDBRANCH  13  14
ENDBRANCH  12  13
ENDBRANCH   1  12
TORSDOF 16
ENDMDL
MODEL 7
REMARK VINA RESULT:    -4.687      3.516      5.253
REMARK INTER + INTRA:         -11.768
REMARK INTER:                  -8.929
REMARK INTRA:                  -2.839
REMARK UNBOUND:                -2.698
REMARK SMILES CCCCCCCCCCCCCCCCCC(=O)[O-]
REMARK SMILES IDX 10 1 11 2 12 3 13 4 14 5 15 6 16 7 17 8 18 9 19 10 20 11
REMARK SMILES IDX 9 12 8 13 7 14 6 15 5 16 4 17 3 18 2 19 1 20
REMARK H PARENT
REMARK Flexibility Score: inf
ROOT
ATOM      1  C   UNL     1      31.752  32.200  15.676  1.00  0.00     0.000 C 
ENDROOT
BRANCH   1   2
ATOM      2  C   UNL     1      30.536  31.941  14.770  1.00  0.00     0.000 C 
BRANCH   2   3
ATOM      3  C   UNL     1      29.483  30.969  15.343  1.00  0.00     0.000 C 
BRANCH   3   4
ATOM      4  C   UNL     1      28.826  30.030  14.315  1.00  0.00     0.000 C 
BRANCH   4   5
ATOM      5  C   UNL     1      29.463  28.631  14.286  1.00  0.00     0.000 C 
BRANCH   5   6
ATOM      6  C   UNL     1      29.995  28.188  15.663  1.00  0.00     0.000 C 
BRANCH   6   7
ATOM      7  C   UNL     1      30.053  26.663  15.880  1.00  0.00     0.006 C 
BRANCH   7   8
ATOM      8  C   UNL     1      29.155  25.883  14.911  1.00  0.00     0.053 C 
BRANCH   8   9
ATOM      9  C   UNL     1      27.824  25.607  15.537  1.00  0.00     0.041 C 
ATOM     10  O   UNL     1      27.746  25.322  16.762  1.00  0.00    -0.550 OA
ATOM     11  O   UNL     1      26.673  25.625  14.761  1.00  0.00    -0.550 OA
ENDBRANCH   8   9
ENDBRANCH   7   8
ENDBRANCH   6   7
ENDBRANCH   5   6
ENDBRANCH   4   5
ENDBRANCH   3   4
ENDBRANCH   2   3
ENDBRANCH   1   2
BRANCH   1  12
ATOM     12  C   UNL     1      31.756  31.333  16.946  1.00  0.00     0.000 C 
BRANCH  12  13
ATOM     13  C   UNL     1      32.850  30.255  16.915  1.00  0.00    -0.000 C 
BRANCH  13  14
ATOM     14  C   UNL     1      33.339  29.952  15.485  1.00  0.00    -0.000 C 
BRANCH  14  15
ATOM     15  C   UNL     1      33.734  28.472  15.304  1.00  0.00    -0.000 C 
BRANCH  15  16
ATOM     16  C   UNL     1      33.207  27.845  13.996  1.00  0.00    -0.000 C 
BRANCH  16  17
ATOM     17  C   UNL     1      33.385  28.720  12.741  1.00  0.00    -0.000 C 
BRANCH  17  18
ATOM     18  C   UNL     1      32.059  29.042  12.014  1.00  0.00    -0.000 C 
BRANCH  18  19
ATOM     19  C   UNL     1      31.791  30.549  11.867  1.00  0.00    -0.003 C 
ATOM     20  C   UNL     1      30.533  30.851  11.054  1.00  0.00     0.004 C 
ENDBRANCH  18  19
ENDBRANCH  17  18
ENDBRANCH  16  17
ENDBRANCH  15  16
ENDBRANCH  14  15
ENDBRANCH  13  14
ENDBRANCH  12  13
ENDBRANCH   1  12
TORSDOF 16
ENDMDL
MODEL 8
REMARK VINA RESULT:    -4.670      3.013      5.133
REMARK INTER + INTRA:         -11.737
REMARK INTER:                  -8.983
REMARK INTRA:                  -2.755
REMARK UNBOUND:                -2.698
REMARK SMILES CCCCCCCCCCCCCCCCCC(=O)[O-]
REMARK SMILES IDX 10 1 11 2 12 3 13 4 14 5 15 6 16 7 17 8 18 9 19 10 20 11
REMARK SMILES IDX 9 12 8 13 7 14 6 15 5 16 4 17 3 18 2 19 1 20
REMARK H PARENT
REMARK Flexibility Score: inf
ROOT
ATOM      1  C   UNL     1      29.504  30.635  15.882  1.00  0.00     0.000 C 
ENDROOT
BRANCH   1   2
ATOM      2  C   UNL     1      30.643  30.772  16.907  1.00  0.00     0.000 C 
BRANCH   2   3
ATOM      3  C   UNL     1      31.715  31.829  16.563  1.00  0.00     0.000 C 
BRANCH   3   4
ATOM      4  C   UNL     1      32.928  31.303  15.775  1.00  0.00     0.000 C 
BRANCH   4   5
ATOM      5  C   UNL     1      33.325  29.871  16.168  1.00  0.00     0.000 C 
BRANCH   5   6
ATOM      6  C   UNL     1      33.092  28.853  15.036  1.00  0.00     0.000 C 
BRANCH   6   7
ATOM      7  C   UNL     1      32.167  27.675  15.398  1.00  0.00     0.006 C 
BRANCH   7   8
ATOM      8  C   UNL     1      31.005  27.497  14.412  1.00  0.00     0.053 C 
BRANCH   8   9
ATOM      9  C   UNL     1      29.776  27.032  15.129  1.00  0.00     0.041 C 
ATOM     10  O   UNL     1      29.871  26.231  16.097  1.00  0.00    -0.550 OA
ATOM     11  O   UNL     1      28.522  27.453  14.704  1.00  0.00    -0.550 OA
ENDBRANCH   8   9
ENDBRANCH   7   8
ENDBRANCH   6   7
ENDBRANCH   5   6
ENDBRANCH   4   5
ENDBRANCH   3   4
ENDBRANCH   2   3
ENDBRANCH   1   2
BRANCH   1  12
ATOM     12  C   UNL     1      29.771  31.400  14.575  1.00  0.00     0.000 C 
BRANCH  12  13
ATOM     13  C   UNL     1      29.296  30.626  13.337  1.00  0.00    -0.000 C 
BRANCH  13  14
ATOM     14  C   UNL     1      30.120  30.962  12.078  1.00  0.00    -0.000 C 
BRANCH  14  15
ATOM     15  C   UNL     1      31.638  30.885  12.336  1.00  0.00    -0.000 C 
BRANCH  15  16
ATOM     16  C   UNL     1      32.432  30.236  11.183  1.00  0.00    -0.000 C 
BRANCH  16  17
ATOM     17  C   UNL     1      32.832  28.767  11.419  1.00  0.00    -0.000 C 
BRANCH  17  18
ATOM     18  C   UNL     1      34.358  28.549  11.530  1.00  0.00    -0.000 C 
BRANCH  18  19
ATOM     19  C   UNL     1      34.752  27.080  11.763  1.00  0.00    -0.003 C 
ATOM     20  C   UNL     1      35.479  26.865  13.089  1.00  0.00     0.004 C 
ENDBRANCH  18  19
ENDBRANCH  17  18
ENDBRANCH  16  17
ENDBRANCH  15  16
ENDBRANCH  14  15
ENDBRANCH  13  14
ENDBRANCH  12  13
ENDBRANCH   1  12
TORSDOF 16
ENDMDL
MODEL 9
REMARK VINA RESULT:    -4.654      2.169      5.239
REMARK INTER + INTRA:         -11.706
REMARK INTER:                  -9.001
REMARK INTRA:                  -2.706
REMARK UNBOUND:                -2.698
REMARK SMILES CCCCCCCCCCCCCCCCCC(=O)[O-]
REMARK SMILES IDX 10 1 11 2 12 3 13 4 14 5 15 6 16 7 17 8 18 9 19 10 20 11
REMARK SMILES IDX 9 12 8 13 7 14 6 15 5 16 4 17 3 18 2 19 1 20
REMARK H PARENT
REMARK Flexibility Score: inf
ROOT
ATOM      1  C   UNL     1      29.533  30.654  15.609  1.00  0.00     0.000 C 
ENDROOT
BRANCH   1   2
ATOM      2  C   UNL     1      30.139  30.482  17.013  1.00  0.00     0.000 C 
BRANCH   2   3
ATOM      3  C   UNL     1      31.424  31.295  17.280  1.00  0.00     0.000 C 
BRANCH   3   4
ATOM      4  C   UNL     1      31.965  32.086  16.075  1.00  0.00     0.000 C 
BRANCH   4   5
ATOM      5  C   UNL     1      33.078  31.342  15.320  1.00  0.00     0.000 C 
BRANCH   5   6
ATOM      6  C   UNL     1      33.552  30.072  16.052  1.00  0.00     0.000 C 
BRANCH   6   7
ATOM      7  C   UNL     1      33.638  28.807  15.176  1.00  0.00     0.006 C 
BRANCH   7   8
ATOM      8  C   UNL     1      32.538  27.784  15.486  1.00  0.00     0.053 C 
BRANCH   8   9
ATOM      9  C   UNL     1      32.640  26.609  14.565  1.00  0.00     0.041 C 
ATOM     10  O   UNL     1      31.932  26.555  13.525  1.00  0.00    -0.550 OA
ATOM     11  O   UNL     1      33.490  25.554  14.875  1.00  0.00    -0.550 OA
ENDBRANCH   8   9
ENDBRANCH   7   8
ENDBRANCH   6   7
ENDBRANCH   5   6
ENDBRANCH   4   5
ENDBRANCH   3   4
ENDBRANCH   2   3
ENDBRANCH   1   2
BRANCH   1  12
ATOM     12  C   UNL     1      29.461  29.338  14.816  1.00  0.00     0.000 C 
BRANCH  12  13
ATOM     13  C   UNL     1      29.690  29.550  13.312  1.00  0.00    -0.000 C 
BRANCH  13  14
ATOM     14  C   UNL     1      30.113  30.994  12.976  1.00  0.00    -0.000 C 
BRANCH  14  15
ATOM     15  C   UNL     1      31.448  31.046  12.204  1.00  0.00    -0.000 C 
BRANCH  15  16
ATOM     16  C   UNL     1      32.122  29.669  12.036  1.00  0.00    -0.000 C 
BRANCH  16  17
ATOM     17  C   UNL     1      32.207  29.163  10.584  1.00  0.00    -0.000 C 
BRANCH  17  18
ATOM     18  C   UNL     1      32.298  30.295   9.535  1.00  0.00    -0.000 C 
BRANCH  18  19
ATOM     19  C   UNL     1      33.708  30.474   8.946  1.00  0.00    -0.003 C 
ATOM     20  C   UNL     1      34.346  31.808   9.331  1.00  0.00     0.004 C 
ENDBRANCH  18  19
ENDBRANCH  17  18
ENDBRANCH  16  17
ENDBRANCH  15  16
ENDBRANCH  14  15
ENDBRANCH  13  14
ENDBRANCH  12  13
ENDBRANCH   1  12
TORSDOF 16
ENDMDL
