MODEL 1
REMARK VINA RESULT:    -3.140      0.000      0.000
REMARK INTER + INTRA:          -9.473
REMARK INTER:                  -7.913
REMARK INTRA:                  -1.560
REMARK UNBOUND:                -1.560
REMARK SMILES CCCCCCCCCCCCCCCCCCCCCCCCCCCC(=O)[O-]
REMARK SMILES IDX 15 1 16 2 17 3 18 4 19 5 20 6 21 7 22 8 23 9 24 10 25 11
REMARK SMILES IDX 26 12 27 13 28 14 29 15 30 16 14 17 13 18 12 19 11 20 10 21
REMARK SMILES IDX 9 22 8 23 7 24 6 25 5 26 4 27 3 28 2 29 1 30
REMARK H PARENT
REMARK Flexibility Score: inf
ROOT
ATOM      1  C   UNL     1      16.292 -32.166  14.349  1.00  0.00     0.000 C 
ENDROOT
BRANCH   1   2
ATOM      2  C   UNL     1      17.322 -31.844  13.252  1.00  0.00     0.000 C 
BRANCH   2   3
ATOM      3  C   UNL     1      18.701 -31.448  13.824  1.00  0.00     0.000 C 
BRANCH   3   4
ATOM      4  C   UNL     1      19.485 -30.459  12.942  1.00  0.00     0.000 C 
BRANCH   4   5
ATOM      5  C   UNL     1      20.508 -29.578  13.685  1.00  0.00     0.000 C 
BRANCH   5   6
ATOM      6  C   UNL     1      21.031 -28.365  12.892  1.00  0.00     0.000 C 
BRANCH   6   7
ATOM      7  C   UNL     1      22.027 -27.508  13.691  1.00  0.00     0.000 C 
BRANCH   7   8
ATOM      8  C   UNL     1      21.429 -26.163  14.141  1.00  0.00     0.000 C 
BRANCH   8   9
ATOM      9  C   UNL     1      20.334 -25.585  13.218  1.00  0.00     0.000 C 
BRANCH   9  10
ATOM     10  C   UNL     1      19.931 -24.130  13.514  1.00  0.00     0.000 C 
BRANCH  10  11
ATOM     11  C   UNL     1      20.419 -23.645  14.887  1.00  0.00     0.000 C 
BRANCH  11  12
ATOM     12  C   UNL     1      20.807 -22.160  14.840  1.00  0.00     0.006 C 
BRANCH  12  13
ATOM     13  C   UNL     1      19.633 -21.266  14.418  1.00  0.00     0.053 C 
BRANCH  13  14
ATOM     14  C   UNL     1      19.911 -19.819  14.690  1.00  0.00     0.041 C 
ATOM     15  O   UNL     1      20.023 -19.405  15.874  1.00  0.00    -0.550 OA
ATOM     16  O   UNL     1      20.013 -18.921  13.634  1.00  0.00    -0.550 OA
ENDBRANCH  13  14
ENDBRANCH  12  13
ENDBRANCH  11  12
ENDBRANCH  10  11
ENDBRANCH   9  10
ENDBRANCH   8   9
ENDBRANCH   7   8
ENDBRANCH   6   7
ENDBRANCH   5   6
ENDBRANCH   4   5
ENDBRANCH   3   4
ENDBRANCH   2   3
ENDBRANCH   1   2
BRANCH   1  17
ATOM     17  C   UNL     1      15.540 -30.906  14.830  1.00  0.00     0.000 C 
BRANCH  17  18
ATOM     18  C   UNL     1      14.231 -30.645  14.065  1.00  0.00     0.000 C 
BRANCH  18  19
ATOM     19  C   UNL     1      13.357 -31.903  13.933  1.00  0.00     0.000 C 
BRANCH  19  20
ATOM     20  C   UNL     1      11.855 -31.594  14.034  1.00  0.00     0.000 C 
BRANCH  20  21
ATOM     21  C   UNL     1      10.980 -32.798  13.642  1.00  0.00     0.000 C 
BRANCH  21  22
ATOM     22  C   UNL     1       9.479 -32.462  13.618  1.00  0.00    -0.000 C 
BRANCH  22  23
ATOM     23  C   UNL     1       8.613 -33.648  13.161  1.00  0.00    -0.000 C 
BRANCH  23  24
ATOM     24  C   UNL     1       7.116 -33.444  13.460  1.00  0.00    -0.000 C 
BRANCH  24  25
ATOM     25  C   UNL     1       6.652 -33.921  14.853  1.00  0.00    -0.000 C 
BRANCH  25  26
ATOM     26  C   UNL     1       7.336 -35.199  15.371  1.00  0.00    -0.000 C 
BRANCH  26  27
ATOM     27  C   UNL     1       8.210 -34.951  16.609  1.00  0.00    -0.000 C 
BRANCH  27  28
ATOM     28  C   UNL     1       7.377 -34.371  17.761  1.00  0.00    -0.000 C 
BRANCH  28  29
ATOM     29  C   UNL     1       7.610 -32.865  17.960  1.00  0.00    -0.003 C 
ATOM     30  C   UNL     1       8.867 -32.361  17.252  1.00  0.00     0.004 C 
ENDBRANCH  28  29
ENDBRANCH  27  28
ENDBRANCH  26  27
ENDBRANCH  25  26
ENDBRANCH  24  25
ENDBRANCH  23  24
ENDBRANCH  22  23
ENDBRANCH  21  22
ENDBRANCH  20  21
ENDBRANCH  19  20
ENDBRANCH  18  19
ENDBRANCH  17  18
ENDBRANCH   1  17
TORSDOF 26
ENDMDL
MODEL 2
REMARK VINA RESULT:    -2.530      4.488     13.926
REMARK INTER + INTRA:          -7.936
REMARK INTER:                  -6.669
REMARK INTRA:                  -1.268
REMARK UNBOUND:                -1.560
REMARK SMILES CCCCCCCCCCCCCCCCCCCCCCCCCCCC(=O)[O-]
REMARK SMILES IDX 15 1 16 2 17 3 18 4 19 5 20 6 21 7 22 8 23 9 24 10 25 11
REMARK SMILES IDX 26 12 27 13 28 14 29 15 30 16 14 17 13 18 12 19 11 20 10 21
REMARK SMILES IDX 9 22 8 23 7 24 6 25 5 26 4 27 3 28 2 29 1 30
REMARK H PARENT
REMARK Flexibility Score: inf
ROOT
ATOM      1  C   UNL     1      14.821 -31.525  14.718  1.00  0.00     0.000 C 
ENDROOT
BRANCH   1   2
ATOM      2  C   UNL     1      13.464 -31.019  14.198  1.00  0.00     0.000 C 
BRANCH   2   3
ATOM      3  C   UNL     1      12.436 -32.155  14.004  1.00  0.00     0.000 C 
BRANCH   3   4
ATOM      4  C   UNL     1      11.017 -31.664  13.659  1.00  0.00     0.000 C 
BRANCH   4   5
ATOM      5  C   UNL     1      10.040 -32.755  13.180  1.00  0.00     0.000 C 
BRANCH   5   6
ATOM      6  C   UNL     1      10.596 -34.192  13.201  1.00  0.00     0.000 C 
BRANCH   6   7
ATOM      7  C   UNL     1       9.532 -35.253  12.875  1.00  0.00     0.000 C 
BRANCH   7   8
ATOM      8  C   UNL     1       8.101 -34.684  12.882  1.00  0.00     0.000 C 
BRANCH   8   9
ATOM      9  C   UNL     1       7.127 -35.360  13.870  1.00  0.00     0.000 C 
BRANCH   9  10
ATOM     10  C   UNL     1       7.791 -36.237  14.946  1.00  0.00     0.000 C 
BRANCH  10  11
ATOM     11  C   UNL     1       7.893 -35.533  16.307  1.00  0.00     0.000 C 
BRANCH  11  12
ATOM     12  C   UNL     1       7.244 -34.142  16.256  1.00  0.00     0.006 C 
BRANCH  12  13
ATOM     13  C   UNL     1       7.405 -33.377  17.576  1.00  0.00     0.053 C 
BRANCH  13  14
ATOM     14  C   UNL     1       8.517 -32.375  17.506  1.00  0.00     0.041 C 
ATOM     15  O   UNL     1       8.870 -31.745  18.537  1.00  0.00    -0.550 OA
ATOM     16  O   UNL     1       9.142 -32.114  16.292  1.00  0.00    -0.550 OA
ENDBRANCH  13  14
ENDBRANCH  12  13
ENDBRANCH  11  12
ENDBRANCH  10  11
ENDBRANCH   9  10
ENDBRANCH   8   9
ENDBRANCH   7   8
ENDBRANCH   6   7
ENDBRANCH   5   6
ENDBRANCH   4   5
ENDBRANCH   3   4
ENDBRANCH   2   3
ENDBRANCH   1   2
BRANCH   1  17
ATOM     17  C   UNL     1      15.989 -31.111  13.797  1.00  0.00     0.000 C 
BRANCH  17  18
ATOM     18  C   UNL     1      17.369 -31.533  14.332  1.00  0.00     0.000 C 
BRANCH  18  19
ATOM     19  C   UNL     1      18.394 -31.773  13.211  1.00  0.00     0.000 C 
BRANCH  19  20
ATOM     20  C   UNL     1      19.746 -31.097  13.490  1.00  0.00     0.000 C 
BRANCH  20  21
ATOM     21  C   UNL     1      19.748 -29.607  13.105  1.00  0.00     0.000 C 
BRANCH  21  22
ATOM     22  C   UNL     1      21.165 -29.015  13.019  1.00  0.00    -0.000 C 
BRANCH  22  23
ATOM     23  C   UNL     1      21.311 -27.707  13.815  1.00  0.00    -0.000 C 
BRANCH  23  24
ATOM     24  C   UNL     1      21.085 -26.454  12.949  1.00  0.00    -0.000 C 
BRANCH  24  25
ATOM     25  C   UNL     1      20.142 -25.394  13.558  1.00  0.00    -0.000 C 
BRANCH  25  26
ATOM     26  C   UNL     1      20.794 -24.036  13.870  1.00  0.00    -0.000 C 
BRANCH  26  27
ATOM     27  C   UNL     1      19.968 -23.185  14.845  1.00  0.00    -0.000 C 
BRANCH  27  28
ATOM     28  C   UNL     1      20.574 -21.782  14.999  1.00  0.00    -0.000 C 
BRANCH  28  29
ATOM     29  C   UNL     1      19.649 -20.676  14.468  1.00  0.00    -0.003 C 
ATOM     30  C   UNL     1      20.153 -19.271  14.798  1.00  0.00     0.004 C 
ENDBRANCH  28  29
ENDBRANCH  27  28
ENDBRANCH  26  27
ENDBRANCH  25  26
ENDBRANCH  24  25
ENDBRANCH  23  24
ENDBRANCH  22  23
ENDBRANCH  21  22
ENDBRANCH  20  21
ENDBRANCH  19  20
ENDBRANCH  18  19
ENDBRANCH  17  18
ENDBRANCH   1  17
TORSDOF 26
ENDMDL
MODEL 3
REMARK VINA RESULT:    -2.109      4.310     13.505
REMARK INTER + INTRA:          -6.876
REMARK INTER:                  -5.262
REMARK INTRA:                  -1.614
REMARK UNBOUND:                -1.560
REMARK SMILES CCCCCCCCCCCCCCCCCCCCCCCCCCCC(=O)[O-]
REMARK SMILES IDX 15 1 16 2 17 3 18 4 19 5 20 6 21 7 22 8 23 9 24 10 25 11
REMARK SMILES IDX 26 12 27 13 28 14 29 15 30 16 14 17 13 18 12 19 11 20 10 21
REMARK SMILES IDX 9 22 8 23 7 24 6 25 5 26 4 27 3 28 2 29 1 30
REMARK H PARENT
REMARK Flexibility Score: inf
ROOT
ATOM      1  C   UNL     1      12.433 -31.013  14.001  1.00  0.00     0.000 C 
ENDROOT
BRANCH   1   2
ATOM      2  C   UNL     1      12.205 -32.508  13.713  1.00  0.00     0.000 C 
BRANCH   2   3
ATOM      3  C   UNL     1      10.883 -32.776  12.962  1.00  0.00     0.000 C 
BRANCH   3   4
ATOM      4  C   UNL     1       9.659 -32.937  13.884  1.00  0.00     0.000 C 
BRANCH   4   5
ATOM      5  C   UNL     1       8.384 -33.470  13.202  1.00  0.00     0.000 C 
BRANCH   5   6
ATOM      6  C   UNL     1       8.393 -34.976  12.876  1.00  0.00     0.000 C 
BRANCH   6   7
ATOM      7  C   UNL     1       8.543 -35.859  14.125  1.00  0.00     0.000 C 
BRANCH   7   8
ATOM      8  C   UNL     1       7.194 -36.384  14.651  1.00  0.00     0.000 C 
BRANCH   8   9
ATOM      9  C   UNL     1       6.585 -35.584  15.821  1.00  0.00     0.000 C 
BRANCH   9  10
ATOM     10  C   UNL     1       7.444 -35.538  17.098  1.00  0.00     0.000 C 
BRANCH  10  11
ATOM     11  C   UNL     1       8.338 -34.292  17.167  1.00  0.00     0.000 C 
BRANCH  11  12
ATOM     12  C   UNL     1       7.495 -33.015  17.297  1.00  0.00     0.006 C 
BRANCH  12  13
ATOM     13  C   UNL     1       7.817 -32.234  18.578  1.00  0.00     0.053 C 
BRANCH  13  14
ATOM     14  C   UNL     1       9.220 -31.709  18.571  1.00  0.00     0.041 C 
ATOM     15  O   UNL     1       9.807 -31.451  19.655  1.00  0.00    -0.550 OA
ATOM     16  O   UNL     1       9.867 -31.473  17.364  1.00  0.00    -0.550 OA
ENDBRANCH  13  14
ENDBRANCH  12  13
ENDBRANCH  11  12
ENDBRANCH  10  11
ENDBRANCH   9  10
ENDBRANCH   8   9
ENDBRANCH   7   8
ENDBRANCH   6   7
ENDBRANCH   5   6
ENDBRANCH   4   5
ENDBRANCH   3   4
ENDBRANCH   2   3
ENDBRANCH   1   2
BRANCH   1  17
ATOM     17  C   UNL     1      13.920 -30.616  13.873  1.00  0.00     0.000 C 
BRANCH  17  18
ATOM     18  C   UNL     1      14.861 -31.484  14.726  1.00  0.00     0.000 C 
BRANCH  18  19
ATOM     19  C   UNL     1      16.346 -31.238  14.411  1.00  0.00     0.000 C 
BRANCH  19  20
ATOM     20  C   UNL     1      16.929 -32.286  13.450  1.00  0.00     0.000 C 
BRANCH  20  21
ATOM     21  C   UNL     1      18.392 -31.988  13.074  1.00  0.00     0.000 C 
BRANCH  21  22
ATOM     22  C   UNL     1      19.045 -30.947  13.999  1.00  0.00    -0.000 C 
BRANCH  22  23
ATOM     23  C   UNL     1      19.481 -29.677  13.248  1.00  0.00    -0.000 C 
BRANCH  23  24
ATOM     24  C   UNL     1      20.850 -29.148  13.716  1.00  0.00    -0.000 C 
BRANCH  24  25
ATOM     25  C   UNL     1      21.371 -27.909  12.957  1.00  0.00    -0.000 C 
BRANCH  25  26
ATOM     26  C   UNL     1      20.401 -26.715  12.904  1.00  0.00    -0.000 C 
BRANCH  26  27
ATOM     27  C   UNL     1      21.004 -25.427  13.484  1.00  0.00    -0.000 C 
BRANCH  27  28
ATOM     28  C   UNL     1      20.196 -24.197  13.045  1.00  0.00    -0.000 C 
BRANCH  28  29
ATOM     29  C   UNL     1      20.482 -22.962  13.914  1.00  0.00    -0.003 C 
ATOM     30  C   UNL     1      19.210 -22.223  14.331  1.00  0.00     0.004 C 
ENDBRANCH  28  29
ENDBRANCH  27  28
ENDBRANCH  26  27
ENDBRANCH  25  26
ENDBRANCH  24  25
ENDBRANCH  23  24
ENDBRANCH  22  23
ENDBRANCH  21  22
ENDBRANCH  20  21
ENDBRANCH  19  20
ENDBRANCH  18  19
ENDBRANCH  17  18
ENDBRANCH   1  17
TORSDOF 26
ENDMDL
MODEL 4
REMARK VINA RESULT:    -1.558      1.887      4.168
REMARK INTER + INTRA:          -5.486
REMARK INTER:                  -4.712
REMARK INTRA:                  -0.774
REMARK UNBOUND:                -1.560
REMARK SMILES CCCCCCCCCCCCCCCCCCCCCCCCCCCC(=O)[O-]
REMARK SMILES IDX 15 1 16 2 17 3 18 4 19 5 20 6 21 7 22 8 23 9 24 10 25 11
REMARK SMILES IDX 26 12 27 13 28 14 29 15 30 16 14 17 13 18 12 19 11 20 10 21
REMARK SMILES IDX 9 22 8 23 7 24 6 25 5 26 4 27 3 28 2 29 1 30
REMARK H PARENT
REMARK Flexibility Score: inf
ROOT
ATOM      1  C   UNL     1      11.859 -31.909  13.629  1.00  0.00     0.000 C 
ENDROOT
BRANCH   1   2
ATOM      2  C   UNL     1      12.854 -31.054  14.434  1.00  0.00     0.000 C 
BRANCH   2   3
ATOM      3  C   UNL     1      14.146 -30.741  13.648  1.00  0.00     0.000 C 
BRANCH   3   4
ATOM      4  C   UNL     1      15.316 -31.692  13.963  1.00  0.00     0.000 C 
BRANCH   4   5
ATOM      5  C   UNL     1      16.520 -31.044  14.674  1.00  0.00     0.000 C 
BRANCH   5   6
ATOM      6  C   UNL     1      17.814 -31.882  14.671  1.00  0.00     0.000 C 
BRANCH   6   7
ATOM      7  C   UNL     1      18.583 -31.795  13.343  1.00  0.00     0.000 C 
BRANCH   7   8
ATOM      8  C   UNL     1      19.926 -31.054  13.479  1.00  0.00     0.000 C 
BRANCH   8   9
ATOM      9  C   UNL     1      19.841 -29.515  13.410  1.00  0.00     0.000 C 
BRANCH   9  10
ATOM     10  C   UNL     1      21.103 -28.769  13.879  1.00  0.00     0.000 C 
BRANCH  10  11
ATOM     11  C   UNL     1      21.571 -27.706  12.875  1.00  0.00     0.000 C 
BRANCH  11  12
ATOM     12  C   UNL     1      21.417 -26.293  13.458  1.00  0.00     0.006 C 
BRANCH  12  13
ATOM     13  C   UNL     1      20.158 -25.585  12.941  1.00  0.00     0.053 C 
BRANCH  13  14
ATOM     14  C   UNL     1      20.041 -24.193  13.483  1.00  0.00     0.041 C 
ATOM     15  O   UNL     1      20.957 -23.711  14.200  1.00  0.00    -0.550 OA
ATOM     16  O   UNL     1      18.902 -23.439  13.223  1.00  0.00    -0.550 OA
ENDBRANCH  13  14
ENDBRANCH  12  13
ENDBRANCH  11  12
ENDBRANCH  10  11
ENDBRANCH   9  10
ENDBRANCH   8   9
ENDBRANCH   7   8
ENDBRANCH   6   7
ENDBRANCH   5   6
ENDBRANCH   4   5
ENDBRANCH   3   4
ENDBRANCH   2   3
ENDBRANCH   1   2
BRANCH   1  17
ATOM     17  C   UNL     1      10.553 -32.174  14.408  1.00  0.00     0.000 C 
BRANCH  17  18
ATOM     18  C   UNL     1       9.313 -32.291  13.505  1.00  0.00     0.000 C 
BRANCH  18  19
ATOM     19  C   UNL     1       9.138 -33.699  12.912  1.00  0.00     0.000 C 
BRANCH  19  20
ATOM     20  C   UNL     1       9.253 -34.805  13.973  1.00  0.00     0.000 C 
BRANCH  20  21
ATOM     21  C   UNL     1       8.768 -36.170  13.451  1.00  0.00     0.000 C 
BRANCH  21  22
ATOM     22  C   UNL     1       7.321 -36.130  12.932  1.00  0.00    -0.000 C 
BRANCH  22  23
ATOM     23  C   UNL     1       6.283 -36.161  14.067  1.00  0.00    -0.000 C 
BRANCH  23  24
ATOM     24  C   UNL     1       6.752 -35.406  15.325  1.00  0.00    -0.000 C 
BRANCH  24  25
ATOM     25  C   UNL     1       6.475 -36.122  16.664  1.00  0.00    -0.000 C 
BRANCH  25  26
ATOM     26  C   UNL     1       7.520 -35.877  17.768  1.00  0.00    -0.000 C 
BRANCH  26  27
ATOM     27  C   UNL     1       7.416 -34.478  18.391  1.00  0.00    -0.000 C 
BRANCH  27  28
ATOM     28  C   UNL     1       7.675 -33.388  17.340  1.00  0.00    -0.000 C 
BRANCH  28  29
ATOM     29  C   UNL     1       7.998 -32.024  17.970  1.00  0.00    -0.003 C 
ATOM     30  C   UNL     1       9.498 -31.796  18.154  1.00  0.00     0.004 C 
ENDBRANCH  28  29
ENDBRANCH  27  28
ENDBRANCH  26  27
ENDBRANCH  25  26
ENDBRANCH  24  25
ENDBRANCH  23  24
ENDBRANCH  22  23
ENDBRANCH  21  22
ENDBRANCH  20  21
ENDBRANCH  19  20
ENDBRANCH  18  19
ENDBRANCH  17  18
ENDBRANCH   1  17
TORSDOF 26
ENDMDL
MODEL 5
REMARK VINA RESULT:    -0.906      5.414     12.388
REMARK INTER + INTRA:          -3.844
REMARK INTER:                  -1.482
REMARK INTRA:                  -2.363
REMARK UNBOUND:                -1.560
REMARK SMILES CCCCCCCCCCCCCCCCCCCCCCCCCCCC(=O)[O-]
REMARK SMILES IDX 15 1 16 2 17 3 18 4 19 5 20 6 21 7 22 8 23 9 24 10 25 11
REMARK SMILES IDX 26 12 27 13 28 14 29 15 30 16 14 17 13 18 12 19 11 20 10 21
REMARK SMILES IDX 9 22 8 23 7 24 6 25 5 26 4 27 3 28 2 29 1 30
REMARK H PARENT
REMARK Flexibility Score: inf
ROOT
ATOM      1  C   UNL     1       7.171 -35.920  12.961  1.00  0.00     0.000 C 
ENDROOT
BRANCH   1   2
ATOM      2  C   UNL     1       6.052 -36.969  13.091  1.00  0.00     0.000 C 
BRANCH   2   3
ATOM      3  C   UNL     1       6.422 -38.123  14.047  1.00  0.00     0.000 C 
BRANCH   3   4
ATOM      4  C   UNL     1       5.877 -37.951  15.477  1.00  0.00     0.000 C 
BRANCH   4   5
ATOM      5  C   UNL     1       6.249 -36.627  16.172  1.00  0.00     0.000 C 
BRANCH   5   6
ATOM      6  C   UNL     1       7.113 -36.770  17.440  1.00  0.00     0.000 C 
BRANCH   6   7
ATOM      7  C   UNL     1       8.169 -35.661  17.575  1.00  0.00     0.000 C 
BRANCH   7   8
ATOM      8  C   UNL     1       8.248 -34.757  16.331  1.00  0.00     0.000 C 
BRANCH   8   9
ATOM      9  C   UNL     1       7.263 -33.569  16.314  1.00  0.00     0.000 C 
BRANCH   9  10
ATOM     10  C   UNL     1       6.535 -33.304  17.645  1.00  0.00     0.000 C 
BRANCH  10  11
ATOM     11  C   UNL     1       7.100 -32.092  18.399  1.00  0.00     0.000 C 
BRANCH  11  12
ATOM     12  C   UNL     1       8.600 -32.269  18.679  1.00  0.00     0.006 C 
BRANCH  12  13
ATOM     13  C   UNL     1       9.353 -30.932  18.682  1.00  0.00     0.053 C 
BRANCH  13  14
ATOM     14  C   UNL     1      10.126 -30.726  17.416  1.00  0.00     0.041 C 
ATOM     15  O   UNL     1      10.901 -29.741  17.298  1.00  0.00    -0.550 OA
ATOM     16  O   UNL     1       9.965 -31.607  16.353  1.00  0.00    -0.550 OA
ENDBRANCH  13  14
ENDBRANCH  12  13
ENDBRANCH  11  12
ENDBRANCH  10  11
ENDBRANCH   9  10
ENDBRANCH   8   9
ENDBRANCH   7   8
ENDBRANCH   6   7
ENDBRANCH   5   6
ENDBRANCH   4   5
ENDBRANCH   3   4
ENDBRANCH   2   3
ENDBRANCH   1   2
BRANCH   1  17
ATOM     17  C   UNL     1       8.572 -36.533  13.175  1.00  0.00     0.000 C 
BRANCH  17  18
ATOM     18  C   UNL     1       9.719 -35.535  12.939  1.00  0.00     0.000 C 
BRANCH  18  19
ATOM     19  C   UNL     1       9.397 -34.123  13.457  1.00  0.00     0.000 C 
BRANCH  19  20
ATOM     20  C   UNL     1      10.477 -33.095  13.084  1.00  0.00     0.000 C 
BRANCH  20  21
ATOM     21  C   UNL     1      11.862 -33.741  12.896  1.00  0.00     0.000 C 
BRANCH  21  22
ATOM     22  C   UNL     1      13.009 -32.841  13.385  1.00  0.00    -0.000 C 
BRANCH  22  23
ATOM     23  C   UNL     1      12.510 -31.622  14.178  1.00  0.00    -0.000 C 
BRANCH  23  24
ATOM     24  C   UNL     1      13.331 -30.350  13.896  1.00  0.00    -0.000 C 
BRANCH  24  25
ATOM     25  C   UNL     1      14.851 -30.568  13.736  1.00  0.00    -0.000 C 
BRANCH  25  26
ATOM     26  C   UNL     1      15.625 -30.782  15.049  1.00  0.00    -0.000 C 
BRANCH  26  27
ATOM     27  C   UNL     1      16.634 -31.937  14.968  1.00  0.00    -0.000 C 
BRANCH  27  28
ATOM     28  C   UNL     1      17.292 -31.994  13.581  1.00  0.00    -0.000 C 
BRANCH  28  29
ATOM     29  C   UNL     1      18.827 -31.965  13.653  1.00  0.00    -0.003 C 
ATOM     30  C   UNL     1      19.410 -30.589  13.331  1.00  0.00     0.004 C 
ENDBRANCH  28  29
ENDBRANCH  27  28
ENDBRANCH  26  27
ENDBRANCH  25  26
ENDBRANCH  24  25
ENDBRANCH  23  24
ENDBRANCH  22  23
ENDBRANCH  21  22
ENDBRANCH  20  21
ENDBRANCH  19  20
ENDBRANCH  18  19
ENDBRANCH  17  18
ENDBRANCH   1  17
TORSDOF 26
ENDMDL
MODEL 6
REMARK VINA RESULT:    -0.234      3.279      6.991
REMARK INTER + INTRA:          -2.149
REMARK INTER:                  -0.108
REMARK INTRA:                  -2.041
REMARK UNBOUND:                -1.560
REMARK SMILES CCCCCCCCCCCCCCCCCCCCCCCCCCCC(=O)[O-]
REMARK SMILES IDX 15 1 16 2 17 3 18 4 19 5 20 6 21 7 22 8 23 9 24 10 25 11
REMARK SMILES IDX 26 12 27 13 28 14 29 15 30 16 14 17 13 18 12 19 11 20 10 21
REMARK SMILES IDX 9 22 8 23 7 24 6 25 5 26 4 27 3 28 2 29 1 30
REMARK H PARENT
REMARK Flexibility Score: inf
ROOT
ATOM      1  C   UNL     1       9.071 -33.049  14.174  1.00  0.00     0.000 C 
ENDROOT
BRANCH   1   2
ATOM      2  C   UNL     1       9.417 -32.146  12.977  1.00  0.00     0.000 C 
BRANCH   2   3
ATOM      3  C   UNL     1      10.927 -31.840  12.875  1.00  0.00     0.000 C 
BRANCH   3   4
ATOM      4  C   UNL     1      11.527 -31.216  14.149  1.00  0.00     0.000 C 
BRANCH   4   5
ATOM      5  C   UNL     1      13.001 -30.780  14.040  1.00  0.00     0.000 C 
BRANCH   5   6
ATOM      6  C   UNL     1      14.036 -31.882  14.336  1.00  0.00     0.000 C 
BRANCH   6   7
ATOM      7  C   UNL     1      15.421 -31.581  13.737  1.00  0.00     0.000 C 
BRANCH   7   8
ATOM      8  C   UNL     1      16.542 -31.594  14.793  1.00  0.00     0.000 C 
BRANCH   8   9
ATOM      9  C   UNL     1      17.883 -30.980  14.338  1.00  0.00     0.000 C 
BRANCH   9  10
ATOM     10  C   UNL     1      18.890 -31.979  13.740  1.00  0.00     0.000 C 
BRANCH  10  11
ATOM     11  C   UNL     1      20.181 -31.303  13.258  1.00  0.00     0.000 C 
BRANCH  11  12
ATOM     12  C   UNL     1      20.364 -29.929  13.921  1.00  0.00     0.006 C 
BRANCH  12  13
ATOM     13  C   UNL     1      20.483 -28.798  12.891  1.00  0.00     0.053 C 
BRANCH  13  14
ATOM     14  C   UNL     1      21.312 -27.662  13.407  1.00  0.00     0.041 C 
ATOM     15  O   UNL     1      22.326 -27.887  14.118  1.00  0.00    -0.550 OA
ATOM     16  O   UNL     1      20.943 -26.351  13.130  1.00  0.00    -0.550 OA
ENDBRANCH  13  14
ENDBRANCH  12  13
ENDBRANCH  11  12
ENDBRANCH  10  11
ENDBRANCH   9  10
ENDBRANCH   8   9
ENDBRANCH   7   8
ENDBRANCH   6   7
ENDBRANCH   5   6
ENDBRANCH   4   5
ENDBRANCH   3   4
ENDBRANCH   2   3
ENDBRANCH   1   2
BRANCH   1  17
ATOM     17  C   UNL     1       7.955 -34.062  13.837  1.00  0.00     0.000 C 
BRANCH  17  18
ATOM     18  C   UNL     1       6.538 -33.523  14.100  1.00  0.00     0.000 C 
BRANCH  18  19
ATOM     19  C   UNL     1       6.016 -33.881  15.502  1.00  0.00     0.000 C 
BRANCH  19  20
ATOM     20  C   UNL     1       6.782 -33.159  16.621  1.00  0.00     0.000 C 
BRANCH  20  21
ATOM     21  C   UNL     1       7.288 -34.128  17.705  1.00  0.00     0.000 C 
BRANCH  21  22
ATOM     22  C   UNL     1       7.811 -35.453  17.123  1.00  0.00    -0.000 C 
BRANCH  22  23
ATOM     23  C   UNL     1       7.298 -36.682  17.893  1.00  0.00    -0.000 C 
BRANCH  23  24
ATOM     24  C   UNL     1       6.300 -37.523  17.075  1.00  0.00    -0.000 C 
BRANCH  24  25
ATOM     25  C   UNL     1       5.903 -36.929  15.707  1.00  0.00    -0.000 C 
BRANCH  25  26
ATOM     26  C   UNL     1       5.933 -37.918  14.528  1.00  0.00    -0.000 C 
BRANCH  26  27
ATOM     27  C   UNL     1       6.973 -37.547  13.461  1.00  0.00    -0.000 C 
BRANCH  27  28
ATOM     28  C   UNL     1       8.400 -37.773  13.983  1.00  0.00    -0.000 C 
BRANCH  28  29
ATOM     29  C   UNL     1       9.460 -37.659  12.877  1.00  0.00    -0.003 C 
ATOM     30  C   UNL     1      10.225 -36.336  12.923  1.00  0.00     0.004 C 
ENDBRANCH  28  29
ENDBRANCH  27  28
ENDBRANCH  26  27
ENDBRANCH  25  26
ENDBRANCH  24  25
ENDBRANCH  23  24
ENDBRANCH  22  23
ENDBRANCH  21  22
ENDBRANCH  20  21
ENDBRANCH  19  20
ENDBRANCH  18  19
ENDBRANCH  17  18
ENDBRANCH   1  17
TORSDOF 26
ENDMDL
