MODEL 1
REMARK VINA RESULT:    -5.672      0.000      0.000
REMARK INTER + INTRA:         -17.057
REMARK INTER:                 -14.958
REMARK INTRA:                  -2.099
REMARK UNBOUND:                -2.099
REMARK SMILES CCCCCCCCCCCCCCCCCCCCCCCCCCCCCC(=O)[O-]
REMARK SMILES IDX 16 1 17 2 18 3 19 4 20 5 21 6 22 7 23 8 24 9 25 10 26 11
REMARK SMILES IDX 27 12 28 13 29 14 30 15 31 16 32 17 15 18 14 19 13 20 12 21
REMARK SMILES IDX 11 22 10 23 9 24 8 25 7 26 6 27 5 28 4 29 3 30 2 31 1 32
REMARK H PARENT
REMARK Flexibility Score: inf
ROOT
ATOM      1  C   UNL     1      11.505  22.203  35.927  1.00  0.00     0.000 C 
ENDROOT
BRANCH   1   2
ATOM      2  C   UNL     1      12.270  21.899  34.626  1.00  0.00     0.000 C 
BRANCH   2   3
ATOM      3  C   UNL     1      13.003  20.550  34.677  1.00  0.00     0.000 C 
BRANCH   3   4
ATOM      4  C   UNL     1      14.479  20.663  34.256  1.00  0.00     0.000 C 
BRANCH   4   5
ATOM      5  C   UNL     1      15.057  22.070  34.516  1.00  0.00     0.000 C 
BRANCH   5   6
ATOM      6  C   UNL     1      16.183  22.087  35.565  1.00  0.00     0.000 C 
BRANCH   6   7
ATOM      7  C   UNL     1      17.584  22.146  34.935  1.00  0.00     0.000 C 
BRANCH   7   8
ATOM      8  C   UNL     1      17.542  22.092  33.392  1.00  0.00     0.000 C 
BRANCH   8   9
ATOM      9  C   UNL     1      18.880  21.680  32.751  1.00  0.00     0.000 C 
BRANCH   9  10
ATOM     10  C   UNL     1      19.767  20.774  33.624  1.00  0.00     0.000 C 
BRANCH  10  11
ATOM     11  C   UNL     1      21.128  21.384  34.023  1.00  0.00     0.000 C 
BRANCH  11  12
ATOM     12  C   UNL     1      21.212  21.916  35.468  1.00  0.00     0.000 C 
BRANCH  12  13
ATOM     13  C   UNL     1      22.498  21.540  36.225  1.00  0.00     0.006 C 
BRANCH  13  14
ATOM     14  C   UNL     1      22.562  22.157  37.629  1.00  0.00     0.053 C 
BRANCH  14  15
ATOM     15  C   UNL     1      22.833  23.629  37.562  1.00  0.00     0.041 C 
ATOM     16  O   UNL     1      24.005  24.048  37.366  1.00  0.00    -0.550 OA
ATOM     17  O   UNL     1      21.803  24.543  37.757  1.00  0.00    -0.550 OA
ENDBRANCH  14  15
ENDBRANCH  13  14
ENDBRANCH  12  13
ENDBRANCH  11  12
ENDBRANCH  10  11
ENDBRANCH   9  10
ENDBRANCH   8   9
ENDBRANCH   7   8
ENDBRANCH   6   7
ENDBRANCH   5   6
ENDBRANCH   4   5
ENDBRANCH   3   4
ENDBRANCH   2   3
ENDBRANCH   1   2
BRANCH   1  18
ATOM     18  C   UNL     1      12.434  22.708  37.049  1.00  0.00     0.000 C 
BRANCH  18  19
ATOM     19  C   UNL     1      12.116  22.124  38.437  1.00  0.00     0.000 C 
BRANCH  19  20
ATOM     20  C   UNL     1      10.618  21.842  38.673  1.00  0.00     0.000 C 
BRANCH  20  21
ATOM     21  C   UNL     1      10.364  21.088  39.991  1.00  0.00     0.000 C 
BRANCH  21  22
ATOM     22  C   UNL     1       9.304  21.778  40.872  1.00  0.00     0.000 C 
BRANCH  22  23
ATOM     23  C   UNL     1       9.766  23.117  41.483  1.00  0.00     0.000 C 
BRANCH  23  24
ATOM     24  C   UNL     1      10.680  22.965  42.716  1.00  0.00    -0.000 C 
BRANCH  24  25
ATOM     25  C   UNL     1      12.165  23.171  42.371  1.00  0.00    -0.000 C 
BRANCH  25  26
ATOM     26  C   UNL     1      13.049  23.319  43.619  1.00  0.00    -0.000 C 
BRANCH  26  27
ATOM     27  C   UNL     1      12.231  23.351  44.922  1.00  0.00    -0.000 C 
BRANCH  27  28
ATOM     28  C   UNL     1      12.469  22.093  45.784  1.00  0.00    -0.000 C 
BRANCH  28  29
ATOM     29  C   UNL     1      12.801  22.406  47.254  1.00  0.00    -0.000 C 
BRANCH  29  30
ATOM     30  C   UNL     1      14.017  23.333  47.412  1.00  0.00    -0.000 C 
BRANCH  30  31
ATOM     31  C   UNL     1      15.306  22.713  46.852  1.00  0.00    -0.003 C 
ATOM     32  C   UNL     1      16.554  23.138  47.624  1.00  0.00     0.004 C 
ENDBRANCH  30  31
ENDBRANCH  29  30
ENDBRANCH  28  29
ENDBRANCH  27  28
ENDBRANCH  26  27
ENDBRANCH  25  26
ENDBRANCH  24  25
ENDBRANCH  23  24
ENDBRANCH  22  23
ENDBRANCH  21  22
ENDBRANCH  20  21
ENDBRANCH  19  20
ENDBRANCH  18  19
ENDBRANCH   1  18
TORSDOF 28
ENDMDL
MODEL 2
REMARK VINA RESULT:    -5.632      2.697     10.936
REMARK INTER + INTRA:         -16.950
REMARK INTER:                 -15.290
REMARK INTRA:                  -1.660
REMARK UNBOUND:                -2.099
REMARK SMILES CCCCCCCCCCCCCCCCCCCCCCCCCCCCCC(=O)[O-]
REMARK SMILES IDX 16 1 17 2 18 3 19 4 20 5 21 6 22 7 23 8 24 9 25 10 26 11
REMARK SMILES IDX 27 12 28 13 29 14 30 15 31 16 32 17 15 18 14 19 13 20 12 21
REMARK SMILES IDX 11 22 10 23 9 24 8 25 7 26 6 27 5 28 4 29 3 30 2 31 1 32
REMARK H PARENT
REMARK Flexibility Score: inf
ROOT
ATOM      1  C   UNL     1      12.668  22.463  37.667  1.00  0.00     0.000 C 
ENDROOT
BRANCH   1   2
ATOM      2  C   UNL     1      12.228  21.848  39.008  1.00  0.00     0.000 C 
BRANCH   2   3
ATOM      3  C   UNL     1      10.733  21.494  39.030  1.00  0.00     0.000 C 
BRANCH   3   4
ATOM      4  C   UNL     1      10.210  21.227  40.452  1.00  0.00     0.000 C 
BRANCH   4   5
ATOM      5  C   UNL     1       9.223  22.314  40.928  1.00  0.00     0.000 C 
BRANCH   5   6
ATOM      6  C   UNL     1       9.684  23.048  42.199  1.00  0.00     0.000 C 
BRANCH   6   7
ATOM      7  C   UNL     1      11.041  22.545  42.719  1.00  0.00     0.000 C 
BRANCH   7   8
ATOM      8  C   UNL     1      11.415  23.161  44.086  1.00  0.00     0.000 C 
BRANCH   8   9
ATOM      9  C   UNL     1      12.683  22.553  44.713  1.00  0.00     0.000 C 
BRANCH   9  10
ATOM     10  C   UNL     1      12.647  22.414  46.245  1.00  0.00     0.000 C 
BRANCH  10  11
ATOM     11  C   UNL     1      13.450  23.483  47.016  1.00  0.00     0.000 C 
BRANCH  11  12
ATOM     12  C   UNL     1      14.703  22.962  47.751  1.00  0.00     0.000 C 
BRANCH  12  13
ATOM     13  C   UNL     1      15.993  22.957  46.911  1.00  0.00     0.006 C 
BRANCH  13  14
ATOM     14  C   UNL     1      17.262  22.920  47.774  1.00  0.00     0.053 C 
BRANCH  14  15
ATOM     15  C   UNL     1      18.200  24.028  47.407  1.00  0.00     0.041 C 
ATOM     16  O   UNL     1      18.542  24.195  46.205  1.00  0.00    -0.550 OA
ATOM     17  O   UNL     1      18.731  24.855  48.391  1.00  0.00    -0.550 OA
ENDBRANCH  14  15
ENDBRANCH  13  14
ENDBRANCH  12  13
ENDBRANCH  11  12
ENDBRANCH  10  11
ENDBRANCH   9  10
ENDBRANCH   8   9
ENDBRANCH   7   8
ENDBRANCH   6   7
ENDBRANCH   5   6
ENDBRANCH   4   5
ENDBRANCH   3   4
ENDBRANCH   2   3
ENDBRANCH   1   2
BRANCH   1  18
ATOM     18  C   UNL     1      11.625  22.247  36.553  1.00  0.00     0.000 C 
BRANCH  18  19
ATOM     19  C   UNL     1      12.230  21.855  35.193  1.00  0.00     0.000 C 
BRANCH  19  20
ATOM     20  C   UNL     1      13.172  20.635  35.251  1.00  0.00     0.000 C 
BRANCH  20  21
ATOM     21  C   UNL     1      14.425  20.820  34.376  1.00  0.00     0.000 C 
BRANCH  21  22
ATOM     22  C   UNL     1      15.098  22.190  34.590  1.00  0.00     0.000 C 
BRANCH  22  23
ATOM     23  C   UNL     1      16.623  22.117  34.808  1.00  0.00     0.000 C 
BRANCH  23  24
ATOM     24  C   UNL     1      17.430  21.823  33.528  1.00  0.00    -0.000 C 
BRANCH  24  25
ATOM     25  C   UNL     1      18.648  22.751  33.378  1.00  0.00    -0.000 C 
BRANCH  25  26
ATOM     26  C   UNL     1      19.939  21.985  33.049  1.00  0.00    -0.000 C 
BRANCH  26  27
ATOM     27  C   UNL     1      20.138  20.747  33.941  1.00  0.00    -0.000 C 
BRANCH  27  28
ATOM     28  C   UNL     1      20.622  21.125  35.356  1.00  0.00    -0.000 C 
BRANCH  28  29
ATOM     29  C   UNL     1      21.770  22.150  35.363  1.00  0.00    -0.000 C 
BRANCH  29  30
ATOM     30  C   UNL     1      22.825  21.865  36.444  1.00  0.00    -0.000 C 
BRANCH  30  31
ATOM     31  C   UNL     1      24.259  21.937  35.900  1.00  0.00    -0.003 C 
ATOM     32  C   UNL     1      25.171  22.827  36.745  1.00  0.00     0.004 C 
ENDBRANCH  30  31
ENDBRANCH  29  30
ENDBRANCH  28  29
ENDBRANCH  27  28
ENDBRANCH  26  27
ENDBRANCH  25  26
ENDBRANCH  24  25
ENDBRANCH  23  24
ENDBRANCH  22  23
ENDBRANCH  21  22
ENDBRANCH  20  21
ENDBRANCH  19  20
ENDBRANCH  18  19
ENDBRANCH   1  18
TORSDOF 28
ENDMDL
MODEL 3
REMARK VINA RESULT:    -5.564      3.340     10.822
REMARK INTER + INTRA:         -16.771
REMARK INTER:                 -14.388
REMARK INTRA:                  -2.383
REMARK UNBOUND:                -2.099
REMARK SMILES CCCCCCCCCCCCCCCCCCCCCCCCCCCCCC(=O)[O-]
REMARK SMILES IDX 16 1 17 2 18 3 19 4 20 5 21 6 22 7 23 8 24 9 25 10 26 11
REMARK SMILES IDX 27 12 28 13 29 14 30 15 31 16 32 17 15 18 14 19 13 20 12 21
REMARK SMILES IDX 11 22 10 23 9 24 8 25 7 26 6 27 5 28 4 29 3 30 2 31 1 32
REMARK H PARENT
REMARK Flexibility Score: inf
ROOT
ATOM      1  C   UNL     1      15.965  21.701  35.576  1.00  0.00     0.000 C 
ENDROOT
BRANCH   1   2
ATOM      2  C   UNL     1      14.863  21.393  34.546  1.00  0.00     0.000 C 
BRANCH   2   3
ATOM      3  C   UNL     1      13.733  22.433  34.566  1.00  0.00     0.000 C 
BRANCH   3   4
ATOM      4  C   UNL     1      12.341  21.792  34.703  1.00  0.00     0.000 C 
BRANCH   4   5
ATOM      5  C   UNL     1      11.651  22.165  36.031  1.00  0.00     0.000 C 
BRANCH   5   6
ATOM      6  C   UNL     1      12.637  22.463  37.174  1.00  0.00     0.000 C 
BRANCH   6   7
ATOM      7  C   UNL     1      12.199  21.850  38.514  1.00  0.00     0.000 C 
BRANCH   7   8
ATOM      8  C   UNL     1      10.813  22.356  38.971  1.00  0.00     0.000 C 
BRANCH   8   9
ATOM      9  C   UNL     1      10.197  21.528  40.114  1.00  0.00     0.000 C 
BRANCH   9  10
ATOM     10  C   UNL     1       9.278  22.315  41.065  1.00  0.00     0.000 C 
BRANCH  10  11
ATOM     11  C   UNL     1       9.979  22.910  42.305  1.00  0.00     0.000 C 
BRANCH  11  12
ATOM     12  C   UNL     1      11.507  23.082  42.178  1.00  0.00     0.000 C 
BRANCH  12  13
ATOM     13  C   UNL     1      12.332  22.389  43.276  1.00  0.00     0.006 C 
BRANCH  13  14
ATOM     14  C   UNL     1      11.822  22.704  44.689  1.00  0.00     0.053 C 
BRANCH  14  15
ATOM     15  C   UNL     1      12.777  22.212  45.733  1.00  0.00     0.041 C 
ATOM     16  O   UNL     1      12.596  22.506  46.945  1.00  0.00    -0.550 OA
ATOM     17  O   UNL     1      13.891  21.463  45.368  1.00  0.00    -0.550 OA
ENDBRANCH  14  15
ENDBRANCH  13  14
ENDBRANCH  12  13
ENDBRANCH  11  12
ENDBRANCH  10  11
ENDBRANCH   9  10
ENDBRANCH   8   9
ENDBRANCH   7   8
ENDBRANCH   6   7
ENDBRANCH   5   6
ENDBRANCH   4   5
ENDBRANCH   3   4
ENDBRANCH   2   3
ENDBRANCH   1   2
BRANCH   1  18
ATOM     18  C   UNL     1      17.214  22.329  34.927  1.00  0.00     0.000 C 
BRANCH  18  19
ATOM     19  C   UNL     1      17.441  21.908  33.464  1.00  0.00     0.000 C 
BRANCH  19  20
ATOM     20  C   UNL     1      18.708  22.513  32.825  1.00  0.00     0.000 C 
BRANCH  20  21
ATOM     21  C   UNL     1      19.746  21.439  32.452  1.00  0.00     0.000 C 
BRANCH  21  22
ATOM     22  C   UNL     1      20.279  20.680  33.684  1.00  0.00     0.000 C 
BRANCH  22  23
ATOM     23  C   UNL     1      21.238  21.504  34.567  1.00  0.00     0.000 C 
BRANCH  23  24
ATOM     24  C   UNL     1      20.916  21.444  36.074  1.00  0.00    -0.000 C 
BRANCH  24  25
ATOM     25  C   UNL     1      20.977  22.830  36.740  1.00  0.00    -0.000 C 
BRANCH  25  26
ATOM     26  C   UNL     1      21.183  22.747  38.260  1.00  0.00    -0.000 C 
BRANCH  26  27
ATOM     27  C   UNL     1      21.695  24.069  38.861  1.00  0.00    -0.000 C 
BRANCH  27  28
ATOM     28  C   UNL     1      23.002  23.874  39.659  1.00  0.00    -0.000 C 
BRANCH  28  29
ATOM     29  C   UNL     1      23.951  22.830  39.043  1.00  0.00    -0.000 C 
BRANCH  29  30
ATOM     30  C   UNL     1      24.666  23.338  37.781  1.00  0.00    -0.000 C 
BRANCH  30  31
ATOM     31  C   UNL     1      25.053  22.199  36.826  1.00  0.00    -0.003 C 
ATOM     32  C   UNL     1      24.685  20.818  37.369  1.00  0.00     0.004 C 
ENDBRANCH  30  31
ENDBRANCH  29  30
ENDBRANCH  28  29
ENDBRANCH  27  28
ENDBRANCH  26  27
ENDBRANCH  25  26
ENDBRANCH  24  25
ENDBRANCH  23  24
ENDBRANCH  22  23
ENDBRANCH  21  22
ENDBRANCH  20  21
ENDBRANCH  19  20
ENDBRANCH  18  19
ENDBRANCH   1  18
TORSDOF 28
ENDMDL
MODEL 4
REMARK VINA RESULT:    -5.540      1.466      3.527
REMARK INTER + INTRA:         -16.707
REMARK INTER:                 -14.691
REMARK INTRA:                  -2.016
REMARK UNBOUND:                -2.099
REMARK SMILES CCCCCCCCCCCCCCCCCCCCCCCCCCCCCC(=O)[O-]
REMARK SMILES IDX 16 1 17 2 18 3 19 4 20 5 21 6 22 7 23 8 24 9 25 10 26 11
REMARK SMILES IDX 27 12 28 13 29 14 30 15 31 16 32 17 15 18 14 19 13 20 12 21
REMARK SMILES IDX 11 22 10 23 9 24 8 25 7 26 6 27 5 28 4 29 3 30 2 31 1 32
REMARK H PARENT
REMARK Flexibility Score: inf
ROOT
ATOM      1  C   UNL     1      11.212  22.477  39.027  1.00  0.00     0.000 C 
ENDROOT
BRANCH   1   2
ATOM      2  C   UNL     1      12.635  22.144  38.544  1.00  0.00     0.000 C 
BRANCH   2   3
ATOM      3  C   UNL     1      12.644  21.465  37.166  1.00  0.00     0.000 C 
BRANCH   3   4
ATOM      4  C   UNL     1      11.842  22.250  36.114  1.00  0.00     0.000 C 
BRANCH   4   5
ATOM      5  C   UNL     1      12.228  21.860  34.671  1.00  0.00     0.000 C 
BRANCH   5   6
ATOM      6  C   UNL     1      13.643  22.312  34.270  1.00  0.00     0.000 C 
BRANCH   6   7
ATOM      7  C   UNL     1      14.158  23.485  35.119  1.00  0.00     0.000 C 
BRANCH   7   8
ATOM      8  C   UNL     1      15.645  23.328  35.505  1.00  0.00     0.000 C 
BRANCH   8   9
ATOM      9  C   UNL     1      16.064  21.872  35.777  1.00  0.00     0.000 C 
BRANCH   9  10
ATOM     10  C   UNL     1      17.084  21.292  34.780  1.00  0.00     0.000 C 
BRANCH  10  11
ATOM     11  C   UNL     1      17.246  22.095  33.472  1.00  0.00     0.000 C 
BRANCH  11  12
ATOM     12  C   UNL     1      18.687  22.181  32.927  1.00  0.00     0.000 C 
BRANCH  12  13
ATOM     13  C   UNL     1      19.649  21.107  33.463  1.00  0.00     0.006 C 
BRANCH  13  14
ATOM     14  C   UNL     1      20.853  21.705  34.204  1.00  0.00     0.053 C 
BRANCH  14  15
ATOM     15  C   UNL     1      20.539  21.933  35.651  1.00  0.00     0.041 C 
ATOM     16  O   UNL     1      20.602  20.977  36.470  1.00  0.00    -0.550 OA
ATOM     17  O   UNL     1      20.138  23.189  36.094  1.00  0.00    -0.550 OA
ENDBRANCH  14  15
ENDBRANCH  13  14
ENDBRANCH  12  13
ENDBRANCH  11  12
ENDBRANCH  10  11
ENDBRANCH   9  10
ENDBRANCH   8   9
ENDBRANCH   7   8
ENDBRANCH   6   7
ENDBRANCH   5   6
ENDBRANCH   4   5
ENDBRANCH   3   4
ENDBRANCH   2   3
ENDBRANCH   1   2
BRANCH   1  18
ATOM     18  C   UNL     1      10.398  21.213  39.368  1.00  0.00     0.000 C 
BRANCH  18  19
ATOM     19  C   UNL     1       9.686  21.273  40.731  1.00  0.00     0.000 C 
BRANCH  19  20
ATOM     20  C   UNL     1       9.356  22.703  41.206  1.00  0.00     0.000 C 
BRANCH  20  21
ATOM     21  C   UNL     1       9.831  22.967  42.646  1.00  0.00     0.000 C 
BRANCH  21  22
ATOM     22  C   UNL     1      11.336  22.686  42.832  1.00  0.00     0.000 C 
BRANCH  22  23
ATOM     23  C   UNL     1      11.896  23.123  44.200  1.00  0.00     0.000 C 
BRANCH  23  24
ATOM     24  C   UNL     1      13.080  22.269  44.698  1.00  0.00    -0.000 C 
BRANCH  24  25
ATOM     25  C   UNL     1      12.860  21.742  46.127  1.00  0.00    -0.000 C 
BRANCH  25  26
ATOM     26  C   UNL     1      13.181  22.791  47.202  1.00  0.00    -0.000 C 
BRANCH  26  27
ATOM     27  C   UNL     1      14.449  23.601  46.879  1.00  0.00    -0.000 C 
BRANCH  27  28
ATOM     28  C   UNL     1      15.726  22.742  46.984  1.00  0.00    -0.000 C 
BRANCH  28  29
ATOM     29  C   UNL     1      16.744  23.272  48.010  1.00  0.00    -0.000 C 
BRANCH  29  30
ATOM     30  C   UNL     1      18.025  22.425  48.080  1.00  0.00    -0.000 C 
BRANCH  30  31
ATOM     31  C   UNL     1      19.277  23.274  48.344  1.00  0.00    -0.003 C 
ATOM     32  C   UNL     1      18.986  24.775  48.356  1.00  0.00     0.004 C 
ENDBRANCH  30  31
ENDBRANCH  29  30
ENDBRANCH  28  29
ENDBRANCH  27  28
ENDBRANCH  26  27
ENDBRANCH  25  26
ENDBRANCH  24  25
ENDBRANCH  23  24
ENDBRANCH  22  23
ENDBRANCH  21  22
ENDBRANCH  20  21
ENDBRANCH  19  20
ENDBRANCH  18  19
ENDBRANCH   1  18
TORSDOF 28
ENDMDL
MODEL 5
REMARK VINA RESULT:    -5.494      2.462     10.619
REMARK INTER + INTRA:         -16.587
REMARK INTER:                 -13.493
REMARK INTRA:                  -3.094
REMARK UNBOUND:                -2.099
REMARK SMILES CCCCCCCCCCCCCCCCCCCCCCCCCCCCCC(=O)[O-]
REMARK SMILES IDX 16 1 17 2 18 3 19 4 20 5 21 6 22 7 23 8 24 9 25 10 26 11
REMARK SMILES IDX 27 12 28 13 29 14 30 15 31 16 32 17 15 18 14 19 13 20 12 21
REMARK SMILES IDX 11 22 10 23 9 24 8 25 7 26 6 27 5 28 4 29 3 30 2 31 1 32
REMARK H PARENT
REMARK Flexibility Score: inf
ROOT
ATOM      1  C   UNL     1      12.049  21.980  37.870  1.00  0.00     0.000 C 
ENDROOT
BRANCH   1   2
ATOM      2  C   UNL     1      10.932  22.345  38.864  1.00  0.00     0.000 C 
BRANCH   2   3
ATOM      3  C   UNL     1      10.170  21.112  39.372  1.00  0.00     0.000 C 
BRANCH   3   4
ATOM      4  C   UNL     1       9.766  21.234  40.851  1.00  0.00     0.000 C 
BRANCH   4   5
ATOM      5  C   UNL     1       9.683  22.702  41.318  1.00  0.00     0.000 C 
BRANCH   5   6
ATOM      6  C   UNL     1      10.546  23.004  42.555  1.00  0.00     0.000 C 
BRANCH   6   7
ATOM      7  C   UNL     1      12.047  22.788  42.302  1.00  0.00     0.000 C 
BRANCH   7   8
ATOM      8  C   UNL     1      12.896  22.981  43.578  1.00  0.00     0.000 C 
BRANCH   8   9
ATOM      9  C   UNL     1      12.075  22.941  44.880  1.00  0.00     0.000 C 
BRANCH   9  10
ATOM     10  C   UNL     1      12.151  24.218  45.736  1.00  0.00     0.000 C 
BRANCH  10  11
ATOM     11  C   UNL     1      12.747  24.024  47.146  1.00  0.00     0.000 C 
BRANCH  11  12
ATOM     12  C   UNL     1      13.709  22.826  47.294  1.00  0.00     0.000 C 
BRANCH  12  13
ATOM     13  C   UNL     1      15.204  23.189  47.284  1.00  0.00     0.006 C 
BRANCH  13  14
ATOM     14  C   UNL     1      15.966  22.532  46.124  1.00  0.00     0.053 C 
BRANCH  14  15
ATOM     15  C   UNL     1      16.328  23.538  45.075  1.00  0.00     0.041 C 
ATOM     16  O   UNL     1      15.661  24.601  44.960  1.00  0.00    -0.550 OA
ATOM     17  O   UNL     1      17.376  23.289  44.194  1.00  0.00    -0.550 OA
ENDBRANCH  14  15
ENDBRANCH  13  14
ENDBRANCH  12  13
ENDBRANCH  11  12
ENDBRANCH  10  11
ENDBRANCH   9  10
ENDBRANCH   8   9
ENDBRANCH   7   8
ENDBRANCH   6   7
ENDBRANCH   5   6
ENDBRANCH   4   5
ENDBRANCH   3   4
ENDBRANCH   2   3
ENDBRANCH   1   2
BRANCH   1  18
ATOM     18  C   UNL     1      11.640  22.243  36.407  1.00  0.00     0.000 C 
BRANCH  18  19
ATOM     19  C   UNL     1      12.397  21.385  35.378  1.00  0.00     0.000 C 
BRANCH  19  20
ATOM     20  C   UNL     1      13.550  22.124  34.668  1.00  0.00     0.000 C 
BRANCH  20  21
ATOM     21  C   UNL     1      13.554  23.633  34.974  1.00  0.00     0.000 C 
BRANCH  21  22
ATOM     22  C   UNL     1      14.739  24.051  35.867  1.00  0.00     0.000 C 
BRANCH  22  23
ATOM     23  C   UNL     1      15.664  22.886  36.275  1.00  0.00     0.000 C 
BRANCH  23  24
ATOM     24  C   UNL     1      17.038  22.897  35.574  1.00  0.00    -0.000 C 
BRANCH  24  25
ATOM     25  C   UNL     1      17.225  21.691  34.637  1.00  0.00    -0.000 C 
BRANCH  25  26
ATOM     26  C   UNL     1      17.438  22.105  33.173  1.00  0.00    -0.000 C 
BRANCH  26  27
ATOM     27  C   UNL     1      18.920  22.342  32.833  1.00  0.00    -0.000 C 
BRANCH  27  28
ATOM     28  C   UNL     1      19.693  21.018  32.661  1.00  0.00    -0.000 C 
BRANCH  28  29
ATOM     29  C   UNL     1      20.594  20.668  33.859  1.00  0.00    -0.000 C 
BRANCH  29  30
ATOM     30  C   UNL     1      21.232  21.904  34.513  1.00  0.00    -0.000 C 
BRANCH  30  31
ATOM     31  C   UNL     1      20.737  22.132  35.949  1.00  0.00    -0.003 C 
ATOM     32  C   UNL     1      20.266  20.844  36.625  1.00  0.00     0.004 C 
ENDBRANCH  30  31
ENDBRANCH  29  30
ENDBRANCH  28  29
ENDBRANCH  27  28
ENDBRANCH  26  27
ENDBRANCH  25  26
ENDBRANCH  24  25
ENDBRANCH  23  24
ENDBRANCH  22  23
ENDBRANCH  21  22
ENDBRANCH  20  21
ENDBRANCH  19  20
ENDBRANCH  18  19
ENDBRANCH   1  18
TORSDOF 28
ENDMDL
MODEL 6
REMARK VINA RESULT:    -5.490      2.545     10.787
REMARK INTER + INTRA:         -16.577
REMARK INTER:                 -15.194
REMARK INTRA:                  -1.383
REMARK UNBOUND:                -2.099
REMARK SMILES CCCCCCCCCCCCCCCCCCCCCCCCCCCCCC(=O)[O-]
REMARK SMILES IDX 16 1 17 2 18 3 19 4 20 5 21 6 22 7 23 8 24 9 25 10 26 11
REMARK SMILES IDX 27 12 28 13 29 14 30 15 31 16 32 17 15 18 14 19 13 20 12 21
REMARK SMILES IDX 11 22 10 23 9 24 8 25 7 26 6 27 5 28 4 29 3 30 2 31 1 32
REMARK H PARENT
REMARK Flexibility Score: inf
ROOT
ATOM      1  C   UNL     1       9.841  22.086  40.582  1.00  0.00     0.000 C 
ENDROOT
BRANCH   1   2
ATOM      2  C   UNL     1      10.436  23.467  40.907  1.00  0.00     0.000 C 
BRANCH   2   3
ATOM      3  C   UNL     1      11.677  23.376  41.809  1.00  0.00     0.000 C 
BRANCH   3   4
ATOM      4  C   UNL     1      11.539  22.296  42.896  1.00  0.00     0.000 C 
BRANCH   4   5
ATOM      5  C   UNL     1      11.994  22.798  44.282  1.00  0.00     0.000 C 
BRANCH   5   6
ATOM      6  C   UNL     1      13.184  22.012  44.860  1.00  0.00     0.000 C 
BRANCH   6   7
ATOM      7  C   UNL     1      13.044  21.742  46.367  1.00  0.00     0.000 C 
BRANCH   7   8
ATOM      8  C   UNL     1      13.314  23.000  47.222  1.00  0.00     0.000 C 
BRANCH   8   9
ATOM      9  C   UNL     1      14.664  23.676  46.919  1.00  0.00     0.000 C 
BRANCH   9  10
ATOM     10  C   UNL     1      15.878  22.730  46.914  1.00  0.00     0.000 C 
BRANCH  10  11
ATOM     11  C   UNL     1      17.157  23.305  47.558  1.00  0.00     0.000 C 
BRANCH  11  12
ATOM     12  C   UNL     1      18.051  22.275  48.279  1.00  0.00     0.000 C 
BRANCH  12  13
ATOM     13  C   UNL     1      19.418  22.812  48.740  1.00  0.00     0.006 C 
BRANCH  13  14
ATOM     14  C   UNL     1      19.834  24.091  47.999  1.00  0.00     0.053 C 
BRANCH  14  15
ATOM     15  C   UNL     1      20.624  23.771  46.767  1.00  0.00     0.041 C 
ATOM     16  O   UNL     1      21.741  23.196  46.864  1.00  0.00    -0.550 OA
ATOM     17  O   UNL     1      20.151  24.142  45.513  1.00  0.00    -0.550 OA
ENDBRANCH  14  15
ENDBRANCH  13  14
ENDBRANCH  12  13
ENDBRANCH  11  12
ENDBRANCH  10  11
ENDBRANCH   9  10
ENDBRANCH   8   9
ENDBRANCH   7   8
ENDBRANCH   6   7
ENDBRANCH   5   6
ENDBRANCH   4   5
ENDBRANCH   3   4
ENDBRANCH   2   3
ENDBRANCH   1   2
BRANCH   1  18
ATOM     18  C   UNL     1      10.606  21.369  39.452  1.00  0.00     0.000 C 
BRANCH  18  19
ATOM     19  C   UNL     1      10.881  22.252  38.222  1.00  0.00     0.000 C 
BRANCH  19  20
ATOM     20  C   UNL     1      12.337  22.189  37.716  1.00  0.00     0.000 C 
BRANCH  20  21
ATOM     21  C   UNL     1      12.465  22.619  36.243  1.00  0.00     0.000 C 
BRANCH  21  22
ATOM     22  C   UNL     1      12.449  21.419  35.275  1.00  0.00     0.000 C 
BRANCH  22  23
ATOM     23  C   UNL     1      13.839  21.020  34.739  1.00  0.00     0.000 C 
BRANCH  23  24
ATOM     24  C   UNL     1      14.807  22.206  34.552  1.00  0.00    -0.000 C 
BRANCH  24  25
ATOM     25  C   UNL     1      16.281  21.778  34.651  1.00  0.00    -0.000 C 
BRANCH  25  26
ATOM     26  C   UNL     1      17.040  21.954  33.327  1.00  0.00    -0.000 C 
BRANCH  26  27
ATOM     27  C   UNL     1      18.508  22.364  33.535  1.00  0.00    -0.000 C 
BRANCH  27  28
ATOM     28  C   UNL     1      19.487  21.341  32.921  1.00  0.00    -0.000 C 
BRANCH  28  29
ATOM     29  C   UNL     1      20.678  21.001  33.836  1.00  0.00    -0.000 C 
BRANCH  29  30
ATOM     30  C   UNL     1      20.876  22.019  34.970  1.00  0.00    -0.000 C 
BRANCH  30  31
ATOM     31  C   UNL     1      21.905  21.549  36.009  1.00  0.00    -0.003 C 
ATOM     32  C   UNL     1      23.307  22.101  35.746  1.00  0.00     0.004 C 
ENDBRANCH  30  31
ENDBRANCH  29  30
ENDBRANCH  28  29
ENDBRANCH  27  28
ENDBRANCH  26  27
ENDBRANCH  25  26
ENDBRANCH  24  25
ENDBRANCH  23  24
ENDBRANCH  22  23
ENDBRANCH  21  22
ENDBRANCH  20  21
ENDBRANCH  19  20
ENDBRANCH  18  19
ENDBRANCH   1  18
TORSDOF 28
ENDMDL
MODEL 7
REMARK VINA RESULT:    -5.481      4.779      9.794
REMARK INTER + INTRA:         -16.554
REMARK INTER:                 -12.814
REMARK INTRA:                  -3.740
REMARK UNBOUND:                -2.099
REMARK SMILES CCCCCCCCCCCCCCCCCCCCCCCCCCCCCC(=O)[O-]
REMARK SMILES IDX 16 1 17 2 18 3 19 4 20 5 21 6 22 7 23 8 24 9 25 10 26 11
REMARK SMILES IDX 27 12 28 13 29 14 30 15 31 16 32 17 15 18 14 19 13 20 12 21
REMARK SMILES IDX 11 22 10 23 9 24 8 25 7 26 6 27 5 28 4 29 3 30 2 31 1 32
REMARK H PARENT
REMARK Flexibility Score: inf
ROOT
ATOM      1  C   UNL     1      13.660  22.695  46.761  1.00  0.00     0.000 C 
ENDROOT
BRANCH   1   2
ATOM      2  C   UNL     1      12.629  23.795  46.454  1.00  0.00     0.000 C 
BRANCH   2   3
ATOM      3  C   UNL     1      12.380  23.965  44.948  1.00  0.00     0.000 C 
BRANCH   3   4
ATOM      4  C   UNL     1      12.044  22.635  44.250  1.00  0.00     0.000 C 
BRANCH   4   5
ATOM      5  C   UNL     1      11.504  22.842  42.820  1.00  0.00     0.000 C 
BRANCH   5   6
ATOM      6  C   UNL     1       9.972  22.965  42.753  1.00  0.00     0.000 C 
BRANCH   6   7
ATOM      7  C   UNL     1       9.418  22.761  41.334  1.00  0.00     0.000 C 
BRANCH   7   8
ATOM      8  C   UNL     1       9.658  21.330  40.805  1.00  0.00     0.000 C 
BRANCH   8   9
ATOM      9  C   UNL     1      10.480  21.280  39.504  1.00  0.00     0.000 C 
BRANCH   9  10
ATOM     10  C   UNL     1      10.960  22.648  38.986  1.00  0.00     0.000 C 
BRANCH  10  11
ATOM     11  C   UNL     1      12.478  22.753  38.731  1.00  0.00     0.000 C 
BRANCH  11  12
ATOM     12  C   UNL     1      13.220  21.406  38.610  1.00  0.00     0.000 C 
BRANCH  12  13
ATOM     13  C   UNL     1      13.943  21.180  37.271  1.00  0.00     0.006 C 
BRANCH  13  14
ATOM     14  C   UNL     1      13.497  22.167  36.182  1.00  0.00     0.053 C 
BRANCH  14  15
ATOM     15  C   UNL     1      12.600  21.502  35.183  1.00  0.00     0.041 C 
ATOM     16  O   UNL     1      11.503  22.034  34.866  1.00  0.00    -0.550 OA
ATOM     17  O   UNL     1      12.951  20.275  34.631  1.00  0.00    -0.550 OA
ENDBRANCH  14  15
ENDBRANCH  13  14
ENDBRANCH  12  13
ENDBRANCH  11  12
ENDBRANCH  10  11
ENDBRANCH   9  10
ENDBRANCH   8   9
ENDBRANCH   7   8
ENDBRANCH   6   7
ENDBRANCH   5   6
ENDBRANCH   4   5
ENDBRANCH   3   4
ENDBRANCH   2   3
ENDBRANCH   1   2
BRANCH   1  18
ATOM     18  C   UNL     1      14.866  23.229  47.559  1.00  0.00     0.000 C 
BRANCH  18  19
ATOM     19  C   UNL     1      16.232  22.777  47.011  1.00  0.00     0.000 C 
BRANCH  19  20
ATOM     20  C   UNL     1      17.439  23.348  47.782  1.00  0.00     0.000 C 
BRANCH  20  21
ATOM     21  C   UNL     1      18.333  22.243  48.374  1.00  0.00     0.000 C 
BRANCH  21  22
ATOM     22  C   UNL     1      19.733  22.759  48.759  1.00  0.00     0.000 C 
BRANCH  22  23
ATOM     23  C   UNL     1      20.269  23.878  47.842  1.00  0.00     0.000 C 
BRANCH  23  24
ATOM     24  C   UNL     1      21.254  23.389  46.762  1.00  0.00    -0.000 C 
BRANCH  24  25
ATOM     25  C   UNL     1      20.583  22.460  45.735  1.00  0.00    -0.000 C 
BRANCH  25  26
ATOM     26  C   UNL     1      19.683  23.219  44.749  1.00  0.00    -0.000 C 
BRANCH  26  27
ATOM     27  C   UNL     1      18.476  22.384  44.285  1.00  0.00    -0.000 C 
BRANCH  27  28
ATOM     28  C   UNL     1      17.547  23.182  43.346  1.00  0.00    -0.000 C 
BRANCH  28  29
ATOM     29  C   UNL     1      16.052  22.876  43.551  1.00  0.00    -0.000 C 
BRANCH  29  30
ATOM     30  C   UNL     1      15.339  22.462  42.253  1.00  0.00    -0.000 C 
BRANCH  30  31
ATOM     31  C   UNL     1      14.973  20.971  42.234  1.00  0.00    -0.003 C 
ATOM     32  C   UNL     1      14.765  20.392  43.633  1.00  0.00     0.004 C 
ENDBRANCH  30  31
ENDBRANCH  29  30
ENDBRANCH  28  29
ENDBRANCH  27  28
ENDBRANCH  26  27
ENDBRANCH  25  26
ENDBRANCH  24  25
ENDBRANCH  23  24
ENDBRANCH  22  23
ENDBRANCH  21  22
ENDBRANCH  20  21
ENDBRANCH  19  20
ENDBRANCH  18  19
ENDBRANCH   1  18
TORSDOF 28
ENDMDL
MODEL 8
REMARK VINA RESULT:    -5.476      2.791     10.793
REMARK INTER + INTRA:         -16.539
REMARK INTER:                 -14.116
REMARK INTRA:                  -2.423
REMARK UNBOUND:                -2.099
REMARK SMILES CCCCCCCCCCCCCCCCCCCCCCCCCCCCCC(=O)[O-]
REMARK SMILES IDX 16 1 17 2 18 3 19 4 20 5 21 6 22 7 23 8 24 9 25 10 26 11
REMARK SMILES IDX 27 12 28 13 29 14 30 15 31 16 32 17 15 18 14 19 13 20 12 21
REMARK SMILES IDX 11 22 10 23 9 24 8 25 7 26 6 27 5 28 4 29 3 30 2 31 1 32
REMARK H PARENT
REMARK Flexibility Score: inf
ROOT
ATOM      1  C   UNL     1      12.147  21.822  38.971  1.00  0.00     0.000 C 
ENDROOT
BRANCH   1   2
ATOM      2  C   UNL     1      10.611  21.872  39.071  1.00  0.00     0.000 C 
BRANCH   2   3
ATOM      3  C   UNL     1      10.115  23.044  39.930  1.00  0.00     0.000 C 
BRANCH   3   4
ATOM      4  C   UNL     1       9.325  22.580  41.165  1.00  0.00     0.000 C 
BRANCH   4   5
ATOM      5  C   UNL     1      10.021  22.966  42.487  1.00  0.00     0.000 C 
BRANCH   5   6
ATOM      6  C   UNL     1      11.442  22.394  42.623  1.00  0.00     0.000 C 
BRANCH   6   7
ATOM      7  C   UNL     1      12.409  23.359  43.330  1.00  0.00     0.000 C 
BRANCH   7   8
ATOM      8  C   UNL     1      12.232  23.354  44.864  1.00  0.00     0.000 C 
BRANCH   8   9
ATOM      9  C   UNL     1      12.273  21.947  45.488  1.00  0.00     0.000 C 
BRANCH   9  10
ATOM     10  C   UNL     1      12.639  21.909  46.982  1.00  0.00     0.000 C 
BRANCH  10  11
ATOM     11  C   UNL     1      13.185  23.234  47.554  1.00  0.00     0.000 C 
BRANCH  11  12
ATOM     12  C   UNL     1      14.717  23.291  47.736  1.00  0.00     0.000 C 
BRANCH  12  13
ATOM     13  C   UNL     1      15.513  23.574  46.451  1.00  0.00     0.006 C 
BRANCH  13  14
ATOM     14  C   UNL     1      16.400  22.394  46.030  1.00  0.00     0.053 C 
BRANCH  14  15
ATOM     15  C   UNL     1      17.775  22.515  46.612  1.00  0.00     0.041 C 
ATOM     16  O   UNL     1      18.612  21.586  46.455  1.00  0.00    -0.550 OA
ATOM     17  O   UNL     1      18.125  23.632  47.362  1.00  0.00    -0.550 OA
ENDBRANCH  14  15
ENDBRANCH  13  14
ENDBRANCH  12  13
ENDBRANCH  11  12
ENDBRANCH  10  11
ENDBRANCH   9  10
ENDBRANCH   8   9
ENDBRANCH   7   8
ENDBRANCH   6   7
ENDBRANCH   5   6
ENDBRANCH   4   5
ENDBRANCH   3   4
ENDBRANCH   2   3
ENDBRANCH   1   2
BRANCH   1  18
ATOM     18  C   UNL     1      12.654  22.185  37.561  1.00  0.00     0.000 C 
BRANCH  18  19
ATOM     19  C   UNL     1      11.563  22.161  36.475  1.00  0.00     0.000 C 
BRANCH  19  20
ATOM     20  C   UNL     1      12.073  21.740  35.082  1.00  0.00     0.000 C 
BRANCH  20  21
ATOM     21  C   UNL     1      13.091  20.588  35.153  1.00  0.00     0.000 C 
BRANCH  21  22
ATOM     22  C   UNL     1      14.447  20.959  34.521  1.00  0.00     0.000 C 
BRANCH  22  23
ATOM     23  C   UNL     1      14.892  22.411  34.787  1.00  0.00     0.000 C 
BRANCH  23  24
ATOM     24  C   UNL     1      16.420  22.614  34.775  1.00  0.00    -0.000 C 
BRANCH  24  25
ATOM     25  C   UNL     1      17.029  22.559  36.187  1.00  0.00    -0.000 C 
BRANCH  25  26
ATOM     26  C   UNL     1      18.489  23.033  36.222  1.00  0.00    -0.000 C 
BRANCH  26  27
ATOM     27  C   UNL     1      19.490  21.864  36.255  1.00  0.00    -0.000 C 
BRANCH  27  28
ATOM     28  C   UNL     1      20.888  22.285  35.755  1.00  0.00    -0.000 C 
BRANCH  28  29
ATOM     29  C   UNL     1      21.396  21.449  34.567  1.00  0.00    -0.000 C 
BRANCH  29  30
ATOM     30  C   UNL     1      20.271  21.005  33.619  1.00  0.00    -0.000 C 
BRANCH  30  31
ATOM     31  C   UNL     1      19.892  22.095  32.605  1.00  0.00    -0.003 C 
ATOM     32  C   UNL     1      18.434  22.005  32.155  1.00  0.00     0.004 C 
ENDBRANCH  30  31
ENDBRANCH  29  30
ENDBRANCH  28  29
ENDBRANCH  27  28
ENDBRANCH  26  27
ENDBRANCH  25  26
ENDBRANCH  24  25
ENDBRANCH  23  24
ENDBRANCH  22  23
ENDBRANCH  21  22
ENDBRANCH  20  21
ENDBRANCH  19  20
ENDBRANCH  18  19
ENDBRANCH   1  18
TORSDOF 28
ENDMDL
MODEL 9
REMARK VINA RESULT:    -5.472      2.220      3.645
REMARK INTER + INTRA:         -16.529
REMARK INTER:                 -12.779
REMARK INTRA:                  -3.750
REMARK UNBOUND:                -2.099
REMARK SMILES CCCCCCCCCCCCCCCCCCCCCCCCCCCCCC(=O)[O-]
REMARK SMILES IDX 16 1 17 2 18 3 19 4 20 5 21 6 22 7 23 8 24 9 25 10 26 11
REMARK SMILES IDX 27 12 28 13 29 14 30 15 31 16 32 17 15 18 14 19 13 20 12 21
REMARK SMILES IDX 11 22 10 23 9 24 8 25 7 26 6 27 5 28 4 29 3 30 2 31 1 32
REMARK H PARENT
REMARK Flexibility Score: inf
ROOT
ATOM      1  C   UNL     1      11.802  21.903  36.528  1.00  0.00     0.000 C 
ENDROOT
BRANCH   1   2
ATOM      2  C   UNL     1      12.855  21.115  35.730  1.00  0.00     0.000 C 
BRANCH   2   3
ATOM      3  C   UNL     1      13.398  21.906  34.531  1.00  0.00     0.000 C 
BRANCH   3   4
ATOM      4  C   UNL     1      13.253  23.427  34.711  1.00  0.00     0.000 C 
BRANCH   4   5
ATOM      5  C   UNL     1      14.522  24.071  35.307  1.00  0.00     0.000 C 
BRANCH   5   6
ATOM      6  C   UNL     1      14.233  25.032  36.473  1.00  0.00     0.000 C 
BRANCH   6   7
ATOM      7  C   UNL     1      14.689  24.474  37.832  1.00  0.00     0.000 C 
BRANCH   7   8
ATOM      8  C   UNL     1      16.005  23.672  37.730  1.00  0.00     0.000 C 
BRANCH   8   9
ATOM      9  C   UNL     1      15.841  22.172  38.039  1.00  0.00     0.000 C 
BRANCH   9  10
ATOM     10  C   UNL     1      16.848  21.249  37.328  1.00  0.00     0.000 C 
BRANCH  10  11
ATOM     11  C   UNL     1      16.667  21.141  35.799  1.00  0.00     0.000 C 
BRANCH  11  12
ATOM     12  C   UNL     1      17.660  21.970  34.959  1.00  0.00     0.000 C 
BRANCH  12  13
ATOM     13  C   UNL     1      17.467  21.865  33.436  1.00  0.00     0.006 C 
BRANCH  13  14
ATOM     14  C   UNL     1      18.755  22.154  32.653  1.00  0.00     0.053 C 
BRANCH  14  15
ATOM     15  C   UNL     1      19.905  21.357  33.189  1.00  0.00     0.041 C 
ATOM     16  O   UNL     1      19.927  20.105  33.047  1.00  0.00    -0.550 OA
ATOM     17  O   UNL     1      20.934  21.986  33.882  1.00  0.00    -0.550 OA
ENDBRANCH  14  15
ENDBRANCH  13  14
ENDBRANCH  12  13
ENDBRANCH  11  12
ENDBRANCH  10  11
ENDBRANCH   9  10
ENDBRANCH   8   9
ENDBRANCH   7   8
ENDBRANCH   6   7
ENDBRANCH   5   6
ENDBRANCH   4   5
ENDBRANCH   3   4
ENDBRANCH   2   3
ENDBRANCH   1   2
BRANCH   1  18
ATOM     18  C   UNL     1      12.114  21.937  38.038  1.00  0.00     0.000 C 
BRANCH  18  19
ATOM     19  C   UNL     1      10.956  22.456  38.908  1.00  0.00     0.000 C 
BRANCH  19  20
ATOM     20  C   UNL     1      10.376  21.403  39.876  1.00  0.00     0.000 C 
BRANCH  20  21
ATOM     21  C   UNL     1       9.388  22.017  40.885  1.00  0.00     0.000 C 
BRANCH  21  22
ATOM     22  C   UNL     1      10.002  23.192  41.672  1.00  0.00     0.000 C 
BRANCH  22  23
ATOM     23  C   UNL     1      10.787  22.769  42.930  1.00  0.00     0.000 C 
BRANCH  23  24
ATOM     24  C   UNL     1      12.257  22.394  42.659  1.00  0.00    -0.000 C 
BRANCH  24  25
ATOM     25  C   UNL     1      13.201  23.604  42.776  1.00  0.00    -0.000 C 
BRANCH  25  26
ATOM     26  C   UNL     1      13.163  24.252  44.169  1.00  0.00    -0.000 C 
BRANCH  26  27
ATOM     27  C   UNL     1      14.452  25.025  44.497  1.00  0.00    -0.000 C 
BRANCH  27  28
ATOM     28  C   UNL     1      15.579  24.091  44.985  1.00  0.00    -0.000 C 
BRANCH  28  29
ATOM     29  C   UNL     1      15.071  22.869  45.770  1.00  0.00    -0.000 C 
BRANCH  29  30
ATOM     30  C   UNL     1      14.712  23.197  47.229  1.00  0.00    -0.000 C 
BRANCH  30  31
ATOM     31  C   UNL     1      13.213  23.024  47.518  1.00  0.00    -0.003 C 
ATOM     32  C   UNL     1      12.628  21.762  46.886  1.00  0.00     0.004 C 
ENDBRANCH  30  31
ENDBRANCH  29  30
ENDBRANCH  28  29
ENDBRANCH  27  28
ENDBRANCH  26  27
ENDBRANCH  25  26
ENDBRANCH  24  25
ENDBRANCH  23  24
ENDBRANCH  22  23
ENDBRANCH  21  22
ENDBRANCH  20  21
ENDBRANCH  19  20
ENDBRANCH  18  19
ENDBRANCH   1  18
TORSDOF 28
ENDMDL
