MODEL 1
REMARK VINA RESULT:    -4.017      0.000      0.000
REMARK INTER + INTRA:         -16.259
REMARK INTER:                 -10.592
REMARK INTRA:                  -5.667
REMARK UNBOUND:                -5.667
REMARK SMILES CCCCCCCCCCCCCCCCCCCCCCCCCCCCCC(=O)[O-]
REMARK SMILES IDX 16 1 17 2 18 3 19 4 20 5 21 6 22 7 23 8 24 9 25 10 26 11
REMARK SMILES IDX 27 12 28 13 29 14 30 15 31 16 32 17 15 18 14 19 13 20 12 21
REMARK SMILES IDX 11 22 10 23 9 24 8 25 7 26 6 27 5 28 4 29 3 30 2 31 1 32
REMARK H PARENT
REMARK Flexibility Score: inf
ROOT
ATOM      1  C   UNL     1     -20.021 118.264  -1.421  1.00  0.00     0.000 C 
ENDROOT
BRANCH   1   2
ATOM      2  C   UNL     1     -20.992 117.901  -2.559  1.00  0.00     0.000 C 
BRANCH   2   3
ATOM      3  C   UNL     1     -20.279 117.241  -3.756  1.00  0.00     0.000 C 
BRANCH   3   4
ATOM      4  C   UNL     1     -20.856 117.705  -5.108  1.00  0.00     0.000 C 
BRANCH   4   5
ATOM      5  C   UNL     1     -20.623 116.703  -6.256  1.00  0.00     0.000 C 
BRANCH   5   6
ATOM      6  C   UNL     1     -21.505 115.438  -6.212  1.00  0.00     0.000 C 
BRANCH   6   7
ATOM      7  C   UNL     1     -23.016 115.730  -6.092  1.00  0.00     0.000 C 
BRANCH   7   8
ATOM      8  C   UNL     1     -23.590 115.330  -4.719  1.00  0.00     0.000 C 
BRANCH   8   9
ATOM      9  C   UNL     1     -22.726 114.274  -4.010  1.00  0.00     0.000 C 
BRANCH   9  10
ATOM     10  C   UNL     1     -22.433 114.644  -2.549  1.00  0.00     0.000 C 
BRANCH  10  11
ATOM     11  C   UNL     1     -21.003 114.248  -2.159  1.00  0.00     0.000 C 
BRANCH  11  12
ATOM     12  C   UNL     1     -20.696 114.663  -0.713  1.00  0.00     0.000 C 
BRANCH  12  13
ATOM     13  C   UNL     1     -19.188 114.600  -0.433  1.00  0.00     0.006 C 
BRANCH  13  14
ATOM     14  C   UNL     1     -18.394 114.105  -1.649  1.00  0.00     0.053 C 
BRANCH  14  15
ATOM     15  C   UNL     1     -17.394 115.121  -2.108  1.00  0.00     0.041 C 
ATOM     16  O   UNL     1     -17.226 116.183  -1.453  1.00  0.00    -0.550 OA
ATOM     17  O   UNL     1     -16.644 114.894  -3.256  1.00  0.00    -0.550 OA
ENDBRANCH  14  15
ENDBRANCH  13  14
ENDBRANCH  12  13
ENDBRANCH  11  12
ENDBRANCH  10  11
ENDBRANCH   9  10
ENDBRANCH   8   9
ENDBRANCH   7   8
ENDBRANCH   6   7
ENDBRANCH   5   6
ENDBRANCH   4   5
ENDBRANCH   3   4
ENDBRANCH   2   3
ENDBRANCH   1   2
BRANCH   1  18
ATOM     18  C   UNL     1     -19.522 119.725  -1.466  1.00  0.00     0.000 C 
BRANCH  18  19
ATOM     19  C   UNL     1     -20.528 120.738  -2.052  1.00  0.00     0.000 C 
BRANCH  19  20
ATOM     20  C   UNL     1     -21.526 121.330  -1.036  1.00  0.00     0.000 C 
BRANCH  20  21
ATOM     21  C   UNL     1     -22.971 120.808  -1.162  1.00  0.00     0.000 C 
BRANCH  21  22
ATOM     22  C   UNL     1     -23.569 120.855  -2.586  1.00  0.00     0.000 C 
BRANCH  22  23
ATOM     23  C   UNL     1     -24.952 121.525  -2.693  1.00  0.00     0.000 C 
BRANCH  23  24
ATOM     24  C   UNL     1     -25.960 120.689  -3.498  1.00  0.00    -0.000 C 
BRANCH  24  25
ATOM     25  C   UNL     1     -27.004 119.987  -2.611  1.00  0.00    -0.000 C 
BRANCH  25  26
ATOM     26  C   UNL     1     -26.635 119.896  -1.121  1.00  0.00    -0.000 C 
BRANCH  26  27
ATOM     27  C   UNL     1     -26.603 118.450  -0.595  1.00  0.00    -0.000 C 
BRANCH  27  28
ATOM     28  C   UNL     1     -25.829 117.498  -1.521  1.00  0.00    -0.000 C 
BRANCH  28  29
ATOM     29  C   UNL     1     -24.327 117.446  -1.201  1.00  0.00    -0.000 C 
BRANCH  29  30
ATOM     30  C   UNL     1     -24.087 117.605   0.309  1.00  0.00    -0.000 C 
BRANCH  30  31
ATOM     31  C   UNL     1     -22.736 117.029   0.762  1.00  0.00    -0.003 C 
ATOM     32  C   UNL     1     -21.884 118.045   1.529  1.00  0.00     0.004 C 
ENDBRANCH  30  31
ENDBRANCH  29  30
ENDBRANCH  28  29
ENDBRANCH  27  28
ENDBRANCH  26  27
ENDBRANCH  25  26
ENDBRANCH  24  25
ENDBRANCH  23  24
ENDBRANCH  22  23
ENDBRANCH  21  22
ENDBRANCH  20  21
ENDBRANCH  19  20
ENDBRANCH  18  19
ENDBRANCH   1  18
TORSDOF 28
ENDMDL
MODEL 2
REMARK VINA RESULT:    -3.980      2.178      4.457
REMARK INTER + INTRA:         -16.161
REMARK INTER:                 -10.590
REMARK INTRA:                  -5.572
REMARK UNBOUND:                -5.667
REMARK SMILES CCCCCCCCCCCCCCCCCCCCCCCCCCCCCC(=O)[O-]
REMARK SMILES IDX 16 1 17 2 18 3 19 4 20 5 21 6 22 7 23 8 24 9 25 10 26 11
REMARK SMILES IDX 27 12 28 13 29 14 30 15 31 16 32 17 15 18 14 19 13 20 12 21
REMARK SMILES IDX 11 22 10 23 9 24 8 25 7 26 6 27 5 28 4 29 3 30 2 31 1 32
REMARK H PARENT
REMARK Flexibility Score: inf
ROOT
ATOM      1  C   UNL     1     -20.312 119.827  -2.004  1.00  0.00     0.000 C 
ENDROOT
BRANCH   1   2
ATOM      2  C   UNL     1     -19.972 118.445  -1.417  1.00  0.00     0.000 C 
BRANCH   2   3
ATOM      3  C   UNL     1     -21.182 117.489  -1.417  1.00  0.00     0.000 C 
BRANCH   3   4
ATOM      4  C   UNL     1     -21.133 116.487  -0.246  1.00  0.00     0.000 C 
BRANCH   4   5
ATOM      5  C   UNL     1     -21.361 115.025  -0.674  1.00  0.00     0.000 C 
BRANCH   5   6
ATOM      6  C   UNL     1     -20.077 114.205  -0.917  1.00  0.00     0.000 C 
BRANCH   6   7
ATOM      7  C   UNL     1     -18.888 114.620  -0.024  1.00  0.00     0.000 C 
BRANCH   7   8
ATOM      8  C   UNL     1     -17.553 114.652  -0.792  1.00  0.00     0.000 C 
BRANCH   8   9
ATOM      9  C   UNL     1     -17.601 115.594  -2.008  1.00  0.00     0.000 C 
BRANCH   9  10
ATOM     10  C   UNL     1     -17.203 114.886  -3.310  1.00  0.00     0.000 C 
BRANCH  10  11
ATOM     11  C   UNL     1     -18.427 114.663  -4.209  1.00  0.00     0.000 C 
BRANCH  11  12
ATOM     12  C   UNL     1     -19.419 115.828  -4.081  1.00  0.00     0.000 C 
BRANCH  12  13
ATOM     13  C   UNL     1     -19.678 116.481  -5.446  1.00  0.00     0.006 C 
BRANCH  13  14
ATOM     14  C   UNL     1     -21.113 117.009  -5.573  1.00  0.00     0.053 C 
BRANCH  14  15
ATOM     15  C   UNL     1     -21.953 116.126  -6.444  1.00  0.00     0.041 C 
ATOM     16  O   UNL     1     -22.271 114.972  -6.053  1.00  0.00    -0.550 OA
ATOM     17  O   UNL     1     -22.387 116.577  -7.684  1.00  0.00    -0.550 OA
ENDBRANCH  14  15
ENDBRANCH  13  14
ENDBRANCH  12  13
ENDBRANCH  11  12
ENDBRANCH  10  11
ENDBRANCH   9  10
ENDBRANCH   8   9
ENDBRANCH   7   8
ENDBRANCH   6   7
ENDBRANCH   5   6
ENDBRANCH   4   5
ENDBRANCH   3   4
ENDBRANCH   2   3
ENDBRANCH   1   2
BRANCH   1  18
ATOM     18  C   UNL     1     -21.059 120.756  -1.022  1.00  0.00     0.000 C 
BRANCH  18  19
ATOM     19  C   UNL     1     -22.540 121.017  -1.373  1.00  0.00     0.000 C 
BRANCH  19  20
ATOM     20  C   UNL     1     -22.948 120.633  -2.809  1.00  0.00     0.000 C 
BRANCH  20  21
ATOM     21  C   UNL     1     -24.170 121.392  -3.363  1.00  0.00     0.000 C 
BRANCH  21  22
ATOM     22  C   UNL     1     -25.526 121.021  -2.722  1.00  0.00     0.000 C 
BRANCH  22  23
ATOM     23  C   UNL     1     -26.105 119.661  -3.156  1.00  0.00     0.000 C 
BRANCH  23  24
ATOM     24  C   UNL     1     -26.645 118.837  -1.975  1.00  0.00    -0.000 C 
BRANCH  24  25
ATOM     25  C   UNL     1     -25.936 119.155  -0.647  1.00  0.00    -0.000 C 
BRANCH  25  26
ATOM     26  C   UNL     1     -24.616 118.402  -0.417  1.00  0.00    -0.000 C 
BRANCH  26  27
ATOM     27  C   UNL     1     -24.629 117.537   0.856  1.00  0.00    -0.000 C 
BRANCH  27  28
ATOM     28  C   UNL     1     -25.535 116.302   0.726  1.00  0.00    -0.000 C 
BRANCH  28  29
ATOM     29  C   UNL     1     -25.101 115.362  -0.409  1.00  0.00    -0.000 C 
BRANCH  29  30
ATOM     30  C   UNL     1     -26.204 115.249  -1.474  1.00  0.00    -0.000 C 
BRANCH  30  31
ATOM     31  C   UNL     1     -25.658 115.332  -2.909  1.00  0.00    -0.003 C 
ATOM     32  C   UNL     1     -24.223 115.865  -2.968  1.00  0.00     0.004 C 
ENDBRANCH  30  31
ENDBRANCH  29  30
ENDBRANCH  28  29
ENDBRANCH  27  28
ENDBRANCH  26  27
ENDBRANCH  25  26
ENDBRANCH  24  25
ENDBRANCH  23  24
ENDBRANCH  22  23
ENDBRANCH  21  22
ENDBRANCH  20  21
ENDBRANCH  19  20
ENDBRANCH  18  19
ENDBRANCH   1  18
TORSDOF 28
ENDMDL
MODEL 3
REMARK VINA RESULT:    -3.968      2.705      4.496
REMARK INTER + INTRA:         -16.131
REMARK INTER:                 -10.488
REMARK INTRA:                  -5.643
REMARK UNBOUND:                -5.667
REMARK SMILES CCCCCCCCCCCCCCCCCCCCCCCCCCCCCC(=O)[O-]
REMARK SMILES IDX 16 1 17 2 18 3 19 4 20 5 21 6 22 7 23 8 24 9 25 10 26 11
REMARK SMILES IDX 27 12 28 13 29 14 30 15 31 16 32 17 15 18 14 19 13 20 12 21
REMARK SMILES IDX 11 22 10 23 9 24 8 25 7 26 6 27 5 28 4 29 3 30 2 31 1 32
REMARK H PARENT
REMARK Flexibility Score: inf
ROOT
ATOM      1  C   UNL     1     -20.986 118.205  -3.661  1.00  0.00     0.000 C 
ENDROOT
BRANCH   1   2
ATOM      2  C   UNL     1     -21.868 117.080  -4.234  1.00  0.00     0.000 C 
BRANCH   2   3
ATOM      3  C   UNL     1     -21.184 116.326  -5.392  1.00  0.00     0.000 C 
BRANCH   3   4
ATOM      4  C   UNL     1     -19.654 116.256  -5.220  1.00  0.00     0.000 C 
BRANCH   4   5
ATOM      5  C   UNL     1     -19.167 114.963  -4.536  1.00  0.00     0.000 C 
BRANCH   5   6
ATOM      6  C   UNL     1     -17.927 115.126  -3.634  1.00  0.00     0.000 C 
BRANCH   6   7
ATOM      7  C   UNL     1     -18.260 115.434  -2.158  1.00  0.00     0.000 C 
BRANCH   7   8
ATOM      8  C   UNL     1     -18.928 114.246  -1.440  1.00  0.00     0.000 C 
BRANCH   8   9
ATOM      9  C   UNL     1     -20.205 114.662  -0.688  1.00  0.00     0.000 C 
BRANCH   9  10
ATOM     10  C   UNL     1     -21.445 114.649  -1.592  1.00  0.00     0.000 C 
BRANCH  10  11
ATOM     11  C   UNL     1     -22.604 115.419  -0.944  1.00  0.00     0.000 C 
BRANCH  11  12
ATOM     12  C   UNL     1     -22.191 115.978   0.425  1.00  0.00     0.000 C 
BRANCH  12  13
ATOM     13  C   UNL     1     -22.944 117.279   0.735  1.00  0.00     0.006 C 
BRANCH  13  14
ATOM     14  C   UNL     1     -24.273 117.375  -0.026  1.00  0.00     0.053 C 
BRANCH  14  15
ATOM     15  C   UNL     1     -25.428 116.932   0.818  1.00  0.00     0.041 C 
ATOM     16  O   UNL     1     -25.714 117.556   1.874  1.00  0.00    -0.550 OA
ATOM     17  O   UNL     1     -26.191 115.835   0.438  1.00  0.00    -0.550 OA
ENDBRANCH  14  15
ENDBRANCH  13  14
ENDBRANCH  12  13
ENDBRANCH  11  12
ENDBRANCH  10  11
ENDBRANCH   9  10
ENDBRANCH   8   9
ENDBRANCH   7   8
ENDBRANCH   6   7
ENDBRANCH   5   6
ENDBRANCH   4   5
ENDBRANCH   3   4
ENDBRANCH   2   3
ENDBRANCH   1   2
BRANCH   1  18
ATOM     18  C   UNL     1     -20.728 118.085  -2.144  1.00  0.00     0.000 C 
BRANCH  18  19
ATOM     19  C   UNL     1     -19.722 119.107  -1.572  1.00  0.00     0.000 C 
BRANCH  19  20
ATOM     20  C   UNL     1     -19.985 120.573  -1.968  1.00  0.00     0.000 C 
BRANCH  20  21
ATOM     21  C   UNL     1     -20.866 121.366  -0.982  1.00  0.00     0.000 C 
BRANCH  21  22
ATOM     22  C   UNL     1     -22.060 120.587  -0.388  1.00  0.00     0.000 C 
BRANCH  22  23
ATOM     23  C   UNL     1     -23.438 120.956  -0.973  1.00  0.00     0.000 C 
BRANCH  23  24
ATOM     24  C   UNL     1     -23.567 120.605  -2.464  1.00  0.00    -0.000 C 
BRANCH  24  25
ATOM     25  C   UNL     1     -24.683 121.394  -3.172  1.00  0.00    -0.000 C 
BRANCH  25  26
ATOM     26  C   UNL     1     -25.956 121.611  -2.339  1.00  0.00    -0.000 C 
BRANCH  26  27
ATOM     27  C   UNL     1     -27.053 120.573  -2.633  1.00  0.00    -0.000 C 
BRANCH  27  28
ATOM     28  C   UNL     1     -26.783 119.216  -1.963  1.00  0.00    -0.000 C 
BRANCH  28  29
ATOM     29  C   UNL     1     -26.876 118.037  -2.944  1.00  0.00    -0.000 C 
BRANCH  29  30
ATOM     30  C   UNL     1     -25.478 117.629  -3.437  1.00  0.00    -0.000 C 
BRANCH  30  31
ATOM     31  C   UNL     1     -25.426 116.179  -3.946  1.00  0.00    -0.003 C 
ATOM     32  C   UNL     1     -25.884 115.163  -2.895  1.00  0.00     0.004 C 
ENDBRANCH  30  31
ENDBRANCH  29  30
ENDBRANCH  28  29
ENDBRANCH  27  28
ENDBRANCH  26  27
ENDBRANCH  25  26
ENDBRANCH  24  25
ENDBRANCH  23  24
ENDBRANCH  22  23
ENDBRANCH  21  22
ENDBRANCH  20  21
ENDBRANCH  19  20
ENDBRANCH  18  19
ENDBRANCH   1  18
TORSDOF 28
ENDMDL
MODEL 4
REMARK VINA RESULT:    -3.904      3.064      5.548
REMARK INTER + INTRA:         -15.961
REMARK INTER:                 -10.668
REMARK INTRA:                  -5.292
REMARK UNBOUND:                -5.667
REMARK SMILES CCCCCCCCCCCCCCCCCCCCCCCCCCCCCC(=O)[O-]
REMARK SMILES IDX 16 1 17 2 18 3 19 4 20 5 21 6 22 7 23 8 24 9 25 10 26 11
REMARK SMILES IDX 27 12 28 13 29 14 30 15 31 16 32 17 15 18 14 19 13 20 12 21
REMARK SMILES IDX 11 22 10 23 9 24 8 25 7 26 6 27 5 28 4 29 3 30 2 31 1 32
REMARK H PARENT
REMARK Flexibility Score: inf
ROOT
ATOM      1  C   UNL     1     -17.091 115.337  -1.220  1.00  0.00     0.000 C 
ENDROOT
BRANCH   1   2
ATOM      2  C   UNL     1     -17.003 115.392  -2.757  1.00  0.00     0.000 C 
BRANCH   2   3
ATOM      3  C   UNL     1     -17.545 114.112  -3.425  1.00  0.00     0.000 C 
BRANCH   3   4
ATOM      4  C   UNL     1     -18.716 114.406  -4.384  1.00  0.00     0.000 C 
BRANCH   4   5
ATOM      5  C   UNL     1     -19.326 115.810  -4.204  1.00  0.00     0.000 C 
BRANCH   5   6
ATOM      6  C   UNL     1     -19.871 116.459  -5.493  1.00  0.00     0.000 C 
BRANCH   6   7
ATOM      7  C   UNL     1     -21.410 116.575  -5.535  1.00  0.00     0.000 C 
BRANCH   7   8
ATOM      8  C   UNL     1     -22.086 115.968  -4.291  1.00  0.00     0.000 C 
BRANCH   8   9
ATOM      9  C   UNL     1     -23.363 115.186  -4.643  1.00  0.00     0.000 C 
BRANCH   9  10
ATOM     10  C   UNL     1     -24.334 115.091  -3.458  1.00  0.00     0.000 C 
BRANCH  10  11
ATOM     11  C   UNL     1     -24.394 116.419  -2.691  1.00  0.00     0.000 C 
BRANCH  11  12
ATOM     12  C   UNL     1     -25.756 116.593  -2.002  1.00  0.00     0.000 C 
BRANCH  12  13
ATOM     13  C   UNL     1     -26.157 115.315  -1.252  1.00  0.00     0.006 C 
BRANCH  13  14
ATOM     14  C   UNL     1     -25.437 115.185   0.097  1.00  0.00     0.053 C 
BRANCH  14  15
ATOM     15  C   UNL     1     -26.383 115.343   1.247  1.00  0.00     0.041 C 
ATOM     16  O   UNL     1     -27.101 116.374   1.338  1.00  0.00    -0.550 OA
ATOM     17  O   UNL     1     -26.477 114.351   2.215  1.00  0.00    -0.550 OA
ENDBRANCH  14  15
ENDBRANCH  13  14
ENDBRANCH  12  13
ENDBRANCH  11  12
ENDBRANCH  10  11
ENDBRANCH   9  10
ENDBRANCH   8   9
ENDBRANCH   7   8
ENDBRANCH   6   7
ENDBRANCH   5   6
ENDBRANCH   4   5
ENDBRANCH   3   4
ENDBRANCH   2   3
ENDBRANCH   1   2
BRANCH   1  18
ATOM     18  C   UNL     1     -17.781 114.067  -0.678  1.00  0.00     0.000 C 
BRANCH  18  19
ATOM     19  C   UNL     1     -19.176 114.298  -0.058  1.00  0.00     0.000 C 
BRANCH  19  20
ATOM     20  C   UNL     1     -20.349 114.260  -1.058  1.00  0.00     0.000 C 
BRANCH  20  21
ATOM     21  C   UNL     1     -21.590 115.073  -0.637  1.00  0.00     0.000 C 
BRANCH  21  22
ATOM     22  C   UNL     1     -21.368 116.596  -0.501  1.00  0.00     0.000 C 
BRANCH  22  23
ATOM     23  C   UNL     1     -22.007 117.242   0.743  1.00  0.00     0.000 C 
BRANCH  23  24
ATOM     24  C   UNL     1     -23.310 117.993   0.424  1.00  0.00    -0.000 C 
BRANCH  24  25
ATOM     25  C   UNL     1     -23.075 119.456   0.010  1.00  0.00    -0.000 C 
BRANCH  25  26
ATOM     26  C   UNL     1     -24.186 120.075  -0.854  1.00  0.00    -0.000 C 
BRANCH  26  27
ATOM     27  C   UNL     1     -23.961 119.870  -2.363  1.00  0.00    -0.000 C 
BRANCH  27  28
ATOM     28  C   UNL     1     -22.717 120.608  -2.884  1.00  0.00    -0.000 C 
BRANCH  28  29
ATOM     29  C   UNL     1     -21.696 119.667  -3.541  1.00  0.00    -0.000 C 
BRANCH  29  30
ATOM     30  C   UNL     1     -20.535 119.367  -2.579  1.00  0.00    -0.000 C 
BRANCH  30  31
ATOM     31  C   UNL     1     -19.872 120.641  -2.030  1.00  0.00    -0.003 C 
ATOM     32  C   UNL     1     -20.237 120.918  -0.569  1.00  0.00     0.004 C 
ENDBRANCH  30  31
ENDBRANCH  29  30
ENDBRANCH  28  29
ENDBRANCH  27  28
ENDBRANCH  26  27
ENDBRANCH  25  26
ENDBRANCH  24  25
ENDBRANCH  23  24
ENDBRANCH  22  23
ENDBRANCH  21  22
ENDBRANCH  20  21
ENDBRANCH  19  20
ENDBRANCH  18  19
ENDBRANCH   1  18
TORSDOF 28
ENDMDL
MODEL 5
REMARK VINA RESULT:    -3.892      1.554      3.736
REMARK INTER + INTRA:         -15.931
REMARK INTER:                 -10.244
REMARK INTRA:                  -5.687
REMARK UNBOUND:                -5.667
REMARK SMILES CCCCCCCCCCCCCCCCCCCCCCCCCCCCCC(=O)[O-]
REMARK SMILES IDX 16 1 17 2 18 3 19 4 20 5 21 6 22 7 23 8 24 9 25 10 26 11
REMARK SMILES IDX 27 12 28 13 29 14 30 15 31 16 32 17 15 18 14 19 13 20 12 21
REMARK SMILES IDX 11 22 10 23 9 24 8 25 7 26 6 27 5 28 4 29 3 30 2 31 1 32
REMARK H PARENT
REMARK Flexibility Score: inf
ROOT
ATOM      1  C   UNL     1     -20.533 121.038  -0.822  1.00  0.00     0.000 C 
ENDROOT
BRANCH   1   2
ATOM      2  C   UNL     1     -20.045 120.564  -2.204  1.00  0.00     0.000 C 
BRANCH   2   3
ATOM      3  C   UNL     1     -20.309 119.064  -2.441  1.00  0.00     0.000 C 
BRANCH   3   4
ATOM      4  C   UNL     1     -21.417 118.826  -3.486  1.00  0.00     0.000 C 
BRANCH   4   5
ATOM      5  C   UNL     1     -22.525 117.869  -3.005  1.00  0.00     0.000 C 
BRANCH   5   6
ATOM      6  C   UNL     1     -22.347 116.395  -3.423  1.00  0.00     0.000 C 
BRANCH   6   7
ATOM      7  C   UNL     1     -22.869 116.076  -4.840  1.00  0.00     0.000 C 
BRANCH   7   8
ATOM      8  C   UNL     1     -21.770 115.524  -5.768  1.00  0.00     0.000 C 
BRANCH   8   9
ATOM      9  C   UNL     1     -20.578 116.488  -5.899  1.00  0.00     0.000 C 
BRANCH   9  10
ATOM     10  C   UNL     1     -19.327 115.972  -5.175  1.00  0.00     0.000 C 
BRANCH  10  11
ATOM     11  C   UNL     1     -19.489 114.496  -4.784  1.00  0.00     0.000 C 
BRANCH  11  12
ATOM     12  C   UNL     1     -18.965 114.246  -3.363  1.00  0.00     0.000 C 
BRANCH  12  13
ATOM     13  C   UNL     1     -18.812 115.565  -2.594  1.00  0.00     0.006 C 
BRANCH  13  14
ATOM     14  C   UNL     1     -17.400 115.738  -2.017  1.00  0.00     0.053 C 
BRANCH  14  15
ATOM     15  C   UNL     1     -17.161 114.823  -0.855  1.00  0.00     0.041 C 
ATOM     16  O   UNL     1     -16.003 114.385  -0.625  1.00  0.00    -0.550 OA
ATOM     17  O   UNL     1     -18.214 114.457  -0.026  1.00  0.00    -0.550 OA
ENDBRANCH  14  15
ENDBRANCH  13  14
ENDBRANCH  12  13
ENDBRANCH  11  12
ENDBRANCH  10  11
ENDBRANCH   9  10
ENDBRANCH   8   9
ENDBRANCH   7   8
ENDBRANCH   6   7
ENDBRANCH   5   6
ENDBRANCH   4   5
ENDBRANCH   3   4
ENDBRANCH   2   3
ENDBRANCH   1   2
BRANCH   1  18
ATOM     18  C   UNL     1     -22.066 120.989  -0.650  1.00  0.00     0.000 C 
BRANCH  18  19
ATOM     19  C   UNL     1     -22.589 119.802   0.187  1.00  0.00     0.000 C 
BRANCH  19  20
ATOM     20  C   UNL     1     -21.513 119.044   0.990  1.00  0.00     0.000 C 
BRANCH  20  21
ATOM     21  C   UNL     1     -21.902 117.613   1.410  1.00  0.00     0.000 C 
BRANCH  21  22
ATOM     22  C   UNL     1     -21.796 116.545   0.298  1.00  0.00     0.000 C 
BRANCH  22  23
ATOM     23  C   UNL     1     -23.035 115.642   0.138  1.00  0.00     0.000 C 
BRANCH  23  24
ATOM     24  C   UNL     1     -24.346 116.439   0.040  1.00  0.00    -0.000 C 
BRANCH  24  25
ATOM     25  C   UNL     1     -25.488 115.640  -0.613  1.00  0.00    -0.000 C 
BRANCH  25  26
ATOM     26  C   UNL     1     -25.425 115.550  -2.146  1.00  0.00    -0.000 C 
BRANCH  26  27
ATOM     27  C   UNL     1     -26.655 116.167  -2.837  1.00  0.00    -0.000 C 
BRANCH  27  28
ATOM     28  C   UNL     1     -26.354 117.531  -3.478  1.00  0.00    -0.000 C 
BRANCH  28  29
ATOM     29  C   UNL     1     -26.729 118.712  -2.570  1.00  0.00    -0.000 C 
BRANCH  29  30
ATOM     30  C   UNL     1     -25.468 119.388  -2.008  1.00  0.00    -0.000 C 
BRANCH  30  31
ATOM     31  C   UNL     1     -25.477 120.915  -2.195  1.00  0.00    -0.003 C 
ATOM     32  C   UNL     1     -24.536 121.383  -3.309  1.00  0.00     0.004 C 
ENDBRANCH  30  31
ENDBRANCH  29  30
ENDBRANCH  28  29
ENDBRANCH  27  28
ENDBRANCH  26  27
ENDBRANCH  25  26
ENDBRANCH  24  25
ENDBRANCH  23  24
ENDBRANCH  22  23
ENDBRANCH  21  22
ENDBRANCH  20  21
ENDBRANCH  19  20
ENDBRANCH  18  19
ENDBRANCH   1  18
TORSDOF 28
ENDMDL
MODEL 6
REMARK VINA RESULT:    -3.880      1.594      3.849
REMARK INTER + INTRA:         -15.898
REMARK INTER:                 -10.314
REMARK INTRA:                  -5.584
REMARK UNBOUND:                -5.667
REMARK SMILES CCCCCCCCCCCCCCCCCCCCCCCCCCCCCC(=O)[O-]
REMARK SMILES IDX 16 1 17 2 18 3 19 4 20 5 21 6 22 7 23 8 24 9 25 10 26 11
REMARK SMILES IDX 27 12 28 13 29 14 30 15 31 16 32 17 15 18 14 19 13 20 12 21
REMARK SMILES IDX 11 22 10 23 9 24 8 25 7 26 6 27 5 28 4 29 3 30 2 31 1 32
REMARK H PARENT
REMARK Flexibility Score: inf
ROOT
ATOM      1  C   UNL     1     -21.780 120.226   0.158  1.00  0.00     0.000 C 
ENDROOT
BRANCH   1   2
ATOM      2  C   UNL     1     -20.360 120.604  -0.300  1.00  0.00     0.000 C 
BRANCH   2   3
ATOM      3  C   UNL     1     -19.918 119.828  -1.557  1.00  0.00     0.000 C 
BRANCH   3   4
ATOM      4  C   UNL     1     -20.382 120.512  -2.858  1.00  0.00     0.000 C 
BRANCH   4   5
ATOM      5  C   UNL     1     -21.510 119.756  -3.586  1.00  0.00     0.000 C 
BRANCH   5   6
ATOM      6  C   UNL     1     -21.501 118.225  -3.397  1.00  0.00     0.000 C 
BRANCH   6   7
ATOM      7  C   UNL     1     -21.029 117.441  -4.641  1.00  0.00     0.000 C 
BRANCH   7   8
ATOM      8  C   UNL     1     -20.458 116.054  -4.287  1.00  0.00     0.000 C 
BRANCH   8   9
ATOM      9  C   UNL     1     -21.561 114.997  -4.107  1.00  0.00     0.000 C 
BRANCH   9  10
ATOM     10  C   UNL     1     -21.439 114.249  -2.772  1.00  0.00     0.000 C 
BRANCH  10  11
ATOM     11  C   UNL     1     -21.859 115.145  -1.600  1.00  0.00     0.000 C 
BRANCH  11  12
ATOM     12  C   UNL     1     -20.838 115.066  -0.456  1.00  0.00     0.000 C 
BRANCH  12  13
ATOM     13  C   UNL     1     -19.679 114.127  -0.820  1.00  0.00     0.006 C 
BRANCH  13  14
ATOM     14  C   UNL     1     -18.384 114.495  -0.084  1.00  0.00     0.053 C 
BRANCH  14  15
ATOM     15  C   UNL     1     -17.321 114.959  -1.032  1.00  0.00     0.041 C 
ATOM     16  O   UNL     1     -17.546 115.924  -1.810  1.00  0.00    -0.550 OA
ATOM     17  O   UNL     1     -16.082 114.331  -1.055  1.00  0.00    -0.550 OA
ENDBRANCH  14  15
ENDBRANCH  13  14
ENDBRANCH  12  13
ENDBRANCH  11  12
ENDBRANCH  10  11
ENDBRANCH   9  10
ENDBRANCH   8   9
ENDBRANCH   7   8
ENDBRANCH   6   7
ENDBRANCH   5   6
ENDBRANCH   4   5
ENDBRANCH   3   4
ENDBRANCH   2   3
ENDBRANCH   1   2
BRANCH   1  18
ATOM     18  C   UNL     1     -22.038 118.704   0.204  1.00  0.00     0.000 C 
BRANCH  18  19
ATOM     19  C   UNL     1     -23.459 118.273  -0.217  1.00  0.00     0.000 C 
BRANCH  19  20
ATOM     20  C   UNL     1     -24.191 117.364   0.791  1.00  0.00     0.000 C 
BRANCH  20  21
ATOM     21  C   UNL     1     -25.717 117.573   0.867  1.00  0.00     0.000 C 
BRANCH  21  22
ATOM     22  C   UNL     1     -26.557 116.280   0.968  1.00  0.00     0.000 C 
BRANCH  22  23
ATOM     23  C   UNL     1     -25.978 115.064   0.218  1.00  0.00     0.000 C 
BRANCH  23  24
ATOM     24  C   UNL     1     -26.884 114.581  -0.926  1.00  0.00    -0.000 C 
BRANCH  24  25
ATOM     25  C   UNL     1     -26.664 115.358  -2.236  1.00  0.00    -0.000 C 
BRANCH  25  26
ATOM     26  C   UNL     1     -25.231 115.870  -2.456  1.00  0.00    -0.000 C 
BRANCH  26  27
ATOM     27  C   UNL     1     -25.156 117.048  -3.443  1.00  0.00    -0.000 C 
BRANCH  27  28
ATOM     28  C   UNL     1     -26.406 117.943  -3.396  1.00  0.00    -0.000 C 
BRANCH  28  29
ATOM     29  C   UNL     1     -26.067 119.429  -3.198  1.00  0.00    -0.000 C 
BRANCH  29  30
ATOM     30  C   UNL     1     -26.390 119.873  -1.762  1.00  0.00    -0.000 C 
BRANCH  30  31
ATOM     31  C   UNL     1     -25.679 121.178  -1.369  1.00  0.00    -0.003 C 
ATOM     32  C   UNL     1     -24.348 121.374  -2.101  1.00  0.00     0.004 C 
ENDBRANCH  30  31
ENDBRANCH  29  30
ENDBRANCH  28  29
ENDBRANCH  27  28
ENDBRANCH  26  27
ENDBRANCH  25  26
ENDBRANCH  24  25
ENDBRANCH  23  24
ENDBRANCH  22  23
ENDBRANCH  21  22
ENDBRANCH  20  21
ENDBRANCH  19  20
ENDBRANCH  18  19
ENDBRANCH   1  18
TORSDOF 28
ENDMDL
MODEL 7
REMARK VINA RESULT:    -3.840      2.846      6.632
REMARK INTER + INTRA:         -15.793
REMARK INTER:                  -9.664
REMARK INTRA:                  -6.129
REMARK UNBOUND:                -5.667
REMARK SMILES CCCCCCCCCCCCCCCCCCCCCCCCCCCCCC(=O)[O-]
REMARK SMILES IDX 16 1 17 2 18 3 19 4 20 5 21 6 22 7 23 8 24 9 25 10 26 11
REMARK SMILES IDX 27 12 28 13 29 14 30 15 31 16 32 17 15 18 14 19 13 20 12 21
REMARK SMILES IDX 11 22 10 23 9 24 8 25 7 26 6 27 5 28 4 29 3 30 2 31 1 32
REMARK H PARENT
REMARK Flexibility Score: inf
ROOT
ATOM      1  C   UNL     1     -22.185 115.576  -1.909  1.00  0.00     0.000 C 
ENDROOT
BRANCH   1   2
ATOM      2  C   UNL     1     -22.199 114.452  -2.961  1.00  0.00     0.000 C 
BRANCH   2   3
ATOM      3  C   UNL     1     -23.342 114.614  -3.983  1.00  0.00     0.000 C 
BRANCH   3   4
ATOM      4  C   UNL     1     -24.049 115.978  -3.856  1.00  0.00     0.000 C 
BRANCH   4   5
ATOM      5  C   UNL     1     -25.587 115.880  -3.870  1.00  0.00     0.000 C 
BRANCH   5   6
ATOM      6  C   UNL     1     -26.153 114.446  -3.914  1.00  0.00     0.000 C 
BRANCH   6   7
ATOM      7  C   UNL     1     -27.035 114.081  -2.701  1.00  0.00     0.000 C 
BRANCH   7   8
ATOM      8  C   UNL     1     -27.096 115.206  -1.651  1.00  0.00     0.000 C 
BRANCH   8   9
ATOM      9  C   UNL     1     -26.446 114.797  -0.318  1.00  0.00     0.000 C 
BRANCH   9  10
ATOM     10  C   UNL     1     -25.172 115.599  -0.020  1.00  0.00     0.000 C 
BRANCH  10  11
ATOM     11  C   UNL     1     -25.467 116.766   0.931  1.00  0.00     0.000 C 
BRANCH  11  12
ATOM     12  C   UNL     1     -25.628 118.079   0.153  1.00  0.00     0.000 C 
BRANCH  12  13
ATOM     13  C   UNL     1     -24.582 118.186  -0.965  1.00  0.00     0.006 C 
BRANCH  13  14
ATOM     14  C   UNL     1     -24.976 119.219  -2.030  1.00  0.00     0.053 C 
BRANCH  14  15
ATOM     15  C   UNL     1     -24.914 120.617  -1.494  1.00  0.00     0.041 C 
ATOM     16  O   UNL     1     -25.859 121.419  -1.713  1.00  0.00    -0.550 OA
ATOM     17  O   UNL     1     -23.816 121.032  -0.751  1.00  0.00    -0.550 OA
ENDBRANCH  14  15
ENDBRANCH  13  14
ENDBRANCH  12  13
ENDBRANCH  11  12
ENDBRANCH  10  11
ENDBRANCH   9  10
ENDBRANCH   8   9
ENDBRANCH   7   8
ENDBRANCH   6   7
ENDBRANCH   5   6
ENDBRANCH   4   5
ENDBRANCH   3   4
ENDBRANCH   2   3
ENDBRANCH   1   2
BRANCH   1  18
ATOM     18  C   UNL     1     -21.130 115.380  -0.799  1.00  0.00     0.000 C 
BRANCH  18  19
ATOM     19  C   UNL     1     -20.281 114.098  -0.927  1.00  0.00     0.000 C 
BRANCH  19  20
ATOM     20  C   UNL     1     -18.780 114.275  -0.622  1.00  0.00     0.000 C 
BRANCH  20  21
ATOM     21  C   UNL     1     -18.200 115.657  -0.984  1.00  0.00     0.000 C 
BRANCH  21  22
ATOM     22  C   UNL     1     -17.409 115.715  -2.310  1.00  0.00     0.000 C 
BRANCH  22  23
ATOM     23  C   UNL     1     -17.567 114.482  -3.221  1.00  0.00     0.000 C 
BRANCH  23  24
ATOM     24  C   UNL     1     -18.580 114.704  -4.356  1.00  0.00    -0.000 C 
BRANCH  24  25
ATOM     25  C   UNL     1     -19.206 116.110  -4.336  1.00  0.00    -0.000 C 
BRANCH  25  26
ATOM     26  C   UNL     1     -20.217 116.389  -5.460  1.00  0.00    -0.000 C 
BRANCH  26  27
ATOM     27  C   UNL     1     -21.090 117.627  -5.192  1.00  0.00    -0.000 C 
BRANCH  27  28
ATOM     28  C   UNL     1     -21.033 118.089  -3.726  1.00  0.00    -0.000 C 
BRANCH  28  29
ATOM     29  C   UNL     1     -21.517 119.535  -3.537  1.00  0.00    -0.000 C 
BRANCH  29  30
ATOM     30  C   UNL     1     -20.765 120.213  -2.381  1.00  0.00    -0.000 C 
BRANCH  30  31
ATOM     31  C   UNL     1     -20.199 119.206  -1.367  1.00  0.00    -0.003 C 
ATOM     32  C   UNL     1     -21.128 118.979  -0.171  1.00  0.00     0.004 C 
ENDBRANCH  30  31
ENDBRANCH  29  30
ENDBRANCH  28  29
ENDBRANCH  27  28
ENDBRANCH  26  27
ENDBRANCH  25  26
ENDBRANCH  24  25
ENDBRANCH  23  24
ENDBRANCH  22  23
ENDBRANCH  21  22
ENDBRANCH  20  21
ENDBRANCH  19  20
ENDBRANCH  18  19
ENDBRANCH   1  18
TORSDOF 28
ENDMDL
MODEL 8
REMARK VINA RESULT:    -3.823      2.542      5.857
REMARK INTER + INTRA:         -15.749
REMARK INTER:                 -10.767
REMARK INTRA:                  -4.982
REMARK UNBOUND:                -5.667
REMARK SMILES CCCCCCCCCCCCCCCCCCCCCCCCCCCCCC(=O)[O-]
REMARK SMILES IDX 16 1 17 2 18 3 19 4 20 5 21 6 22 7 23 8 24 9 25 10 26 11
REMARK SMILES IDX 27 12 28 13 29 14 30 15 31 16 32 17 15 18 14 19 13 20 12 21
REMARK SMILES IDX 11 22 10 23 9 24 8 25 7 26 6 27 5 28 4 29 3 30 2 31 1 32
REMARK H PARENT
REMARK Flexibility Score: inf
ROOT
ATOM      1  C   UNL     1     -17.282 115.202  -1.003  1.00  0.00     0.000 C 
ENDROOT
BRANCH   1   2
ATOM      2  C   UNL     1     -17.049 115.382  -2.515  1.00  0.00     0.000 C 
BRANCH   2   3
ATOM      3  C   UNL     1     -17.367 114.105  -3.317  1.00  0.00     0.000 C 
BRANCH   3   4
ATOM      4  C   UNL     1     -18.460 114.340  -4.379  1.00  0.00     0.000 C 
BRANCH   4   5
ATOM      5  C   UNL     1     -19.005 115.782  -4.396  1.00  0.00     0.000 C 
BRANCH   5   6
ATOM      6  C   UNL     1     -20.337 115.971  -5.151  1.00  0.00     0.000 C 
BRANCH   6   7
ATOM      7  C   UNL     1     -21.333 114.806  -4.968  1.00  0.00     0.000 C 
BRANCH   7   8
ATOM      8  C   UNL     1     -22.794 115.229  -5.217  1.00  0.00     0.000 C 
BRANCH   8   9
ATOM      9  C   UNL     1     -23.350 116.103  -4.079  1.00  0.00     0.000 C 
BRANCH   9  10
ATOM     10  C   UNL     1     -24.472 115.401  -3.300  1.00  0.00     0.000 C 
BRANCH  10  11
ATOM     11  C   UNL     1     -25.734 116.273  -3.252  1.00  0.00     0.000 C 
BRANCH  11  12
ATOM     12  C   UNL     1     -25.424 117.652  -2.651  1.00  0.00     0.000 C 
BRANCH  12  13
ATOM     13  C   UNL     1     -26.275 117.908  -1.400  1.00  0.00     0.006 C 
BRANCH  13  14
ATOM     14  C   UNL     1     -26.574 116.616  -0.628  1.00  0.00     0.053 C 
BRANCH  14  15
ATOM     15  C   UNL     1     -25.616 116.414   0.506  1.00  0.00     0.041 C 
ATOM     16  O   UNL     1     -24.895 115.382   0.548  1.00  0.00    -0.550 OA
ATOM     17  O   UNL     1     -25.514 117.366   1.512  1.00  0.00    -0.550 OA
ENDBRANCH  14  15
ENDBRANCH  13  14
ENDBRANCH  12  13
ENDBRANCH  11  12
ENDBRANCH  10  11
ENDBRANCH   9  10
ENDBRANCH   8   9
ENDBRANCH   7   8
ENDBRANCH   6   7
ENDBRANCH   5   6
ENDBRANCH   4   5
ENDBRANCH   3   4
ENDBRANCH   2   3
ENDBRANCH   1   2
BRANCH   1  18
ATOM     18  C   UNL     1     -18.058 113.918  -0.639  1.00  0.00     0.000 C 
BRANCH  18  19
ATOM     19  C   UNL     1     -19.505 114.148  -0.154  1.00  0.00     0.000 C 
BRANCH  19  20
ATOM     20  C   UNL     1     -20.501 114.574  -1.252  1.00  0.00     0.000 C 
BRANCH  20  21
ATOM     21  C   UNL     1     -21.709 115.391  -0.753  1.00  0.00     0.000 C 
BRANCH  21  22
ATOM     22  C   UNL     1     -21.692 116.891  -1.125  1.00  0.00     0.000 C 
BRANCH  22  23
ATOM     23  C   UNL     1     -20.298 117.475  -1.424  1.00  0.00     0.000 C 
BRANCH  23  24
ATOM     24  C   UNL     1     -20.359 118.794  -2.211  1.00  0.00    -0.000 C 
BRANCH  24  25
ATOM     25  C   UNL     1     -19.714 119.973  -1.460  1.00  0.00    -0.000 C 
BRANCH  25  26
ATOM     26  C   UNL     1     -20.706 120.980  -0.854  1.00  0.00    -0.000 C 
BRANCH  26  27
ATOM     27  C   UNL     1     -22.068 120.989  -1.571  1.00  0.00    -0.000 C 
BRANCH  27  28
ATOM     28  C   UNL     1     -23.229 120.593  -0.645  1.00  0.00    -0.000 C 
BRANCH  28  29
ATOM     29  C   UNL     1     -24.602 121.001  -1.203  1.00  0.00    -0.000 C 
BRANCH  29  30
ATOM     30  C   UNL     1     -24.520 121.252  -2.717  1.00  0.00    -0.000 C 
BRANCH  30  31
ATOM     31  C   UNL     1     -25.852 121.732  -3.315  1.00  0.00    -0.003 C 
ATOM     32  C   UNL     1     -25.687 122.379  -4.693  1.00  0.00     0.004 C 
ENDBRANCH  30  31
ENDBRANCH  29  30
ENDBRANCH  28  29
ENDBRANCH  27  28
ENDBRANCH  26  27
ENDBRANCH  25  26
ENDBRANCH  24  25
ENDBRANCH  23  24
ENDBRANCH  22  23
ENDBRANCH  21  22
ENDBRANCH  20  21
ENDBRANCH  19  20
ENDBRANCH  18  19
ENDBRANCH   1  18
TORSDOF 28
ENDMDL
MODEL 9
REMARK VINA RESULT:    -3.813      2.697      6.804
REMARK INTER + INTRA:         -15.721
REMARK INTER:                 -10.365
REMARK INTRA:                  -5.356
REMARK UNBOUND:                -5.667
REMARK SMILES CCCCCCCCCCCCCCCCCCCCCCCCCCCCCC(=O)[O-]
REMARK SMILES IDX 16 1 17 2 18 3 19 4 20 5 21 6 22 7 23 8 24 9 25 10 26 11
REMARK SMILES IDX 27 12 28 13 29 14 30 15 31 16 32 17 15 18 14 19 13 20 12 21
REMARK SMILES IDX 11 22 10 23 9 24 8 25 7 26 6 27 5 28 4 29 3 30 2 31 1 32
REMARK H PARENT
REMARK Flexibility Score: inf
ROOT
ATOM      1  C   UNL     1     -20.466 120.294  -1.505  1.00  0.00     0.000 C 
ENDROOT
BRANCH   1   2
ATOM      2  C   UNL     1     -21.394 119.432  -2.381  1.00  0.00     0.000 C 
BRANCH   2   3
ATOM      3  C   UNL     1     -22.315 120.282  -3.279  1.00  0.00     0.000 C 
BRANCH   3   4
ATOM      4  C   UNL     1     -23.500 120.883  -2.497  1.00  0.00     0.000 C 
BRANCH   4   5
ATOM      5  C   UNL     1     -24.513 121.629  -3.386  1.00  0.00     0.000 C 
BRANCH   5   6
ATOM      6  C   UNL     1     -25.968 121.127  -3.286  1.00  0.00     0.000 C 
BRANCH   6   7
ATOM      7  C   UNL     1     -26.267 120.317  -2.007  1.00  0.00     0.000 C 
BRANCH   7   8
ATOM      8  C   UNL     1     -26.801 118.904  -2.310  1.00  0.00     0.000 C 
BRANCH   8   9
ATOM      9  C   UNL     1     -26.395 118.415  -3.711  1.00  0.00     0.000 C 
BRANCH   9  10
ATOM     10  C   UNL     1     -25.675 117.060  -3.671  1.00  0.00     0.000 C 
BRANCH  10  11
ATOM     11  C   UNL     1     -24.322 117.179  -2.956  1.00  0.00     0.000 C 
BRANCH  11  12
ATOM     12  C   UNL     1     -24.120 116.019  -1.971  1.00  0.00     0.000 C 
BRANCH  12  13
ATOM     13  C   UNL     1     -25.422 115.701  -1.223  1.00  0.00     0.006 C 
BRANCH  13  14
ATOM     14  C   UNL     1     -25.203 115.569   0.290  1.00  0.00     0.053 C 
BRANCH  14  15
ATOM     15  C   UNL     1     -25.615 116.811   1.019  1.00  0.00     0.041 C 
ATOM     16  O   UNL     1     -25.213 117.937   0.624  1.00  0.00    -0.550 OA
ATOM     17  O   UNL     1     -26.444 116.726   2.131  1.00  0.00    -0.550 OA
ENDBRANCH  14  15
ENDBRANCH  13  14
ENDBRANCH  12  13
ENDBRANCH  11  12
ENDBRANCH  10  11
ENDBRANCH   9  10
ENDBRANCH   8   9
ENDBRANCH   7   8
ENDBRANCH   6   7
ENDBRANCH   5   6
ENDBRANCH   4   5
ENDBRANCH   3   4
ENDBRANCH   2   3
ENDBRANCH   1   2
BRANCH   1  18
ATOM     18  C   UNL     1     -20.792 120.230   0.003  1.00  0.00     0.000 C 
BRANCH  18  19
ATOM     19  C   UNL     1     -21.965 119.298   0.376  1.00  0.00     0.000 C 
BRANCH  19  20
ATOM     20  C   UNL     1     -21.598 118.133   1.317  1.00  0.00     0.000 C 
BRANCH  20  21
ATOM     21  C   UNL     1     -21.832 116.725   0.731  1.00  0.00     0.000 C 
BRANCH  21  22
ATOM     22  C   UNL     1     -20.830 116.289  -0.361  1.00  0.00     0.000 C 
BRANCH  22  23
ATOM     23  C   UNL     1     -20.937 114.814  -0.796  1.00  0.00     0.000 C 
BRANCH  23  24
ATOM     24  C   UNL     1     -19.594 114.070  -0.719  1.00  0.00    -0.000 C 
BRANCH  24  25
ATOM     25  C   UNL     1     -18.380 115.012  -0.792  1.00  0.00    -0.000 C 
BRANCH  25  26
ATOM     26  C   UNL     1     -17.629 115.003  -2.134  1.00  0.00    -0.000 C 
BRANCH  26  27
ATOM     27  C   UNL     1     -18.247 114.041  -3.164  1.00  0.00    -0.000 C 
BRANCH  27  28
ATOM     28  C   UNL     1     -18.523 114.716  -4.517  1.00  0.00    -0.000 C 
BRANCH  28  29
ATOM     29  C   UNL     1     -20.021 114.931  -4.782  1.00  0.00    -0.000 C 
BRANCH  29  30
ATOM     30  C   UNL     1     -20.491 116.271  -4.193  1.00  0.00    -0.000 C 
BRANCH  30  31
ATOM     31  C   UNL     1     -21.051 117.226  -5.259  1.00  0.00    -0.003 C 
ATOM     32  C   UNL     1     -21.520 116.499  -6.522  1.00  0.00     0.004 C 
ENDBRANCH  30  31
ENDBRANCH  29  30
ENDBRANCH  28  29
ENDBRANCH  27  28
ENDBRANCH  26  27
ENDBRANCH  25  26
ENDBRANCH  24  25
ENDBRANCH  23  24
ENDBRANCH  22  23
ENDBRANCH  21  22
ENDBRANCH  20  21
ENDBRANCH  19  20
ENDBRANCH  18  19
ENDBRANCH   1  18
TORSDOF 28
ENDMDL
