MODEL 1
REMARK VINA RESULT:    -3.070      0.000      0.000
REMARK INTER + INTRA:         -13.352
REMARK INTER:                  -8.094
REMARK INTRA:                  -5.258
REMARK UNBOUND:                -5.258
REMARK SMILES CCCCCCCCCCCCCCCCCCCCCCCCCCCCCC(=O)[O-]
REMARK SMILES IDX 16 1 17 2 18 3 19 4 20 5 21 6 22 7 23 8 24 9 25 10 26 11
REMARK SMILES IDX 27 12 28 13 29 14 30 15 31 16 32 17 15 18 14 19 13 20 12 21
REMARK SMILES IDX 11 22 10 23 9 24 8 25 7 26 6 27 5 28 4 29 3 30 2 31 1 32
REMARK H PARENT
REMARK Flexibility Score: inf
ROOT
ATOM      1  C   UNL     1      22.053   2.736   5.882  1.00  0.00     0.000 C 
ENDROOT
BRANCH   1   2
ATOM      2  C   UNL     1      21.275   3.613   4.883  1.00  0.00     0.000 C 
BRANCH   2   3
ATOM      3  C   UNL     1      20.048   2.893   4.303  1.00  0.00     0.000 C 
BRANCH   3   4
ATOM      4  C   UNL     1      20.394   1.526   3.685  1.00  0.00     0.000 C 
BRANCH   4   5
ATOM      5  C   UNL     1      21.503   1.613   2.620  1.00  0.00     0.000 C 
BRANCH   5   6
ATOM      6  C   UNL     1      22.701   0.675   2.857  1.00  0.00     0.000 C 
BRANCH   6   7
ATOM      7  C   UNL     1      22.296  -0.683   3.448  1.00  0.00     0.000 C 
BRANCH   7   8
ATOM      8  C   UNL     1      22.956  -0.911   4.816  1.00  0.00     0.000 C 
BRANCH   8   9
ATOM      9  C   UNL     1      21.929  -1.131   5.941  1.00  0.00     0.000 C 
BRANCH   9  10
ATOM     10  C   UNL     1      21.689  -2.607   6.320  1.00  0.00     0.000 C 
BRANCH  10  11
ATOM     11  C   UNL     1      20.559  -2.841   7.338  1.00  0.00     0.000 C 
BRANCH  11  12
ATOM     12  C   UNL     1      21.027  -3.627   8.575  1.00  0.00     0.000 C 
BRANCH  12  13
ATOM     13  C   UNL     1      22.263  -3.003   9.245  1.00  0.00     0.006 C 
BRANCH  13  14
ATOM     14  C   UNL     1      23.373  -4.030   9.507  1.00  0.00     0.053 C 
BRANCH  14  15
ATOM     15  C   UNL     1      23.907  -3.874  10.895  1.00  0.00     0.041 C 
ATOM     16  O   UNL     1      25.003  -4.409  11.218  1.00  0.00    -0.550 OA
ATOM     17  O   UNL     1      23.181  -3.159  11.843  1.00  0.00    -0.550 OA
ENDBRANCH  14  15
ENDBRANCH  13  14
ENDBRANCH  12  13
ENDBRANCH  11  12
ENDBRANCH  10  11
ENDBRANCH   9  10
ENDBRANCH   8   9
ENDBRANCH   7   8
ENDBRANCH   6   7
ENDBRANCH   5   6
ENDBRANCH   4   5
ENDBRANCH   3   4
ENDBRANCH   2   3
ENDBRANCH   1   2
BRANCH   1  18
ATOM     18  C   UNL     1      23.573   2.955   5.803  1.00  0.00     0.000 C 
BRANCH  18  19
ATOM     19  C   UNL     1      24.372   1.837   6.490  1.00  0.00     0.000 C 
BRANCH  19  20
ATOM     20  C   UNL     1      25.842   2.233   6.669  1.00  0.00     0.000 C 
BRANCH  20  21
ATOM     21  C   UNL     1      26.682   1.782   5.464  1.00  0.00     0.000 C 
BRANCH  21  22
ATOM     22  C   UNL     1      26.454   0.300   5.097  1.00  0.00     0.000 C 
BRANCH  22  23
ATOM     23  C   UNL     1      26.956  -0.706   6.156  1.00  0.00     0.000 C 
BRANCH  23  24
ATOM     24  C   UNL     1      25.884  -1.715   6.604  1.00  0.00    -0.000 C 
BRANCH  24  25
ATOM     25  C   UNL     1      25.318  -1.391   8.007  1.00  0.00    -0.000 C 
BRANCH  25  26
ATOM     26  C   UNL     1      26.424  -1.106   9.039  1.00  0.00    -0.000 C 
BRANCH  26  27
ATOM     27  C   UNL     1      26.318   0.294   9.674  1.00  0.00    -0.000 C 
BRANCH  27  28
ATOM     28  C   UNL     1      27.678   1.010   9.727  1.00  0.00    -0.000 C 
BRANCH  28  29
ATOM     29  C   UNL     1      28.825   0.071   9.335  1.00  0.00    -0.000 C 
BRANCH  29  30
ATOM     30  C   UNL     1      29.819   0.790   8.407  1.00  0.00    -0.000 C 
BRANCH  30  31
ATOM     31  C   UNL     1      29.370   2.216   8.041  1.00  0.00    -0.003 C 
ATOM     32  C   UNL     1      30.402   3.279   8.425  1.00  0.00     0.004 C 
ENDBRANCH  30  31
ENDBRANCH  29  30
ENDBRANCH  28  29
ENDBRANCH  27  28
ENDBRANCH  26  27
ENDBRANCH  25  26
ENDBRANCH  24  25
ENDBRANCH  23  24
ENDBRANCH  22  23
ENDBRANCH  21  22
ENDBRANCH  20  21
ENDBRANCH  19  20
ENDBRANCH  18  19
ENDBRANCH   1  18
TORSDOF 28
ENDMDL
MODEL 2
REMARK VINA RESULT:    -3.002      1.467      6.657
REMARK INTER + INTRA:         -13.174
REMARK INTER:                  -7.276
REMARK INTRA:                  -5.899
REMARK UNBOUND:                -5.258
REMARK SMILES CCCCCCCCCCCCCCCCCCCCCCCCCCCCCC(=O)[O-]
REMARK SMILES IDX 16 1 17 2 18 3 19 4 20 5 21 6 22 7 23 8 24 9 25 10 26 11
REMARK SMILES IDX 27 12 28 13 29 14 30 15 31 16 32 17 15 18 14 19 13 20 12 21
REMARK SMILES IDX 11 22 10 23 9 24 8 25 7 26 6 27 5 28 4 29 3 30 2 31 1 32
REMARK H PARENT
REMARK Flexibility Score: inf
ROOT
ATOM      1  C   UNL     1      25.128   1.813   6.490  1.00  0.00     0.000 C 
ENDROOT
BRANCH   1   2
ATOM      2  C   UNL     1      26.336   1.701   5.542  1.00  0.00     0.000 C 
BRANCH   2   3
ATOM      3  C   UNL     1      27.532   0.990   6.197  1.00  0.00     0.000 C 
BRANCH   3   4
ATOM      4  C   UNL     1      28.450   1.956   6.969  1.00  0.00     0.000 C 
BRANCH   4   5
ATOM      5  C   UNL     1      28.726   1.496   8.412  1.00  0.00     0.000 C 
BRANCH   5   6
ATOM      6  C   UNL     1      27.514   1.577   9.358  1.00  0.00     0.000 C 
BRANCH   6   7
ATOM      7  C   UNL     1      27.157   0.229   9.999  1.00  0.00     0.000 C 
BRANCH   7   8
ATOM      8  C   UNL     1      25.823  -0.306   9.457  1.00  0.00     0.000 C 
BRANCH   8   9
ATOM      9  C   UNL     1      26.011  -1.436   8.429  1.00  0.00     0.000 C 
BRANCH   9  10
ATOM     10  C   UNL     1      24.831  -1.627   7.453  1.00  0.00     0.000 C 
BRANCH  10  11
ATOM     11  C   UNL     1      24.672  -3.054   6.898  1.00  0.00     0.000 C 
BRANCH  11  12
ATOM     12  C   UNL     1      23.201  -3.494   6.803  1.00  0.00     0.000 C 
BRANCH  12  13
ATOM     13  C   UNL     1      22.227  -2.444   7.363  1.00  0.00     0.006 C 
BRANCH  13  14
ATOM     14  C   UNL     1      21.338  -3.003   8.482  1.00  0.00     0.053 C 
BRANCH  14  15
ATOM     15  C   UNL     1      22.180  -3.530   9.600  1.00  0.00     0.041 C 
ATOM     16  O   UNL     1      22.932  -2.753  10.249  1.00  0.00    -0.550 OA
ATOM     17  O   UNL     1      22.155  -4.887   9.908  1.00  0.00    -0.550 OA
ENDBRANCH  14  15
ENDBRANCH  13  14
ENDBRANCH  12  13
ENDBRANCH  11  12
ENDBRANCH  10  11
ENDBRANCH   9  10
ENDBRANCH   8   9
ENDBRANCH   7   8
ENDBRANCH   6   7
ENDBRANCH   5   6
ENDBRANCH   4   5
ENDBRANCH   3   4
ENDBRANCH   2   3
ENDBRANCH   1   2
BRANCH   1  18
ATOM     18  C   UNL     1      24.243   3.031   6.178  1.00  0.00     0.000 C 
BRANCH  18  19
ATOM     19  C   UNL     1      22.785   2.646   5.878  1.00  0.00     0.000 C 
BRANCH  19  20
ATOM     20  C   UNL     1      22.511   1.182   6.239  1.00  0.00     0.000 C 
BRANCH  20  21
ATOM     21  C   UNL     1      21.292   0.647   5.471  1.00  0.00     0.000 C 
BRANCH  21  22
ATOM     22  C   UNL     1      21.683  -0.272   4.295  1.00  0.00     0.000 C 
BRANCH  22  23
ATOM     23  C   UNL     1      23.178  -0.656   4.252  1.00  0.00     0.000 C 
BRANCH  23  24
ATOM     24  C   UNL     1      23.878  -0.265   2.938  1.00  0.00    -0.000 C 
BRANCH  24  25
ATOM     25  C   UNL     1      23.969   1.267   2.751  1.00  0.00    -0.000 C 
BRANCH  25  26
ATOM     26  C   UNL     1      23.792   1.694   1.283  1.00  0.00    -0.000 C 
BRANCH  26  27
ATOM     27  C   UNL     1      22.755   2.819   1.097  1.00  0.00    -0.000 C 
BRANCH  27  28
ATOM     28  C   UNL     1      22.554   3.640   2.381  1.00  0.00    -0.000 C 
BRANCH  28  29
ATOM     29  C   UNL     1      21.101   4.106   2.530  1.00  0.00    -0.000 C 
BRANCH  29  30
ATOM     30  C   UNL     1      20.195   2.930   2.933  1.00  0.00    -0.000 C 
BRANCH  30  31
ATOM     31  C   UNL     1      19.166   3.311   4.012  1.00  0.00    -0.003 C 
ATOM     32  C   UNL     1      19.681   4.390   4.967  1.00  0.00     0.004 C 
ENDBRANCH  30  31
ENDBRANCH  29  30
ENDBRANCH  28  29
ENDBRANCH  27  28
ENDBRANCH  26  27
ENDBRANCH  25  26
ENDBRANCH  24  25
ENDBRANCH  23  24
ENDBRANCH  22  23
ENDBRANCH  21  22
ENDBRANCH  20  21
ENDBRANCH  19  20
ENDBRANCH  18  19
ENDBRANCH   1  18
TORSDOF 28
ENDMDL
MODEL 3
REMARK VINA RESULT:    -2.969      1.373      6.975
REMARK INTER + INTRA:         -13.086
REMARK INTER:                  -7.939
REMARK INTRA:                  -5.147
REMARK UNBOUND:                -5.258
REMARK SMILES CCCCCCCCCCCCCCCCCCCCCCCCCCCCCC(=O)[O-]
REMARK SMILES IDX 16 1 17 2 18 3 19 4 20 5 21 6 22 7 23 8 24 9 25 10 26 11
REMARK SMILES IDX 27 12 28 13 29 14 30 15 31 16 32 17 15 18 14 19 13 20 12 21
REMARK SMILES IDX 11 22 10 23 9 24 8 25 7 26 6 27 5 28 4 29 3 30 2 31 1 32
REMARK H PARENT
REMARK Flexibility Score: inf
ROOT
ATOM      1  C   UNL     1      26.709   1.810   5.605  1.00  0.00     0.000 C 
ENDROOT
BRANCH   1   2
ATOM      2  C   UNL     1      28.186   1.462   5.867  1.00  0.00     0.000 C 
BRANCH   2   3
ATOM      3  C   UNL     1      28.388  -0.022   6.211  1.00  0.00     0.000 C 
BRANCH   3   4
ATOM      4  C   UNL     1      29.871  -0.400   6.374  1.00  0.00     0.000 C 
BRANCH   4   5
ATOM      5  C   UNL     1      30.292  -0.554   7.847  1.00  0.00     0.000 C 
BRANCH   5   6
ATOM      6  C   UNL     1      30.746   0.750   8.529  1.00  0.00     0.000 C 
BRANCH   6   7
ATOM      7  C   UNL     1      29.862   1.147   9.719  1.00  0.00     0.000 C 
BRANCH   7   8
ATOM      8  C   UNL     1      28.726   2.082   9.278  1.00  0.00     0.000 C 
BRANCH   8   9
ATOM      9  C   UNL     1      27.332   1.493   9.555  1.00  0.00     0.000 C 
BRANCH   9  10
ATOM     10  C   UNL     1      27.336   0.097  10.211  1.00  0.00     0.000 C 
BRANCH  10  11
ATOM     11  C   UNL     1      26.656  -1.010   9.387  1.00  0.00     0.000 C 
BRANCH  11  12
ATOM     12  C   UNL     1      25.691  -1.867  10.225  1.00  0.00     0.000 C 
BRANCH  12  13
ATOM     13  C   UNL     1      24.487  -2.375   9.414  1.00  0.00     0.006 C 
BRANCH  13  14
ATOM     14  C   UNL     1      24.051  -3.787   9.827  1.00  0.00     0.053 C 
BRANCH  14  15
ATOM     15  C   UNL     1      23.014  -3.717  10.902  1.00  0.00     0.041 C 
ATOM     16  O   UNL     1      22.089  -4.573  10.950  1.00  0.00    -0.550 OA
ATOM     17  O   UNL     1      23.052  -2.687  11.837  1.00  0.00    -0.550 OA
ENDBRANCH  14  15
ENDBRANCH  13  14
ENDBRANCH  12  13
ENDBRANCH  11  12
ENDBRANCH  10  11
ENDBRANCH   9  10
ENDBRANCH   8   9
ENDBRANCH   7   8
ENDBRANCH   6   7
ENDBRANCH   5   6
ENDBRANCH   4   5
ENDBRANCH   3   4
ENDBRANCH   2   3
ENDBRANCH   1   2
BRANCH   1  18
ATOM     18  C   UNL     1      25.741   0.801   6.244  1.00  0.00     0.000 C 
BRANCH  18  19
ATOM     19  C   UNL     1      24.408   1.439   6.664  1.00  0.00     0.000 C 
BRANCH  19  20
ATOM     20  C   UNL     1      24.276   2.865   6.116  1.00  0.00     0.000 C 
BRANCH  20  21
ATOM     21  C   UNL     1      22.841   3.140   5.641  1.00  0.00     0.000 C 
BRANCH  21  22
ATOM     22  C   UNL     1      21.852   2.029   6.053  1.00  0.00     0.000 C 
BRANCH  22  23
ATOM     23  C   UNL     1      21.004   1.464   4.894  1.00  0.00     0.000 C 
BRANCH  23  24
ATOM     24  C   UNL     1      21.812   1.205   3.609  1.00  0.00    -0.000 C 
BRANCH  24  25
ATOM     25  C   UNL     1      22.728  -0.036   3.727  1.00  0.00    -0.000 C 
BRANCH  25  26
ATOM     26  C   UNL     1      21.943  -1.323   4.037  1.00  0.00    -0.000 C 
BRANCH  26  27
ATOM     27  C   UNL     1      22.675  -2.263   5.014  1.00  0.00    -0.000 C 
BRANCH  27  28
ATOM     28  C   UNL     1      22.570  -1.781   6.470  1.00  0.00    -0.000 C 
BRANCH  28  29
ATOM     29  C   UNL     1      21.109  -1.661   6.920  1.00  0.00    -0.000 C 
BRANCH  29  30
ATOM     30  C   UNL     1      20.858  -2.514   8.175  1.00  0.00    -0.000 C 
BRANCH  30  31
ATOM     31  C   UNL     1      20.470  -3.966   7.843  1.00  0.00    -0.003 C 
ATOM     32  C   UNL     1      19.657  -4.081   6.552  1.00  0.00     0.004 C 
ENDBRANCH  30  31
ENDBRANCH  29  30
ENDBRANCH  28  29
ENDBRANCH  27  28
ENDBRANCH  26  27
ENDBRANCH  25  26
ENDBRANCH  24  25
ENDBRANCH  23  24
ENDBRANCH  22  23
ENDBRANCH  21  22
ENDBRANCH  20  21
ENDBRANCH  19  20
ENDBRANCH  18  19
ENDBRANCH   1  18
TORSDOF 28
ENDMDL
MODEL 4
REMARK VINA RESULT:    -2.950      1.275      5.553
REMARK INTER + INTRA:         -13.036
REMARK INTER:                  -7.183
REMARK INTRA:                  -5.853
REMARK UNBOUND:                -5.258
REMARK SMILES CCCCCCCCCCCCCCCCCCCCCCCCCCCCCC(=O)[O-]
REMARK SMILES IDX 16 1 17 2 18 3 19 4 20 5 21 6 22 7 23 8 24 9 25 10 26 11
REMARK SMILES IDX 27 12 28 13 29 14 30 15 31 16 32 17 15 18 14 19 13 20 12 21
REMARK SMILES IDX 11 22 10 23 9 24 8 25 7 26 6 27 5 28 4 29 3 30 2 31 1 32
REMARK H PARENT
REMARK Flexibility Score: inf
ROOT
ATOM      1  C   UNL     1      28.804   1.302   9.240  1.00  0.00     0.000 C 
ENDROOT
BRANCH   1   2
ATOM      2  C   UNL     1      27.301   1.630   9.293  1.00  0.00     0.000 C 
BRANCH   2   3
ATOM      3  C   UNL     1      26.446   0.409   9.669  1.00  0.00     0.000 C 
BRANCH   3   4
ATOM      4  C   UNL     1      27.147  -0.927   9.362  1.00  0.00     0.000 C 
BRANCH   4   5
ATOM      5  C   UNL     1      26.210  -1.960   8.710  1.00  0.00     0.000 C 
BRANCH   5   6
ATOM      6  C   UNL     1      25.173  -1.367   7.738  1.00  0.00     0.000 C 
BRANCH   6   7
ATOM      7  C   UNL     1      24.806  -2.320   6.592  1.00  0.00     0.000 C 
BRANCH   7   8
ATOM      8  C   UNL     1      23.908  -1.624   5.558  1.00  0.00     0.000 C 
BRANCH   8   9
ATOM      9  C   UNL     1      22.807  -0.769   6.209  1.00  0.00     0.000 C 
BRANCH   9  10
ATOM     10  C   UNL     1      21.403  -1.411   6.207  1.00  0.00     0.000 C 
BRANCH  10  11
ATOM     11  C   UNL     1      20.915  -1.908   7.579  1.00  0.00     0.000 C 
BRANCH  11  12
ATOM     12  C   UNL     1      20.895  -3.443   7.682  1.00  0.00     0.000 C 
BRANCH  12  13
ATOM     13  C   UNL     1      22.009  -3.994   8.589  1.00  0.00     0.006 C 
BRANCH  13  14
ATOM     14  C   UNL     1      22.432  -2.997   9.675  1.00  0.00     0.053 C 
BRANCH  14  15
ATOM     15  C   UNL     1      23.043  -3.719  10.833  1.00  0.00     0.041 C 
ATOM     16  O   UNL     1      24.221  -3.453  11.198  1.00  0.00    -0.550 OA
ATOM     17  O   UNL     1      22.321  -4.707  11.495  1.00  0.00    -0.550 OA
ENDBRANCH  14  15
ENDBRANCH  13  14
ENDBRANCH  12  13
ENDBRANCH  11  12
ENDBRANCH  10  11
ENDBRANCH   9  10
ENDBRANCH   8   9
ENDBRANCH   7   8
ENDBRANCH   6   7
ENDBRANCH   5   6
ENDBRANCH   4   5
ENDBRANCH   3   4
ENDBRANCH   2   3
ENDBRANCH   1   2
BRANCH   1  18
ATOM     18  C   UNL     1      29.462   1.750   7.925  1.00  0.00     0.000 C 
BRANCH  18  19
ATOM     19  C   UNL     1      30.704   0.918   7.568  1.00  0.00     0.000 C 
BRANCH  19  20
ATOM     20  C   UNL     1      30.359  -0.571   7.446  1.00  0.00     0.000 C 
BRANCH  20  21
ATOM     21  C   UNL     1      29.958  -0.925   6.006  1.00  0.00     0.000 C 
BRANCH  21  22
ATOM     22  C   UNL     1      28.515  -1.463   5.902  1.00  0.00     0.000 C 
BRANCH  22  23
ATOM     23  C   UNL     1      27.611  -0.685   4.922  1.00  0.00     0.000 C 
BRANCH  23  24
ATOM     24  C   UNL     1      28.198   0.668   4.483  1.00  0.00    -0.000 C 
BRANCH  24  25
ATOM     25  C   UNL     1      27.335   1.865   4.946  1.00  0.00    -0.000 C 
BRANCH  25  26
ATOM     26  C   UNL     1      25.984   1.425   5.538  1.00  0.00    -0.000 C 
BRANCH  26  27
ATOM     27  C   UNL     1      25.358   2.477   6.474  1.00  0.00    -0.000 C 
BRANCH  27  28
ATOM     28  C   UNL     1      23.919   2.833   6.065  1.00  0.00    -0.000 C 
BRANCH  28  29
ATOM     29  C   UNL     1      23.658   2.513   4.588  1.00  0.00    -0.000 C 
BRANCH  29  30
ATOM     30  C   UNL     1      22.147   2.442   4.309  1.00  0.00    -0.000 C 
BRANCH  30  31
ATOM     31  C   UNL     1      21.308   3.160   5.381  1.00  0.00    -0.003 C 
ATOM     32  C   UNL     1      20.278   4.120   4.781  1.00  0.00     0.004 C 
ENDBRANCH  30  31
ENDBRANCH  29  30
ENDBRANCH  28  29
ENDBRANCH  27  28
ENDBRANCH  26  27
ENDBRANCH  25  26
ENDBRANCH  24  25
ENDBRANCH  23  24
ENDBRANCH  22  23
ENDBRANCH  21  22
ENDBRANCH  20  21
ENDBRANCH  19  20
ENDBRANCH  18  19
ENDBRANCH   1  18
TORSDOF 28
ENDMDL
MODEL 5
REMARK VINA RESULT:    -2.943      1.985      2.817
REMARK INTER + INTRA:         -13.018
REMARK INTER:                  -7.779
REMARK INTRA:                  -5.239
REMARK UNBOUND:                -5.258
REMARK SMILES CCCCCCCCCCCCCCCCCCCCCCCCCCCCCC(=O)[O-]
REMARK SMILES IDX 16 1 17 2 18 3 19 4 20 5 21 6 22 7 23 8 24 9 25 10 26 11
REMARK SMILES IDX 27 12 28 13 29 14 30 15 31 16 32 17 15 18 14 19 13 20 12 21
REMARK SMILES IDX 11 22 10 23 9 24 8 25 7 26 6 27 5 28 4 29 3 30 2 31 1 32
REMARK H PARENT
REMARK Flexibility Score: inf
ROOT
ATOM      1  C   UNL     1      22.331   3.620   4.611  1.00  0.00     0.000 C 
ENDROOT
BRANCH   1   2
ATOM      2  C   UNL     1      20.808   3.840   4.555  1.00  0.00     0.000 C 
BRANCH   2   3
ATOM      3  C   UNL     1      20.020   2.524   4.652  1.00  0.00     0.000 C 
BRANCH   3   4
ATOM      4  C   UNL     1      19.518   2.027   3.284  1.00  0.00     0.000 C 
BRANCH   4   5
ATOM      5  C   UNL     1      20.107   0.661   2.889  1.00  0.00     0.000 C 
BRANCH   5   6
ATOM      6  C   UNL     1      21.560   0.707   2.380  1.00  0.00     0.000 C 
BRANCH   6   7
ATOM      7  C   UNL     1      22.562   0.071   3.354  1.00  0.00     0.000 C 
BRANCH   7   8
ATOM      8  C   UNL     1      21.838  -0.727   4.449  1.00  0.00     0.000 C 
BRANCH   8   9
ATOM      9  C   UNL     1      22.528  -0.612   5.820  1.00  0.00     0.000 C 
BRANCH   9  10
ATOM     10  C   UNL     1      23.867  -1.371   5.937  1.00  0.00     0.000 C 
BRANCH  10  11
ATOM     11  C   UNL     1      23.880  -2.507   6.975  1.00  0.00     0.000 C 
BRANCH  11  12
ATOM     12  C   UNL     1      23.354  -3.837   6.407  1.00  0.00     0.000 C 
BRANCH  12  13
ATOM     13  C   UNL     1      22.360  -4.537   7.350  1.00  0.00     0.006 C 
BRANCH  13  14
ATOM     14  C   UNL     1      21.770  -3.583   8.397  1.00  0.00     0.053 C 
BRANCH  14  15
ATOM     15  C   UNL     1      20.423  -3.102   7.960  1.00  0.00     0.041 C 
ATOM     16  O   UNL     1      19.575  -3.916   7.503  1.00  0.00    -0.550 OA
ATOM     17  O   UNL     1      20.113  -1.747   8.032  1.00  0.00    -0.550 OA
ENDBRANCH  14  15
ENDBRANCH  13  14
ENDBRANCH  12  13
ENDBRANCH  11  12
ENDBRANCH  10  11
ENDBRANCH   9  10
ENDBRANCH   8   9
ENDBRANCH   7   8
ENDBRANCH   6   7
ENDBRANCH   5   6
ENDBRANCH   4   5
ENDBRANCH   3   4
ENDBRANCH   2   3
ENDBRANCH   1   2
BRANCH   1  18
ATOM     18  C   UNL     1      22.769   2.834   5.857  1.00  0.00     0.000 C 
BRANCH  18  19
ATOM     19  C   UNL     1      24.273   2.966   6.146  1.00  0.00     0.000 C 
BRANCH  19  20
ATOM     20  C   UNL     1      25.099   2.077   5.210  1.00  0.00     0.000 C 
BRANCH  20  21
ATOM     21  C   UNL     1      26.503   1.830   5.785  1.00  0.00     0.000 C 
BRANCH  21  22
ATOM     22  C   UNL     1      26.517   1.786   7.328  1.00  0.00     0.000 C 
BRANCH  22  23
ATOM     23  C   UNL     1      26.343   0.374   7.929  1.00  0.00     0.000 C 
BRANCH  23  24
ATOM     24  C   UNL     1      27.303  -0.672   7.333  1.00  0.00    -0.000 C 
BRANCH  24  25
ATOM     25  C   UNL     1      28.495  -0.979   8.269  1.00  0.00    -0.000 C 
BRANCH  25  26
ATOM     26  C   UNL     1      29.856  -0.748   7.587  1.00  0.00    -0.000 C 
BRANCH  26  27
ATOM     27  C   UNL     1      29.733  -0.176   6.161  1.00  0.00    -0.000 C 
BRANCH  27  28
ATOM     28  C   UNL     1      30.101   1.315   6.102  1.00  0.00    -0.000 C 
BRANCH  28  29
ATOM     29  C   UNL     1      30.831   1.767   7.373  1.00  0.00    -0.000 C 
BRANCH  29  30
ATOM     30  C   UNL     1      29.941   2.711   8.200  1.00  0.00    -0.000 C 
BRANCH  30  31
ATOM     31  C   UNL     1      30.057   2.466   9.715  1.00  0.00    -0.003 C 
ATOM     32  C   UNL     1      28.719   2.093  10.359  1.00  0.00     0.004 C 
ENDBRANCH  30  31
ENDBRANCH  29  30
ENDBRANCH  28  29
ENDBRANCH  27  28
ENDBRANCH  26  27
ENDBRANCH  25  26
ENDBRANCH  24  25
ENDBRANCH  23  24
ENDBRANCH  22  23
ENDBRANCH  21  22
ENDBRANCH  20  21
ENDBRANCH  19  20
ENDBRANCH  18  19
ENDBRANCH   1  18
TORSDOF 28
ENDMDL
MODEL 6
REMARK VINA RESULT:    -2.933      1.302      6.787
REMARK INTER + INTRA:         -12.993
REMARK INTER:                  -8.044
REMARK INTRA:                  -4.949
REMARK UNBOUND:                -5.258
REMARK SMILES CCCCCCCCCCCCCCCCCCCCCCCCCCCCCC(=O)[O-]
REMARK SMILES IDX 16 1 17 2 18 3 19 4 20 5 21 6 22 7 23 8 24 9 25 10 26 11
REMARK SMILES IDX 27 12 28 13 29 14 30 15 31 16 32 17 15 18 14 19 13 20 12 21
REMARK SMILES IDX 11 22 10 23 9 24 8 25 7 26 6 27 5 28 4 29 3 30 2 31 1 32
REMARK H PARENT
REMARK Flexibility Score: inf
ROOT
ATOM      1  C   UNL     1      28.984   0.973   7.478  1.00  0.00     0.000 C 
ENDROOT
BRANCH   1   2
ATOM      2  C   UNL     1      29.033   2.087   8.540  1.00  0.00     0.000 C 
BRANCH   2   3
ATOM      3  C   UNL     1      28.015   1.866   9.670  1.00  0.00     0.000 C 
BRANCH   3   4
ATOM      4  C   UNL     1      27.595   0.392   9.815  1.00  0.00     0.000 C 
BRANCH   4   5
ATOM      5  C   UNL     1      26.090   0.171   9.579  1.00  0.00     0.000 C 
BRANCH   5   6
ATOM      6  C   UNL     1      25.708  -1.255   9.139  1.00  0.00     0.000 C 
BRANCH   6   7
ATOM      7  C   UNL     1      26.706  -1.867   8.146  1.00  0.00     0.000 C 
BRANCH   7   8
ATOM      8  C   UNL     1      25.987  -2.418   6.906  1.00  0.00     0.000 C 
BRANCH   8   9
ATOM      9  C   UNL     1      24.608  -1.771   6.684  1.00  0.00     0.000 C 
BRANCH   9  10
ATOM     10  C   UNL     1      23.497  -2.747   6.246  1.00  0.00     0.000 C 
BRANCH  10  11
ATOM     11  C   UNL     1      22.190  -2.647   7.052  1.00  0.00     0.000 C 
BRANCH  11  12
ATOM     12  C   UNL     1      22.402  -2.873   8.559  1.00  0.00     0.000 C 
BRANCH  12  13
ATOM     13  C   UNL     1      22.833  -4.312   8.891  1.00  0.00     0.006 C 
BRANCH  13  14
ATOM     14  C   UNL     1      23.926  -4.366   9.967  1.00  0.00     0.053 C 
BRANCH  14  15
ATOM     15  C   UNL     1      23.310  -4.415  11.329  1.00  0.00     0.041 C 
ATOM     16  O   UNL     1      23.975  -4.055  12.340  1.00  0.00    -0.550 OA
ATOM     17  O   UNL     1      22.010  -4.883  11.488  1.00  0.00    -0.550 OA
ENDBRANCH  14  15
ENDBRANCH  13  14
ENDBRANCH  12  13
ENDBRANCH  11  12
ENDBRANCH  10  11
ENDBRANCH   9  10
ENDBRANCH   8   9
ENDBRANCH   7   8
ENDBRANCH   6   7
ENDBRANCH   5   6
ENDBRANCH   4   5
ENDBRANCH   3   4
ENDBRANCH   2   3
ENDBRANCH   1   2
BRANCH   1  18
ATOM     18  C   UNL     1      28.415   1.460   6.135  1.00  0.00     0.000 C 
BRANCH  18  19
ATOM     19  C   UNL     1      26.929   1.113   5.957  1.00  0.00     0.000 C 
BRANCH  19  20
ATOM     20  C   UNL     1      26.029   2.265   6.420  1.00  0.00     0.000 C 
BRANCH  20  21
ATOM     21  C   UNL     1      24.587   1.782   6.635  1.00  0.00     0.000 C 
BRANCH  21  22
ATOM     22  C   UNL     1      23.541   2.709   5.980  1.00  0.00     0.000 C 
BRANCH  22  23
ATOM     23  C   UNL     1      22.122   2.110   5.889  1.00  0.00     0.000 C 
BRANCH  23  24
ATOM     24  C   UNL     1      22.089   0.691   5.294  1.00  0.00    -0.000 C 
BRANCH  24  25
ATOM     25  C   UNL     1      22.109   0.698   3.748  1.00  0.00    -0.000 C 
BRANCH  25  26
ATOM     26  C   UNL     1      20.817   0.127   3.137  1.00  0.00    -0.000 C 
BRANCH  26  27
ATOM     27  C   UNL     1      19.741   1.199   2.878  1.00  0.00    -0.000 C 
BRANCH  27  28
ATOM     28  C   UNL     1      20.315   2.436   2.168  1.00  0.00    -0.000 C 
BRANCH  28  29
ATOM     29  C   UNL     1      19.896   3.734   2.870  1.00  0.00    -0.000 C 
BRANCH  29  30
ATOM     30  C   UNL     1      19.112   3.423   4.157  1.00  0.00    -0.000 C 
BRANCH  30  31
ATOM     31  C   UNL     1      19.259   4.521   5.225  1.00  0.00    -0.003 C 
ATOM     32  C   UNL     1      19.105   5.931   4.650  1.00  0.00     0.004 C 
ENDBRANCH  30  31
ENDBRANCH  29  30
ENDBRANCH  28  29
ENDBRANCH  27  28
ENDBRANCH  26  27
ENDBRANCH  25  26
ENDBRANCH  24  25
ENDBRANCH  23  24
ENDBRANCH  22  23
ENDBRANCH  21  22
ENDBRANCH  20  21
ENDBRANCH  19  20
ENDBRANCH  18  19
ENDBRANCH   1  18
TORSDOF 28
ENDMDL
MODEL 7
REMARK VINA RESULT:    -2.933      3.865      7.094
REMARK INTER + INTRA:         -12.991
REMARK INTER:                  -7.254
REMARK INTRA:                  -5.737
REMARK UNBOUND:                -5.258
REMARK SMILES CCCCCCCCCCCCCCCCCCCCCCCCCCCCCC(=O)[O-]
REMARK SMILES IDX 16 1 17 2 18 3 19 4 20 5 21 6 22 7 23 8 24 9 25 10 26 11
REMARK SMILES IDX 27 12 28 13 29 14 30 15 31 16 32 17 15 18 14 19 13 20 12 21
REMARK SMILES IDX 11 22 10 23 9 24 8 25 7 26 6 27 5 28 4 29 3 30 2 31 1 32
REMARK H PARENT
REMARK Flexibility Score: inf
ROOT
ATOM      1  C   UNL     1      25.574   1.998   6.201  1.00  0.00     0.000 C 
ENDROOT
BRANCH   1   2
ATOM      2  C   UNL     1      24.468   3.068   6.248  1.00  0.00     0.000 C 
BRANCH   2   3
ATOM      3  C   UNL     1      23.233   2.673   5.423  1.00  0.00     0.000 C 
BRANCH   3   4
ATOM      4  C   UNL     1      22.124   2.034   6.278  1.00  0.00     0.000 C 
BRANCH   4   5
ATOM      5  C   UNL     1      21.197   1.111   5.466  1.00  0.00     0.000 C 
BRANCH   5   6
ATOM      6  C   UNL     1      21.877   0.389   4.288  1.00  0.00     0.000 C 
BRANCH   6   7
ATOM      7  C   UNL     1      21.311   0.800   2.921  1.00  0.00     0.000 C 
BRANCH   7   8
ATOM      8  C   UNL     1      22.395   1.442   2.043  1.00  0.00     0.000 C 
BRANCH   8   9
ATOM      9  C   UNL     1      22.190   2.956   1.861  1.00  0.00     0.000 C 
BRANCH   9  10
ATOM     10  C   UNL     1      20.836   3.493   2.368  1.00  0.00     0.000 C 
BRANCH  10  11
ATOM     11  C   UNL     1      20.932   4.661   3.366  1.00  0.00     0.000 C 
BRANCH  11  12
ATOM     12  C   UNL     1      19.934   4.532   4.530  1.00  0.00     0.000 C 
BRANCH  12  13
ATOM     13  C   UNL     1      18.825   3.503   4.253  1.00  0.00     0.006 C 
BRANCH  13  14
ATOM     14  C   UNL     1      17.434   4.146   4.166  1.00  0.00     0.053 C 
BRANCH  14  15
ATOM     15  C   UNL     1      16.515   3.285   3.359  1.00  0.00     0.041 C 
ATOM     16  O   UNL     1      15.376   3.712   3.024  1.00  0.00    -0.550 OA
ATOM     17  O   UNL     1      16.906   2.000   2.997  1.00  0.00    -0.550 OA
ENDBRANCH  14  15
ENDBRANCH  13  14
ENDBRANCH  12  13
ENDBRANCH  11  12
ENDBRANCH  10  11
ENDBRANCH   9  10
ENDBRANCH   8   9
ENDBRANCH   7   8
ENDBRANCH   6   7
ENDBRANCH   5   6
ENDBRANCH   4   5
ENDBRANCH   3   4
ENDBRANCH   2   3
ENDBRANCH   1   2
BRANCH   1  18
ATOM     18  C   UNL     1      25.516   1.143   4.925  1.00  0.00     0.000 C 
BRANCH  18  19
ATOM     19  C   UNL     1      25.254  -0.343   5.215  1.00  0.00     0.000 C 
BRANCH  19  20
ATOM     20  C   UNL     1      24.729  -0.547   6.641  1.00  0.00     0.000 C 
BRANCH  20  21
ATOM     21  C   UNL     1      23.740  -1.722   6.698  1.00  0.00     0.000 C 
BRANCH  21  22
ATOM     22  C   UNL     1      24.065  -2.827   5.671  1.00  0.00     0.000 C 
BRANCH  22  23
ATOM     23  C   UNL     1      22.828  -3.554   5.100  1.00  0.00     0.000 C 
BRANCH  23  24
ATOM     24  C   UNL     1      21.497  -2.853   5.424  1.00  0.00    -0.000 C 
BRANCH  24  25
ATOM     25  C   UNL     1      20.374  -3.854   5.784  1.00  0.00    -0.000 C 
BRANCH  25  26
ATOM     26  C   UNL     1      19.980  -3.791   7.270  1.00  0.00    -0.000 C 
BRANCH  26  27
ATOM     27  C   UNL     1      20.473  -2.513   7.978  1.00  0.00    -0.000 C 
BRANCH  27  28
ATOM     28  C   UNL     1      21.323  -2.831   9.219  1.00  0.00    -0.000 C 
BRANCH  28  29
ATOM     29  C   UNL     1      21.989  -4.207   9.108  1.00  0.00    -0.000 C 
BRANCH  29  30
ATOM     30  C   UNL     1      23.506  -4.094   9.343  1.00  0.00    -0.000 C 
BRANCH  30  31
ATOM     31  C   UNL     1      23.886  -2.881  10.211  1.00  0.00    -0.003 C 
ATOM     32  C   UNL     1      25.350  -2.466  10.039  1.00  0.00     0.004 C 
ENDBRANCH  30  31
ENDBRANCH  29  30
ENDBRANCH  28  29
ENDBRANCH  27  28
ENDBRANCH  26  27
ENDBRANCH  25  26
ENDBRANCH  24  25
ENDBRANCH  23  24
ENDBRANCH  22  23
ENDBRANCH  21  22
ENDBRANCH  20  21
ENDBRANCH  19  20
ENDBRANCH  18  19
ENDBRANCH   1  18
TORSDOF 28
ENDMDL
MODEL 8
REMARK VINA RESULT:    -2.901      2.550      6.998
REMARK INTER + INTRA:         -12.909
REMARK INTER:                  -7.925
REMARK INTRA:                  -4.984
REMARK UNBOUND:                -5.258
REMARK SMILES CCCCCCCCCCCCCCCCCCCCCCCCCCCCCC(=O)[O-]
REMARK SMILES IDX 16 1 17 2 18 3 19 4 20 5 21 6 22 7 23 8 24 9 25 10 26 11
REMARK SMILES IDX 27 12 28 13 29 14 30 15 31 16 32 17 15 18 14 19 13 20 12 21
REMARK SMILES IDX 11 22 10 23 9 24 8 25 7 26 6 27 5 28 4 29 3 30 2 31 1 32
REMARK H PARENT
REMARK Flexibility Score: inf
ROOT
ATOM      1  C   UNL     1      23.524  -2.178   5.850  1.00  0.00     0.000 C 
ENDROOT
BRANCH   1   2
ATOM      2  C   UNL     1      22.045  -2.607   5.883  1.00  0.00     0.000 C 
BRANCH   2   3
ATOM      3  C   UNL     1      21.253  -1.897   6.992  1.00  0.00     0.000 C 
BRANCH   3   4
ATOM      4  C   UNL     1      20.727  -2.868   8.065  1.00  0.00     0.000 C 
BRANCH   4   5
ATOM      5  C   UNL     1      21.417  -4.244   8.018  1.00  0.00     0.000 C 
BRANCH   5   6
ATOM      6  C   UNL     1      22.605  -4.403   8.985  1.00  0.00     0.000 C 
BRANCH   6   7
ATOM      7  C   UNL     1      22.527  -3.463  10.197  1.00  0.00     0.000 C 
BRANCH   7   8
ATOM      8  C   UNL     1      23.813  -2.635  10.339  1.00  0.00     0.000 C 
BRANCH   8   9
ATOM      9  C   UNL     1      24.928  -3.103   9.388  1.00  0.00     0.000 C 
BRANCH   9  10
ATOM     10  C   UNL     1      26.172  -2.191   9.348  1.00  0.00     0.000 C 
BRANCH  10  11
ATOM     11  C   UNL     1      25.950  -0.767   9.890  1.00  0.00     0.000 C 
BRANCH  11  12
ATOM     12  C   UNL     1      26.965   0.246   9.331  1.00  0.00     0.000 C 
BRANCH  12  13
ATOM     13  C   UNL     1      28.368   0.081   9.940  1.00  0.00     0.006 C 
BRANCH  13  14
ATOM     14  C   UNL     1      28.443   0.574  11.391  1.00  0.00     0.053 C 
BRANCH  14  15
ATOM     15  C   UNL     1      29.130   1.901  11.453  1.00  0.00     0.041 C 
ATOM     16  O   UNL     1      29.566   2.339  12.553  1.00  0.00    -0.550 OA
ATOM     17  O   UNL     1      29.264   2.668  10.300  1.00  0.00    -0.550 OA
ENDBRANCH  14  15
ENDBRANCH  13  14
ENDBRANCH  12  13
ENDBRANCH  11  12
ENDBRANCH  10  11
ENDBRANCH   9  10
ENDBRANCH   8   9
ENDBRANCH   7   8
ENDBRANCH   6   7
ENDBRANCH   5   6
ENDBRANCH   4   5
ENDBRANCH   3   4
ENDBRANCH   2   3
ENDBRANCH   1   2
BRANCH   1  18
ATOM     18  C   UNL     1      23.804  -0.949   6.730  1.00  0.00     0.000 C 
BRANCH  18  19
ATOM     19  C   UNL     1      24.989  -0.112   6.224  1.00  0.00     0.000 C 
BRANCH  19  20
ATOM     20  C   UNL     1      24.851   1.357   6.641  1.00  0.00     0.000 C 
BRANCH  20  21
ATOM     21  C   UNL     1      25.499   2.285   5.602  1.00  0.00     0.000 C 
BRANCH  21  22
ATOM     22  C   UNL     1      25.570   1.651   4.196  1.00  0.00     0.000 C 
BRANCH  22  23
ATOM     23  C   UNL     1      24.580   2.251   3.174  1.00  0.00     0.000 C 
BRANCH  23  24
ATOM     24  C   UNL     1      23.744   1.194   2.432  1.00  0.00    -0.000 C 
BRANCH  24  25
ATOM     25  C   UNL     1      22.847   0.373   3.388  1.00  0.00    -0.000 C 
BRANCH  25  26
ATOM     26  C   UNL     1      21.482   1.038   3.635  1.00  0.00    -0.000 C 
BRANCH  26  27
ATOM     27  C   UNL     1      21.158   1.227   5.129  1.00  0.00    -0.000 C 
BRANCH  27  28
ATOM     28  C   UNL     1      21.694   2.562   5.673  1.00  0.00    -0.000 C 
BRANCH  28  29
ATOM     29  C   UNL     1      21.490   3.702   4.669  1.00  0.00    -0.000 C 
BRANCH  29  30
ATOM     30  C   UNL     1      19.996   3.874   4.342  1.00  0.00    -0.000 C 
BRANCH  30  31
ATOM     31  C   UNL     1      19.290   4.867   5.281  1.00  0.00    -0.003 C 
ATOM     32  C   UNL     1      17.774   4.662   5.328  1.00  0.00     0.004 C 
ENDBRANCH  30  31
ENDBRANCH  29  30
ENDBRANCH  28  29
ENDBRANCH  27  28
ENDBRANCH  26  27
ENDBRANCH  25  26
ENDBRANCH  24  25
ENDBRANCH  23  24
ENDBRANCH  22  23
ENDBRANCH  21  22
ENDBRANCH  20  21
ENDBRANCH  19  20
ENDBRANCH  18  19
ENDBRANCH   1  18
TORSDOF 28
ENDMDL
MODEL 9
REMARK VINA RESULT:    -2.893      1.786      3.750
REMARK INTER + INTRA:         -12.887
REMARK INTER:                  -6.562
REMARK INTRA:                  -6.325
REMARK UNBOUND:                -5.258
REMARK SMILES CCCCCCCCCCCCCCCCCCCCCCCCCCCCCC(=O)[O-]
REMARK SMILES IDX 16 1 17 2 18 3 19 4 20 5 21 6 22 7 23 8 24 9 25 10 26 11
REMARK SMILES IDX 27 12 28 13 29 14 30 15 31 16 32 17 15 18 14 19 13 20 12 21
REMARK SMILES IDX 11 22 10 23 9 24 8 25 7 26 6 27 5 28 4 29 3 30 2 31 1 32
REMARK H PARENT
REMARK Flexibility Score: inf
ROOT
ATOM      1  C   UNL     1      23.123   3.164   5.946  1.00  0.00     0.000 C 
ENDROOT
BRANCH   1   2
ATOM      2  C   UNL     1      22.129   1.991   6.028  1.00  0.00     0.000 C 
BRANCH   2   3
ATOM      3  C   UNL     1      20.856   2.240   5.205  1.00  0.00     0.000 C 
BRANCH   3   4
ATOM      4  C   UNL     1      20.742   3.693   4.708  1.00  0.00     0.000 C 
BRANCH   4   5
ATOM      5  C   UNL     1      20.900   3.819   3.182  1.00  0.00     0.000 C 
BRANCH   5   6
ATOM      6  C   UNL     1      20.755   2.496   2.407  1.00  0.00     0.000 C 
BRANCH   6   7
ATOM      7  C   UNL     1      21.965   2.184   1.515  1.00  0.00     0.000 C 
BRANCH   7   8
ATOM      8  C   UNL     1      23.272   2.652   2.172  1.00  0.00     0.000 C 
BRANCH   8   9
ATOM      9  C   UNL     1      24.285   1.509   2.356  1.00  0.00     0.000 C 
BRANCH   9  10
ATOM     10  C   UNL     1      23.674   0.092   2.341  1.00  0.00     0.000 C 
BRANCH  10  11
ATOM     11  C   UNL     1      23.465  -0.540   3.729  1.00  0.00     0.000 C 
BRANCH  11  12
ATOM     12  C   UNL     1      22.024  -1.034   3.946  1.00  0.00     0.000 C 
BRANCH  12  13
ATOM     13  C   UNL     1      21.807  -1.647   5.339  1.00  0.00     0.006 C 
BRANCH  13  14
ATOM     14  C   UNL     1      23.087  -1.652   6.186  1.00  0.00     0.053 C 
BRANCH  14  15
ATOM     15  C   UNL     1      23.132  -2.873   7.050  1.00  0.00     0.041 C 
ATOM     16  O   UNL     1      23.648  -3.939   6.616  1.00  0.00    -0.550 OA
ATOM     17  O   UNL     1      22.580  -2.840   8.327  1.00  0.00    -0.550 OA
ENDBRANCH  14  15
ENDBRANCH  13  14
ENDBRANCH  12  13
ENDBRANCH  11  12
ENDBRANCH  10  11
ENDBRANCH   9  10
ENDBRANCH   8   9
ENDBRANCH   7   8
ENDBRANCH   6   7
ENDBRANCH   5   6
ENDBRANCH   4   5
ENDBRANCH   3   4
ENDBRANCH   2   3
ENDBRANCH   1   2
BRANCH   1  18
ATOM     18  C   UNL     1      24.569   2.699   5.710  1.00  0.00     0.000 C 
BRANCH  18  19
ATOM     19  C   UNL     1      24.974   1.529   6.620  1.00  0.00     0.000 C 
BRANCH  19  20
ATOM     20  C   UNL     1      26.033   0.644   5.952  1.00  0.00     0.000 C 
BRANCH  20  21
ATOM     21  C   UNL     1      26.924   1.471   5.012  1.00  0.00     0.000 C 
BRANCH  21  22
ATOM     22  C   UNL     1      28.350   1.674   5.567  1.00  0.00     0.000 C 
BRANCH  22  23
ATOM     23  C   UNL     1      28.912   0.465   6.346  1.00  0.00     0.000 C 
BRANCH  23  24
ATOM     24  C   UNL     1      29.475   0.831   7.730  1.00  0.00    -0.000 C 
BRANCH  24  25
ATOM     25  C   UNL     1      28.797   2.084   8.331  1.00  0.00    -0.000 C 
BRANCH  25  26
ATOM     26  C   UNL     1      27.634   1.731   9.275  1.00  0.00    -0.000 C 
BRANCH  26  27
ATOM     27  C   UNL     1      28.075   0.920  10.509  1.00  0.00    -0.000 C 
BRANCH  27  28
ATOM     28  C   UNL     1      27.328  -0.419  10.619  1.00  0.00    -0.000 C 
BRANCH  28  29
ATOM     29  C   UNL     1      26.299  -0.584   9.494  1.00  0.00    -0.000 C 
BRANCH  29  30
ATOM     30  C   UNL     1      26.174  -2.063   9.089  1.00  0.00    -0.000 C 
BRANCH  30  31
ATOM     31  C   UNL     1      27.013  -2.415   7.848  1.00  0.00    -0.003 C 
ATOM     32  C   UNL     1      27.096  -3.923   7.597  1.00  0.00     0.004 C 
ENDBRANCH  30  31
ENDBRANCH  29  30
ENDBRANCH  28  29
ENDBRANCH  27  28
ENDBRANCH  26  27
ENDBRANCH  25  26
ENDBRANCH  24  25
ENDBRANCH  23  24
ENDBRANCH  22  23
ENDBRANCH  21  22
ENDBRANCH  20  21
ENDBRANCH  19  20
ENDBRANCH  18  19
ENDBRANCH   1  18
TORSDOF 28
ENDMDL
