MODEL 1
REMARK VINA RESULT:    -3.583      0.000      0.000
REMARK INTER + INTRA:          -9.644
REMARK INTER:                  -7.771
REMARK INTRA:                  -1.873
REMARK UNBOUND:                -1.873
REMARK SMILES CCCCCCCCCCCCCCCCCCCCCC(=O)[O-]
REMARK SMILES IDX 12 1 11 2 10 3 9 4 8 5 7 6 6 7 5 8 4 9 3 10 2 11 1 12 13 13
REMARK SMILES IDX 14 14 15 15 16 16 17 17 18 18 19 19 20 20 21 21 22 22 23 23
REMARK SMILES IDX 24 24
REMARK H PARENT
REMARK Flexibility Score: inf
ROOT
ATOM      1  C   UNL     1      16.643   6.518  18.209  1.00  0.00     0.000 C 
ENDROOT
BRANCH   1   2
ATOM      2  C   UNL     1      17.894   7.384  18.446  1.00  0.00     0.000 C 
BRANCH   2   3
ATOM      3  C   UNL     1      19.031   7.073  17.459  1.00  0.00     0.000 C 
BRANCH   3   4
ATOM      4  C   UNL     1      19.159   5.570  17.161  1.00  0.00    -0.000 C 
BRANCH   4   5
ATOM      5  C   UNL     1      19.846   5.296  15.812  1.00  0.00    -0.000 C 
BRANCH   5   6
ATOM      6  C   UNL     1      18.997   5.744  14.608  1.00  0.00    -0.000 C 
BRANCH   6   7
ATOM      7  C   UNL     1      19.795   6.101  13.336  1.00  0.00    -0.000 C 
BRANCH   7   8
ATOM      8  C   UNL     1      19.256   7.306  12.546  1.00  0.00    -0.000 C 
BRANCH   8   9
ATOM      9  C   UNL     1      19.585   7.227  11.045  1.00  0.00    -0.000 C 
BRANCH   9  10
ATOM     10  C   UNL     1      18.416   6.674  10.214  1.00  0.00    -0.000 C 
BRANCH  10  11
ATOM     11  C   UNL     1      18.585   5.184   9.882  1.00  0.00    -0.003 C 
ATOM     12  C   UNL     1      17.284   4.420  10.111  1.00  0.00     0.004 C 
ENDBRANCH  10  11
ENDBRANCH   9  10
ENDBRANCH   8   9
ENDBRANCH   7   8
ENDBRANCH   6   7
ENDBRANCH   5   6
ENDBRANCH   4   5
ENDBRANCH   3   4
ENDBRANCH   2   3
ENDBRANCH   1   2
BRANCH   1  13
ATOM     13  C   UNL     1      16.459   5.397  19.252  1.00  0.00     0.000 C 
BRANCH  13  14
ATOM     14  C   UNL     1      15.876   4.116  18.629  1.00  0.00     0.000 C 
BRANCH  14  15
ATOM     15  C   UNL     1      15.637   4.248  17.117  1.00  0.00     0.000 C 
BRANCH  15  16
ATOM     16  C   UNL     1      14.170   4.019  16.728  1.00  0.00     0.000 C 
BRANCH  16  17
ATOM     17  C   UNL     1      13.257   4.072  17.964  1.00  0.00     0.000 C 
BRANCH  17  18
ATOM     18  C   UNL     1      12.470   5.397  18.050  1.00  0.00     0.000 C 
BRANCH  18  19
ATOM     19  C   UNL     1      12.942   6.322  19.185  1.00  0.00     0.000 C 
BRANCH  19  20
ATOM     20  C   UNL     1      11.821   7.225  19.724  1.00  0.00     0.006 C 
BRANCH  20  21
ATOM     21  C   UNL     1      10.825   6.452  20.598  1.00  0.00     0.053 C 
BRANCH  21  22
ATOM     22  C   UNL     1       9.501   6.288  19.918  1.00  0.00     0.041 C 
ATOM     23  O   UNL     1       8.724   7.271  19.794  1.00  0.00    -0.550 OA
ATOM     24  O   UNL     1       9.114   5.042  19.442  1.00  0.00    -0.550 OA
ENDBRANCH  21  22
ENDBRANCH  20  21
ENDBRANCH  19  20
ENDBRANCH  18  19
ENDBRANCH  17  18
ENDBRANCH  16  17
ENDBRANCH  15  16
ENDBRANCH  14  15
ENDBRANCH  13  14
ENDBRANCH   1  13
TORSDOF 20
ENDMDL
MODEL 2
REMARK VINA RESULT:    -3.464      4.407      8.554
REMARK INTER + INTRA:          -9.388
REMARK INTER:                  -6.498
REMARK INTRA:                  -2.890
REMARK UNBOUND:                -1.873
REMARK SMILES CCCCCCCCCCCCCCCCCCCCCC(=O)[O-]
REMARK SMILES IDX 12 1 11 2 10 3 9 4 8 5 7 6 6 7 5 8 4 9 3 10 2 11 1 12 13 13
REMARK SMILES IDX 14 14 15 15 16 16 17 17 18 18 19 19 20 20 21 21 22 22 23 23
REMARK SMILES IDX 24 24
REMARK H PARENT
REMARK Flexibility Score: inf
ROOT
ATOM      1  C   UNL     1      12.374   5.380  17.727  1.00  0.00     0.000 C 
ENDROOT
BRANCH   1   2
ATOM      2  C   UNL     1      13.105   6.201  18.804  1.00  0.00     0.000 C 
BRANCH   2   3
ATOM      3  C   UNL     1      12.142   6.928  19.757  1.00  0.00     0.000 C 
BRANCH   3   4
ATOM      4  C   UNL     1      11.887   6.140  21.052  1.00  0.00    -0.000 C 
BRANCH   4   5
ATOM      5  C   UNL     1      12.861   4.963  21.225  1.00  0.00    -0.000 C 
BRANCH   5   6
ATOM      6  C   UNL     1      13.583   4.980  22.585  1.00  0.00    -0.000 C 
BRANCH   6   7
ATOM      7  C   UNL     1      15.019   4.416  22.575  1.00  0.00    -0.000 C 
BRANCH   7   8
ATOM      8  C   UNL     1      15.685   4.355  21.188  1.00  0.00    -0.000 C 
BRANCH   8   9
ATOM      9  C   UNL     1      16.816   5.385  21.026  1.00  0.00    -0.000 C 
BRANCH   9  10
ATOM     10  C   UNL     1      16.658   6.238  19.757  1.00  0.00    -0.000 C 
BRANCH  10  11
ATOM     11  C   UNL     1      17.763   7.297  19.619  1.00  0.00    -0.003 C 
ATOM     12  C   UNL     1      19.106   6.754  20.099  1.00  0.00     0.004 C 
ENDBRANCH  10  11
ENDBRANCH   9  10
ENDBRANCH   8   9
ENDBRANCH   7   8
ENDBRANCH   6   7
ENDBRANCH   5   6
ENDBRANCH   4   5
ENDBRANCH   3   4
ENDBRANCH   2   3
ENDBRANCH   1   2
BRANCH   1  13
ATOM     13  C   UNL     1      13.019   4.006  17.451  1.00  0.00     0.000 C 
BRANCH  13  14
ATOM     14  C   UNL     1      14.544   4.030  17.657  1.00  0.00     0.000 C 
BRANCH  14  15
ATOM     15  C   UNL     1      15.308   4.433  16.387  1.00  0.00     0.000 C 
BRANCH  15  16
ATOM     16  C   UNL     1      16.806   4.104  16.469  1.00  0.00     0.000 C 
BRANCH  16  17
ATOM     17  C   UNL     1      17.656   5.381  16.373  1.00  0.00     0.000 C 
BRANCH  17  18
ATOM     18  C   UNL     1      19.155   5.101  16.611  1.00  0.00     0.000 C 
BRANCH  18  19
ATOM     19  C   UNL     1      20.041   6.355  16.512  1.00  0.00     0.000 C 
BRANCH  19  20
ATOM     20  C   UNL     1      19.227   7.658  16.464  1.00  0.00     0.006 C 
BRANCH  20  21
ATOM     21  C   UNL     1      20.070   8.850  15.992  1.00  0.00     0.053 C 
BRANCH  21  22
ATOM     22  C   UNL     1      19.714   9.262  14.596  1.00  0.00     0.041 C 
ATOM     23  O   UNL     1      19.301   8.409  13.768  1.00  0.00    -0.550 OA
ATOM     24  O   UNL     1      19.863  10.586  14.203  1.00  0.00    -0.550 OA
ENDBRANCH  21  22
ENDBRANCH  20  21
ENDBRANCH  19  20
ENDBRANCH  18  19
ENDBRANCH  17  18
ENDBRANCH  16  17
ENDBRANCH  15  16
ENDBRANCH  14  15
ENDBRANCH  13  14
ENDBRANCH   1  13
TORSDOF 20
ENDMDL
MODEL 3
REMARK VINA RESULT:    -3.358      4.063      8.426
REMARK INTER + INTRA:          -9.156
REMARK INTER:                  -6.194
REMARK INTRA:                  -2.962
REMARK UNBOUND:                -1.873
REMARK SMILES CCCCCCCCCCCCCCCCCCCCCC(=O)[O-]
REMARK SMILES IDX 12 1 11 2 10 3 9 4 8 5 7 6 6 7 5 8 4 9 3 10 2 11 1 12 13 13
REMARK SMILES IDX 14 14 15 15 16 16 17 17 18 18 19 19 20 20 21 21 22 22 23 23
REMARK SMILES IDX 24 24
REMARK H PARENT
REMARK Flexibility Score: inf
ROOT
ATOM      1  C   UNL     1      13.270   6.621  18.653  1.00  0.00     0.000 C 
ENDROOT
BRANCH   1   2
ATOM      2  C   UNL     1      12.240   7.076  19.703  1.00  0.00     0.000 C 
BRANCH   2   3
ATOM      3  C   UNL     1      11.743   5.923  20.591  1.00  0.00     0.000 C 
BRANCH   3   4
ATOM      4  C   UNL     1      12.641   5.695  21.818  1.00  0.00    -0.000 C 
BRANCH   4   5
ATOM      5  C   UNL     1      13.562   4.475  21.653  1.00  0.00    -0.000 C 
BRANCH   5   6
ATOM      6  C   UNL     1      14.690   4.432  22.701  1.00  0.00    -0.000 C 
BRANCH   6   7
ATOM      7  C   UNL     1      16.073   4.894  22.197  1.00  0.00    -0.000 C 
BRANCH   7   8
ATOM      8  C   UNL     1      16.210   4.996  20.668  1.00  0.00    -0.000 C 
BRANCH   8   9
ATOM      9  C   UNL     1      17.354   5.928  20.234  1.00  0.00    -0.000 C 
BRANCH   9  10
ATOM     10  C   UNL     1      16.873   7.068  19.323  1.00  0.00    -0.000 C 
BRANCH  10  11
ATOM     11  C   UNL     1      17.981   7.584  18.393  1.00  0.00    -0.003 C 
ATOM     12  C   UNL     1      19.282   6.817  18.609  1.00  0.00     0.004 C 
ENDBRANCH  10  11
ENDBRANCH   9  10
ENDBRANCH   8   9
ENDBRANCH   7   8
ENDBRANCH   6   7
ENDBRANCH   5   6
ENDBRANCH   4   5
ENDBRANCH   3   4
ENDBRANCH   2   3
ENDBRANCH   1   2
BRANCH   1  13
ATOM     13  C   UNL     1      12.908   5.286  17.969  1.00  0.00     0.000 C 
BRANCH  13  14
ATOM     14  C   UNL     1      14.078   4.286  17.996  1.00  0.00     0.000 C 
BRANCH  14  15
ATOM     15  C   UNL     1      14.743   4.113  16.622  1.00  0.00     0.000 C 
BRANCH  15  16
ATOM     16  C   UNL     1      15.989   4.992  16.454  1.00  0.00     0.000 C 
BRANCH  16  17
ATOM     17  C   UNL     1      17.268   4.205  16.784  1.00  0.00     0.000 C 
BRANCH  17  18
ATOM     18  C   UNL     1      18.316   4.298  15.655  1.00  0.00     0.000 C 
BRANCH  18  19
ATOM     19  C   UNL     1      18.536   5.729  15.134  1.00  0.00     0.000 C 
BRANCH  19  20
ATOM     20  C   UNL     1      19.470   5.783  13.915  1.00  0.00     0.006 C 
BRANCH  20  21
ATOM     21  C   UNL     1      19.301   7.079  13.112  1.00  0.00     0.053 C 
BRANCH  21  22
ATOM     22  C   UNL     1      18.902   6.805  11.694  1.00  0.00     0.041 C 
ATOM     23  O   UNL     1      18.030   5.935  11.436  1.00  0.00    -0.550 OA
ATOM     24  O   UNL     1      19.515   7.494  10.654  1.00  0.00    -0.550 OA
ENDBRANCH  21  22
ENDBRANCH  20  21
ENDBRANCH  19  20
ENDBRANCH  18  19
ENDBRANCH  17  18
ENDBRANCH  16  17
ENDBRANCH  15  16
ENDBRANCH  14  15
ENDBRANCH  13  14
ENDBRANCH   1  13
TORSDOF 20
ENDMDL
MODEL 4
REMARK VINA RESULT:    -3.325      1.281      2.020
REMARK INTER + INTRA:          -9.085
REMARK INTER:                  -6.859
REMARK INTRA:                  -2.226
REMARK UNBOUND:                -1.873
REMARK SMILES CCCCCCCCCCCCCCCCCCCCCC(=O)[O-]
REMARK SMILES IDX 12 1 11 2 10 3 9 4 8 5 7 6 6 7 5 8 4 9 3 10 2 11 1 12 13 13
REMARK SMILES IDX 14 14 15 15 16 16 17 17 18 18 19 19 20 20 21 21 22 22 23 23
REMARK SMILES IDX 24 24
REMARK H PARENT
REMARK Flexibility Score: inf
ROOT
ATOM      1  C   UNL     1      17.531   7.638  18.579  1.00  0.00     0.000 C 
ENDROOT
BRANCH   1   2
ATOM      2  C   UNL     1      18.819   7.652  17.737  1.00  0.00     0.000 C 
BRANCH   2   3
ATOM      3  C   UNL     1      18.662   6.921  16.393  1.00  0.00     0.000 C 
BRANCH   3   4
ATOM      4  C   UNL     1      17.475   5.944  16.388  1.00  0.00    -0.000 C 
BRANCH   4   5
ATOM      5  C   UNL     1      17.794   4.638  15.640  1.00  0.00    -0.000 C 
BRANCH   5   6
ATOM      6  C   UNL     1      19.278   4.522  15.246  1.00  0.00    -0.000 C 
BRANCH   6   7
ATOM      7  C   UNL     1      19.549   4.410  13.732  1.00  0.00    -0.000 C 
BRANCH   7   8
ATOM      8  C   UNL     1      18.411   4.914  12.826  1.00  0.00    -0.000 C 
BRANCH   8   9
ATOM      9  C   UNL     1      18.724   6.275  12.181  1.00  0.00    -0.000 C 
BRANCH   9  10
ATOM     10  C   UNL     1      18.901   6.178  10.658  1.00  0.00    -0.000 C 
BRANCH  10  11
ATOM     11  C   UNL     1      18.677   4.754  10.129  1.00  0.00    -0.003 C 
ATOM     12  C   UNL     1      17.468   4.697   9.199  1.00  0.00     0.004 C 
ENDBRANCH  10  11
ENDBRANCH   9  10
ENDBRANCH   8   9
ENDBRANCH   7   8
ENDBRANCH   6   7
ENDBRANCH   5   6
ENDBRANCH   4   5
ENDBRANCH   3   4
ENDBRANCH   2   3
ENDBRANCH   1   2
BRANCH   1  13
ATOM     13  C   UNL     1      17.702   6.980  19.964  1.00  0.00     0.000 C 
BRANCH  13  14
ATOM     14  C   UNL     1      18.564   5.706  19.897  1.00  0.00     0.000 C 
BRANCH  14  15
ATOM     15  C   UNL     1      17.722   4.421  19.876  1.00  0.00     0.000 C 
BRANCH  15  16
ATOM     16  C   UNL     1      16.286   4.648  20.369  1.00  0.00     0.000 C 
BRANCH  16  17
ATOM     17  C   UNL     1      15.263   4.206  19.310  1.00  0.00     0.000 C 
BRANCH  17  18
ATOM     18  C   UNL     1      14.275   5.335  18.949  1.00  0.00     0.000 C 
BRANCH  18  19
ATOM     19  C   UNL     1      13.189   5.568  20.015  1.00  0.00     0.000 C 
BRANCH  19  20
ATOM     20  C   UNL     1      12.031   6.441  19.506  1.00  0.00     0.006 C 
BRANCH  20  21
ATOM     21  C   UNL     1      10.867   6.499  20.504  1.00  0.00     0.053 C 
BRANCH  21  22
ATOM     22  C   UNL     1       9.550   6.249  19.836  1.00  0.00     0.041 C 
ATOM     23  O   UNL     1       9.316   5.139  19.291  1.00  0.00    -0.550 OA
ATOM     24  O   UNL     1       8.591   7.253  19.793  1.00  0.00    -0.550 OA
ENDBRANCH  21  22
ENDBRANCH  20  21
ENDBRANCH  19  20
ENDBRANCH  18  19
ENDBRANCH  17  18
ENDBRANCH  16  17
ENDBRANCH  15  16
ENDBRANCH  14  15
ENDBRANCH  13  14
ENDBRANCH   1  13
TORSDOF 20
ENDMDL
MODEL 5
REMARK VINA RESULT:    -3.240      1.186      2.034
REMARK INTER + INTRA:          -8.901
REMARK INTER:                  -6.933
REMARK INTRA:                  -1.968
REMARK UNBOUND:                -1.873
REMARK SMILES CCCCCCCCCCCCCCCCCCCCCC(=O)[O-]
REMARK SMILES IDX 12 1 11 2 10 3 9 4 8 5 7 6 6 7 5 8 4 9 3 10 2 11 1 12 13 13
REMARK SMILES IDX 14 14 15 15 16 16 17 17 18 18 19 19 20 20 21 21 22 22 23 23
REMARK SMILES IDX 24 24
REMARK H PARENT
REMARK Flexibility Score: inf
ROOT
ATOM      1  C   UNL     1      16.930   5.824  16.985  1.00  0.00     0.000 C 
ENDROOT
BRANCH   1   2
ATOM      2  C   UNL     1      18.410   6.182  17.211  1.00  0.00     0.000 C 
BRANCH   2   3
ATOM      3  C   UNL     1      18.955   7.159  16.157  1.00  0.00     0.000 C 
BRANCH   3   4
ATOM      4  C   UNL     1      19.009   6.541  14.750  1.00  0.00    -0.000 C 
BRANCH   4   5
ATOM      5  C   UNL     1      19.730   5.183  14.733  1.00  0.00    -0.000 C 
BRANCH   5   6
ATOM      6  C   UNL     1      18.835   4.038  14.223  1.00  0.00    -0.000 C 
BRANCH   6   7
ATOM      7  C   UNL     1      18.784   3.877  12.689  1.00  0.00    -0.000 C 
BRANCH   7   8
ATOM      8  C   UNL     1      17.413   4.158  12.049  1.00  0.00    -0.000 C 
BRANCH   8   9
ATOM      9  C   UNL     1      17.454   5.323  11.045  1.00  0.00    -0.000 C 
BRANCH   9  10
ATOM     10  C   UNL     1      18.887   5.710  10.649  1.00  0.00    -0.000 C 
BRANCH  10  11
ATOM     11  C   UNL     1      19.204   7.182  10.951  1.00  0.00    -0.003 C 
ATOM     12  C   UNL     1      19.309   7.996   9.665  1.00  0.00     0.004 C 
ENDBRANCH  10  11
ENDBRANCH   9  10
ENDBRANCH   8   9
ENDBRANCH   7   8
ENDBRANCH   6   7
ENDBRANCH   5   6
ENDBRANCH   4   5
ENDBRANCH   3   4
ENDBRANCH   2   3
ENDBRANCH   1   2
BRANCH   1  13
ATOM     13  C   UNL     1      16.619   4.324  17.170  1.00  0.00     0.000 C 
BRANCH  13  14
ATOM     14  C   UNL     1      16.654   3.904  18.651  1.00  0.00     0.000 C 
BRANCH  14  15
ATOM     15  C   UNL     1      16.143   5.006  19.591  1.00  0.00     0.000 C 
BRANCH  15  16
ATOM     16  C   UNL     1      14.811   4.640  20.261  1.00  0.00     0.000 C 
BRANCH  16  17
ATOM     17  C   UNL     1      13.806   4.101  19.231  1.00  0.00     0.000 C 
BRANCH  17  18
ATOM     18  C   UNL     1      12.952   5.225  18.608  1.00  0.00     0.000 C 
BRANCH  18  19
ATOM     19  C   UNL     1      13.150   6.595  19.280  1.00  0.00     0.000 C 
BRANCH  19  20
ATOM     20  C   UNL     1      11.824   7.256  19.690  1.00  0.00     0.006 C 
BRANCH  20  21
ATOM     21  C   UNL     1      10.929   6.307  20.499  1.00  0.00     0.053 C 
BRANCH  21  22
ATOM     22  C   UNL     1       9.559   6.196  19.904  1.00  0.00     0.041 C 
ATOM     23  O   UNL     1       8.752   7.159  19.984  1.00  0.00    -0.550 OA
ATOM     24  O   UNL     1       9.164   5.017  19.284  1.00  0.00    -0.550 OA
ENDBRANCH  21  22
ENDBRANCH  20  21
ENDBRANCH  19  20
ENDBRANCH  18  19
ENDBRANCH  17  18
ENDBRANCH  16  17
ENDBRANCH  15  16
ENDBRANCH  14  15
ENDBRANCH  13  14
ENDBRANCH   1  13
TORSDOF 20
ENDMDL
MODEL 6
REMARK VINA RESULT:    -3.211      4.033      9.085
REMARK INTER + INTRA:          -8.838
REMARK INTER:                  -6.349
REMARK INTRA:                  -2.488
REMARK UNBOUND:                -1.873
REMARK SMILES CCCCCCCCCCCCCCCCCCCCCC(=O)[O-]
REMARK SMILES IDX 12 1 11 2 10 3 9 4 8 5 7 6 6 7 5 8 4 9 3 10 2 11 1 12 13 13
REMARK SMILES IDX 14 14 15 15 16 16 17 17 18 18 19 19 20 20 21 21 22 22 23 23
REMARK SMILES IDX 24 24
REMARK H PARENT
REMARK Flexibility Score: inf
ROOT
ATOM      1  C   UNL     1      13.395   4.335  17.595  1.00  0.00     0.000 C 
ENDROOT
BRANCH   1   2
ATOM      2  C   UNL     1      12.270   5.377  17.717  1.00  0.00     0.000 C 
BRANCH   2   3
ATOM      3  C   UNL     1      11.046   4.848  18.484  1.00  0.00     0.000 C 
BRANCH   3   4
ATOM      4  C   UNL     1      10.752   5.658  19.757  1.00  0.00    -0.000 C 
BRANCH   4   5
ATOM      5  C   UNL     1      11.987   6.418  20.268  1.00  0.00    -0.000 C 
BRANCH   5   6
ATOM      6  C   UNL     1      12.576   5.806  21.552  1.00  0.00    -0.000 C 
BRANCH   6   7
ATOM      7  C   UNL     1      13.228   4.418  21.380  1.00  0.00    -0.000 C 
BRANCH   7   8
ATOM      8  C   UNL     1      14.706   4.336  21.802  1.00  0.00    -0.000 C 
BRANCH   8   9
ATOM      9  C   UNL     1      15.666   4.307  20.600  1.00  0.00    -0.000 C 
BRANCH   9  10
ATOM     10  C   UNL     1      16.724   5.421  20.664  1.00  0.00    -0.000 C 
BRANCH  10  11
ATOM     11  C   UNL     1      18.132   4.878  20.952  1.00  0.00    -0.003 C 
ATOM     12  C   UNL     1      18.953   4.773  19.671  1.00  0.00     0.004 C 
ENDBRANCH  10  11
ENDBRANCH   9  10
ENDBRANCH   8   9
ENDBRANCH   7   8
ENDBRANCH   6   7
ENDBRANCH   5   6
ENDBRANCH   4   5
ENDBRANCH   3   4
ENDBRANCH   2   3
ENDBRANCH   1   2
BRANCH   1  13
ATOM     13  C   UNL     1      14.793   4.954  17.382  1.00  0.00     0.000 C 
BRANCH  13  14
ATOM     14  C   UNL     1      15.785   3.948  16.771  1.00  0.00     0.000 C 
BRANCH  14  15
ATOM     15  C   UNL     1      17.133   4.590  16.410  1.00  0.00     0.000 C 
BRANCH  15  16
ATOM     16  C   UNL     1      17.163   6.098  16.691  1.00  0.00     0.000 C 
BRANCH  16  17
ATOM     17  C   UNL     1      18.511   6.710  16.276  1.00  0.00     0.000 C 
BRANCH  17  18
ATOM     18  C   UNL     1      19.495   5.644  15.749  1.00  0.00     0.000 C 
BRANCH  18  19
ATOM     19  C   UNL     1      19.902   5.853  14.280  1.00  0.00     0.000 C 
BRANCH  19  20
ATOM     20  C   UNL     1      19.141   7.006  13.608  1.00  0.00     0.006 C 
BRANCH  20  21
ATOM     21  C   UNL     1      19.639   7.276  12.182  1.00  0.00     0.053 C 
BRANCH  21  22
ATOM     22  C   UNL     1      18.694   6.736  11.152  1.00  0.00     0.041 C 
ATOM     23  O   UNL     1      17.914   5.791  11.440  1.00  0.00    -0.550 OA
ATOM     24  O   UNL     1      18.694   7.261   9.866  1.00  0.00    -0.550 OA
ENDBRANCH  21  22
ENDBRANCH  20  21
ENDBRANCH  19  20
ENDBRANCH  18  19
ENDBRANCH  17  18
ENDBRANCH  16  17
ENDBRANCH  15  16
ENDBRANCH  14  15
ENDBRANCH  13  14
ENDBRANCH   1  13
TORSDOF 20
ENDMDL
MODEL 7
REMARK VINA RESULT:    -3.184      3.129      4.873
REMARK INTER + INTRA:          -8.780
REMARK INTER:                  -6.791
REMARK INTRA:                  -1.989
REMARK UNBOUND:                -1.873
REMARK SMILES CCCCCCCCCCCCCCCCCCCCCC(=O)[O-]
REMARK SMILES IDX 12 1 11 2 10 3 9 4 8 5 7 6 6 7 5 8 4 9 3 10 2 11 1 12 13 13
REMARK SMILES IDX 14 14 15 15 16 16 17 17 18 18 19 19 20 20 21 21 22 22 23 23
REMARK SMILES IDX 24 24
REMARK H PARENT
REMARK Flexibility Score: inf
ROOT
ATOM      1  C   UNL     1      12.957   3.893  17.329  1.00  0.00     0.000 C 
ENDROOT
BRANCH   1   2
ATOM      2  C   UNL     1      14.435   3.899  17.760  1.00  0.00     0.000 C 
BRANCH   2   3
ATOM      3  C   UNL     1      15.381   4.369  16.642  1.00  0.00     0.000 C 
BRANCH   3   4
ATOM      4  C   UNL     1      16.301   5.516  17.091  1.00  0.00    -0.000 C 
BRANCH   4   5
ATOM      5  C   UNL     1      17.630   5.540  16.316  1.00  0.00    -0.000 C 
BRANCH   5   6
ATOM      6  C   UNL     1      17.657   4.538  15.147  1.00  0.00    -0.000 C 
BRANCH   6   7
ATOM      7  C   UNL     1      18.834   4.708  14.163  1.00  0.00    -0.000 C 
BRANCH   7   8
ATOM      8  C   UNL     1      19.183   6.165  13.810  1.00  0.00    -0.000 C 
BRANCH   8   9
ATOM      9  C   UNL     1      19.524   6.350  12.321  1.00  0.00    -0.000 C 
BRANCH   9  10
ATOM     10  C   UNL     1      18.308   6.134  11.406  1.00  0.00    -0.000 C 
BRANCH  10  11
ATOM     11  C   UNL     1      18.580   6.563   9.956  1.00  0.00    -0.003 C 
ATOM     12  C   UNL     1      19.480   7.794   9.907  1.00  0.00     0.004 C 
ENDBRANCH  10  11
ENDBRANCH   9  10
ENDBRANCH   8   9
ENDBRANCH   7   8
ENDBRANCH   6   7
ENDBRANCH   5   6
ENDBRANCH   4   5
ENDBRANCH   3   4
ENDBRANCH   2   3
ENDBRANCH   1   2
BRANCH   1  13
ATOM     13  C   UNL     1      12.210   5.202  17.658  1.00  0.00     0.000 C 
BRANCH  13  14
ATOM     14  C   UNL     1      11.558   5.162  19.052  1.00  0.00     0.000 C 
BRANCH  14  15
ATOM     15  C   UNL     1      12.033   6.306  19.961  1.00  0.00     0.000 C 
BRANCH  15  16
ATOM     16  C   UNL     1      12.487   5.813  21.342  1.00  0.00     0.000 C 
BRANCH  16  17
ATOM     17  C   UNL     1      13.480   4.647  21.213  1.00  0.00     0.000 C 
BRANCH  17  18
ATOM     18  C   UNL     1      14.356   4.487  22.473  1.00  0.00     0.000 C 
BRANCH  18  19
ATOM     19  C   UNL     1      15.809   4.955  22.279  1.00  0.00     0.000 C 
BRANCH  19  20
ATOM     20  C   UNL     1      16.201   5.089  20.799  1.00  0.00     0.006 C 
BRANCH  20  21
ATOM     21  C   UNL     1      17.653   5.553  20.624  1.00  0.00     0.053 C 
BRANCH  21  22
ATOM     22  C   UNL     1      17.755   7.046  20.570  1.00  0.00     0.041 C 
ATOM     23  O   UNL     1      17.984   7.705  21.618  1.00  0.00    -0.550 OA
ATOM     24  O   UNL     1      17.572   7.712  19.365  1.00  0.00    -0.550 OA
ENDBRANCH  21  22
ENDBRANCH  20  21
ENDBRANCH  19  20
ENDBRANCH  18  19
ENDBRANCH  17  18
ENDBRANCH  16  17
ENDBRANCH  15  16
ENDBRANCH  14  15
ENDBRANCH  13  14
ENDBRANCH   1  13
TORSDOF 20
ENDMDL
MODEL 8
REMARK VINA RESULT:    -3.084      4.007      9.398
REMARK INTER + INTRA:          -8.563
REMARK INTER:                  -6.883
REMARK INTRA:                  -1.680
REMARK UNBOUND:                -1.873
REMARK SMILES CCCCCCCCCCCCCCCCCCCCCC(=O)[O-]
REMARK SMILES IDX 12 1 11 2 10 3 9 4 8 5 7 6 6 7 5 8 4 9 3 10 2 11 1 12 13 13
REMARK SMILES IDX 14 14 15 15 16 16 17 17 18 18 19 19 20 20 21 21 22 22 23 23
REMARK SMILES IDX 24 24
REMARK H PARENT
REMARK Flexibility Score: inf
ROOT
ATOM      1  C   UNL     1      16.430   6.001  18.207  1.00  0.00     0.000 C 
ENDROOT
BRANCH   1   2
ATOM      2  C   UNL     1      16.281   4.470  18.267  1.00  0.00     0.000 C 
BRANCH   2   3
ATOM      3  C   UNL     1      16.323   3.922  19.704  1.00  0.00     0.000 C 
BRANCH   3   4
ATOM      4  C   UNL     1      16.726   4.992  20.732  1.00  0.00    -0.000 C 
BRANCH   4   5
ATOM      5  C   UNL     1      15.965   4.847  22.060  1.00  0.00    -0.000 C 
BRANCH   5   6
ATOM      6  C   UNL     1      14.622   4.112  21.901  1.00  0.00    -0.000 C 
BRANCH   6   7
ATOM      7  C   UNL     1      13.407   5.018  21.611  1.00  0.00    -0.000 C 
BRANCH   7   8
ATOM      8  C   UNL     1      12.775   4.835  20.220  1.00  0.00    -0.000 C 
BRANCH   8   9
ATOM      9  C   UNL     1      12.302   6.163  19.603  1.00  0.00    -0.000 C 
BRANCH   9  10
ATOM     10  C   UNL     1      11.125   6.783  20.371  1.00  0.00    -0.000 C 
BRANCH  10  11
ATOM     11  C   UNL     1       9.776   6.156  19.985  1.00  0.00    -0.003 C 
ATOM     12  C   UNL     1       8.721   7.231  19.743  1.00  0.00     0.004 C 
ENDBRANCH  10  11
ENDBRANCH   9  10
ENDBRANCH   8   9
ENDBRANCH   7   8
ENDBRANCH   6   7
ENDBRANCH   5   6
ENDBRANCH   4   5
ENDBRANCH   3   4
ENDBRANCH   2   3
ENDBRANCH   1   2
BRANCH   1  13
ATOM     13  C   UNL     1      17.438   6.483  17.143  1.00  0.00     0.000 C 
BRANCH  13  14
ATOM     14  C   UNL     1      18.572   7.323  17.759  1.00  0.00     0.000 C 
BRANCH  14  15
ATOM     15  C   UNL     1      19.559   7.848  16.706  1.00  0.00     0.000 C 
BRANCH  15  16
ATOM     16  C   UNL     1      19.479   7.074  15.382  1.00  0.00     0.000 C 
BRANCH  16  17
ATOM     17  C   UNL     1      19.262   8.030  14.198  1.00  0.00     0.000 C 
BRANCH  17  18
ATOM     18  C   UNL     1      19.034   7.272  12.873  1.00  0.00     0.000 C 
BRANCH  18  19
ATOM     19  C   UNL     1      19.549   5.822  12.895  1.00  0.00     0.000 C 
BRANCH  19  20
ATOM     20  C   UNL     1      18.434   4.789  12.673  1.00  0.00     0.006 C 
BRANCH  20  21
ATOM     21  C   UNL     1      18.574   4.065  11.327  1.00  0.00     0.053 C 
BRANCH  21  22
ATOM     22  C   UNL     1      17.771   4.732  10.253  1.00  0.00     0.041 C 
ATOM     23  O   UNL     1      16.718   4.194   9.820  1.00  0.00    -0.550 OA
ATOM     24  O   UNL     1      18.201   5.936   9.711  1.00  0.00    -0.550 OA
ENDBRANCH  21  22
ENDBRANCH  20  21
ENDBRANCH  19  20
ENDBRANCH  18  19
ENDBRANCH  17  18
ENDBRANCH  16  17
ENDBRANCH  15  16
ENDBRANCH  14  15
ENDBRANCH  13  14
ENDBRANCH   1  13
TORSDOF 20
ENDMDL
MODEL 9
REMARK VINA RESULT:    -3.030      2.950      4.791
REMARK INTER + INTRA:          -8.446
REMARK INTER:                  -5.633
REMARK INTRA:                  -2.812
REMARK UNBOUND:                -1.873
REMARK SMILES CCCCCCCCCCCCCCCCCCCCCC(=O)[O-]
REMARK SMILES IDX 12 1 11 2 10 3 9 4 8 5 7 6 6 7 5 8 4 9 3 10 2 11 1 12 13 13
REMARK SMILES IDX 14 14 15 15 16 16 17 17 18 18 19 19 20 20 21 21 22 22 23 23
REMARK SMILES IDX 24 24
REMARK H PARENT
REMARK Flexibility Score: inf
ROOT
ATOM      1  C   UNL     1      16.873   4.121  22.134  1.00  0.00     0.000 C 
ENDROOT
BRANCH   1   2
ATOM      2  C   UNL     1      16.790   5.334  23.079  1.00  0.00     0.000 C 
BRANCH   2   3
ATOM      3  C   UNL     1      18.096   6.146  23.123  1.00  0.00     0.000 C 
BRANCH   3   4
ATOM      4  C   UNL     1      17.854   7.659  22.999  1.00  0.00    -0.000 C 
BRANCH   4   5
ATOM      5  C   UNL     1      19.005   8.380  22.277  1.00  0.00    -0.000 C 
BRANCH   5   6
ATOM      6  C   UNL     1      19.870   7.426  21.432  1.00  0.00    -0.000 C 
BRANCH   6   7
ATOM      7  C   UNL     1      19.631   7.498  19.909  1.00  0.00    -0.000 C 
BRANCH   7   8
ATOM      8  C   UNL     1      18.152   7.537  19.482  1.00  0.00    -0.000 C 
BRANCH   8   9
ATOM      9  C   UNL     1      17.976   7.694  17.962  1.00  0.00    -0.000 C 
BRANCH   9  10
ATOM     10  C   UNL     1      19.079   6.979  17.165  1.00  0.00    -0.000 C 
BRANCH  10  11
ATOM     11  C   UNL     1      18.800   5.479  16.989  1.00  0.00    -0.003 C 
ATOM     12  C   UNL     1      17.581   5.247  16.101  1.00  0.00     0.004 C 
ENDBRANCH  10  11
ENDBRANCH   9  10
ENDBRANCH   8   9
ENDBRANCH   7   8
ENDBRANCH   6   7
ENDBRANCH   5   6
ENDBRANCH   4   5
ENDBRANCH   3   4
ENDBRANCH   2   3
ENDBRANCH   1   2
BRANCH   1  13
ATOM     13  C   UNL     1      17.944   4.266  21.033  1.00  0.00     0.000 C 
BRANCH  13  14
ATOM     14  C   UNL     1      17.400   3.888  19.643  1.00  0.00     0.000 C 
BRANCH  14  15
ATOM     15  C   UNL     1      15.867   3.958  19.567  1.00  0.00     0.000 C 
BRANCH  15  16
ATOM     16  C   UNL     1      15.355   5.374  19.269  1.00  0.00     0.000 C 
BRANCH  16  17
ATOM     17  C   UNL     1      14.193   5.339  18.263  1.00  0.00     0.000 C 
BRANCH  17  18
ATOM     18  C   UNL     1      12.832   5.107  18.953  1.00  0.00     0.000 C 
BRANCH  18  19
ATOM     19  C   UNL     1      12.839   5.435  20.457  1.00  0.00     0.000 C 
BRANCH  19  20
ATOM     20  C   UNL     1      11.758   6.454  20.850  1.00  0.00     0.006 C 
BRANCH  20  21
ATOM     21  C   UNL     1      10.860   6.833  19.665  1.00  0.00     0.053 C 
BRANCH  21  22
ATOM     22  C   UNL     1       9.471   6.298  19.828  1.00  0.00     0.041 C 
ATOM     23  O   UNL     1       9.231   5.078  19.626  1.00  0.00    -0.550 OA
ATOM     24  O   UNL     1       8.434   7.153  20.180  1.00  0.00    -0.550 OA
ENDBRANCH  21  22
ENDBRANCH  20  21
ENDBRANCH  19  20
ENDBRANCH  18  19
ENDBRANCH  17  18
ENDBRANCH  16  17
ENDBRANCH  15  16
ENDBRANCH  14  15
ENDBRANCH  13  14
ENDBRANCH   1  13
TORSDOF 20
ENDMDL
