MODEL 1
REMARK VINA RESULT:    -5.081      0.000      0.000
REMARK INTER + INTRA:          -5.902
REMARK INTER:                  -6.121
REMARK INTRA:                   0.219
REMARK UNBOUND:                 0.219
REMARK SMILES O=c1c(O)c(-c2ccc(O)c(O)c2)oc2cc(O)cc(O)c12
REMARK SMILES IDX 5 1 3 2 2 3 1 4 22 5 20 6 19 7 17 8 16 9 15 10 14 11 6 12
REMARK SMILES IDX 7 13 8 14 9 15 13 16 11 17 10 18 12 20 4 22 21 24 18 26
REMARK H PARENT 10 19 12 21 4 23 21 25 18 27
REMARK Flexibility Score: inf
ROOT
ATOM      1  C   UNL     1      78.320  80.561  83.514  1.00  0.00     0.180 A 
ATOM      2  C   UNL     1      78.026  81.907  83.806  1.00  0.00     0.208 A 
ATOM      3  C   UNL     1      79.069  82.846  83.800  1.00  0.00     0.238 A 
ATOM      4  O   UNL     1      78.816  84.056  84.050  1.00  0.00    -0.285 OA
ATOM      5  C   UNL     1      80.386  82.423  83.524  1.00  0.00     0.111 A 
ATOM      6  C   UNL     1      81.493  83.304  83.503  1.00  0.00     0.134 A 
ATOM      7  C   UNL     1      82.775  82.804  83.230  1.00  0.00     0.093 A 
ATOM      8  C   UNL     1      82.969  81.441  82.977  1.00  0.00     0.123 A 
ATOM      9  C   UNL     1      81.880  80.569  82.996  1.00  0.00     0.094 A 
ATOM     10  C   UNL     1      80.595  81.048  83.266  1.00  0.00     0.146 A 
ATOM     11  O   UNL     1      79.576  80.196  83.273  1.00  0.00    -0.452 OA
ENDROOT
BRANCH   1  12
ATOM     12  C   UNL     1      77.272  79.517  83.482  1.00  0.00     0.025 A 
ATOM     13  C   UNL     1      77.607  78.192  83.796  1.00  0.00     0.016 A 
ATOM     14  C   UNL     1      76.639  77.188  83.753  1.00  0.00     0.051 A 
ATOM     15  C   UNL     1      75.322  77.481  83.380  1.00  0.00     0.157 A 
ATOM     16  C   UNL     1      75.955  79.810  83.085  1.00  0.00     0.062 A 
ATOM     17  C   UNL     1      74.978  78.809  83.035  1.00  0.00     0.158 A 
BRANCH  15  18
ATOM     18  O   UNL     1      74.400  76.433  83.364  1.00  0.00    -0.504 OA
ATOM     19  H   UNL     1      73.641  76.358  82.702  1.00  0.00     0.293 HD
ENDBRANCH  15  18
BRANCH  17  20
ATOM     20  O   UNL     1      73.691  79.174  82.634  1.00  0.00    -0.504 OA
ATOM     21  H   UNL     1      73.429  80.109  82.356  1.00  0.00     0.293 HD
ENDBRANCH  17  20
ENDBRANCH   1  12
BRANCH   2  22
ATOM     22  O   UNL     1      76.720  82.292  84.125  1.00  0.00    -0.502 OA
ATOM     23  H   UNL     1      76.329  82.167  85.050  1.00  0.00     0.293 HD
ENDBRANCH   2  22
BRANCH   6  24
ATOM     24  O   UNL     1      81.332  84.668  83.752  1.00  0.00    -0.507 OA
ATOM     25  H   UNL     1      81.343  85.044  84.693  1.00  0.00     0.293 HD
ENDBRANCH   6  24
BRANCH   8  26
ATOM     26  O   UNL     1      84.243  80.944  82.706  1.00  0.00    -0.508 OA
ATOM     27  H   UNL     1      84.697  80.285  83.327  1.00  0.00     0.293 HD
ENDBRANCH   8  26
TORSDOF 6
ENDMDL
MODEL 2
REMARK VINA RESULT:    -4.996     10.027     16.030
REMARK INTER + INTRA:          -5.800
REMARK INTER:                  -6.019
REMARK INTRA:                   0.219
REMARK UNBOUND:                 0.219
REMARK SMILES O=c1c(O)c(-c2ccc(O)c(O)c2)oc2cc(O)cc(O)c12
REMARK SMILES IDX 5 1 3 2 2 3 1 4 22 5 20 6 19 7 17 8 16 9 15 10 14 11 6 12
REMARK SMILES IDX 7 13 8 14 9 15 13 16 11 17 10 18 12 20 4 22 21 24 18 26
REMARK H PARENT 10 19 12 21 4 23 21 25 18 27
REMARK Flexibility Score: inf
ROOT
ATOM      1  C   UNL     1      71.147  69.034  83.504  1.00  0.00     0.180 A 
ATOM      2  C   UNL     1      71.444  67.690  83.803  1.00  0.00     0.208 A 
ATOM      3  C   UNL     1      70.402  66.749  83.801  1.00  0.00     0.238 A 
ATOM      4  O   UNL     1      70.658  65.540  84.057  1.00  0.00    -0.285 OA
ATOM      5  C   UNL     1      69.085  67.167  83.522  1.00  0.00     0.111 A 
ATOM      6  C   UNL     1      67.979  66.284  83.504  1.00  0.00     0.134 A 
ATOM      7  C   UNL     1      66.697  66.780  83.227  1.00  0.00     0.093 A 
ATOM      8  C   UNL     1      66.500  68.141  82.967  1.00  0.00     0.123 A 
ATOM      9  C   UNL     1      67.588  69.016  82.983  1.00  0.00     0.094 A 
ATOM     10  C   UNL     1      68.873  68.541  83.257  1.00  0.00     0.146 A 
ATOM     11  O   UNL     1      69.891  69.395  83.260  1.00  0.00    -0.452 OA
ENDROOT
BRANCH   1  12
ATOM     12  C   UNL     1      72.193  70.080  83.468  1.00  0.00     0.025 A 
ATOM     13  C   UNL     1      71.855  71.405  83.780  1.00  0.00     0.016 A 
ATOM     14  C   UNL     1      72.822  72.411  83.732  1.00  0.00     0.051 A 
ATOM     15  C   UNL     1      74.138  72.120  83.357  1.00  0.00     0.157 A 
ATOM     16  C   UNL     1      73.509  69.788  83.069  1.00  0.00     0.062 A 
ATOM     17  C   UNL     1      74.485  70.791  83.015  1.00  0.00     0.158 A 
BRANCH  15  18
ATOM     18  O   UNL     1      75.058  73.170  83.338  1.00  0.00    -0.504 OA
ATOM     19  H   UNL     1      74.810  74.141  83.459  1.00  0.00     0.293 HD
ENDBRANCH  15  18
BRANCH  17  20
ATOM     20  O   UNL     1      75.771  70.429  82.612  1.00  0.00    -0.504 OA
ATOM     21  H   UNL     1      76.616  70.738  83.072  1.00  0.00     0.293 HD
ENDBRANCH  17  20
ENDBRANCH   1  12
BRANCH   2  22
ATOM     22  O   UNL     1      72.750  67.309  84.125  1.00  0.00    -0.502 OA
ATOM     23  H   UNL     1      73.488  67.984  84.281  1.00  0.00     0.293 HD
ENDBRANCH   2  22
BRANCH   6  24
ATOM     24  O   UNL     1      68.144  64.922  83.760  1.00  0.00    -0.507 OA
ATOM     25  H   UNL     1      67.453  64.388  84.275  1.00  0.00     0.293 HD
ENDBRANCH   6  24
BRANCH   8  26
ATOM     26  O   UNL     1      65.226  68.634  82.692  1.00  0.00    -0.508 OA
ATOM     27  H   UNL     1      64.993  69.025  81.787  1.00  0.00     0.293 HD
ENDBRANCH   8  26
TORSDOF 6
ENDMDL
MODEL 3
REMARK VINA RESULT:    -4.463      4.472      7.593
REMARK INTER + INTRA:          -5.157
REMARK INTER:                  -5.458
REMARK INTRA:                   0.302
REMARK UNBOUND:                 0.219
REMARK SMILES O=c1c(O)c(-c2ccc(O)c(O)c2)oc2cc(O)cc(O)c12
REMARK SMILES IDX 5 1 3 2 2 3 1 4 22 5 20 6 19 7 17 8 16 9 15 10 14 11 6 12
REMARK SMILES IDX 7 13 8 14 9 15 13 16 11 17 10 18 12 20 4 22 21 24 18 26
REMARK H PARENT 10 19 12 21 4 23 21 25 18 27
REMARK Flexibility Score: inf
ROOT
ATOM      1  C   UNL     1      74.745  73.964  83.702  1.00  0.00     0.180 A 
ATOM      2  C   UNL     1      73.880  75.072  83.778  1.00  0.00     0.208 A 
ATOM      3  C   UNL     1      74.433  76.358  83.891  1.00  0.00     0.238 A 
ATOM      4  O   UNL     1      73.668  77.359  83.949  1.00  0.00    -0.285 OA
ATOM      5  C   UNL     1      75.833  76.512  83.946  1.00  0.00     0.111 A 
ATOM      6  C   UNL     1      76.470  77.770  84.064  1.00  0.00     0.134 A 
ATOM      7  C   UNL     1      77.870  77.839  84.122  1.00  0.00     0.093 A 
ATOM      8  C   UNL     1      78.644  76.675  84.065  1.00  0.00     0.123 A 
ATOM      9  C   UNL     1      78.020  75.431  83.949  1.00  0.00     0.094 A 
ATOM     10  C   UNL     1      76.627  75.342  83.888  1.00  0.00     0.146 A 
ATOM     11  O   UNL     1      76.061  74.146  83.773  1.00  0.00    -0.452 OA
ENDROOT
BRANCH   1  12
ATOM     12  C   UNL     1      74.239  72.580  83.563  1.00  0.00     0.025 A 
ATOM     13  C   UNL     1      75.050  71.506  83.956  1.00  0.00     0.016 A 
ATOM     14  C   UNL     1      74.600  70.192  83.815  1.00  0.00     0.051 A 
ATOM     15  C   UNL     1      73.342  69.923  83.266  1.00  0.00     0.157 A 
ATOM     16  C   UNL     1      72.984  72.312  82.990  1.00  0.00     0.062 A 
ATOM     17  C   UNL     1      72.525  70.997  82.841  1.00  0.00     0.158 A 
BRANCH  15  18
ATOM     18  O   UNL     1      72.948  68.587  83.159  1.00  0.00    -0.504 OA
ATOM     19  H   UNL     1      73.498  67.870  82.707  1.00  0.00     0.293 HD
ENDBRANCH  15  18
BRANCH  17  20
ATOM     20  O   UNL     1      71.268  70.807  82.265  1.00  0.00    -0.504 OA
ATOM     21  H   UNL     1      70.752  71.529  81.783  1.00  0.00     0.293 HD
ENDBRANCH  17  20
ENDBRANCH   1  12
BRANCH   2  22
ATOM     22  O   UNL     1      72.494  74.889  83.771  1.00  0.00    -0.502 OA
ATOM     23  H   UNL     1      72.025  74.281  84.430  1.00  0.00     0.293 HD
ENDBRANCH   2  22
BRANCH   6  24
ATOM     24  O   UNL     1      75.725  78.949  84.124  1.00  0.00    -0.507 OA
ATOM     25  H   UNL     1      75.129  79.164  84.914  1.00  0.00     0.293 HD
ENDBRANCH   6  24
BRANCH   8  26
ATOM     26  O   UNL     1      80.034  76.743  84.124  1.00  0.00    -0.508 OA
ATOM     27  H   UNL     1      80.619  76.131  83.568  1.00  0.00     0.293 HD
ENDBRANCH   8  26
TORSDOF 6
ENDMDL
MODEL 4
REMARK VINA RESULT:    -4.375      4.011      9.938
REMARK INTER + INTRA:          -5.051
REMARK INTER:                  -5.401
REMARK INTRA:                   0.350
REMARK UNBOUND:                 0.219
REMARK SMILES O=c1c(O)c(-c2ccc(O)c(O)c2)oc2cc(O)cc(O)c12
REMARK SMILES IDX 5 1 3 2 2 3 1 4 22 5 20 6 19 7 17 8 16 9 15 10 14 11 6 12
REMARK SMILES IDX 7 13 8 14 9 15 13 16 11 17 10 18 12 20 4 22 21 24 18 26
REMARK H PARENT 10 19 12 21 4 23 21 25 18 27
REMARK Flexibility Score: inf
ROOT
ATOM      1  C   UNL     1      74.777  75.594  83.778  1.00  0.00     0.180 A 
ATOM      2  C   UNL     1      75.633  74.477  83.837  1.00  0.00     0.208 A 
ATOM      3  C   UNL     1      75.069  73.194  83.918  1.00  0.00     0.238 A 
ATOM      4  O   UNL     1      75.826  72.185  83.961  1.00  0.00    -0.285 OA
ATOM      5  C   UNL     1      73.668  73.050  83.961  1.00  0.00     0.111 A 
ATOM      6  C   UNL     1      73.020  71.794  84.047  1.00  0.00     0.134 A 
ATOM      7  C   UNL     1      71.620  71.734  84.094  1.00  0.00     0.093 A 
ATOM      8  C   UNL     1      70.855  72.906  84.056  1.00  0.00     0.123 A 
ATOM      9  C   UNL     1      71.489  74.147  83.971  1.00  0.00     0.094 A 
ATOM     10  C   UNL     1      72.884  74.227  83.922  1.00  0.00     0.146 A 
ATOM     11  O   UNL     1      73.460  75.421  83.835  1.00  0.00    -0.452 OA
ENDROOT
BRANCH   1  12
ATOM     12  C   UNL     1      75.295  76.976  83.672  1.00  0.00     0.025 A 
ATOM     13  C   UNL     1      74.453  78.054  83.982  1.00  0.00     0.016 A 
ATOM     14  C   UNL     1      74.915  79.366  83.869  1.00  0.00     0.051 A 
ATOM     15  C   UNL     1      76.217  79.630  83.431  1.00  0.00     0.157 A 
ATOM     16  C   UNL     1      76.596  77.238  83.210  1.00  0.00     0.062 A 
ATOM     17  C   UNL     1      77.068  78.552  83.090  1.00  0.00     0.158 A 
BRANCH  15  18
ATOM     18  O   UNL     1      76.620  80.965  83.348  1.00  0.00    -0.504 OA
ATOM     19  H   UNL     1      76.408  81.571  82.568  1.00  0.00     0.293 HD
ENDBRANCH  15  18
BRANCH  17  20
ATOM     20  O   UNL     1      78.371  78.737  82.627  1.00  0.00    -0.504 OA
ATOM     21  H   UNL     1      79.148  79.004  83.215  1.00  0.00     0.293 HD
ENDBRANCH  17  20
ENDBRANCH   1  12
BRANCH   2  22
ATOM     22  O   UNL     1      77.020  74.649  83.844  1.00  0.00    -0.502 OA
ATOM     23  H   UNL     1      77.535  74.870  84.687  1.00  0.00     0.293 HD
ENDBRANCH   2  22
BRANCH   6  24
ATOM     24  O   UNL     1      73.756  70.608  84.087  1.00  0.00    -0.507 OA
ATOM     25  H   UNL     1      73.369  69.753  84.472  1.00  0.00     0.293 HD
ENDBRANCH   6  24
BRANCH   8  26
ATOM     26  O   UNL     1      69.464  72.847  84.104  1.00  0.00    -0.508 OA
ATOM     27  H   UNL     1      68.905  72.833  83.259  1.00  0.00     0.293 HD
ENDBRANCH   8  26
TORSDOF 6
ENDMDL
MODEL 5
REMARK VINA RESULT:    -4.288      2.750      5.629
REMARK INTER + INTRA:          -4.946
REMARK INTER:                  -5.024
REMARK INTRA:                   0.078
REMARK UNBOUND:                 0.219
REMARK SMILES O=c1c(O)c(-c2ccc(O)c(O)c2)oc2cc(O)cc(O)c12
REMARK SMILES IDX 5 1 3 2 2 3 1 4 22 5 20 6 19 7 17 8 16 9 15 10 14 11 6 12
REMARK SMILES IDX 7 13 8 14 9 15 13 16 11 17 10 18 12 20 4 22 21 24 18 26
REMARK H PARENT 10 19 12 21 4 23 21 25 18 27
REMARK Flexibility Score: inf
ROOT
ATOM      1  C   UNL     1      75.929  76.377  83.525  1.00  0.00     0.180 A 
ATOM      2  C   UNL     1      77.214  75.863  83.785  1.00  0.00     0.208 A 
ATOM      3  C   UNL     1      78.294  76.754  83.883  1.00  0.00     0.238 A 
ATOM      4  O   UNL     1      79.449  76.306  84.125  1.00  0.00    -0.285 OA
ATOM      5  C   UNL     1      78.077  78.135  83.700  1.00  0.00     0.111 A 
ATOM      6  C   UNL     1      79.111  79.099  83.777  1.00  0.00     0.134 A 
ATOM      7  C   UNL     1      78.815  80.455  83.573  1.00  0.00     0.093 A 
ATOM      8  C   UNL     1      77.506  80.864  83.293  1.00  0.00     0.123 A 
ATOM      9  C   UNL     1      76.483  79.917  83.217  1.00  0.00     0.094 A 
ATOM     10  C   UNL     1      76.758  78.562  83.417  1.00  0.00     0.146 A 
ATOM     11  O   UNL     1      75.764  77.683  83.343  1.00  0.00    -0.452 OA
ENDROOT
BRANCH   1  12
ATOM     12  C   UNL     1      74.739  75.503  83.427  1.00  0.00     0.025 A 
ATOM     13  C   UNL     1      73.572  75.845  84.125  1.00  0.00     0.016 A 
ATOM     14  C   UNL     1      72.444  75.025  84.062  1.00  0.00     0.051 A 
ATOM     15  C   UNL     1      72.463  73.841  83.317  1.00  0.00     0.157 A 
ATOM     16  C   UNL     1      74.768  74.302  82.695  1.00  0.00     0.062 A 
ATOM     17  C   UNL     1      73.643  73.471  82.629  1.00  0.00     0.158 A 
BRANCH  15  18
ATOM     18  O   UNL     1      71.299  73.069  83.289  1.00  0.00    -0.504 OA
ATOM     19  H   UNL     1      70.365  73.453  83.312  1.00  0.00     0.293 HD
ENDBRANCH  15  18
BRANCH  17  20
ATOM     20  O   UNL     1      73.743  72.296  81.883  1.00  0.00    -0.504 OA
ATOM     21  H   UNL     1      74.617  71.900  81.567  1.00  0.00     0.293 HD
ENDBRANCH  17  20
ENDBRANCH   1  12
BRANCH   2  22
ATOM     22  O   UNL     1      77.412  74.485  83.913  1.00  0.00    -0.502 OA
ATOM     23  H   UNL     1      77.762  74.065  84.765  1.00  0.00     0.293 HD
ENDBRANCH   2  22
BRANCH   6  24
ATOM     24  O   UNL     1      80.426  78.721  84.053  1.00  0.00    -0.507 OA
ATOM     25  H   UNL     1      80.809  78.769  84.991  1.00  0.00     0.293 HD
ENDBRANCH   6  24
BRANCH   8  26
ATOM     26  O   UNL     1      77.212  82.211  83.090  1.00  0.00    -0.508 OA
ATOM     27  H   UNL     1      77.251  82.882  83.849  1.00  0.00     0.293 HD
ENDBRANCH   8  26
TORSDOF 6
ENDMDL
MODEL 6
REMARK VINA RESULT:    -4.205      1.342      6.790
REMARK INTER + INTRA:          -4.847
REMARK INTER:                  -5.293
REMARK INTRA:                   0.446
REMARK UNBOUND:                 0.219
REMARK SMILES O=c1c(O)c(-c2ccc(O)c(O)c2)oc2cc(O)cc(O)c12
REMARK SMILES IDX 5 1 3 2 2 3 1 4 22 5 20 6 19 7 17 8 16 9 15 10 14 11 6 12
REMARK SMILES IDX 7 13 8 14 9 15 13 16 11 17 10 18 12 20 4 22 21 24 18 26
REMARK H PARENT 10 19 12 21 4 23 21 25 18 27
REMARK Flexibility Score: inf
ROOT
ATOM      1  C   UNL     1      78.302  79.889  83.520  1.00  0.00     0.180 A 
ATOM      2  C   UNL     1      77.109  80.589  83.786  1.00  0.00     0.208 A 
ATOM      3  C   UNL     1      75.906  79.871  83.875  1.00  0.00     0.238 A 
ATOM      4  O   UNL     1      74.833  80.486  84.123  1.00  0.00    -0.285 OA
ATOM      5  C   UNL     1      75.912  78.475  83.677  1.00  0.00     0.111 A 
ATOM      6  C   UNL     1      74.744  77.678  83.745  1.00  0.00     0.134 A 
ATOM      7  C   UNL     1      74.831  76.295  83.527  1.00  0.00     0.093 A 
ATOM      8  C   UNL     1      76.063  75.695  83.242  1.00  0.00     0.123 A 
ATOM      9  C   UNL     1      77.217  76.477  83.175  1.00  0.00     0.094 A 
ATOM     10  C   UNL     1      77.151  77.856  83.390  1.00  0.00     0.146 A 
ATOM     11  O   UNL     1      78.267  78.574  83.324  1.00  0.00    -0.452 OA
ENDROOT
BRANCH   1  12
ATOM     12  C   UNL     1      79.611  80.573  83.430  1.00  0.00     0.025 A 
ATOM     13  C   UNL     1      80.788  79.812  83.419  1.00  0.00     0.016 A 
ATOM     14  C   UNL     1      82.034  80.438  83.355  1.00  0.00     0.051 A 
ATOM     15  C   UNL     1      82.132  81.833  83.318  1.00  0.00     0.157 A 
ATOM     16  C   UNL     1      79.706  81.976  83.416  1.00  0.00     0.062 A 
ATOM     17  C   UNL     1      80.952  82.613  83.356  1.00  0.00     0.158 A 
BRANCH  15  18
ATOM     18  O   UNL     1      83.408  82.396  83.247  1.00  0.00    -0.504 OA
ATOM     19  H   UNL     1      84.090  82.162  82.539  1.00  0.00     0.293 HD
ENDBRANCH  15  18
BRANCH  17  20
ATOM     20  O   UNL     1      80.971  84.009  83.343  1.00  0.00    -0.504 OA
ATOM     21  H   UNL     1      80.905  84.567  82.504  1.00  0.00     0.293 HD
ENDBRANCH  17  20
ENDBRANCH   1  12
BRANCH   2  22
ATOM     22  O   UNL     1      77.122  81.980  83.929  1.00  0.00    -0.502 OA
ATOM     23  H   UNL     1      77.969  82.526  83.835  1.00  0.00     0.293 HD
ENDBRANCH   2  22
BRANCH   6  24
ATOM     24  O   UNL     1      73.501  78.248  84.026  1.00  0.00    -0.507 OA
ATOM     25  H   UNL     1      73.276  79.199  83.757  1.00  0.00     0.293 HD
ENDBRANCH   6  24
BRANCH   8  26
ATOM     26  O   UNL     1      76.149  74.322  83.025  1.00  0.00    -0.508 OA
ATOM     27  H   UNL     1      76.949  73.908  82.560  1.00  0.00     0.293 HD
ENDBRANCH   8  26
TORSDOF 6
ENDMDL
MODEL 7
REMARK VINA RESULT:    -4.092      9.216     13.560
REMARK INTER + INTRA:          -4.710
REMARK INTER:                  -5.175
REMARK INTRA:                   0.464
REMARK UNBOUND:                 0.219
REMARK SMILES O=c1c(O)c(-c2ccc(O)c(O)c2)oc2cc(O)cc(O)c12
REMARK SMILES IDX 5 1 3 2 2 3 1 4 22 5 20 6 19 7 17 8 16 9 15 10 14 11 6 12
REMARK SMILES IDX 7 13 8 14 9 15 13 16 11 17 10 18 12 20 4 22 21 24 18 26
REMARK H PARENT 10 19 12 21 4 23 21 25 18 27
REMARK Flexibility Score: inf
ROOT
ATOM      1  C   UNL     1      71.102  69.394  83.512  1.00  0.00     0.180 A 
ATOM      2  C   UNL     1      72.312  68.729  83.787  1.00  0.00     0.208 A 
ATOM      3  C   UNL     1      73.497  69.477  83.860  1.00  0.00     0.238 A 
ATOM      4  O   UNL     1      74.585  68.893  84.116  1.00  0.00    -0.285 OA
ATOM      5  C   UNL     1      73.457  70.869  83.637  1.00  0.00     0.111 A 
ATOM      6  C   UNL     1      74.605  71.695  83.687  1.00  0.00     0.134 A 
ATOM      7  C   UNL     1      74.484  73.071  83.443  1.00  0.00     0.093 A 
ATOM      8  C   UNL     1      73.237  73.636  83.151  1.00  0.00     0.123 A 
ATOM      9  C   UNL     1      72.102  72.825  83.101  1.00  0.00     0.094 A 
ATOM     10  C   UNL     1      72.202  71.452  83.341  1.00  0.00     0.146 A 
ATOM     11  O   UNL     1      71.104  70.706  83.292  1.00  0.00    -0.452 OA
ENDROOT
BRANCH   1  12
ATOM     12  C   UNL     1      69.809  68.677  83.438  1.00  0.00     0.025 A 
ATOM     13  C   UNL     1      68.618  69.410  83.343  1.00  0.00     0.016 A 
ATOM     14  C   UNL     1      67.387  68.754  83.293  1.00  0.00     0.051 A 
ATOM     15  C   UNL     1      67.318  67.358  83.353  1.00  0.00     0.157 A 
ATOM     16  C   UNL     1      69.742  67.275  83.522  1.00  0.00     0.062 A 
ATOM     17  C   UNL     1      68.512  66.609  83.476  1.00  0.00     0.158 A 
BRANCH  15  18
ATOM     18  O   UNL     1      66.056  66.763  83.290  1.00  0.00    -0.504 OA
ATOM     19  H   UNL     1      65.584  66.529  82.428  1.00  0.00     0.293 HD
ENDBRANCH  15  18
BRANCH  17  20
ATOM     20  O   UNL     1      68.521  65.216  83.562  1.00  0.00    -0.504 OA
ATOM     21  H   UNL     1      67.806  64.673  84.025  1.00  0.00     0.293 HD
ENDBRANCH  17  20
ENDBRANCH   1  12
BRANCH   2  22
ATOM     22  O   UNL     1      72.332  67.341  83.956  1.00  0.00    -0.502 OA
ATOM     23  H   UNL     1      71.509  66.815  84.222  1.00  0.00     0.293 HD
ENDBRANCH   2  22
BRANCH   6  24
ATOM     24  O   UNL     1      75.862  71.161  83.975  1.00  0.00    -0.507 OA
ATOM     25  H   UNL     1      76.524  70.929  83.243  1.00  0.00     0.293 HD
ENDBRANCH   6  24
BRANCH   8  26
ATOM     26  O   UNL     1      73.117  75.002  82.908  1.00  0.00    -0.508 OA
ATOM     27  H   UNL     1      72.672  75.355  82.069  1.00  0.00     0.293 HD
ENDBRANCH   8  26
TORSDOF 6
ENDMDL
MODEL 8
REMARK VINA RESULT:    -4.074      1.939      3.764
REMARK INTER + INTRA:          -4.688
REMARK INTER:                  -4.969
REMARK INTRA:                   0.281
REMARK UNBOUND:                 0.219
REMARK SMILES O=c1c(O)c(-c2ccc(O)c(O)c2)oc2cc(O)cc(O)c12
REMARK SMILES IDX 5 1 3 2 2 3 1 4 22 5 20 6 19 7 17 8 16 9 15 10 14 11 6 12
REMARK SMILES IDX 7 13 8 14 9 15 13 16 11 17 10 18 12 20 4 22 21 24 18 26
REMARK H PARENT 10 19 12 21 4 23 21 25 18 27
REMARK Flexibility Score: inf
ROOT
ATOM      1  C   UNL     1      77.301  78.810  83.681  1.00  0.00     0.180 A 
ATOM      2  C   UNL     1      78.648  78.440  83.862  1.00  0.00     0.208 A 
ATOM      3  C   UNL     1      79.622  79.446  83.953  1.00  0.00     0.238 A 
ATOM      4  O   UNL     1      80.830  79.127  84.125  1.00  0.00    -0.285 OA
ATOM      5  C   UNL     1      79.239  80.799  83.842  1.00  0.00     0.111 A 
ATOM      6  C   UNL     1      80.158  81.872  83.919  1.00  0.00     0.134 A 
ATOM      7  C   UNL     1      79.700  83.192  83.790  1.00  0.00     0.093 A 
ATOM      8  C   UNL     1      78.341  83.457  83.586  1.00  0.00     0.123 A 
ATOM      9  C   UNL     1      77.431  82.401  83.510  1.00  0.00     0.094 A 
ATOM     10  C   UNL     1      77.868  81.080  83.637  1.00  0.00     0.146 A 
ATOM     11  O   UNL     1      76.979  80.095  83.566  1.00  0.00    -0.452 OA
ENDROOT
BRANCH   1  12
ATOM     12  C   UNL     1      76.215  77.809  83.595  1.00  0.00     0.025 A 
ATOM     13  C   UNL     1      74.941  78.128  84.087  1.00  0.00     0.016 A 
ATOM     14  C   UNL     1      73.908  77.190  84.034  1.00  0.00     0.051 A 
ATOM     15  C   UNL     1      74.128  75.914  83.506  1.00  0.00     0.157 A 
ATOM     16  C   UNL     1      76.445  76.519  83.084  1.00  0.00     0.062 A 
ATOM     17  C   UNL     1      75.416  75.571  83.030  1.00  0.00     0.158 A 
BRANCH  15  18
ATOM     18  O   UNL     1      73.050  75.026  83.474  1.00  0.00    -0.504 OA
ATOM     19  H   UNL     1      72.431  74.917  82.683  1.00  0.00     0.293 HD
ENDBRANCH  15  18
BRANCH  17  20
ATOM     20  O   UNL     1      75.716  74.312  82.509  1.00  0.00    -0.504 OA
ATOM     21  H   UNL     1      76.356  73.659  82.940  1.00  0.00     0.293 HD
ENDBRANCH  17  20
ENDBRANCH   1  12
BRANCH   2  22
ATOM     22  O   UNL     1      79.007  77.090  83.919  1.00  0.00    -0.502 OA
ATOM     23  H   UNL     1      79.941  76.788  84.166  1.00  0.00     0.293 HD
ENDBRANCH   2  22
BRANCH   6  24
ATOM     24  O   UNL     1      81.520  81.639  84.121  1.00  0.00    -0.507 OA
ATOM     25  H   UNL     1      81.961  81.797  85.020  1.00  0.00     0.293 HD
ENDBRANCH   6  24
BRANCH   8  26
ATOM     26  O   UNL     1      77.885  84.767  83.457  1.00  0.00    -0.508 OA
ATOM     27  H   UNL     1      77.749  85.363  84.265  1.00  0.00     0.293 HD
ENDBRANCH   8  26
TORSDOF 6
ENDMDL
MODEL 9
REMARK VINA RESULT:    -3.362      6.227     11.821
REMARK INTER + INTRA:          -3.831
REMARK INTER:                  -3.735
REMARK INTRA:                  -0.096
REMARK UNBOUND:                 0.219
REMARK SMILES O=c1c(O)c(-c2ccc(O)c(O)c2)oc2cc(O)cc(O)c12
REMARK SMILES IDX 5 1 3 2 2 3 1 4 22 5 20 6 19 7 17 8 16 9 15 10 14 11 6 12
REMARK SMILES IDX 7 13 8 14 9 15 13 16 11 17 10 18 12 20 4 22 21 24 18 26
REMARK H PARENT 10 19 12 21 4 23 21 25 18 27
REMARK Flexibility Score: inf
ROOT
ATOM      1  C   UNL     1      73.488  72.958  83.325  1.00  0.00     0.180 A 
ATOM      2  C   UNL     1      72.230  73.435  83.739  1.00  0.00     0.208 A 
ATOM      3  C   UNL     1      71.138  72.553  83.745  1.00  0.00     0.238 A 
ATOM      4  O   UNL     1      70.008  72.967  84.124  1.00  0.00    -0.285 OA
ATOM      5  C   UNL     1      71.316  71.221  83.320  1.00  0.00     0.111 A 
ATOM      6  C   UNL     1      70.268  70.270  83.291  1.00  0.00     0.134 A 
ATOM      7  C   UNL     1      70.524  68.965  82.845  1.00  0.00     0.093 A 
ATOM      8  C   UNL     1      71.806  68.594  82.427  1.00  0.00     0.123 A 
ATOM      9  C   UNL     1      72.844  69.527  82.454  1.00  0.00     0.094 A 
ATOM     10  C   UNL     1      72.609  70.833  82.896  1.00  0.00     0.146 A 
ATOM     11  O   UNL     1      73.616  71.699  82.916  1.00  0.00    -0.452 OA
ENDROOT
BRANCH   1  12
ATOM     12  C   UNL     1      74.690  73.821  83.309  1.00  0.00     0.025 A 
ATOM     13  C   UNL     1      75.791  73.486  84.109  1.00  0.00     0.016 A 
ATOM     14  C   UNL     1      76.927  74.297  84.125  1.00  0.00     0.051 A 
ATOM     15  C   UNL     1      76.981  75.465  83.357  1.00  0.00     0.157 A 
ATOM     16  C   UNL     1      74.733  75.006  82.553  1.00  0.00     0.062 A 
ATOM     17  C   UNL     1      75.866  75.828  82.565  1.00  0.00     0.158 A 
BRANCH  15  18
ATOM     18  O   UNL     1      78.149  76.229  83.411  1.00  0.00    -0.504 OA
ATOM     19  H   UNL     1      78.819  76.291  82.658  1.00  0.00     0.293 HD
ENDBRANCH  15  18
BRANCH  17  20
ATOM     20  O   UNL     1      75.838  76.988  81.789  1.00  0.00    -0.504 OA
ATOM     21  H   UNL     1      75.765  77.921  82.170  1.00  0.00     0.293 HD
ENDBRANCH  17  20
ENDBRANCH   1  12
BRANCH   2  22
ATOM     22  O   UNL     1      72.069  74.774  84.109  1.00  0.00    -0.502 OA
ATOM     23  H   UNL     1      72.842  75.345  84.426  1.00  0.00     0.293 HD
ENDBRANCH   2  22
BRANCH   6  24
ATOM     24  O   UNL     1      68.978  70.611  83.701  1.00  0.00    -0.507 OA
ATOM     25  H   UNL     1      68.233  70.780  83.034  1.00  0.00     0.293 HD
ENDBRANCH   6  24
BRANCH   8  26
ATOM     26  O   UNL     1      72.061  67.297  81.983  1.00  0.00    -0.508 OA
ATOM     27  H   UNL     1      71.337  66.588  81.978  1.00  0.00     0.293 HD
ENDBRANCH   8  26
TORSDOF 6
ENDMDL
