MODEL 1
REMARK VINA RESULT:    -5.416      0.000      0.000
REMARK INTER + INTRA:         -18.296
REMARK INTER:                 -14.281
REMARK INTRA:                  -4.015
REMARK UNBOUND:                -4.015
REMARK SMILES CCCCCCCCCCCCCCCCCCCCCCCCCCCCCC(=O)[O-]
REMARK SMILES IDX 16 1 17 2 18 3 19 4 20 5 21 6 22 7 23 8 24 9 25 10 26 11
REMARK SMILES IDX 27 12 28 13 29 14 30 15 31 16 32 17 15 18 14 19 13 20 12 21
REMARK SMILES IDX 11 22 10 23 9 24 8 25 7 26 6 27 5 28 4 29 3 30 2 31 1 32
REMARK H PARENT
REMARK Flexibility Score: inf
ROOT
ATOM      1  C   UNL     1      15.380   0.024  17.671  1.00  0.00     0.000 C 
ENDROOT
BRANCH   1   2
ATOM      2  C   UNL     1      15.010  -1.133  18.620  1.00  0.00     0.000 C 
BRANCH   2   3
ATOM      3  C   UNL     1      14.757  -0.714  20.080  1.00  0.00     0.000 C 
BRANCH   3   4
ATOM      4  C   UNL     1      15.908  -1.099  21.036  1.00  0.00     0.000 C 
BRANCH   4   5
ATOM      5  C   UNL     1      16.224   0.023  22.036  1.00  0.00     0.000 C 
BRANCH   5   6
ATOM      6  C   UNL     1      17.674   0.505  21.893  1.00  0.00     0.000 C 
BRANCH   6   7
ATOM      7  C   UNL     1      18.655  -0.657  21.656  1.00  0.00     0.000 C 
BRANCH   7   8
ATOM      8  C   UNL     1      19.646  -0.897  22.815  1.00  0.00     0.000 C 
BRANCH   8   9
ATOM      9  C   UNL     1      20.302  -2.296  22.782  1.00  0.00     0.000 C 
BRANCH   9  10
ATOM     10  C   UNL     1      20.008  -3.052  21.474  1.00  0.00     0.000 C 
BRANCH  10  11
ATOM     11  C   UNL     1      18.874  -4.080  21.624  1.00  0.00     0.000 C 
BRANCH  11  12
ATOM     12  C   UNL     1      18.529  -4.782  20.302  1.00  0.00     0.000 C 
BRANCH  12  13
ATOM     13  C   UNL     1      17.271  -4.180  19.665  1.00  0.00     0.006 C 
BRANCH  13  14
ATOM     14  C   UNL     1      17.216  -4.490  18.165  1.00  0.00     0.053 C 
BRANCH  14  15
ATOM     15  C   UNL     1      15.800  -4.626  17.698  1.00  0.00     0.041 C 
ATOM     16  O   UNL     1      15.455  -4.174  16.575  1.00  0.00    -0.550 OA
ATOM     17  O   UNL     1      14.861  -5.265  18.498  1.00  0.00    -0.550 OA
ENDBRANCH  14  15
ENDBRANCH  13  14
ENDBRANCH  12  13
ENDBRANCH  11  12
ENDBRANCH  10  11
ENDBRANCH   9  10
ENDBRANCH   8   9
ENDBRANCH   7   8
ENDBRANCH   6   7
ENDBRANCH   5   6
ENDBRANCH   4   5
ENDBRANCH   3   4
ENDBRANCH   2   3
ENDBRANCH   1   2
BRANCH   1  18
ATOM     18  C   UNL     1      16.867   0.417  17.677  1.00  0.00     0.000 C 
BRANCH  18  19
ATOM     19  C   UNL     1      17.794  -0.754  17.317  1.00  0.00     0.000 C 
BRANCH  19  20
ATOM     20  C   UNL     1      18.618  -1.197  18.533  1.00  0.00     0.000 C 
BRANCH  20  21
ATOM     21  C   UNL     1      20.087  -1.433  18.153  1.00  0.00     0.000 C 
BRANCH  21  22
ATOM     22  C   UNL     1      20.324  -2.862  17.617  1.00  0.00     0.000 C 
BRANCH  22  23
ATOM     23  C   UNL     1      21.388  -3.644  18.405  1.00  0.00     0.000 C 
BRANCH  23  24
ATOM     24  C   UNL     1      21.362  -5.151  18.106  1.00  0.00    -0.000 C 
BRANCH  24  25
ATOM     25  C   UNL     1      22.037  -5.458  16.761  1.00  0.00    -0.000 C 
BRANCH  25  26
ATOM     26  C   UNL     1      21.734  -6.876  16.244  1.00  0.00    -0.000 C 
BRANCH  26  27
ATOM     27  C   UNL     1      20.243  -7.184  16.010  1.00  0.00    -0.000 C 
BRANCH  27  28
ATOM     28  C   UNL     1      20.016  -8.300  14.977  1.00  0.00    -0.000 C 
BRANCH  28  29
ATOM     29  C   UNL     1      18.568  -8.336  14.460  1.00  0.00    -0.000 C 
BRANCH  29  30
ATOM     30  C   UNL     1      17.989  -9.757  14.415  1.00  0.00    -0.000 C 
BRANCH  30  31
ATOM     31  C   UNL     1      17.777 -10.217  12.966  1.00  0.00    -0.003 C 
ATOM     32  C   UNL     1      18.923 -11.107  12.495  1.00  0.00     0.004 C 
ENDBRANCH  30  31
ENDBRANCH  29  30
ENDBRANCH  28  29
ENDBRANCH  27  28
ENDBRANCH  26  27
ENDBRANCH  25  26
ENDBRANCH  24  25
ENDBRANCH  23  24
ENDBRANCH  22  23
ENDBRANCH  21  22
ENDBRANCH  20  21
ENDBRANCH  19  20
ENDBRANCH  18  19
ENDBRANCH   1  18
TORSDOF 28
ENDMDL
MODEL 2
REMARK VINA RESULT:    -5.387      2.519      4.749
REMARK INTER + INTRA:         -18.219
REMARK INTER:                 -14.804
REMARK INTRA:                  -3.415
REMARK UNBOUND:                -4.015
REMARK SMILES CCCCCCCCCCCCCCCCCCCCCCCCCCCCCC(=O)[O-]
REMARK SMILES IDX 16 1 17 2 18 3 19 4 20 5 21 6 22 7 23 8 24 9 25 10 26 11
REMARK SMILES IDX 27 12 28 13 29 14 30 15 31 16 32 17 15 18 14 19 13 20 12 21
REMARK SMILES IDX 11 22 10 23 9 24 8 25 7 26 6 27 5 28 4 29 3 30 2 31 1 32
REMARK H PARENT
REMARK Flexibility Score: inf
ROOT
ATOM      1  C   UNL     1      17.228  -4.387  19.195  1.00  0.00     0.000 C 
ENDROOT
BRANCH   1   2
ATOM      2  C   UNL     1      17.375  -3.710  20.573  1.00  0.00     0.000 C 
BRANCH   2   3
ATOM      3  C   UNL     1      16.879  -2.253  20.631  1.00  0.00     0.000 C 
BRANCH   3   4
ATOM      4  C   UNL     1      17.919  -1.276  21.225  1.00  0.00     0.000 C 
BRANCH   4   5
ATOM      5  C   UNL     1      18.533  -0.368  20.149  1.00  0.00     0.000 C 
BRANCH   5   6
ATOM      6  C   UNL     1      19.824   0.295  20.649  1.00  0.00     0.000 C 
BRANCH   6   7
ATOM      7  C   UNL     1      19.843   0.456  22.180  1.00  0.00     0.000 C 
BRANCH   7   8
ATOM      8  C   UNL     1      21.257   0.563  22.789  1.00  0.00     0.000 C 
BRANCH   8   9
ATOM      9  C   UNL     1      21.910  -0.810  23.068  1.00  0.00     0.000 C 
BRANCH   9  10
ATOM     10  C   UNL     1      20.894  -1.852  23.571  1.00  0.00     0.000 C 
BRANCH  10  11
ATOM     11  C   UNL     1      20.811  -3.088  22.661  1.00  0.00     0.000 C 
BRANCH  11  12
ATOM     12  C   UNL     1      21.472  -2.864  21.292  1.00  0.00     0.000 C 
BRANCH  12  13
ATOM     13  C   UNL     1      21.034  -3.934  20.284  1.00  0.00     0.006 C 
BRANCH  13  14
ATOM     14  C   UNL     1      20.971  -3.354  18.866  1.00  0.00     0.053 C 
BRANCH  14  15
ATOM     15  C   UNL     1      21.149  -4.429  17.840  1.00  0.00     0.041 C 
ATOM     16  O   UNL     1      20.232  -5.266  17.630  1.00  0.00    -0.550 OA
ATOM     17  O   UNL     1      22.324  -4.499  17.101  1.00  0.00    -0.550 OA
ENDBRANCH  14  15
ENDBRANCH  13  14
ENDBRANCH  12  13
ENDBRANCH  11  12
ENDBRANCH  10  11
ENDBRANCH   9  10
ENDBRANCH   8   9
ENDBRANCH   7   8
ENDBRANCH   6   7
ENDBRANCH   5   6
ENDBRANCH   4   5
ENDBRANCH   3   4
ENDBRANCH   2   3
ENDBRANCH   1   2
BRANCH   1  18
ATOM     18  C   UNL     1      16.984  -3.423  18.022  1.00  0.00     0.000 C 
BRANCH  18  19
ATOM     19  C   UNL     1      15.744  -3.793  17.194  1.00  0.00     0.000 C 
BRANCH  19  20
ATOM     20  C   UNL     1      15.201  -5.168  17.603  1.00  0.00     0.000 C 
BRANCH  20  21
ATOM     21  C   UNL     1      15.136  -6.119  16.398  1.00  0.00     0.000 C 
BRANCH  21  22
ATOM     22  C   UNL     1      16.505  -6.264  15.699  1.00  0.00     0.000 C 
BRANCH  22  23
ATOM     23  C   UNL     1      16.592  -7.483  14.766  1.00  0.00     0.000 C 
BRANCH  23  24
ATOM     24  C   UNL     1      17.944  -8.206  14.855  1.00  0.00    -0.000 C 
BRANCH  24  25
ATOM     25  C   UNL     1      18.431  -8.640  13.465  1.00  0.00    -0.000 C 
BRANCH  25  26
ATOM     26  C   UNL     1      18.868 -10.116  13.412  1.00  0.00    -0.000 C 
BRANCH  26  27
ATOM     27  C   UNL     1      18.014 -11.020  12.504  1.00  0.00    -0.000 C 
BRANCH  27  28
ATOM     28  C   UNL     1      18.860 -11.939  11.607  1.00  0.00    -0.000 C 
BRANCH  28  29
ATOM     29  C   UNL     1      18.048 -12.536  10.445  1.00  0.00    -0.000 C 
BRANCH  29  30
ATOM     30  C   UNL     1      18.806 -13.642   9.698  1.00  0.00    -0.000 C 
BRANCH  30  31
ATOM     31  C   UNL     1      18.768 -13.404   8.182  1.00  0.00    -0.003 C 
ATOM     32  C   UNL     1      17.344 -13.156   7.697  1.00  0.00     0.004 C 
ENDBRANCH  30  31
ENDBRANCH  29  30
ENDBRANCH  28  29
ENDBRANCH  27  28
ENDBRANCH  26  27
ENDBRANCH  25  26
ENDBRANCH  24  25
ENDBRANCH  23  24
ENDBRANCH  22  23
ENDBRANCH  21  22
ENDBRANCH  20  21
ENDBRANCH  19  20
ENDBRANCH  18  19
ENDBRANCH   1  18
TORSDOF 28
ENDMDL
MODEL 3
REMARK VINA RESULT:    -5.369      1.552      4.481
REMARK INTER + INTRA:         -18.173
REMARK INTER:                 -14.716
REMARK INTRA:                  -3.457
REMARK UNBOUND:                -4.015
REMARK SMILES CCCCCCCCCCCCCCCCCCCCCCCCCCCCCC(=O)[O-]
REMARK SMILES IDX 16 1 17 2 18 3 19 4 20 5 21 6 22 7 23 8 24 9 25 10 26 11
REMARK SMILES IDX 27 12 28 13 29 14 30 15 31 16 32 17 15 18 14 19 13 20 12 21
REMARK SMILES IDX 11 22 10 23 9 24 8 25 7 26 6 27 5 28 4 29 3 30 2 31 1 32
REMARK H PARENT
REMARK Flexibility Score: inf
ROOT
ATOM      1  C   UNL     1      20.061  -3.730  20.796  1.00  0.00     0.000 C 
ENDROOT
BRANCH   1   2
ATOM      2  C   UNL     1      19.859  -3.342  22.275  1.00  0.00     0.000 C 
BRANCH   2   3
ATOM      3  C   UNL     1      21.149  -2.955  23.022  1.00  0.00     0.000 C 
BRANCH   3   4
ATOM      4  C   UNL     1      21.143  -1.500  23.542  1.00  0.00     0.000 C 
BRANCH   4   5
ATOM      5  C   UNL     1      22.072  -0.594  22.722  1.00  0.00     0.000 C 
BRANCH   5   6
ATOM      6  C   UNL     1      21.276   0.276  21.738  1.00  0.00     0.000 C 
BRANCH   6   7
ATOM      7  C   UNL     1      20.061   0.948  22.404  1.00  0.00     0.000 C 
BRANCH   7   8
ATOM      8  C   UNL     1      18.698   0.502  21.833  1.00  0.00     0.000 C 
BRANCH   8   9
ATOM      9  C   UNL     1      18.813  -0.250  20.488  1.00  0.00     0.000 C 
BRANCH   9  10
ATOM     10  C   UNL     1      17.529  -0.145  19.645  1.00  0.00     0.000 C 
BRANCH  10  11
ATOM     11  C   UNL     1      17.770  -0.447  18.157  1.00  0.00     0.000 C 
BRANCH  11  12
ATOM     12  C   UNL     1      18.920  -1.439  17.929  1.00  0.00     0.000 C 
BRANCH  12  13
ATOM     13  C   UNL     1      18.537  -2.504  16.894  1.00  0.00     0.006 C 
BRANCH  13  14
ATOM     14  C   UNL     1      17.955  -3.747  17.579  1.00  0.00     0.053 C 
BRANCH  14  15
ATOM     15  C   UNL     1      16.521  -3.945  17.200  1.00  0.00     0.041 C 
ATOM     16  O   UNL     1      15.670  -3.050  17.445  1.00  0.00    -0.550 OA
ATOM     17  O   UNL     1      16.124  -5.114  16.562  1.00  0.00    -0.550 OA
ENDBRANCH  14  15
ENDBRANCH  13  14
ENDBRANCH  12  13
ENDBRANCH  11  12
ENDBRANCH  10  11
ENDBRANCH   9  10
ENDBRANCH   8   9
ENDBRANCH   7   8
ENDBRANCH   6   7
ENDBRANCH   5   6
ENDBRANCH   4   5
ENDBRANCH   3   4
ENDBRANCH   2   3
ENDBRANCH   1   2
BRANCH   1  18
ATOM     18  C   UNL     1      21.407  -3.300  20.191  1.00  0.00     0.000 C 
BRANCH  18  19
ATOM     19  C   UNL     1      21.541  -3.673  18.707  1.00  0.00     0.000 C 
BRANCH  19  20
ATOM     20  C   UNL     1      21.203  -5.152  18.480  1.00  0.00     0.000 C 
BRANCH  20  21
ATOM     21  C   UNL     1      21.473  -5.566  17.026  1.00  0.00     0.000 C 
BRANCH  21  22
ATOM     22  C   UNL     1      20.579  -6.745  16.583  1.00  0.00     0.000 C 
BRANCH  22  23
ATOM     23  C   UNL     1      21.354  -7.869  15.874  1.00  0.00     0.000 C 
BRANCH  23  24
ATOM     24  C   UNL     1      20.661  -8.352  14.591  1.00  0.00    -0.000 C 
BRANCH  24  25
ATOM     25  C   UNL     1      19.179  -8.662  14.847  1.00  0.00    -0.000 C 
BRANCH  25  26
ATOM     26  C   UNL     1      18.325  -8.627  13.566  1.00  0.00    -0.000 C 
BRANCH  26  27
ATOM     27  C   UNL     1      18.340  -9.921  12.732  1.00  0.00    -0.000 C 
BRANCH  27  28
ATOM     28  C   UNL     1      19.222 -11.020  13.347  1.00  0.00    -0.000 C 
BRANCH  28  29
ATOM     29  C   UNL     1      19.306 -12.273  12.460  1.00  0.00    -0.000 C 
BRANCH  29  30
ATOM     30  C   UNL     1      18.286 -12.257  11.313  1.00  0.00    -0.000 C 
BRANCH  30  31
ATOM     31  C   UNL     1      17.952 -13.683  10.856  1.00  0.00    -0.003 C 
ATOM     32  C   UNL     1      19.005 -14.678  11.335  1.00  0.00     0.004 C 
ENDBRANCH  30  31
ENDBRANCH  29  30
ENDBRANCH  28  29
ENDBRANCH  27  28
ENDBRANCH  26  27
ENDBRANCH  25  26
ENDBRANCH  24  25
ENDBRANCH  23  24
ENDBRANCH  22  23
ENDBRANCH  21  22
ENDBRANCH  20  21
ENDBRANCH  19  20
ENDBRANCH  18  19
ENDBRANCH   1  18
TORSDOF 28
ENDMDL
MODEL 4
REMARK VINA RESULT:    -5.369      2.260      5.657
REMARK INTER + INTRA:         -18.172
REMARK INTER:                 -15.202
REMARK INTRA:                  -2.971
REMARK UNBOUND:                -4.015
REMARK SMILES CCCCCCCCCCCCCCCCCCCCCCCCCCCCCC(=O)[O-]
REMARK SMILES IDX 16 1 17 2 18 3 19 4 20 5 21 6 22 7 23 8 24 9 25 10 26 11
REMARK SMILES IDX 27 12 28 13 29 14 30 15 31 16 32 17 15 18 14 19 13 20 12 21
REMARK SMILES IDX 11 22 10 23 9 24 8 25 7 26 6 27 5 28 4 29 3 30 2 31 1 32
REMARK H PARENT
REMARK Flexibility Score: inf
ROOT
ATOM      1  C   UNL     1      20.490  -4.812  18.748  1.00  0.00     0.000 C 
ENDROOT
BRANCH   1   2
ATOM      2  C   UNL     1      20.522  -4.083  20.106  1.00  0.00     0.000 C 
BRANCH   2   3
ATOM      3  C   UNL     1      21.764  -3.202  20.335  1.00  0.00     0.000 C 
BRANCH   3   4
ATOM      4  C   UNL     1      22.140  -3.051  21.827  1.00  0.00     0.000 C 
BRANCH   4   5
ATOM      5  C   UNL     1      20.898  -2.933  22.722  1.00  0.00     0.000 C 
BRANCH   5   6
ATOM      6  C   UNL     1      21.038  -1.775  23.720  1.00  0.00     0.000 C 
BRANCH   6   7
ATOM      7  C   UNL     1      21.219  -0.417  23.018  1.00  0.00     0.000 C 
BRANCH   7   8
ATOM      8  C   UNL     1      19.958   0.472  23.025  1.00  0.00     0.000 C 
BRANCH   8   9
ATOM      9  C   UNL     1      18.949   0.115  21.911  1.00  0.00     0.000 C 
BRANCH   9  10
ATOM     10  C   UNL     1      19.638  -0.180  20.567  1.00  0.00     0.000 C 
BRANCH  10  11
ATOM     11  C   UNL     1      18.684  -0.801  19.534  1.00  0.00     0.000 C 
BRANCH  11  12
ATOM     12  C   UNL     1      19.358  -1.055  18.177  1.00  0.00     0.000 C 
BRANCH  12  13
ATOM     13  C   UNL     1      18.607  -2.126  17.376  1.00  0.00     0.006 C 
BRANCH  13  14
ATOM     14  C   UNL     1      17.109  -2.100  17.701  1.00  0.00     0.053 C 
BRANCH  14  15
ATOM     15  C   UNL     1      16.569  -3.489  17.848  1.00  0.00     0.041 C 
ATOM     16  O   UNL     1      17.013  -4.252  18.745  1.00  0.00    -0.550 OA
ATOM     17  O   UNL     1      15.564  -3.938  17.000  1.00  0.00    -0.550 OA
ENDBRANCH  14  15
ENDBRANCH  13  14
ENDBRANCH  12  13
ENDBRANCH  11  12
ENDBRANCH  10  11
ENDBRANCH   9  10
ENDBRANCH   8   9
ENDBRANCH   7   8
ENDBRANCH   6   7
ENDBRANCH   5   6
ENDBRANCH   4   5
ENDBRANCH   3   4
ENDBRANCH   2   3
ENDBRANCH   1   2
BRANCH   1  18
ATOM     18  C   UNL     1      21.751  -4.632  17.886  1.00  0.00     0.000 C 
BRANCH  18  19
ATOM     19  C   UNL     1      21.807  -5.607  16.700  1.00  0.00     0.000 C 
BRANCH  19  20
ATOM     20  C   UNL     1      20.690  -6.655  16.796  1.00  0.00     0.000 C 
BRANCH  20  21
ATOM     21  C   UNL     1      20.921  -7.804  15.804  1.00  0.00     0.000 C 
BRANCH  21  22
ATOM     22  C   UNL     1      19.619  -8.220  15.085  1.00  0.00     0.000 C 
BRANCH  22  23
ATOM     23  C   UNL     1      19.849  -9.176  13.902  1.00  0.00     0.000 C 
BRANCH  23  24
ATOM     24  C   UNL     1      18.731  -9.104  12.852  1.00  0.00    -0.000 C 
BRANCH  24  25
ATOM     25  C   UNL     1      17.700 -10.223  13.065  1.00  0.00    -0.000 C 
BRANCH  25  26
ATOM     26  C   UNL     1      17.579 -11.169  11.857  1.00  0.00    -0.000 C 
BRANCH  26  27
ATOM     27  C   UNL     1      18.861 -11.944  11.500  1.00  0.00    -0.000 C 
BRANCH  27  28
ATOM     28  C   UNL     1      18.615 -13.448  11.296  1.00  0.00    -0.000 C 
BRANCH  28  29
ATOM     29  C   UNL     1      17.767 -13.741  10.047  1.00  0.00    -0.000 C 
BRANCH  29  30
ATOM     30  C   UNL     1      18.621 -14.024   8.803  1.00  0.00    -0.000 C 
BRANCH  30  31
ATOM     31  C   UNL     1      18.288 -13.039   7.674  1.00  0.00    -0.003 C 
ATOM     32  C   UNL     1      17.543 -13.731   6.538  1.00  0.00     0.004 C 
ENDBRANCH  30  31
ENDBRANCH  29  30
ENDBRANCH  28  29
ENDBRANCH  27  28
ENDBRANCH  26  27
ENDBRANCH  25  26
ENDBRANCH  24  25
ENDBRANCH  23  24
ENDBRANCH  22  23
ENDBRANCH  21  22
ENDBRANCH  20  21
ENDBRANCH  19  20
ENDBRANCH  18  19
ENDBRANCH   1  18
TORSDOF 28
ENDMDL
MODEL 5
REMARK VINA RESULT:    -5.332      2.730      5.557
REMARK INTER + INTRA:         -18.074
REMARK INTER:                 -15.049
REMARK INTRA:                  -3.025
REMARK UNBOUND:                -4.015
REMARK SMILES CCCCCCCCCCCCCCCCCCCCCCCCCCCCCC(=O)[O-]
REMARK SMILES IDX 16 1 17 2 18 3 19 4 20 5 21 6 22 7 23 8 24 9 25 10 26 11
REMARK SMILES IDX 27 12 28 13 29 14 30 15 31 16 32 17 15 18 14 19 13 20 12 21
REMARK SMILES IDX 11 22 10 23 9 24 8 25 7 26 6 27 5 28 4 29 3 30 2 31 1 32
REMARK H PARENT
REMARK Flexibility Score: inf
ROOT
ATOM      1  C   UNL     1      20.164  -3.224  17.556  1.00  0.00     0.000 C 
ENDROOT
BRANCH   1   2
ATOM      2  C   UNL     1      19.674  -1.778  17.771  1.00  0.00     0.000 C 
BRANCH   2   3
ATOM      3  C   UNL     1      18.225  -1.515  17.323  1.00  0.00     0.000 C 
BRANCH   3   4
ATOM      4  C   UNL     1      17.575  -0.305  18.032  1.00  0.00     0.000 C 
BRANCH   4   5
ATOM      5  C   UNL     1      16.045  -0.430  18.092  1.00  0.00     0.000 C 
BRANCH   5   6
ATOM      6  C   UNL     1      15.619  -1.809  18.616  1.00  0.00     0.000 C 
BRANCH   6   7
ATOM      7  C   UNL     1      15.926  -1.985  20.114  1.00  0.00     0.000 C 
BRANCH   7   8
ATOM      8  C   UNL     1      16.911  -3.131  20.428  1.00  0.00     0.000 C 
BRANCH   8   9
ATOM      9  C   UNL     1      18.220  -2.649  21.094  1.00  0.00     0.000 C 
BRANCH   9  10
ATOM     10  C   UNL     1      18.117  -1.204  21.615  1.00  0.00     0.000 C 
BRANCH  10  11
ATOM     11  C   UNL     1      19.311  -0.334  21.192  1.00  0.00     0.000 C 
BRANCH  11  12
ATOM     12  C   UNL     1      20.111   0.201  22.389  1.00  0.00     0.000 C 
BRANCH  12  13
ATOM     13  C   UNL     1      20.179  -0.835  23.518  1.00  0.00     0.006 C 
BRANCH  13  14
ATOM     14  C   UNL     1      21.566  -1.485  23.581  1.00  0.00     0.053 C 
BRANCH  14  15
ATOM     15  C   UNL     1      21.612  -2.729  22.750  1.00  0.00     0.041 C 
ATOM     16  O   UNL     1      22.376  -2.798  21.751  1.00  0.00    -0.550 OA
ATOM     17  O   UNL     1      20.821  -3.820  23.085  1.00  0.00    -0.550 OA
ENDBRANCH  14  15
ENDBRANCH  13  14
ENDBRANCH  12  13
ENDBRANCH  11  12
ENDBRANCH  10  11
ENDBRANCH   9  10
ENDBRANCH   8   9
ENDBRANCH   7   8
ENDBRANCH   6   7
ENDBRANCH   5   6
ENDBRANCH   4   5
ENDBRANCH   3   4
ENDBRANCH   2   3
ENDBRANCH   1   2
BRANCH   1  18
ATOM     18  C   UNL     1      20.751  -3.903  18.805  1.00  0.00     0.000 C 
BRANCH  18  19
ATOM     19  C   UNL     1      21.481  -5.215  18.483  1.00  0.00     0.000 C 
BRANCH  19  20
ATOM     20  C   UNL     1      21.469  -5.496  16.975  1.00  0.00     0.000 C 
BRANCH  20  21
ATOM     21  C   UNL     1      20.594  -6.715  16.645  1.00  0.00     0.000 C 
BRANCH  21  22
ATOM     22  C   UNL     1      21.368  -7.783  15.843  1.00  0.00     0.000 C 
BRANCH  22  23
ATOM     23  C   UNL     1      20.524  -8.463  14.752  1.00  0.00     0.000 C 
BRANCH  23  24
ATOM     24  C   UNL     1      19.019  -8.199  14.912  1.00  0.00    -0.000 C 
BRANCH  24  25
ATOM     25  C   UNL     1      18.194  -9.405  14.440  1.00  0.00    -0.000 C 
BRANCH  25  26
ATOM     26  C   UNL     1      18.942 -10.289  13.425  1.00  0.00    -0.000 C 
BRANCH  26  27
ATOM     27  C   UNL     1      18.050 -10.997  12.389  1.00  0.00    -0.000 C 
BRANCH  27  28
ATOM     28  C   UNL     1      18.674 -12.293  11.846  1.00  0.00    -0.000 C 
BRANCH  28  29
ATOM     29  C   UNL     1      18.562 -12.404  10.316  1.00  0.00    -0.000 C 
BRANCH  29  30
ATOM     30  C   UNL     1      18.176 -13.814   9.850  1.00  0.00    -0.000 C 
BRANCH  30  31
ATOM     31  C   UNL     1      18.342 -13.954   8.331  1.00  0.00    -0.003 C 
ATOM     32  C   UNL     1      17.111 -13.441   7.590  1.00  0.00     0.004 C 
ENDBRANCH  30  31
ENDBRANCH  29  30
ENDBRANCH  28  29
ENDBRANCH  27  28
ENDBRANCH  26  27
ENDBRANCH  25  26
ENDBRANCH  24  25
ENDBRANCH  23  24
ENDBRANCH  22  23
ENDBRANCH  21  22
ENDBRANCH  20  21
ENDBRANCH  19  20
ENDBRANCH  18  19
ENDBRANCH   1  18
TORSDOF 28
ENDMDL
MODEL 6
REMARK VINA RESULT:    -5.302      4.530     10.567
REMARK INTER + INTRA:         -17.995
REMARK INTER:                 -14.639
REMARK INTRA:                  -3.356
REMARK UNBOUND:                -4.015
REMARK SMILES CCCCCCCCCCCCCCCCCCCCCCCCCCCCCC(=O)[O-]
REMARK SMILES IDX 16 1 17 2 18 3 19 4 20 5 21 6 22 7 23 8 24 9 25 10 26 11
REMARK SMILES IDX 27 12 28 13 29 14 30 15 31 16 32 17 15 18 14 19 13 20 12 21
REMARK SMILES IDX 11 22 10 23 9 24 8 25 7 26 6 27 5 28 4 29 3 30 2 31 1 32
REMARK H PARENT
REMARK Flexibility Score: inf
ROOT
ATOM      1  C   UNL     1      14.931  -6.215  16.447  1.00  0.00     0.000 C 
ENDROOT
BRANCH   1   2
ATOM      2  C   UNL     1      16.160  -6.209  15.516  1.00  0.00     0.000 C 
BRANCH   2   3
ATOM      3  C   UNL     1      16.415  -7.537  14.779  1.00  0.00     0.000 C 
BRANCH   3   4
ATOM      4  C   UNL     1      17.902  -7.958  14.775  1.00  0.00     0.000 C 
BRANCH   4   5
ATOM      5  C   UNL     1      18.075  -9.448  14.443  1.00  0.00     0.000 C 
BRANCH   5   6
ATOM      6  C   UNL     1      18.174  -9.673  12.927  1.00  0.00     0.000 C 
BRANCH   6   7
ATOM      7  C   UNL     1      17.280 -10.832  12.450  1.00  0.00     0.000 C 
BRANCH   7   8
ATOM      8  C   UNL     1      17.937 -11.745  11.393  1.00  0.00     0.000 C 
BRANCH   8   9
ATOM      9  C   UNL     1      19.130 -12.559  11.943  1.00  0.00     0.000 C 
BRANCH   9  10
ATOM     10  C   UNL     1      19.125 -14.017  11.447  1.00  0.00     0.000 C 
BRANCH  10  11
ATOM     11  C   UNL     1      17.721 -14.506  11.056  1.00  0.00     0.000 C 
BRANCH  11  12
ATOM     12  C   UNL     1      17.673 -15.113   9.645  1.00  0.00     0.000 C 
BRANCH  12  13
ATOM     13  C   UNL     1      18.320 -14.176   8.617  1.00  0.00     0.006 C 
BRANCH  13  14
ATOM     14  C   UNL     1      18.728 -14.948   7.357  1.00  0.00     0.053 C 
BRANCH  14  15
ATOM     15  C   UNL     1      19.250 -14.019   6.306  1.00  0.00     0.041 C 
ATOM     16  O   UNL     1      18.616 -12.972   6.011  1.00  0.00    -0.550 OA
ATOM     17  O   UNL     1      20.447 -14.302   5.659  1.00  0.00    -0.550 OA
ENDBRANCH  14  15
ENDBRANCH  13  14
ENDBRANCH  12  13
ENDBRANCH  11  12
ENDBRANCH  10  11
ENDBRANCH   9  10
ENDBRANCH   8   9
ENDBRANCH   7   8
ENDBRANCH   6   7
ENDBRANCH   5   6
ENDBRANCH   4   5
ENDBRANCH   3   4
ENDBRANCH   2   3
ENDBRANCH   1   2
BRANCH   1  18
ATOM     18  C   UNL     1      15.007  -5.231  17.626  1.00  0.00     0.000 C 
BRANCH  18  19
ATOM     19  C   UNL     1      15.688  -3.905  17.255  1.00  0.00     0.000 C 
BRANCH  19  20
ATOM     20  C   UNL     1      15.767  -2.969  18.468  1.00  0.00     0.000 C 
BRANCH  20  21
ATOM     21  C   UNL     1      16.345  -1.601  18.075  1.00  0.00     0.000 C 
BRANCH  21  22
ATOM     22  C   UNL     1      17.823  -1.699  17.640  1.00  0.00     0.000 C 
BRANCH  22  23
ATOM     23  C   UNL     1      18.756  -0.758  18.419  1.00  0.00     0.000 C 
BRANCH  23  24
ATOM     24  C   UNL     1      20.207  -1.260  18.463  1.00  0.00    -0.000 C 
BRANCH  24  25
ATOM     25  C   UNL     1      20.586  -1.732  19.875  1.00  0.00    -0.000 C 
BRANCH  25  26
ATOM     26  C   UNL     1      19.414  -1.654  20.872  1.00  0.00    -0.000 C 
BRANCH  26  27
ATOM     27  C   UNL     1      18.693  -2.988  21.140  1.00  0.00    -0.000 C 
BRANCH  27  28
ATOM     28  C   UNL     1      19.468  -4.205  20.611  1.00  0.00    -0.000 C 
BRANCH  28  29
ATOM     29  C   UNL     1      18.713  -4.941  19.491  1.00  0.00    -0.000 C 
BRANCH  29  30
ATOM     30  C   UNL     1      19.438  -4.869  18.140  1.00  0.00    -0.000 C 
BRANCH  30  31
ATOM     31  C   UNL     1      20.919  -5.238  18.291  1.00  0.00    -0.003 C 
ATOM     32  C   UNL     1      21.792  -4.432  17.334  1.00  0.00     0.004 C 
ENDBRANCH  30  31
ENDBRANCH  29  30
ENDBRANCH  28  29
ENDBRANCH  27  28
ENDBRANCH  26  27
ENDBRANCH  25  26
ENDBRANCH  24  25
ENDBRANCH  23  24
ENDBRANCH  22  23
ENDBRANCH  21  22
ENDBRANCH  20  21
ENDBRANCH  19  20
ENDBRANCH  18  19
ENDBRANCH   1  18
TORSDOF 28
ENDMDL
MODEL 7
REMARK VINA RESULT:    -5.301      2.933      8.451
REMARK INTER + INTRA:         -17.992
REMARK INTER:                 -13.892
REMARK INTRA:                  -4.100
REMARK UNBOUND:                -4.015
REMARK SMILES CCCCCCCCCCCCCCCCCCCCCCCCCCCCCC(=O)[O-]
REMARK SMILES IDX 16 1 17 2 18 3 19 4 20 5 21 6 22 7 23 8 24 9 25 10 26 11
REMARK SMILES IDX 27 12 28 13 29 14 30 15 31 16 32 17 15 18 14 19 13 20 12 21
REMARK SMILES IDX 11 22 10 23 9 24 8 25 7 26 6 27 5 28 4 29 3 30 2 31 1 32
REMARK H PARENT
REMARK Flexibility Score: inf
ROOT
ATOM      1  C   UNL     1      20.003  -8.293  14.306  1.00  0.00     0.000 C 
ENDROOT
BRANCH   1   2
ATOM      2  C   UNL     1      20.978  -8.207  15.498  1.00  0.00     0.000 C 
BRANCH   2   3
ATOM      3  C   UNL     1      20.623  -7.132  16.543  1.00  0.00     0.000 C 
BRANCH   3   4
ATOM      4  C   UNL     1      21.692  -6.023  16.667  1.00  0.00     0.000 C 
BRANCH   4   5
ATOM      5  C   UNL     1      21.408  -5.083  17.848  1.00  0.00     0.000 C 
BRANCH   5   6
ATOM      6  C   UNL     1      20.822  -3.747  17.369  1.00  0.00     0.000 C 
BRANCH   6   7
ATOM      7  C   UNL     1      19.420  -3.484  17.946  1.00  0.00     0.000 C 
BRANCH   7   8
ATOM      8  C   UNL     1      18.739  -4.730  18.552  1.00  0.00     0.000 C 
BRANCH   8   9
ATOM      9  C   UNL     1      18.810  -4.779  20.094  1.00  0.00     0.000 C 
BRANCH   9  10
ATOM     10  C   UNL     1      18.295  -3.484  20.748  1.00  0.00     0.000 C 
BRANCH  10  11
ATOM     11  C   UNL     1      19.366  -2.781  21.597  1.00  0.00     0.000 C 
BRANCH  11  12
ATOM     12  C   UNL     1      20.449  -2.100  20.745  1.00  0.00     0.000 C 
BRANCH  12  13
ATOM     13  C   UNL     1      20.630  -0.631  21.149  1.00  0.00     0.006 C 
BRANCH  13  14
ATOM     14  C   UNL     1      22.106  -0.224  21.080  1.00  0.00     0.053 C 
BRANCH  14  15
ATOM     15  C   UNL     1      22.892  -0.873  22.176  1.00  0.00     0.041 C 
ATOM     16  O   UNL     1      22.523  -0.761  23.375  1.00  0.00    -0.550 OA
ATOM     17  O   UNL     1      24.027  -1.615  21.874  1.00  0.00    -0.550 OA
ENDBRANCH  14  15
ENDBRANCH  13  14
ENDBRANCH  12  13
ENDBRANCH  11  12
ENDBRANCH  10  11
ENDBRANCH   9  10
ENDBRANCH   8   9
ENDBRANCH   7   8
ENDBRANCH   6   7
ENDBRANCH   5   6
ENDBRANCH   4   5
ENDBRANCH   3   4
ENDBRANCH   2   3
ENDBRANCH   1   2
BRANCH   1  18
ATOM     18  C   UNL     1      19.016  -9.471  14.360  1.00  0.00     0.000 C 
BRANCH  18  19
ATOM     19  C   UNL     1      17.550  -9.017  14.443  1.00  0.00     0.000 C 
BRANCH  19  20
ATOM     20  C   UNL     1      17.456  -7.506  14.694  1.00  0.00     0.000 C 
BRANCH  20  21
ATOM     21  C   UNL     1      16.040  -7.104  15.133  1.00  0.00     0.000 C 
BRANCH  21  22
ATOM     22  C   UNL     1      16.026  -5.753  15.880  1.00  0.00     0.000 C 
BRANCH  22  23
ATOM     23  C   UNL     1      14.994  -5.691  17.018  1.00  0.00     0.000 C 
BRANCH  23  24
ATOM     24  C   UNL     1      15.342  -4.639  18.081  1.00  0.00    -0.000 C 
BRANCH  24  25
ATOM     25  C   UNL     1      15.379  -3.229  17.472  1.00  0.00    -0.000 C 
BRANCH  25  26
ATOM     26  C   UNL     1      15.835  -2.151  18.473  1.00  0.00    -0.000 C 
BRANCH  26  27
ATOM     27  C   UNL     1      15.417  -0.712  18.120  1.00  0.00    -0.000 C 
BRANCH  27  28
ATOM     28  C   UNL     1      16.567   0.299  18.266  1.00  0.00    -0.000 C 
BRANCH  28  29
ATOM     29  C   UNL     1      17.534  -0.071  19.403  1.00  0.00    -0.000 C 
BRANCH  29  30
ATOM     30  C   UNL     1      17.375   0.833  20.634  1.00  0.00    -0.000 C 
BRANCH  30  31
ATOM     31  C   UNL     1      16.975   0.013  21.868  1.00  0.00    -0.003 C 
ATOM     32  C   UNL     1      15.501  -0.376  21.820  1.00  0.00     0.004 C 
ENDBRANCH  30  31
ENDBRANCH  29  30
ENDBRANCH  28  29
ENDBRANCH  27  28
ENDBRANCH  26  27
ENDBRANCH  25  26
ENDBRANCH  24  25
ENDBRANCH  23  24
ENDBRANCH  22  23
ENDBRANCH  21  22
ENDBRANCH  20  21
ENDBRANCH  19  20
ENDBRANCH  18  19
ENDBRANCH   1  18
TORSDOF 28
ENDMDL
MODEL 8
REMARK VINA RESULT:    -5.256      4.014     10.353
REMARK INTER + INTRA:         -17.874
REMARK INTER:                 -14.213
REMARK INTRA:                  -3.660
REMARK UNBOUND:                -4.015
REMARK SMILES CCCCCCCCCCCCCCCCCCCCCCCCCCCCCC(=O)[O-]
REMARK SMILES IDX 16 1 17 2 18 3 19 4 20 5 21 6 22 7 23 8 24 9 25 10 26 11
REMARK SMILES IDX 27 12 28 13 29 14 30 15 31 16 32 17 15 18 14 19 13 20 12 21
REMARK SMILES IDX 11 22 10 23 9 24 8 25 7 26 6 27 5 28 4 29 3 30 2 31 1 32
REMARK H PARENT
REMARK Flexibility Score: inf
ROOT
ATOM      1  C   UNL     1      21.461  -4.058  17.133  1.00  0.00     0.000 C 
ENDROOT
BRANCH   1   2
ATOM      2  C   UNL     1      21.337  -5.427  17.832  1.00  0.00     0.000 C 
BRANCH   2   3
ATOM      3  C   UNL     1      20.586  -6.498  17.020  1.00  0.00     0.000 C 
BRANCH   3   4
ATOM      4  C   UNL     1      21.483  -7.232  15.997  1.00  0.00     0.000 C 
BRANCH   4   5
ATOM      5  C   UNL     1      20.693  -8.264  15.179  1.00  0.00     0.000 C 
BRANCH   5   6
ATOM      6  C   UNL     1      19.202  -7.902  15.116  1.00  0.00     0.000 C 
BRANCH   6   7
ATOM      7  C   UNL     1      18.328  -9.098  14.696  1.00  0.00     0.000 C 
BRANCH   7   8
ATOM      8  C   UNL     1      18.358  -9.404  13.183  1.00  0.00     0.000 C 
BRANCH   8   9
ATOM      9  C   UNL     1      17.302 -10.444  12.747  1.00  0.00     0.000 C 
BRANCH   9  10
ATOM     10  C   UNL     1      17.644 -11.097  11.395  1.00  0.00     0.000 C 
BRANCH  10  11
ATOM     11  C   UNL     1      18.900 -11.980  11.464  1.00  0.00     0.000 C 
BRANCH  11  12
ATOM     12  C   UNL     1      19.147 -12.766  10.167  1.00  0.00     0.000 C 
BRANCH  12  13
ATOM     13  C   UNL     1      17.836 -13.326   9.600  1.00  0.00     0.006 C 
BRANCH  13  14
ATOM     14  C   UNL     1      17.567 -12.771   8.196  1.00  0.00     0.053 C 
BRANCH  14  15
ATOM     15  C   UNL     1      18.485 -13.393   7.191  1.00  0.00     0.041 C 
ATOM     16  O   UNL     1      18.670 -14.638   7.182  1.00  0.00    -0.550 OA
ATOM     17  O   UNL     1      19.130 -12.598   6.250  1.00  0.00    -0.550 OA
ENDBRANCH  14  15
ENDBRANCH  13  14
ENDBRANCH  12  13
ENDBRANCH  11  12
ENDBRANCH  10  11
ENDBRANCH   9  10
ENDBRANCH   8   9
ENDBRANCH   7   8
ENDBRANCH   6   7
ENDBRANCH   5   6
ENDBRANCH   4   5
ENDBRANCH   3   4
ENDBRANCH   2   3
ENDBRANCH   1   2
BRANCH   1  18
ATOM     18  C   UNL     1      20.582  -2.945  17.727  1.00  0.00     0.000 C 
BRANCH  18  19
ATOM     19  C   UNL     1      19.131  -2.998  17.225  1.00  0.00     0.000 C 
BRANCH  19  20
ATOM     20  C   UNL     1      18.145  -3.049  18.399  1.00  0.00     0.000 C 
BRANCH  20  21
ATOM     21  C   UNL     1      17.903  -4.494  18.858  1.00  0.00     0.000 C 
BRANCH  21  22
ATOM     22  C   UNL     1      18.591  -4.798  20.206  1.00  0.00     0.000 C 
BRANCH  22  23
ATOM     23  C   UNL     1      18.655  -3.585  21.150  1.00  0.00     0.000 C 
BRANCH  23  24
ATOM     24  C   UNL     1      19.960  -3.526  21.958  1.00  0.00    -0.000 C 
BRANCH  24  25
ATOM     25  C   UNL     1      21.174  -3.350  21.033  1.00  0.00    -0.000 C 
BRANCH  25  26
ATOM     26  C   UNL     1      21.615  -1.882  20.891  1.00  0.00    -0.000 C 
BRANCH  26  27
ATOM     27  C   UNL     1      21.179  -0.952  22.038  1.00  0.00    -0.000 C 
BRANCH  27  28
ATOM     28  C   UNL     1      20.231   0.166  21.576  1.00  0.00    -0.000 C 
BRANCH  28  29
ATOM     29  C   UNL     1      19.484  -0.194  20.281  1.00  0.00    -0.000 C 
BRANCH  29  30
ATOM     30  C   UNL     1      18.077   0.416  20.218  1.00  0.00    -0.000 C 
BRANCH  30  31
ATOM     31  C   UNL     1      17.184  -0.151  21.330  1.00  0.00    -0.003 C 
ATOM     32  C   UNL     1      16.097  -1.057  20.760  1.00  0.00     0.004 C 
ENDBRANCH  30  31
ENDBRANCH  29  30
ENDBRANCH  28  29
ENDBRANCH  27  28
ENDBRANCH  26  27
ENDBRANCH  25  26
ENDBRANCH  24  25
ENDBRANCH  23  24
ENDBRANCH  22  23
ENDBRANCH  21  22
ENDBRANCH  20  21
ENDBRANCH  19  20
ENDBRANCH  18  19
ENDBRANCH   1  18
TORSDOF 28
ENDMDL
MODEL 9
REMARK VINA RESULT:    -5.224      4.281     10.159
REMARK INTER + INTRA:         -17.789
REMARK INTER:                 -14.737
REMARK INTRA:                  -3.052
REMARK UNBOUND:                -4.015
REMARK SMILES CCCCCCCCCCCCCCCCCCCCCCCCCCCCCC(=O)[O-]
REMARK SMILES IDX 16 1 17 2 18 3 19 4 20 5 21 6 22 7 23 8 24 9 25 10 26 11
REMARK SMILES IDX 27 12 28 13 29 14 30 15 31 16 32 17 15 18 14 19 13 20 12 21
REMARK SMILES IDX 11 22 10 23 9 24 8 25 7 26 6 27 5 28 4 29 3 30 2 31 1 32
REMARK H PARENT
REMARK Flexibility Score: inf
ROOT
ATOM      1  C   UNL     1      16.821  -4.432  17.634  1.00  0.00     0.000 C 
ENDROOT
BRANCH   1   2
ATOM      2  C   UNL     1      15.343  -4.870  17.591  1.00  0.00     0.000 C 
BRANCH   2   3
ATOM      3  C   UNL     1      15.033  -5.994  16.585  1.00  0.00     0.000 C 
BRANCH   3   4
ATOM      4  C   UNL     1      16.155  -6.212  15.546  1.00  0.00     0.000 C 
BRANCH   4   5
ATOM      5  C   UNL     1      15.939  -7.494  14.729  1.00  0.00     0.000 C 
BRANCH   5   6
ATOM      6  C   UNL     1      17.276  -8.140  14.340  1.00  0.00     0.000 C 
BRANCH   6   7
ATOM      7  C   UNL     1      17.132  -9.641  14.031  1.00  0.00     0.000 C 
BRANCH   7   8
ATOM      8  C   UNL     1      18.254 -10.216  13.141  1.00  0.00     0.000 C 
BRANCH   8   9
ATOM      9  C   UNL     1      17.735 -10.851  11.831  1.00  0.00     0.000 C 
BRANCH   9  10
ATOM     10  C   UNL     1      18.059 -12.353  11.738  1.00  0.00     0.000 C 
BRANCH  10  11
ATOM     11  C   UNL     1      18.955 -12.693  10.536  1.00  0.00     0.000 C 
BRANCH  11  12
ATOM     12  C   UNL     1      18.617 -14.054   9.908  1.00  0.00     0.000 C 
BRANCH  12  13
ATOM     13  C   UNL     1      17.575 -13.906   8.792  1.00  0.00     0.006 C 
BRANCH  13  14
ATOM     14  C   UNL     1      17.949 -12.758   7.846  1.00  0.00     0.053 C 
BRANCH  14  15
ATOM     15  C   UNL     1      18.472 -13.284   6.546  1.00  0.00     0.041 C 
ATOM     16  O   UNL     1      18.355 -14.505   6.261  1.00  0.00    -0.550 OA
ATOM     17  O   UNL     1      19.079 -12.423   5.640  1.00  0.00    -0.550 OA
ENDBRANCH  14  15
ENDBRANCH  13  14
ENDBRANCH  12  13
ENDBRANCH  11  12
ENDBRANCH  10  11
ENDBRANCH   9  10
ENDBRANCH   8   9
ENDBRANCH   7   8
ENDBRANCH   6   7
ENDBRANCH   5   6
ENDBRANCH   4   5
ENDBRANCH   3   4
ENDBRANCH   2   3
ENDBRANCH   1   2
BRANCH   1  18
ATOM     18  C   UNL     1      17.045  -2.915  17.751  1.00  0.00     0.000 C 
BRANCH  18  19
ATOM     19  C   UNL     1      18.491  -2.499  17.443  1.00  0.00     0.000 C 
BRANCH  19  20
ATOM     20  C   UNL     1      18.701  -1.003  17.709  1.00  0.00     0.000 C 
BRANCH  20  21
ATOM     21  C   UNL     1      17.936  -0.550  18.962  1.00  0.00     0.000 C 
BRANCH  21  22
ATOM     22  C   UNL     1      18.888  -0.155  20.111  1.00  0.00     0.000 C 
BRANCH  22  23
ATOM     23  C   UNL     1      18.261  -0.306  21.507  1.00  0.00     0.000 C 
BRANCH  23  24
ATOM     24  C   UNL     1      19.284  -0.145  22.641  1.00  0.00    -0.000 C 
BRANCH  24  25
ATOM     25  C   UNL     1      20.702   0.046  22.082  1.00  0.00    -0.000 C 
BRANCH  25  26
ATOM     26  C   UNL     1      21.732  -0.916  22.704  1.00  0.00    -0.000 C 
BRANCH  26  27
ATOM     27  C   UNL     1      21.133  -2.096  23.490  1.00  0.00    -0.000 C 
BRANCH  27  28
ATOM     28  C   UNL     1      21.149  -3.414  22.698  1.00  0.00    -0.000 C 
BRANCH  28  29
ATOM     29  C   UNL     1      19.765  -3.778  22.135  1.00  0.00    -0.000 C 
BRANCH  29  30
ATOM     30  C   UNL     1      19.702  -3.679  20.605  1.00  0.00    -0.000 C 
BRANCH  30  31
ATOM     31  C   UNL     1      21.108  -3.542  20.005  1.00  0.00    -0.003 C 
ATOM     32  C   UNL     1      21.322  -4.532  18.865  1.00  0.00     0.004 C 
ENDBRANCH  30  31
ENDBRANCH  29  30
ENDBRANCH  28  29
ENDBRANCH  27  28
ENDBRANCH  26  27
ENDBRANCH  25  26
ENDBRANCH  24  25
ENDBRANCH  23  24
ENDBRANCH  22  23
ENDBRANCH  21  22
ENDBRANCH  20  21
ENDBRANCH  19  20
ENDBRANCH  18  19
ENDBRANCH   1  18
TORSDOF 28
ENDMDL
