MODEL 1
REMARK VINA RESULT:    -4.562      0.000      0.000
REMARK INTER + INTRA:         -10.846
REMARK INTER:                  -8.828
REMARK INTRA:                  -2.017
REMARK UNBOUND:                -2.017
REMARK SMILES CCCCCCCCCCCCCCCCCC(=O)[O-]
REMARK SMILES IDX 10 1 11 2 12 3 13 4 14 5 15 6 16 7 17 8 18 9 19 10 20 11
REMARK SMILES IDX 9 12 8 13 7 14 6 15 5 16 4 17 3 18 2 19 1 20
REMARK H PARENT
REMARK Flexibility Score: inf
ROOT
ATOM      1  C   UNL     1     -11.800   3.011   7.096  1.00  0.00     0.000 C 
ENDROOT
BRANCH   1   2
ATOM      2  C   UNL     1     -11.223   4.073   8.045  1.00  0.00     0.000 C 
BRANCH   2   3
ATOM      3  C   UNL     1     -10.690   5.304   7.296  1.00  0.00     0.000 C 
BRANCH   3   4
ATOM      4  C   UNL     1      -9.845   4.883   6.083  1.00  0.00     0.000 C 
BRANCH   4   5
ATOM      5  C   UNL     1      -9.942   5.884   4.920  1.00  0.00     0.000 C 
BRANCH   5   6
ATOM      6  C   UNL     1     -10.180   7.325   5.403  1.00  0.00     0.000 C 
BRANCH   6   7
ATOM      7  C   UNL     1      -9.028   8.272   5.031  1.00  0.00     0.006 C 
BRANCH   7   8
ATOM      8  C   UNL     1      -8.283   8.810   6.260  1.00  0.00     0.053 C 
BRANCH   8   9
ATOM      9  C   UNL     1      -7.955  10.258   6.078  1.00  0.00     0.041 C 
ATOM     10  O   UNL     1      -8.719  11.145   6.545  1.00  0.00    -0.550 OA
ATOM     11  O   UNL     1      -6.781  10.630   5.435  1.00  0.00    -0.550 OA
ENDBRANCH   8   9
ENDBRANCH   7   8
ENDBRANCH   6   7
ENDBRANCH   5   6
ENDBRANCH   4   5
ENDBRANCH   3   4
ENDBRANCH   2   3
ENDBRANCH   1   2
BRANCH   1  12
ATOM     12  C   UNL     1     -13.130   3.450   6.460  1.00  0.00     0.000 C 
BRANCH  12  13
ATOM     13  C   UNL     1     -13.039   3.574   4.931  1.00  0.00    -0.000 C 
BRANCH  13  14
ATOM     14  C   UNL     1     -13.708   4.856   4.404  1.00  0.00    -0.000 C 
BRANCH  14  15
ATOM     15  C   UNL     1     -13.857   5.934   5.490  1.00  0.00    -0.000 C 
BRANCH  15  16
ATOM     16  C   UNL     1     -14.586   7.188   4.979  1.00  0.00    -0.000 C 
BRANCH  16  17
ATOM     17  C   UNL     1     -13.791   8.484   5.218  1.00  0.00    -0.000 C 
BRANCH  17  18
ATOM     18  C   UNL     1     -14.190   9.672   4.323  1.00  0.00    -0.000 C 
BRANCH  18  19
ATOM     19  C   UNL     1     -15.165   9.278   3.205  1.00  0.00    -0.003 C 
ATOM     20  C   UNL     1     -14.563   9.550   1.830  1.00  0.00     0.004 C 
ENDBRANCH  18  19
ENDBRANCH  17  18
ENDBRANCH  16  17
ENDBRANCH  15  16
ENDBRANCH  14  15
ENDBRANCH  13  14
ENDBRANCH  12  13
ENDBRANCH   1  12
TORSDOF 16
ENDMDL
MODEL 2
REMARK VINA RESULT:    -4.543      3.498      6.502
REMARK INTER + INTRA:         -10.810
REMARK INTER:                  -8.799
REMARK INTRA:                  -2.010
REMARK UNBOUND:                -2.017
REMARK SMILES CCCCCCCCCCCCCCCCCC(=O)[O-]
REMARK SMILES IDX 10 1 11 2 12 3 13 4 14 5 15 6 16 7 17 8 18 9 19 10 20 11
REMARK SMILES IDX 9 12 8 13 7 14 6 15 5 16 4 17 3 18 2 19 1 20
REMARK H PARENT
REMARK Flexibility Score: inf
ROOT
ATOM      1  C   UNL     1      -8.669   8.333   5.920  1.00  0.00     0.000 C 
ENDROOT
BRANCH   1   2
ATOM      2  C   UNL     1      -9.897   7.739   5.212  1.00  0.00     0.000 C 
BRANCH   2   3
ATOM      3  C   UNL     1      -9.876   6.202   5.189  1.00  0.00     0.000 C 
BRANCH   3   4
ATOM      4  C   UNL     1      -9.719   5.635   6.608  1.00  0.00     0.000 C 
BRANCH   4   5
ATOM      5  C   UNL     1     -11.066   5.249   7.242  1.00  0.00     0.000 C 
BRANCH   5   6
ATOM      6  C   UNL     1     -11.130   3.761   7.627  1.00  0.00     0.000 C 
BRANCH   6   7
ATOM      7  C   UNL     1     -11.890   2.915   6.593  1.00  0.00     0.006 C 
BRANCH   7   8
ATOM      8  C   UNL     1     -13.029   3.688   5.916  1.00  0.00     0.053 C 
BRANCH   8   9
ATOM      9  C   UNL     1     -12.756   3.841   4.452  1.00  0.00     0.041 C 
ATOM     10  O   UNL     1     -11.696   3.378   3.953  1.00  0.00    -0.550 OA
ATOM     11  O   UNL     1     -13.694   4.453   3.630  1.00  0.00    -0.550 OA
ENDBRANCH   8   9
ENDBRANCH   7   8
ENDBRANCH   6   7
ENDBRANCH   5   6
ENDBRANCH   4   5
ENDBRANCH   3   4
ENDBRANCH   2   3
ENDBRANCH   1   2
BRANCH   1  12
ATOM     12  C   UNL     1      -7.985   9.432   5.087  1.00  0.00     0.000 C 
BRANCH  12  13
ATOM     13  C   UNL     1      -7.266  10.471   5.962  1.00  0.00    -0.000 C 
BRANCH  13  14
ATOM     14  C   UNL     1      -7.909  10.612   7.354  1.00  0.00    -0.000 C 
BRANCH  14  15
ATOM     15  C   UNL     1      -8.458  12.025   7.610  1.00  0.00    -0.000 C 
BRANCH  15  16
ATOM     16  C   UNL     1      -9.959  12.021   7.945  1.00  0.00    -0.000 C 
BRANCH  16  17
ATOM     17  C   UNL     1     -10.849  12.274   6.714  1.00  0.00    -0.000 C 
BRANCH  17  18
ATOM     18  C   UNL     1     -11.408  11.007   6.039  1.00  0.00    -0.000 C 
BRANCH  18  19
ATOM     19  C   UNL     1     -11.323  11.059   4.507  1.00  0.00    -0.003 C 
ATOM     20  C   UNL     1     -10.810  12.414   4.030  1.00  0.00     0.004 C 
ENDBRANCH  18  19
ENDBRANCH  17  18
ENDBRANCH  16  17
ENDBRANCH  15  16
ENDBRANCH  14  15
ENDBRANCH  13  14
ENDBRANCH  12  13
ENDBRANCH   1  12
TORSDOF 16
ENDMDL
MODEL 3
REMARK VINA RESULT:    -4.508      2.227      5.159
REMARK INTER + INTRA:         -10.742
REMARK INTER:                  -8.576
REMARK INTRA:                  -2.166
REMARK UNBOUND:                -2.017
REMARK SMILES CCCCCCCCCCCCCCCCCC(=O)[O-]
REMARK SMILES IDX 10 1 11 2 12 3 13 4 14 5 15 6 16 7 17 8 18 9 19 10 20 11
REMARK SMILES IDX 9 12 8 13 7 14 6 15 5 16 4 17 3 18 2 19 1 20
REMARK H PARENT
REMARK Flexibility Score: inf
ROOT
ATOM      1  C   UNL     1     -11.196   3.872   8.020  1.00  0.00     0.000 C 
ENDROOT
BRANCH   1   2
ATOM      2  C   UNL     1     -11.749   2.889   6.976  1.00  0.00     0.000 C 
BRANCH   2   3
ATOM      3  C   UNL     1     -13.094   3.348   6.391  1.00  0.00     0.000 C 
BRANCH   3   4
ATOM      4  C   UNL     1     -12.985   3.567   4.874  1.00  0.00     0.000 C 
BRANCH   4   5
ATOM      5  C   UNL     1     -13.699   4.847   4.409  1.00  0.00     0.000 C 
BRANCH   5   6
ATOM      6  C   UNL     1     -14.037   5.789   5.577  1.00  0.00     0.000 C 
BRANCH   6   7
ATOM      7  C   UNL     1     -13.942   7.272   5.188  1.00  0.00     0.006 C 
BRANCH   7   8
ATOM      8  C   UNL     1     -12.885   8.032   6.000  1.00  0.00     0.053 C 
BRANCH   8   9
ATOM      9  C   UNL     1     -13.175   9.500   5.988  1.00  0.00     0.041 C 
ATOM     10  O   UNL     1     -13.035  10.182   7.037  1.00  0.00    -0.550 OA
ATOM     11  O   UNL     1     -13.554  10.125   4.806  1.00  0.00    -0.550 OA
ENDBRANCH   8   9
ENDBRANCH   7   8
ENDBRANCH   6   7
ENDBRANCH   5   6
ENDBRANCH   4   5
ENDBRANCH   3   4
ENDBRANCH   2   3
ENDBRANCH   1   2
BRANCH   1  12
ATOM     12  C   UNL     1     -10.967   5.279   7.439  1.00  0.00     0.000 C 
BRANCH  12  13
ATOM     13  C   UNL     1      -9.747   5.338   6.506  1.00  0.00    -0.000 C 
BRANCH  13  14
ATOM     14  C   UNL     1     -10.111   5.835   5.095  1.00  0.00    -0.000 C 
BRANCH  14  15
ATOM     15  C   UNL     1      -9.379   7.134   4.719  1.00  0.00    -0.000 C 
BRANCH  15  16
ATOM     16  C   UNL     1      -9.060   8.006   5.944  1.00  0.00    -0.000 C 
BRANCH  16  17
ATOM     17  C   UNL     1      -9.000   9.508   5.611  1.00  0.00    -0.000 C 
BRANCH  17  18
ATOM     18  C   UNL     1      -7.674   9.990   4.992  1.00  0.00    -0.000 C 
BRANCH  18  19
ATOM     19  C   UNL     1      -6.586  10.256   6.042  1.00  0.00    -0.003 C 
ATOM     20  C   UNL     1      -7.134  11.072   7.208  1.00  0.00     0.004 C 
ENDBRANCH  18  19
ENDBRANCH  17  18
ENDBRANCH  16  17
ENDBRANCH  15  16
ENDBRANCH  14  15
ENDBRANCH  13  14
ENDBRANCH  12  13
ENDBRANCH   1  12
TORSDOF 16
ENDMDL
MODEL 4
REMARK VINA RESULT:    -4.410      2.639      5.517
REMARK INTER + INTRA:         -10.552
REMARK INTER:                  -8.320
REMARK INTRA:                  -2.232
REMARK UNBOUND:                -2.017
REMARK SMILES CCCCCCCCCCCCCCCCCC(=O)[O-]
REMARK SMILES IDX 10 1 11 2 12 3 13 4 14 5 15 6 16 7 17 8 18 9 19 10 20 11
REMARK SMILES IDX 9 12 8 13 7 14 6 15 5 16 4 17 3 18 2 19 1 20
REMARK H PARENT
REMARK Flexibility Score: inf
ROOT
ATOM      1  C   UNL     1      -8.410   8.611   5.940  1.00  0.00     0.000 C 
ENDROOT
BRANCH   1   2
ATOM      2  C   UNL     1      -7.521   9.755   5.428  1.00  0.00     0.000 C 
BRANCH   2   3
ATOM      3  C   UNL     1      -7.404  10.907   6.439  1.00  0.00     0.000 C 
BRANCH   3   4
ATOM      4  C   UNL     1      -8.753  11.171   7.127  1.00  0.00     0.000 C 
BRANCH   4   5
ATOM      5  C   UNL     1      -9.627  12.169   6.349  1.00  0.00     0.000 C 
BRANCH   5   6
ATOM      6  C   UNL     1     -10.909  11.522   5.797  1.00  0.00     0.000 C 
BRANCH   6   7
ATOM      7  C   UNL     1     -10.978  11.562   4.262  1.00  0.00     0.006 C 
BRANCH   7   8
ATOM      8  C   UNL     1     -12.128  10.717   3.698  1.00  0.00     0.053 C 
BRANCH   8   9
ATOM      9  C   UNL     1     -12.646  11.322   2.431  1.00  0.00     0.041 C 
ATOM     10  O   UNL     1     -13.360  12.358   2.469  1.00  0.00    -0.550 OA
ATOM     11  O   UNL     1     -12.299  10.769   1.205  1.00  0.00    -0.550 OA
ENDBRANCH   8   9
ENDBRANCH   7   8
ENDBRANCH   6   7
ENDBRANCH   5   6
ENDBRANCH   4   5
ENDBRANCH   3   4
ENDBRANCH   2   3
ENDBRANCH   1   2
BRANCH   1  12
ATOM     12  C   UNL     1      -9.465   8.179   4.906  1.00  0.00     0.000 C 
BRANCH  12  13
ATOM     13  C   UNL     1      -9.672   6.656   4.879  1.00  0.00    -0.000 C 
BRANCH  13  14
ATOM     14  C   UNL     1      -9.593   6.028   6.282  1.00  0.00    -0.000 C 
BRANCH  14  15
ATOM     15  C   UNL     1     -10.476   4.776   6.420  1.00  0.00    -0.000 C 
BRANCH  15  16
ATOM     16  C   UNL     1     -10.962   4.246   5.062  1.00  0.00    -0.000 C 
BRANCH  16  17
ATOM     17  C   UNL     1     -12.496   4.169   4.962  1.00  0.00    -0.000 C 
BRANCH  17  18
ATOM     18  C   UNL     1     -13.263   5.000   6.010  1.00  0.00    -0.000 C 
BRANCH  18  19
ATOM     19  C   UNL     1     -13.801   6.323   5.447  1.00  0.00    -0.003 C 
ATOM     20  C   UNL     1     -13.128   7.518   6.115  1.00  0.00     0.004 C 
ENDBRANCH  18  19
ENDBRANCH  17  18
ENDBRANCH  16  17
ENDBRANCH  15  16
ENDBRANCH  14  15
ENDBRANCH  13  14
ENDBRANCH  12  13
ENDBRANCH   1  12
TORSDOF 16
ENDMDL
MODEL 5
REMARK VINA RESULT:    -4.370      1.306      4.561
REMARK INTER + INTRA:         -10.475
REMARK INTER:                  -8.193
REMARK INTRA:                  -2.282
REMARK UNBOUND:                -2.017
REMARK SMILES CCCCCCCCCCCCCCCCCC(=O)[O-]
REMARK SMILES IDX 10 1 11 2 12 3 13 4 14 5 15 6 16 7 17 8 18 9 19 10 20 11
REMARK SMILES IDX 9 12 8 13 7 14 6 15 5 16 4 17 3 18 2 19 1 20
REMARK H PARENT
REMARK Flexibility Score: inf
ROOT
ATOM      1  C   UNL     1     -12.891   3.664   4.941  1.00  0.00     0.000 C 
ENDROOT
BRANCH   1   2
ATOM      2  C   UNL     1     -13.677   4.893   4.457  1.00  0.00     0.000 C 
BRANCH   2   3
ATOM      3  C   UNL     1     -13.850   5.951   5.557  1.00  0.00     0.000 C 
BRANCH   3   4
ATOM      4  C   UNL     1     -14.715   7.120   5.062  1.00  0.00     0.000 C 
BRANCH   4   5
ATOM      5  C   UNL     1     -13.983   8.471   5.137  1.00  0.00     0.000 C 
BRANCH   5   6
ATOM      6  C   UNL     1     -14.429   9.443   4.032  1.00  0.00     0.000 C 
BRANCH   6   7
ATOM      7  C   UNL     1     -13.606  10.741   4.020  1.00  0.00     0.006 C 
BRANCH   7   8
ATOM      8  C   UNL     1     -12.101  10.488   3.867  1.00  0.00     0.053 C 
BRANCH   8   9
ATOM      9  C   UNL     1     -11.342  11.187   4.952  1.00  0.00     0.041 C 
ATOM     10  O   UNL     1     -11.507  10.855   6.156  1.00  0.00    -0.550 OA
ATOM     11  O   UNL     1     -10.417  12.172   4.629  1.00  0.00    -0.550 OA
ENDBRANCH   8   9
ENDBRANCH   7   8
ENDBRANCH   6   7
ENDBRANCH   5   6
ENDBRANCH   4   5
ENDBRANCH   3   4
ENDBRANCH   2   3
ENDBRANCH   1   2
BRANCH   1  12
ATOM     12  C   UNL     1     -13.085   3.397   6.445  1.00  0.00     0.000 C 
BRANCH  12  13
ATOM     13  C   UNL     1     -11.796   2.914   7.127  1.00  0.00    -0.000 C 
BRANCH  13  14
ATOM     14  C   UNL     1     -11.234   3.948   8.120  1.00  0.00    -0.000 C 
BRANCH  14  15
ATOM     15  C   UNL     1     -10.842   5.269   7.439  1.00  0.00    -0.000 C 
BRANCH  15  16
ATOM     16  C   UNL     1      -9.774   5.075   6.350  1.00  0.00    -0.000 C 
BRANCH  16  17
ATOM     17  C   UNL     1      -9.993   5.984   5.127  1.00  0.00    -0.000 C 
BRANCH  17  18
ATOM     18  C   UNL     1     -10.146   7.484   5.445  1.00  0.00    -0.000 C 
BRANCH  18  19
ATOM     19  C   UNL     1      -9.035   8.344   4.826  1.00  0.00    -0.003 C 
ATOM     20  C   UNL     1      -8.298   9.143   5.896  1.00  0.00     0.004 C 
ENDBRANCH  18  19
ENDBRANCH  17  18
ENDBRANCH  16  17
ENDBRANCH  15  16
ENDBRANCH  14  15
ENDBRANCH  13  14
ENDBRANCH  12  13
ENDBRANCH   1  12
TORSDOF 16
ENDMDL
MODEL 6
REMARK VINA RESULT:    -4.341      1.528      4.283
REMARK INTER + INTRA:         -10.418
REMARK INTER:                  -8.200
REMARK INTRA:                  -2.218
REMARK UNBOUND:                -2.017
REMARK SMILES CCCCCCCCCCCCCCCCCC(=O)[O-]
REMARK SMILES IDX 10 1 11 2 12 3 13 4 14 5 15 6 16 7 17 8 18 9 19 10 20 11
REMARK SMILES IDX 9 12 8 13 7 14 6 15 5 16 4 17 3 18 2 19 1 20
REMARK H PARENT
REMARK Flexibility Score: inf
ROOT
ATOM      1  C   UNL     1     -14.303   6.733   4.902  1.00  0.00     0.000 C 
ENDROOT
BRANCH   1   2
ATOM      2  C   UNL     1     -13.928   7.938   5.780  1.00  0.00     0.000 C 
BRANCH   2   3
ATOM      3  C   UNL     1     -12.452   8.338   5.632  1.00  0.00     0.000 C 
BRANCH   3   4
ATOM      4  C   UNL     1     -12.284   9.861   5.736  1.00  0.00     0.000 C 
BRANCH   4   5
ATOM      5  C   UNL     1     -11.043  10.371   4.983  1.00  0.00     0.000 C 
BRANCH   5   6
ATOM      6  C   UNL     1      -9.883   9.361   5.010  1.00  0.00     0.000 C 
BRANCH   6   7
ATOM      7  C   UNL     1      -9.006   9.501   6.265  1.00  0.00     0.006 C 
BRANCH   7   8
ATOM      8  C   UNL     1      -7.521   9.240   5.982  1.00  0.00     0.053 C 
BRANCH   8   9
ATOM      9  C   UNL     1      -6.715  10.471   6.255  1.00  0.00     0.041 C 
ATOM     10  O   UNL     1      -5.809  10.825   5.455  1.00  0.00    -0.550 OA
ATOM     11  O   UNL     1      -6.997  11.255   7.367  1.00  0.00    -0.550 OA
ENDBRANCH   8   9
ENDBRANCH   7   8
ENDBRANCH   6   7
ENDBRANCH   5   6
ENDBRANCH   4   5
ENDBRANCH   3   4
ENDBRANCH   2   3
ENDBRANCH   1   2
BRANCH   1  12
ATOM     12  C   UNL     1     -13.812   5.400   5.494  1.00  0.00     0.000 C 
BRANCH  12  13
ATOM     13  C   UNL     1     -13.384   4.398   4.410  1.00  0.00    -0.000 C 
BRANCH  13  14
ATOM     14  C   UNL     1     -12.477   3.285   4.965  1.00  0.00    -0.000 C 
BRANCH  14  15
ATOM     15  C   UNL     1     -12.707   3.026   6.463  1.00  0.00    -0.000 C 
BRANCH  15  16
ATOM     16  C   UNL     1     -11.417   3.160   7.289  1.00  0.00    -0.000 C 
BRANCH  16  17
ATOM     17  C   UNL     1     -11.318   4.503   8.034  1.00  0.00    -0.000 C 
BRANCH  17  18
ATOM     18  C   UNL     1     -10.553   5.612   7.286  1.00  0.00    -0.000 C 
BRANCH  18  19
ATOM     19  C   UNL     1      -9.646   5.067   6.173  1.00  0.00    -0.003 C 
ATOM     20  C   UNL     1      -9.842   5.845   4.876  1.00  0.00     0.004 C 
ENDBRANCH  18  19
ENDBRANCH  17  18
ENDBRANCH  16  17
ENDBRANCH  15  16
ENDBRANCH  14  15
ENDBRANCH  13  14
ENDBRANCH  12  13
ENDBRANCH   1  12
TORSDOF 16
ENDMDL
MODEL 7
REMARK VINA RESULT:    -4.325      1.629      4.100
REMARK INTER + INTRA:         -10.387
REMARK INTER:                  -8.326
REMARK INTRA:                  -2.061
REMARK UNBOUND:                -2.017
REMARK SMILES CCCCCCCCCCCCCCCCCC(=O)[O-]
REMARK SMILES IDX 10 1 11 2 12 3 13 4 14 5 15 6 16 7 17 8 18 9 19 10 20 11
REMARK SMILES IDX 9 12 8 13 7 14 6 15 5 16 4 17 3 18 2 19 1 20
REMARK H PARENT
REMARK Flexibility Score: inf
ROOT
ATOM      1  C   UNL     1     -10.097   6.441   5.505  1.00  0.00     0.000 C 
ENDROOT
BRANCH   1   2
ATOM      2  C   UNL     1      -9.151   7.611   5.821  1.00  0.00     0.000 C 
BRANCH   2   3
ATOM      3  C   UNL     1      -9.259   8.749   4.794  1.00  0.00     0.000 C 
BRANCH   3   4
ATOM      4  C   UNL     1     -10.643   9.414   4.858  1.00  0.00     0.000 C 
BRANCH   4   5
ATOM      5  C   UNL     1     -10.730  10.491   5.953  1.00  0.00     0.000 C 
BRANCH   5   6
ATOM      6  C   UNL     1      -9.935  11.758   5.595  1.00  0.00     0.000 C 
BRANCH   6   7
ATOM      7  C   UNL     1      -9.071  12.263   6.762  1.00  0.00     0.006 C 
BRANCH   7   8
ATOM      8  C   UNL     1      -8.362  11.127   7.510  1.00  0.00     0.053 C 
BRANCH   8   9
ATOM      9  C   UNL     1      -6.904  11.110   7.170  1.00  0.00     0.041 C 
ATOM     10  O   UNL     1      -6.087  11.786   7.849  1.00  0.00    -0.550 OA
ATOM     11  O   UNL     1      -6.441  10.309   6.134  1.00  0.00    -0.550 OA
ENDBRANCH   8   9
ENDBRANCH   7   8
ENDBRANCH   6   7
ENDBRANCH   5   6
ENDBRANCH   4   5
ENDBRANCH   3   4
ENDBRANCH   2   3
ENDBRANCH   1   2
BRANCH   1  12
ATOM     12  C   UNL     1      -9.807   5.201   6.368  1.00  0.00     0.000 C 
BRANCH  12  13
ATOM     13  C   UNL     1     -10.650   5.169   7.653  1.00  0.00    -0.000 C 
BRANCH  13  14
ATOM     14  C   UNL     1     -11.450   3.861   7.797  1.00  0.00    -0.000 C 
BRANCH  14  15
ATOM     15  C   UNL     1     -11.320   2.949   6.566  1.00  0.00    -0.000 C 
BRANCH  15  16
ATOM     16  C   UNL     1     -12.623   2.870   5.752  1.00  0.00    -0.000 C 
BRANCH  16  17
ATOM     17  C   UNL     1     -12.601   3.761   4.497  1.00  0.00    -0.000 C 
BRANCH  17  18
ATOM     18  C   UNL     1     -13.743   4.791   4.406  1.00  0.00    -0.000 C 
BRANCH  18  19
ATOM     19  C   UNL     1     -13.818   5.712   5.632  1.00  0.00    -0.003 C 
ATOM     20  C   UNL     1     -14.028   7.164   5.217  1.00  0.00     0.004 C 
ENDBRANCH  18  19
ENDBRANCH  17  18
ENDBRANCH  16  17
ENDBRANCH  15  16
ENDBRANCH  14  15
ENDBRANCH  13  14
ENDBRANCH  12  13
ENDBRANCH   1  12
TORSDOF 16
ENDMDL
MODEL 8
REMARK VINA RESULT:    -4.303      2.136      5.359
REMARK INTER + INTRA:         -10.345
REMARK INTER:                  -8.747
REMARK INTRA:                  -1.598
REMARK UNBOUND:                -2.017
REMARK SMILES CCCCCCCCCCCCCCCCCC(=O)[O-]
REMARK SMILES IDX 10 1 11 2 12 3 13 4 14 5 15 6 16 7 17 8 18 9 19 10 20 11
REMARK SMILES IDX 9 12 8 13 7 14 6 15 5 16 4 17 3 18 2 19 1 20
REMARK H PARENT
REMARK Flexibility Score: inf
ROOT
ATOM      1  C   UNL     1     -13.355   4.621   4.969  1.00  0.00     0.000 C 
ENDROOT
BRANCH   1   2
ATOM      2  C   UNL     1     -14.208   5.888   5.143  1.00  0.00     0.000 C 
BRANCH   2   3
ATOM      3  C   UNL     1     -13.434   7.029   5.821  1.00  0.00     0.000 C 
BRANCH   3   4
ATOM      4  C   UNL     1     -13.870   8.393   5.264  1.00  0.00     0.000 C 
BRANCH   4   5
ATOM      5  C   UNL     1     -15.070   8.285   4.308  1.00  0.00     0.000 C 
BRANCH   5   6
ATOM      6  C   UNL     1     -15.360   9.607   3.577  1.00  0.00     0.000 C 
BRANCH   6   7
ATOM      7  C   UNL     1     -14.803   9.625   2.145  1.00  0.00     0.006 C 
BRANCH   7   8
ATOM      8  C   UNL     1     -14.287  11.008   1.726  1.00  0.00     0.053 C 
BRANCH   8   9
ATOM      9  C   UNL     1     -12.792  11.020   1.697  1.00  0.00     0.041 C 
ATOM     10  O   UNL     1     -12.172  10.492   0.737  1.00  0.00    -0.550 OA
ATOM     11  O   UNL     1     -12.082  11.659   2.706  1.00  0.00    -0.550 OA
ENDBRANCH   8   9
ENDBRANCH   7   8
ENDBRANCH   6   7
ENDBRANCH   5   6
ENDBRANCH   4   5
ENDBRANCH   3   4
ENDBRANCH   2   3
ENDBRANCH   1   2
BRANCH   1  12
ATOM     12  C   UNL     1     -13.149   3.865   6.294  1.00  0.00     0.000 C 
BRANCH  12  13
ATOM     13  C   UNL     1     -11.665   3.603   6.597  1.00  0.00    -0.000 C 
BRANCH  13  14
ATOM     14  C   UNL     1     -10.965   4.833   7.205  1.00  0.00    -0.000 C 
BRANCH  14  15
ATOM     15  C   UNL     1      -9.729   5.267   6.400  1.00  0.00    -0.000 C 
BRANCH  15  16
ATOM     16  C   UNL     1     -10.099   6.027   5.116  1.00  0.00    -0.000 C 
BRANCH  16  17
ATOM     17  C   UNL     1      -9.277   7.314   4.924  1.00  0.00    -0.000 C 
BRANCH  17  18
ATOM     18  C   UNL     1     -10.058   8.627   5.126  1.00  0.00    -0.000 C 
BRANCH  18  19
ATOM     19  C   UNL     1      -9.154   9.809   5.505  1.00  0.00    -0.003 C 
ATOM     20  C   UNL     1      -7.692   9.380   5.581  1.00  0.00     0.004 C 
ENDBRANCH  18  19
ENDBRANCH  17  18
ENDBRANCH  16  17
ENDBRANCH  15  16
ENDBRANCH  14  15
ENDBRANCH  13  14
ENDBRANCH  12  13
ENDBRANCH   1  12
TORSDOF 16
ENDMDL
MODEL 9
REMARK VINA RESULT:    -4.269      2.732      5.965
REMARK INTER + INTRA:         -10.279
REMARK INTER:                  -8.388
REMARK INTRA:                  -1.891
REMARK UNBOUND:                -2.017
REMARK SMILES CCCCCCCCCCCCCCCCCC(=O)[O-]
REMARK SMILES IDX 10 1 11 2 12 3 13 4 14 5 15 6 16 7 17 8 18 9 19 10 20 11
REMARK SMILES IDX 9 12 8 13 7 14 6 15 5 16 4 17 3 18 2 19 1 20
REMARK H PARENT
REMARK Flexibility Score: inf
ROOT
ATOM      1  C   UNL     1      -8.258   8.572   5.819  1.00  0.00     0.000 C 
ENDROOT
BRANCH   1   2
ATOM      2  C   UNL     1      -7.466   9.766   5.260  1.00  0.00     0.000 C 
BRANCH   2   3
ATOM      3  C   UNL     1      -7.000  10.730   6.362  1.00  0.00     0.000 C 
BRANCH   3   4
ATOM      4  C   UNL     1      -7.903  10.623   7.601  1.00  0.00     0.000 C 
BRANCH   4   5
ATOM      5  C   UNL     1      -8.857  11.820   7.743  1.00  0.00     0.000 C 
BRANCH   5   6
ATOM      6  C   UNL     1     -10.236  11.550   7.118  1.00  0.00     0.000 C 
BRANCH   6   7
ATOM      7  C   UNL     1     -10.495  12.402   5.865  1.00  0.00     0.006 C 
BRANCH   7   8
ATOM      8  C   UNL     1     -10.656  11.557   4.595  1.00  0.00     0.053 C 
BRANCH   8   9
ATOM      9  C   UNL     1     -12.072  11.605   4.114  1.00  0.00     0.041 C 
ATOM     10  O   UNL     1     -13.021  11.387   4.912  1.00  0.00    -0.550 OA
ATOM     11  O   UNL     1     -12.346  11.938   2.793  1.00  0.00    -0.550 OA
ENDBRANCH   8   9
ENDBRANCH   7   8
ENDBRANCH   6   7
ENDBRANCH   5   6
ENDBRANCH   4   5
ENDBRANCH   3   4
ENDBRANCH   2   3
ENDBRANCH   1   2
BRANCH   1  12
ATOM     12  C   UNL     1      -9.393   8.129   4.879  1.00  0.00     0.000 C 
BRANCH  12  13
ATOM     13  C   UNL     1     -10.453   7.280   5.598  1.00  0.00    -0.000 C 
BRANCH  13  14
ATOM     14  C   UNL     1      -9.947   5.863   5.926  1.00  0.00    -0.000 C 
BRANCH  14  15
ATOM     15  C   UNL     1     -10.296   4.842   4.831  1.00  0.00    -0.000 C 
BRANCH  15  16
ATOM     16  C   UNL     1     -11.794   4.493   4.807  1.00  0.00    -0.000 C 
BRANCH  16  17
ATOM     17  C   UNL     1     -12.108   3.154   5.499  1.00  0.00    -0.000 C 
BRANCH  17  18
ATOM     18  C   UNL     1     -12.714   3.273   6.910  1.00  0.00    -0.000 C 
BRANCH  18  19
ATOM     19  C   UNL     1     -11.663   3.162   8.024  1.00  0.00    -0.003 C 
ATOM     20  C   UNL     1     -11.644   4.419   8.888  1.00  0.00     0.004 C 
ENDBRANCH  18  19
ENDBRANCH  17  18
ENDBRANCH  16  17
ENDBRANCH  15  16
ENDBRANCH  14  15
ENDBRANCH  13  14
ENDBRANCH  12  13
ENDBRANCH   1  12
TORSDOF 16
ENDMDL
