MODEL 1
REMARK VINA RESULT:    -6.169      0.000      0.000
REMARK INTER + INTRA:          -7.520
REMARK INTER:                  -7.251
REMARK INTRA:                  -0.269
REMARK UNBOUND:                -0.269
REMARK SMILES O=c1cc(-c2ccc(O)c(O)c2)oc2cc(O)cc(O)c12
REMARK SMILES IDX 4 1 3 2 2 3 1 4 21 5 19 6 18 7 16 8 15 9 14 10 13 11 5 12
REMARK SMILES IDX 6 13 7 14 8 15 12 16 10 17 9 18 11 20 20 22 17 24
REMARK H PARENT 9 19 11 21 20 23 17 25
REMARK Flexibility Score: inf
ROOT
ATOM      1  C   UNL     1      47.145  29.260  15.150  1.00  0.00     0.138 A 
ATOM      2  C   UNL     1      45.771  29.435  14.939  1.00  0.00     0.100 A 
ATOM      3  C   UNL     1      44.861  28.601  15.591  1.00  0.00     0.197 A 
ATOM      4  O   UNL     1      43.632  28.823  15.431  1.00  0.00    -0.289 OA
ATOM      5  C   UNL     1      45.333  27.568  16.435  1.00  0.00     0.107 A 
ATOM      6  C   UNL     1      44.499  26.633  17.118  1.00  0.00     0.134 A 
ATOM      7  C   UNL     1      45.074  25.726  18.017  1.00  0.00     0.093 A 
ATOM      8  C   UNL     1      46.454  25.680  18.212  1.00  0.00     0.123 A 
ATOM      9  C   UNL     1      47.283  26.553  17.508  1.00  0.00     0.094 A 
ATOM     10  C   UNL     1      46.738  27.493  16.630  1.00  0.00     0.146 A 
ATOM     11  O   UNL     1      47.560  28.317  15.989  1.00  0.00    -0.456 OA
ENDROOT
BRANCH   1  12
ATOM     12  C   UNL     1      48.156  30.117  14.481  1.00  0.00     0.021 A 
ATOM     13  C   UNL     1      48.288  31.460  14.867  1.00  0.00     0.016 A 
ATOM     14  C   UNL     1      49.235  32.284  14.257  1.00  0.00     0.051 A 
ATOM     15  C   UNL     1      50.078  31.787  13.259  1.00  0.00     0.157 A 
ATOM     16  C   UNL     1      49.015  29.611  13.486  1.00  0.00     0.062 A 
ATOM     17  C   UNL     1      49.970  30.430  12.872  1.00  0.00     0.158 A 
BRANCH  15  18
ATOM     18  O   UNL     1      51.000  32.665  12.686  1.00  0.00    -0.504 OA
ATOM     19  H   UNL     1      51.514  33.362  13.205  1.00  0.00     0.293 HD
ENDBRANCH  15  18
BRANCH  17  20
ATOM     20  O   UNL     1      50.788  29.859  11.895  1.00  0.00    -0.504 OA
ATOM     21  H   UNL     1      51.153  28.919  11.941  1.00  0.00     0.293 HD
ENDBRANCH  17  20
ENDBRANCH   1  12
BRANCH   6  22
ATOM     22  O   UNL     1      43.117  26.536  16.933  1.00  0.00    -0.507 OA
ATOM     23  H   UNL     1      42.594  27.036  16.231  1.00  0.00     0.293 HD
ENDBRANCH   6  22
BRANCH   8  24
ATOM     24  O   UNL     1      46.992  24.754  19.104  1.00  0.00    -0.508 OA
ATOM     25  H   UNL     1      46.657  23.799  19.141  1.00  0.00     0.293 HD
ENDBRANCH   8  24
TORSDOF 5
ENDMDL
MODEL 2
REMARK VINA RESULT:    -5.973      0.808      1.590
REMARK INTER + INTRA:          -7.290
REMARK INTER:                  -7.025
REMARK INTRA:                  -0.265
REMARK UNBOUND:                -0.269
REMARK SMILES O=c1cc(-c2ccc(O)c(O)c2)oc2cc(O)cc(O)c12
REMARK SMILES IDX 4 1 3 2 2 3 1 4 21 5 19 6 18 7 16 8 15 9 14 10 13 11 5 12
REMARK SMILES IDX 6 13 7 14 8 15 12 16 10 17 9 18 11 20 20 22 17 24
REMARK H PARENT 9 19 11 21 20 23 17 25
REMARK Flexibility Score: inf
ROOT
ATOM      1  C   UNL     1      47.122  28.731  15.052  1.00  0.00     0.138 A 
ATOM      2  C   UNL     1      45.798  29.109  14.789  1.00  0.00     0.100 A 
ATOM      3  C   UNL     1      44.762  28.571  15.555  1.00  0.00     0.197 A 
ATOM      4  O   UNL     1      43.590  28.977  15.339  1.00  0.00    -0.289 OA
ATOM      5  C   UNL     1      45.053  27.627  16.568  1.00  0.00     0.107 A 
ATOM      6  C   UNL     1      44.075  26.982  17.382  1.00  0.00     0.134 A 
ATOM      7  C   UNL     1      44.490  26.151  18.430  1.00  0.00     0.093 A 
ATOM      8  C   UNL     1      45.842  25.894  18.655  1.00  0.00     0.123 A 
ATOM      9  C   UNL     1      46.805  26.476  17.830  1.00  0.00     0.094 A 
ATOM     10  C   UNL     1      46.424  27.337  16.798  1.00  0.00     0.146 A 
ATOM     11  O   UNL     1      47.373  27.883  16.044  1.00  0.00    -0.456 OA
ENDROOT
BRANCH   1  12
ATOM     12  C   UNL     1      48.261  29.271  14.268  1.00  0.00     0.021 A 
ATOM     13  C   UNL     1      48.939  28.434  13.369  1.00  0.00     0.016 A 
ATOM     14  C   UNL     1      50.009  28.920  12.616  1.00  0.00     0.051 A 
ATOM     15  C   UNL     1      50.419  30.251  12.733  1.00  0.00     0.157 A 
ATOM     16  C   UNL     1      48.663  30.616  14.376  1.00  0.00     0.062 A 
ATOM     17  C   UNL     1      49.733  31.112  13.621  1.00  0.00     0.158 A 
BRANCH  15  18
ATOM     18  O   UNL     1      51.499  30.673  11.955  1.00  0.00    -0.504 OA
ATOM     19  H   UNL     1      52.433  30.298  12.035  1.00  0.00     0.293 HD
ENDBRANCH  15  18
BRANCH  17  20
ATOM     20  O   UNL     1      50.075  32.457  13.780  1.00  0.00    -0.504 OA
ATOM     21  H   UNL     1      50.980  32.842  13.551  1.00  0.00     0.293 HD
ENDBRANCH  17  20
ENDBRANCH   1  12
BRANCH   6  22
ATOM     22  O   UNL     1      42.695  27.102  17.191  1.00  0.00    -0.507 OA
ATOM     23  H   UNL     1      42.259  27.455  16.353  1.00  0.00     0.293 HD
ENDBRANCH   6  22
BRANCH   8  24
ATOM     24  O   UNL     1      46.217  25.049  19.699  1.00  0.00    -0.508 OA
ATOM     25  H   UNL     1      46.108  25.324  20.667  1.00  0.00     0.293 HD
ENDBRANCH   8  24
TORSDOF 5
ENDMDL
MODEL 3
REMARK VINA RESULT:    -5.864      1.074      2.623
REMARK INTER + INTRA:          -7.161
REMARK INTER:                  -6.890
REMARK INTRA:                  -0.272
REMARK UNBOUND:                -0.269
REMARK SMILES O=c1cc(-c2ccc(O)c(O)c2)oc2cc(O)cc(O)c12
REMARK SMILES IDX 4 1 3 2 2 3 1 4 21 5 19 6 18 7 16 8 15 9 14 10 13 11 5 12
REMARK SMILES IDX 6 13 7 14 8 15 12 16 10 17 9 18 11 20 20 22 17 24
REMARK H PARENT 9 19 11 21 20 23 17 25
REMARK Flexibility Score: inf
ROOT
ATOM      1  C   UNL     1      47.896  28.862  15.284  1.00  0.00     0.138 A 
ATOM      2  C   UNL     1      48.539  27.781  15.902  1.00  0.00     0.100 A 
ATOM      3  C   UNL     1      47.782  26.825  16.582  1.00  0.00     0.197 A 
ATOM      4  O   UNL     1      48.381  25.832  17.072  1.00  0.00    -0.289 OA
ATOM      5  C   UNL     1      46.378  26.971  16.669  1.00  0.00     0.107 A 
ATOM      6  C   UNL     1      45.510  26.081  17.371  1.00  0.00     0.134 A 
ATOM      7  C   UNL     1      44.124  26.265  17.291  1.00  0.00     0.093 A 
ATOM      8  C   UNL     1      43.577  27.337  16.586  1.00  0.00     0.123 A 
ATOM      9  C   UNL     1      44.418  28.243  15.942  1.00  0.00     0.094 A 
ATOM     10  C   UNL     1      45.804  28.069  15.974  1.00  0.00     0.146 A 
ATOM     11  O   UNL     1      46.570  28.947  15.334  1.00  0.00    -0.456 OA
ENDROOT
BRANCH   1  12
ATOM     12  C   UNL     1      48.652  29.907  14.549  1.00  0.00     0.021 A 
ATOM     13  C   UNL     1      48.468  31.257  14.884  1.00  0.00     0.016 A 
ATOM     14  C   UNL     1      49.171  32.257  14.212  1.00  0.00     0.051 A 
ATOM     15  C   UNL     1      50.080  31.935  13.200  1.00  0.00     0.157 A 
ATOM     16  C   UNL     1      49.578  29.580  13.540  1.00  0.00     0.062 A 
ATOM     17  C   UNL     1      50.291  30.577  12.863  1.00  0.00     0.158 A 
BRANCH  15  18
ATOM     18  O   UNL     1      50.748  32.983  12.563  1.00  0.00    -0.504 OA
ATOM     19  H   UNL     1      51.496  33.515  12.984  1.00  0.00     0.293 HD
ENDBRANCH  15  18
BRANCH  17  20
ATOM     20  O   UNL     1      51.193  30.177  11.875  1.00  0.00    -0.504 OA
ATOM     21  H   UNL     1      52.192  30.310  11.935  1.00  0.00     0.293 HD
ENDBRANCH  17  20
ENDBRANCH   1  12
BRANCH   6  22
ATOM     22  O   UNL     1      45.955  25.028  18.175  1.00  0.00    -0.507 OA
ATOM     23  H   UNL     1      45.432  24.187  18.364  1.00  0.00     0.293 HD
ENDBRANCH   6  22
BRANCH   8  24
ATOM     24  O   UNL     1      42.193  27.495  16.541  1.00  0.00    -0.508 OA
ATOM     25  H   UNL     1      41.684  27.922  17.305  1.00  0.00     0.293 HD
ENDBRANCH   8  24
TORSDOF 5
ENDMDL
MODEL 4
REMARK VINA RESULT:    -5.852      1.594      7.240
REMARK INTER + INTRA:          -7.148
REMARK INTER:                  -6.875
REMARK INTRA:                  -0.273
REMARK UNBOUND:                -0.269
REMARK SMILES O=c1cc(-c2ccc(O)c(O)c2)oc2cc(O)cc(O)c12
REMARK SMILES IDX 4 1 3 2 2 3 1 4 21 5 19 6 18 7 16 8 15 9 14 10 13 11 5 12
REMARK SMILES IDX 6 13 7 14 8 15 12 16 10 17 9 18 11 20 20 22 17 24
REMARK H PARENT 9 19 11 21 20 23 17 25
REMARK Flexibility Score: inf
ROOT
ATOM      1  C   UNL     1      47.943  28.509  14.653  1.00  0.00     0.138 A 
ATOM      2  C   UNL     1      48.725  27.456  14.159  1.00  0.00     0.100 A 
ATOM      3  C   UNL     1      49.915  27.737  13.485  1.00  0.00     0.197 A 
ATOM      4  O   UNL     1      50.627  26.769  13.109  1.00  0.00    -0.289 OA
ATOM      5  C   UNL     1      50.306  29.080  13.280  1.00  0.00     0.107 A 
ATOM      6  C   UNL     1      51.477  29.486  12.571  1.00  0.00     0.134 A 
ATOM      7  C   UNL     1      51.822  30.843  12.531  1.00  0.00     0.093 A 
ATOM      8  C   UNL     1      51.011  31.812  13.119  1.00  0.00     0.123 A 
ATOM      9  C   UNL     1      49.835  31.432  13.767  1.00  0.00     0.094 A 
ATOM     10  C   UNL     1      49.481  30.083  13.855  1.00  0.00     0.146 A 
ATOM     11  O   UNL     1      48.361  29.761  14.494  1.00  0.00    -0.456 OA
ENDROOT
BRANCH   1  12
ATOM     12  C   UNL     1      46.669  28.267  15.375  1.00  0.00     0.021 A 
ATOM     13  C   UNL     1      45.503  28.928  14.960  1.00  0.00     0.016 A 
ATOM     14  C   UNL     1      44.291  28.713  15.618  1.00  0.00     0.051 A 
ATOM     15  C   UNL     1      44.212  27.827  16.698  1.00  0.00     0.157 A 
ATOM     16  C   UNL     1      46.588  27.364  16.452  1.00  0.00     0.062 A 
ATOM     17  C   UNL     1      45.375  27.139  17.116  1.00  0.00     0.158 A 
BRANCH  15  18
ATOM     18  O   UNL     1      42.972  27.661  17.316  1.00  0.00    -0.504 OA
ATOM     19  H   UNL     1      42.615  26.772  17.636  1.00  0.00     0.293 HD
ENDBRANCH  15  18
BRANCH  17  20
ATOM     20  O   UNL     1      45.371  26.228  18.175  1.00  0.00    -0.504 OA
ATOM     21  H   UNL     1      45.817  26.393  19.065  1.00  0.00     0.293 HD
ENDBRANCH  17  20
ENDBRANCH   1  12
BRANCH   6  22
ATOM     22  O   UNL     1      52.313  28.609  11.875  1.00  0.00    -0.507 OA
ATOM     23  H   UNL     1      52.763  27.801  12.277  1.00  0.00     0.293 HD
ENDBRANCH   6  22
BRANCH   8  24
ATOM     24  O   UNL     1      51.379  33.154  13.046  1.00  0.00    -0.508 OA
ATOM     25  H   UNL     1      51.582  33.694  13.878  1.00  0.00     0.293 HD
ENDBRANCH   8  24
TORSDOF 5
ENDMDL
MODEL 5
REMARK VINA RESULT:    -5.759      3.249      6.301
REMARK INTER + INTRA:          -7.038
REMARK INTER:                  -6.731
REMARK INTRA:                  -0.307
REMARK UNBOUND:                -0.269
REMARK SMILES O=c1cc(-c2ccc(O)c(O)c2)oc2cc(O)cc(O)c12
REMARK SMILES IDX 4 1 3 2 2 3 1 4 21 5 19 6 18 7 16 8 15 9 14 10 13 11 5 12
REMARK SMILES IDX 6 13 7 14 8 15 12 16 10 17 9 18 11 20 20 22 17 24
REMARK H PARENT 9 19 11 21 20 23 17 25
REMARK Flexibility Score: inf
ROOT
ATOM      1  C   UNL     1      47.324  26.085  18.541  1.00  0.00     0.138 A 
ATOM      2  C   UNL     1      46.089  25.582  18.972  1.00  0.00     0.100 A 
ATOM      3  C   UNL     1      44.912  26.037  18.373  1.00  0.00     0.197 A 
ATOM      4  O   UNL     1      43.823  25.521  18.736  1.00  0.00    -0.289 OA
ATOM      5  C   UNL     1      44.974  27.022  17.360  1.00  0.00     0.107 A 
ATOM      6  C   UNL     1      43.838  27.590  16.708  1.00  0.00     0.134 A 
ATOM      7  C   UNL     1      44.027  28.474  15.640  1.00  0.00     0.093 A 
ATOM      8  C   UNL     1      45.306  28.858  15.238  1.00  0.00     0.123 A 
ATOM      9  C   UNL     1      46.423  28.352  15.904  1.00  0.00     0.094 A 
ATOM     10  C   UNL     1      46.268  27.440  16.952  1.00  0.00     0.146 A 
ATOM     11  O   UNL     1      47.358  26.970  17.550  1.00  0.00    -0.456 OA
ENDROOT
BRANCH   1  12
ATOM     12  C   UNL     1      48.605  25.637  19.143  1.00  0.00     0.021 A 
ATOM     13  C   UNL     1      48.699  24.348  19.688  1.00  0.00     0.016 A 
ATOM     14  C   UNL     1      49.894  23.901  20.254  1.00  0.00     0.051 A 
ATOM     15  C   UNL     1      51.024  24.725  20.281  1.00  0.00     0.157 A 
ATOM     16  C   UNL     1      49.746  26.463  19.156  1.00  0.00     0.062 A 
ATOM     17  C   UNL     1      50.950  26.021  19.719  1.00  0.00     0.158 A 
BRANCH  15  18
ATOM     18  O   UNL     1      52.186  24.220  20.867  1.00  0.00    -0.504 OA
ATOM     19  H   UNL     1      52.371  24.236  21.859  1.00  0.00     0.293 HD
ENDBRANCH  15  18
BRANCH  17  20
ATOM     20  O   UNL     1      52.040  26.894  19.695  1.00  0.00    -0.504 OA
ATOM     21  H   UNL     1      52.373  27.359  18.864  1.00  0.00     0.293 HD
ENDBRANCH  17  20
ENDBRANCH   1  12
BRANCH   6  22
ATOM     22  O   UNL     1      42.515  27.340  17.085  1.00  0.00    -0.507 OA
ATOM     23  H   UNL     1      41.755  27.995  16.988  1.00  0.00     0.293 HD
ENDBRANCH   6  22
BRANCH   8  24
ATOM     24  O   UNL     1      45.455  29.753  14.180  1.00  0.00    -0.508 OA
ATOM     25  H   UNL     1      45.978  29.507  13.348  1.00  0.00     0.293 HD
ENDBRANCH   8  24
TORSDOF 5
ENDMDL
MODEL 6
REMARK VINA RESULT:    -5.534      4.086      5.582
REMARK INTER + INTRA:          -6.774
REMARK INTER:                  -6.507
REMARK INTRA:                  -0.268
REMARK UNBOUND:                -0.269
REMARK SMILES O=c1cc(-c2ccc(O)c(O)c2)oc2cc(O)cc(O)c12
REMARK SMILES IDX 4 1 3 2 2 3 1 4 21 5 19 6 18 7 16 8 15 9 14 10 13 11 5 12
REMARK SMILES IDX 6 13 7 14 8 15 12 16 10 17 9 18 11 20 20 22 17 24
REMARK H PARENT 9 19 11 21 20 23 17 25
REMARK Flexibility Score: inf
ROOT
ATOM      1  C   UNL     1      47.975  26.377  18.519  1.00  0.00     0.138 A 
ATOM      2  C   UNL     1      47.314  25.336  19.185  1.00  0.00     0.100 A 
ATOM      3  C   UNL     1      45.943  25.153  18.992  1.00  0.00     0.197 A 
ATOM      4  O   UNL     1      45.391  24.171  19.553  1.00  0.00    -0.289 OA
ATOM      5  C   UNL     1      45.227  26.037  18.152  1.00  0.00     0.107 A 
ATOM      6  C   UNL     1      43.821  25.972  17.914  1.00  0.00     0.134 A 
ATOM      7  C   UNL     1      43.241  26.831  16.973  1.00  0.00     0.093 A 
ATOM      8  C   UNL     1      44.003  27.791  16.306  1.00  0.00     0.123 A 
ATOM      9  C   UNL     1      45.368  27.899  16.571  1.00  0.00     0.094 A 
ATOM     10  C   UNL     1      45.983  27.034  17.479  1.00  0.00     0.146 A 
ATOM     11  O   UNL     1      47.288  27.161  17.693  1.00  0.00    -0.456 OA
ENDROOT
BRANCH   1  12
ATOM     12  C   UNL     1      49.430  26.617  18.689  1.00  0.00     0.021 A 
ATOM     13  C   UNL     1      50.348  25.814  17.996  1.00  0.00     0.016 A 
ATOM     14  C   UNL     1      51.721  26.024  18.134  1.00  0.00     0.051 A 
ATOM     15  C   UNL     1      52.208  27.045  18.956  1.00  0.00     0.157 A 
ATOM     16  C   UNL     1      49.918  27.655  19.505  1.00  0.00     0.062 A 
ATOM     17  C   UNL     1      51.294  27.875  19.647  1.00  0.00     0.158 A 
BRANCH  15  18
ATOM     18  O   UNL     1      53.592  27.199  19.055  1.00  0.00    -0.504 OA
ATOM     19  H   UNL     1      54.216  26.488  19.409  1.00  0.00     0.293 HD
ENDBRANCH  15  18
BRANCH  17  20
ATOM     20  O   UNL     1      51.706  28.924  20.472  1.00  0.00    -0.504 OA
ATOM     21  H   UNL     1      51.095  29.416  21.108  1.00  0.00     0.293 HD
ENDBRANCH  17  20
ENDBRANCH   1  12
BRANCH   6  22
ATOM     22  O   UNL     1      42.954  25.108  18.588  1.00  0.00    -0.507 OA
ATOM     23  H   UNL     1      41.948  25.171  18.568  1.00  0.00     0.293 HD
ENDBRANCH   6  22
BRANCH   8  24
ATOM     24  O   UNL     1      43.388  28.638  15.386  1.00  0.00    -0.508 OA
ATOM     25  H   UNL     1      43.416  28.450  14.392  1.00  0.00     0.293 HD
ENDBRANCH   8  24
TORSDOF 5
ENDMDL
MODEL 7
REMARK VINA RESULT:    -5.516      2.477      7.783
REMARK INTER + INTRA:          -6.752
REMARK INTER:                  -6.458
REMARK INTRA:                  -0.295
REMARK UNBOUND:                -0.269
REMARK SMILES O=c1cc(-c2ccc(O)c(O)c2)oc2cc(O)cc(O)c12
REMARK SMILES IDX 4 1 3 2 2 3 1 4 21 5 19 6 18 7 16 8 15 9 14 10 13 11 5 12
REMARK SMILES IDX 6 13 7 14 8 15 12 16 10 17 9 18 11 20 20 22 17 24
REMARK H PARENT 9 19 11 21 20 23 17 25
REMARK Flexibility Score: inf
ROOT
ATOM      1  C   UNL     1      45.181  26.204  18.067  1.00  0.00     0.138 A 
ATOM      2  C   UNL     1      44.168  26.941  17.440  1.00  0.00     0.100 A 
ATOM      3  C   UNL     1      44.492  27.810  16.395  1.00  0.00     0.197 A 
ATOM      4  O   UNL     1      43.554  28.410  15.809  1.00  0.00    -0.289 OA
ATOM      5  C   UNL     1      45.842  27.962  16.001  1.00  0.00     0.107 A 
ATOM      6  C   UNL     1      46.294  28.848  14.978  1.00  0.00     0.134 A 
ATOM      7  C   UNL     1      47.641  28.829  14.595  1.00  0.00     0.093 A 
ATOM      8  C   UNL     1      48.562  28.002  15.237  1.00  0.00     0.123 A 
ATOM      9  C   UNL     1      48.141  27.171  16.276  1.00  0.00     0.094 A 
ATOM     10  C   UNL     1      46.797  27.141  16.657  1.00  0.00     0.146 A 
ATOM     11  O   UNL     1      46.434  26.325  17.641  1.00  0.00    -0.456 OA
ENDROOT
BRANCH   1  12
ATOM     12  C   UNL     1      44.892  25.268  19.183  1.00  0.00     0.021 A 
ATOM     13  C   UNL     1      45.855  24.316  19.553  1.00  0.00     0.016 A 
ATOM     14  C   UNL     1      45.610  23.429  20.602  1.00  0.00     0.051 A 
ATOM     15  C   UNL     1      44.406  23.477  21.312  1.00  0.00     0.157 A 
ATOM     16  C   UNL     1      43.686  25.328  19.906  1.00  0.00     0.062 A 
ATOM     17  C   UNL     1      43.434  24.444  20.963  1.00  0.00     0.158 A 
BRANCH  15  18
ATOM     18  O   UNL     1      44.222  22.559  22.347  1.00  0.00    -0.504 OA
ATOM     19  H   UNL     1      43.586  22.698  23.119  1.00  0.00     0.293 HD
ENDBRANCH  15  18
BRANCH  17  20
ATOM     20  O   UNL     1      42.216  24.563  21.637  1.00  0.00    -0.504 OA
ATOM     21  H   UNL     1      41.999  25.305  22.285  1.00  0.00     0.293 HD
ENDBRANCH  17  20
ENDBRANCH   1  12
BRANCH   6  22
ATOM     22  O   UNL     1      45.475  29.777  14.330  1.00  0.00    -0.507 OA
ATOM     23  H   UNL     1      45.755  30.344  13.545  1.00  0.00     0.293 HD
ENDBRANCH   6  22
BRANCH   8  24
ATOM     24  O   UNL     1      49.897  28.021  14.839  1.00  0.00    -0.508 OA
ATOM     25  H   UNL     1      50.413  28.889  14.758  1.00  0.00     0.293 HD
ENDBRANCH   8  24
TORSDOF 5
ENDMDL
MODEL 8
REMARK VINA RESULT:    -5.442      1.742      7.273
REMARK INTER + INTRA:          -6.665
REMARK INTER:                  -6.367
REMARK INTRA:                  -0.299
REMARK UNBOUND:                -0.269
REMARK SMILES O=c1cc(-c2ccc(O)c(O)c2)oc2cc(O)cc(O)c12
REMARK SMILES IDX 4 1 3 2 2 3 1 4 21 5 19 6 18 7 16 8 15 9 14 10 13 11 5 12
REMARK SMILES IDX 6 13 7 14 8 15 12 16 10 17 9 18 11 20 20 22 17 24
REMARK H PARENT 9 19 11 21 20 23 17 25
REMARK Flexibility Score: inf
ROOT
ATOM      1  C   UNL     1      47.602  27.282  15.646  1.00  0.00     0.138 A 
ATOM      2  C   UNL     1      48.368  26.345  14.940  1.00  0.00     0.100 A 
ATOM      3  C   UNL     1      49.304  26.784  14.001  1.00  0.00     0.197 A 
ATOM      4  O   UNL     1      50.022  25.923  13.429  1.00  0.00    -0.289 OA
ATOM      5  C   UNL     1      49.448  28.169  13.748  1.00  0.00     0.107 A 
ATOM      6  C   UNL     1      50.340  28.729  12.785  1.00  0.00     0.134 A 
ATOM      7  C   UNL     1      50.480  30.120  12.703  1.00  0.00     0.093 A 
ATOM      8  C   UNL     1      49.719  30.971  13.505  1.00  0.00     0.123 A 
ATOM      9  C   UNL     1      48.805  30.434  14.412  1.00  0.00     0.094 A 
ATOM     10  C   UNL     1      48.667  29.050  14.542  1.00  0.00     0.146 A 
ATOM     11  O   UNL     1      47.796  28.579  15.428  1.00  0.00    -0.456 OA
ENDROOT
BRANCH   1  12
ATOM     12  C   UNL     1      46.593  26.869  16.654  1.00  0.00     0.021 A 
ATOM     13  C   UNL     1      46.868  25.787  17.504  1.00  0.00     0.016 A 
ATOM     14  C   UNL     1      45.939  25.384  18.463  1.00  0.00     0.051 A 
ATOM     15  C   UNL     1      44.720  26.056  18.605  1.00  0.00     0.157 A 
ATOM     16  C   UNL     1      45.373  27.556  16.804  1.00  0.00     0.062 A 
ATOM     17  C   UNL     1      44.436  27.160  17.767  1.00  0.00     0.158 A 
BRANCH  15  18
ATOM     18  O   UNL     1      43.832  25.599  19.580  1.00  0.00    -0.504 OA
ATOM     19  H   UNL     1      42.942  26.031  19.780  1.00  0.00     0.293 HD
ENDBRANCH  15  18
BRANCH  17  20
ATOM     20  O   UNL     1      43.249  27.889  17.860  1.00  0.00    -0.504 OA
ATOM     21  H   UNL     1      42.864  28.441  17.108  1.00  0.00     0.293 HD
ENDBRANCH  17  20
ENDBRANCH   1  12
BRANCH   6  22
ATOM     22  O   UNL     1      51.084  27.973  11.875  1.00  0.00    -0.507 OA
ATOM     23  H   UNL     1      51.239  28.221  10.910  1.00  0.00     0.293 HD
ENDBRANCH   6  22
BRANCH   8  24
ATOM     24  O   UNL     1      49.875  32.350  13.385  1.00  0.00    -0.508 OA
ATOM     25  H   UNL     1      49.090  32.982  13.485  1.00  0.00     0.293 HD
ENDBRANCH   8  24
TORSDOF 5
ENDMDL
MODEL 9
REMARK VINA RESULT:    -5.433      2.479      6.657
REMARK INTER + INTRA:          -6.655
REMARK INTER:                  -6.339
REMARK INTRA:                  -0.316
REMARK UNBOUND:                -0.269
REMARK SMILES O=c1cc(-c2ccc(O)c(O)c2)oc2cc(O)cc(O)c12
REMARK SMILES IDX 4 1 3 2 2 3 1 4 21 5 19 6 18 7 16 8 15 9 14 10 13 11 5 12
REMARK SMILES IDX 6 13 7 14 8 15 12 16 10 17 9 18 11 20 20 22 17 24
REMARK H PARENT 9 19 11 21 20 23 17 25
REMARK Flexibility Score: inf
ROOT
ATOM      1  C   UNL     1      47.940  28.569  15.214  1.00  0.00     0.138 A 
ATOM      2  C   UNL     1      48.152  29.253  14.009  1.00  0.00     0.100 A 
ATOM      3  C   UNL     1      49.456  29.516  13.585  1.00  0.00     0.197 A 
ATOM      4  O   UNL     1      49.615  30.074  12.468  1.00  0.00    -0.289 OA
ATOM      5  C   UNL     1      50.551  29.118  14.388  1.00  0.00     0.107 A 
ATOM      6  C   UNL     1      51.920  29.370  14.076  1.00  0.00     0.134 A 
ATOM      7  C   UNL     1      52.923  28.828  14.889  1.00  0.00     0.093 A 
ATOM      8  C   UNL     1      52.607  28.096  16.034  1.00  0.00     0.123 A 
ATOM      9  C   UNL     1      51.271  27.891  16.378  1.00  0.00     0.094 A 
ATOM     10  C   UNL     1      50.247  28.389  15.568  1.00  0.00     0.146 A 
ATOM     11  O   UNL     1      48.987  28.159  15.923  1.00  0.00    -0.456 OA
ENDROOT
BRANCH   1  12
ATOM     12  C   UNL     1      46.576  28.265  15.713  1.00  0.00     0.021 A 
ATOM     13  C   UNL     1      45.468  28.886  15.117  1.00  0.00     0.016 A 
ATOM     14  C   UNL     1      44.174  28.612  15.564  1.00  0.00     0.051 A 
ATOM     15  C   UNL     1      43.956  27.706  16.606  1.00  0.00     0.157 A 
ATOM     16  C   UNL     1      46.356  27.341  16.753  1.00  0.00     0.062 A 
ATOM     17  C   UNL     1      45.061  27.057  17.205  1.00  0.00     0.158 A 
BRANCH  15  18
ATOM     18  O   UNL     1      42.638  27.480  17.010  1.00  0.00    -0.504 OA
ATOM     19  H   UNL     1      42.347  26.694  17.573  1.00  0.00     0.293 HD
ENDBRANCH  15  18
BRANCH  17  20
ATOM     20  O   UNL     1      44.920  26.129  18.239  1.00  0.00    -0.504 OA
ATOM     21  H   UNL     1      44.128  25.512  18.341  1.00  0.00     0.293 HD
ENDBRANCH  17  20
ENDBRANCH   1  12
BRANCH   6  22
ATOM     22  O   UNL     1      52.346  30.159  13.003  1.00  0.00    -0.507 OA
ATOM     23  H   UNL     1      51.893  30.200  12.103  1.00  0.00     0.293 HD
ENDBRANCH   6  22
BRANCH   8  24
ATOM     24  O   UNL     1      53.632  27.585  16.827  1.00  0.00    -0.508 OA
ATOM     25  H   UNL     1      54.422  28.155  17.103  1.00  0.00     0.293 HD
ENDBRANCH   8  24
TORSDOF 5
ENDMDL
