MODEL 1
REMARK VINA RESULT:    -3.513      0.000      0.000
REMARK INTER + INTRA:          -4.543
REMARK INTER:                  -4.232
REMARK INTRA:                  -0.312
REMARK UNBOUND:                -0.312
REMARK SMILES O=c1c(O)c(-c2ccc(O)c(O)c2)oc2cc(O)cc(O)c12
REMARK SMILES IDX 5 1 3 2 2 3 1 4 22 5 20 6 19 7 17 8 16 9 15 10 14 11 6 12
REMARK SMILES IDX 7 13 8 14 9 15 13 16 11 17 10 18 12 20 4 22 21 24 18 26
REMARK H PARENT 10 19 12 21 4 23 21 25 18 27
REMARK Flexibility Score: inf
ROOT
ATOM      1  C   UNL     1     -44.006 -24.025  44.580  1.00  0.00     0.180 A 
ATOM      2  C   UNL     1     -42.689 -24.471  44.792  1.00  0.00     0.208 A 
ATOM      3  C   UNL     1     -42.172 -24.468  46.097  1.00  0.00     0.238 A 
ATOM      4  O   UNL     1     -41.012 -24.920  46.287  1.00  0.00    -0.285 OA
ATOM      5  C   UNL     1     -42.969 -24.005  47.171  1.00  0.00     0.111 A 
ATOM      6  C   UNL     1     -42.533 -23.920  48.527  1.00  0.00     0.134 A 
ATOM      7  C   UNL     1     -43.448 -23.570  49.527  1.00  0.00     0.093 A 
ATOM      8  C   UNL     1     -44.768 -23.238  49.211  1.00  0.00     0.123 A 
ATOM      9  C   UNL     1     -45.187 -23.260  47.884  1.00  0.00     0.094 A 
ATOM     10  C   UNL     1     -44.306 -23.641  46.867  1.00  0.00     0.146 A 
ATOM     11  O   UNL     1     -44.751 -23.658  45.617  1.00  0.00    -0.452 OA
ENDROOT
BRANCH   1  12
ATOM     12  C   UNL     1     -44.613 -23.975  43.230  1.00  0.00     0.025 A 
ATOM     13  C   UNL     1     -44.341 -22.918  42.345  1.00  0.00     0.016 A 
ATOM     14  C   UNL     1     -44.944 -22.879  41.085  1.00  0.00     0.051 A 
ATOM     15  C   UNL     1     -45.839 -23.887  40.697  1.00  0.00     0.157 A 
ATOM     16  C   UNL     1     -45.526 -24.970  42.846  1.00  0.00     0.062 A 
ATOM     17  C   UNL     1     -46.132 -24.935  41.585  1.00  0.00     0.158 A 
BRANCH  15  18
ATOM     18  O   UNL     1     -46.437 -23.846  39.439  1.00  0.00    -0.504 OA
ATOM     19  H   UNL     1     -46.859 -22.998  39.079  1.00  0.00     0.293 HD
ENDBRANCH  15  18
BRANCH  17  20
ATOM     20  O   UNL     1     -47.022 -25.948  41.233  1.00  0.00    -0.504 OA
ATOM     21  H   UNL     1     -48.019 -25.786  41.152  1.00  0.00     0.293 HD
ENDBRANCH  17  20
ENDBRANCH   1  12
BRANCH   2  22
ATOM     22  O   UNL     1     -41.927 -24.945  43.721  1.00  0.00    -0.502 OA
ATOM     23  H   UNL     1     -41.925 -24.497  42.813  1.00  0.00     0.293 HD
ENDBRANCH   2  22
BRANCH   6  24
ATOM     24  O   UNL     1     -41.214 -24.141  48.938  1.00  0.00    -0.507 OA
ATOM     25  H   UNL     1     -40.807 -25.049  49.101  1.00  0.00     0.293 HD
ENDBRANCH   6  24
BRANCH   8  26
ATOM     26  O   UNL     1     -45.668 -22.876  50.211  1.00  0.00    -0.508 OA
ATOM     27  H   UNL     1     -45.454 -23.013  51.191  1.00  0.00     0.293 HD
ENDBRANCH   8  26
TORSDOF 6
ENDMDL
MODEL 2
REMARK VINA RESULT:    -3.428     13.624     16.903
REMARK INTER + INTRA:          -4.441
REMARK INTER:                  -4.142
REMARK INTRA:                  -0.299
REMARK UNBOUND:                -0.312
REMARK SMILES O=c1c(O)c(-c2ccc(O)c(O)c2)oc2cc(O)cc(O)c12
REMARK SMILES IDX 5 1 3 2 2 3 1 4 22 5 20 6 19 7 17 8 16 9 15 10 14 11 6 12
REMARK SMILES IDX 7 13 8 14 9 15 13 16 11 17 10 18 12 20 4 22 21 24 18 26
REMARK H PARENT 10 19 12 21 4 23 21 25 18 27
REMARK Flexibility Score: inf
ROOT
ATOM      1  C   UNL     1     -29.028 -25.397  45.152  1.00  0.00     0.180 A 
ATOM      2  C   UNL     1     -30.345 -24.923  45.010  1.00  0.00     0.208 A 
ATOM      3  C   UNL     1     -30.727 -24.332  43.795  1.00  0.00     0.238 A 
ATOM      4  O   UNL     1     -31.921 -23.960  43.654  1.00  0.00    -0.285 OA
ATOM      5  C   UNL     1     -29.786 -24.206  42.745  1.00  0.00     0.111 A 
ATOM      6  C   UNL     1     -30.052 -23.587  41.487  1.00  0.00     0.134 A 
ATOM      7  C   UNL     1     -29.086 -23.634  40.475  1.00  0.00     0.093 A 
ATOM      8  C   UNL     1     -27.838 -24.221  40.698  1.00  0.00     0.123 A 
ATOM      9  C   UNL     1     -27.546 -24.775  41.942  1.00  0.00     0.094 A 
ATOM     10  C   UNL     1     -28.504 -24.775  42.960  1.00  0.00     0.146 A 
ATOM     11  O   UNL     1     -28.188 -25.323  44.127  1.00  0.00    -0.452 OA
ENDROOT
BRANCH   1  12
ATOM     12  C   UNL     1     -28.544 -26.009  46.411  1.00  0.00     0.025 A 
ATOM     13  C   UNL     1     -28.509 -27.404  46.579  1.00  0.00     0.016 A 
ATOM     14  C   UNL     1     -28.070 -27.959  47.784  1.00  0.00     0.051 A 
ATOM     15  C   UNL     1     -27.675 -27.130  48.843  1.00  0.00     0.157 A 
ATOM     16  C   UNL     1     -28.168 -25.182  47.482  1.00  0.00     0.062 A 
ATOM     17  C   UNL     1     -27.728 -25.735  48.690  1.00  0.00     0.158 A 
BRANCH  15  18
ATOM     18  O   UNL     1     -27.237 -27.688  50.043  1.00  0.00    -0.504 OA
ATOM     19  H   UNL     1     -26.298 -27.533  50.389  1.00  0.00     0.293 HD
ENDBRANCH  15  18
BRANCH  17  20
ATOM     20  O   UNL     1     -27.349 -24.883  49.726  1.00  0.00    -0.504 OA
ATOM     21  H   UNL     1     -27.467 -25.134  50.701  1.00  0.00     0.293 HD
ENDBRANCH  17  20
ENDBRANCH   1  12
BRANCH   2  22
ATOM     22  O   UNL     1     -31.264 -25.078  46.050  1.00  0.00    -0.502 OA
ATOM     23  H   UNL     1     -31.139 -24.645  46.957  1.00  0.00     0.293 HD
ENDBRANCH   2  22
BRANCH   6  24
ATOM     24  O   UNL     1     -31.231 -22.894  41.193  1.00  0.00    -0.507 OA
ATOM     25  H   UNL     1     -32.152 -23.304  41.187  1.00  0.00     0.293 HD
ENDBRANCH   6  24
BRANCH   8  26
ATOM     26  O   UNL     1     -26.876 -24.250  39.690  1.00  0.00    -0.508 OA
ATOM     27  H   UNL     1     -25.927 -23.935  39.854  1.00  0.00     0.293 HD
ENDBRANCH   8  26
TORSDOF 6
ENDMDL
MODEL 3
REMARK VINA RESULT:    -3.361      1.513      7.040
REMARK INTER + INTRA:          -4.361
REMARK INTER:                  -4.145
REMARK INTRA:                  -0.215
REMARK UNBOUND:                -0.312
REMARK SMILES O=c1c(O)c(-c2ccc(O)c(O)c2)oc2cc(O)cc(O)c12
REMARK SMILES IDX 5 1 3 2 2 3 1 4 22 5 20 6 19 7 17 8 16 9 15 10 14 11 6 12
REMARK SMILES IDX 7 13 8 14 9 15 13 16 11 17 10 18 12 20 4 22 21 24 18 26
REMARK H PARENT 10 19 12 21 4 23 21 25 18 27
REMARK Flexibility Score: inf
ROOT
ATOM      1  C   UNL     1     -44.603 -24.818  44.822  1.00  0.00     0.180 A 
ATOM      2  C   UNL     1     -45.143 -26.112  44.728  1.00  0.00     0.208 A 
ATOM      3  C   UNL     1     -45.725 -26.521  43.517  1.00  0.00     0.238 A 
ATOM      4  O   UNL     1     -46.157 -27.700  43.423  1.00  0.00    -0.285 OA
ATOM      5  C   UNL     1     -45.774 -25.627  42.422  1.00  0.00     0.111 A 
ATOM      6  C   UNL     1     -46.376 -25.921  41.161  1.00  0.00     0.134 A 
ATOM      7  C   UNL     1     -46.252 -25.009  40.107  1.00  0.00     0.093 A 
ATOM      8  C   UNL     1     -45.604 -23.784  40.286  1.00  0.00     0.123 A 
ATOM      9  C   UNL     1     -45.065 -23.462  41.529  1.00  0.00     0.094 A 
ATOM     10  C   UNL     1     -45.142 -24.368  42.591  1.00  0.00     0.146 A 
ATOM     11  O   UNL     1     -44.606 -24.025  43.756  1.00  0.00    -0.452 OA
ENDROOT
BRANCH   1  12
ATOM     12  C   UNL     1     -43.995 -24.306  46.071  1.00  0.00     0.025 A 
ATOM     13  C   UNL     1     -42.606 -24.123  46.188  1.00  0.00     0.016 A 
ATOM     14  C   UNL     1     -42.054 -23.662  47.386  1.00  0.00     0.051 A 
ATOM     15  C   UNL     1     -42.876 -23.392  48.488  1.00  0.00     0.157 A 
ATOM     16  C   UNL     1     -44.813 -24.055  47.185  1.00  0.00     0.062 A 
ATOM     17  C   UNL     1     -44.263 -23.593  48.386  1.00  0.00     0.158 A 
BRANCH  15  18
ATOM     18  O   UNL     1     -42.321 -22.931  49.680  1.00  0.00    -0.504 OA
ATOM     19  H   UNL     1     -41.559 -22.264  49.688  1.00  0.00     0.293 HD
ENDBRANCH  15  18
BRANCH  17  20
ATOM     20  O   UNL     1     -45.108 -23.341  49.466  1.00  0.00    -0.504 OA
ATOM     21  H   UNL     1     -46.113 -23.266  49.358  1.00  0.00     0.293 HD
ENDBRANCH  17  20
ENDBRANCH   1  12
BRANCH   2  22
ATOM     22  O   UNL     1     -45.064 -26.988  45.814  1.00  0.00    -0.502 OA
ATOM     23  H   UNL     1     -44.369 -26.888  46.545  1.00  0.00     0.293 HD
ENDBRANCH   2  22
BRANCH   6  24
ATOM     24  O   UNL     1     -47.125 -27.073  40.904  1.00  0.00    -0.507 OA
ATOM     25  H   UNL     1     -47.299 -27.453  39.987  1.00  0.00     0.293 HD
ENDBRANCH   6  24
BRANCH   8  26
ATOM     26  O   UNL     1     -45.498 -22.875  39.235  1.00  0.00    -0.508 OA
ATOM     27  H   UNL     1     -44.833 -23.010  38.483  1.00  0.00     0.293 HD
ENDBRANCH   8  26
TORSDOF 6
ENDMDL
MODEL 4
REMARK VINA RESULT:    -3.340     14.613     16.807
REMARK INTER + INTRA:          -4.336
REMARK INTER:                  -4.048
REMARK INTRA:                  -0.288
REMARK UNBOUND:                -0.312
REMARK SMILES O=c1c(O)c(-c2ccc(O)c(O)c2)oc2cc(O)cc(O)c12
REMARK SMILES IDX 5 1 3 2 2 3 1 4 22 5 20 6 19 7 17 8 16 9 15 10 14 11 6 12
REMARK SMILES IDX 7 13 8 14 9 15 13 16 11 17 10 18 12 20 4 22 21 24 18 26
REMARK H PARENT 10 19 12 21 4 23 21 25 18 27
REMARK Flexibility Score: inf
ROOT
ATOM      1  C   UNL     1     -27.987 -26.460  47.279  1.00  0.00     0.180 A 
ATOM      2  C   UNL     1     -27.539 -25.755  48.411  1.00  0.00     0.208 A 
ATOM      3  C   UNL     1     -27.345 -26.453  49.614  1.00  0.00     0.238 A 
ATOM      4  O   UNL     1     -26.892 -25.828  50.608  1.00  0.00    -0.285 OA
ATOM      5  C   UNL     1     -27.618 -27.840  49.676  1.00  0.00     0.111 A 
ATOM      6  C   UNL     1     -27.497 -28.639  50.852  1.00  0.00     0.134 A 
ATOM      7  C   UNL     1     -27.667 -30.026  50.768  1.00  0.00     0.093 A 
ATOM      8  C   UNL     1     -28.019 -30.635  49.561  1.00  0.00     0.123 A 
ATOM      9  C   UNL     1     -28.198 -29.858  48.420  1.00  0.00     0.094 A 
ATOM     10  C   UNL     1     -28.000 -28.475  48.465  1.00  0.00     0.146 A 
ATOM     11  O   UNL     1     -28.171 -27.773  47.352  1.00  0.00    -0.452 OA
ENDROOT
BRANCH   1  12
ATOM     12  C   UNL     1     -28.237 -25.789  45.983  1.00  0.00     0.025 A 
ATOM     13  C   UNL     1     -27.294 -25.835  44.941  1.00  0.00     0.016 A 
ATOM     14  C   UNL     1     -27.542 -25.174  43.735  1.00  0.00     0.051 A 
ATOM     15  C   UNL     1     -28.727 -24.447  43.556  1.00  0.00     0.157 A 
ATOM     16  C   UNL     1     -29.414 -25.042  45.807  1.00  0.00     0.062 A 
ATOM     17  C   UNL     1     -29.665 -24.380  44.601  1.00  0.00     0.158 A 
BRANCH  15  18
ATOM     18  O   UNL     1     -28.972 -23.791  42.351  1.00  0.00    -0.504 OA
ATOM     19  H   UNL     1     -29.052 -22.783  42.303  1.00  0.00     0.293 HD
ENDBRANCH  15  18
BRANCH  17  20
ATOM     20  O   UNL     1     -30.850 -23.659  44.457  1.00  0.00    -0.504 OA
ATOM     21  H   UNL     1     -30.856 -22.666  44.257  1.00  0.00     0.293 HD
ENDBRANCH  17  20
ENDBRANCH   1  12
BRANCH   2  22
ATOM     22  O   UNL     1     -27.254 -24.390  48.322  1.00  0.00    -0.502 OA
ATOM     23  H   UNL     1     -26.431 -24.035  47.850  1.00  0.00     0.293 HD
ENDBRANCH   2  22
BRANCH   6  24
ATOM     24  O   UNL     1     -27.239 -28.119  52.125  1.00  0.00    -0.507 OA
ATOM     25  H   UNL     1     -26.479 -28.408  52.721  1.00  0.00     0.293 HD
ENDBRANCH   6  24
BRANCH   8  26
ATOM     26  O   UNL     1     -28.202 -32.015  49.488  1.00  0.00    -0.508 OA
ATOM     27  H   UNL     1     -27.617 -32.655  50.011  1.00  0.00     0.293 HD
ENDBRANCH   8  26
TORSDOF 6
ENDMDL
MODEL 5
REMARK VINA RESULT:    -3.338     15.644     16.577
REMARK INTER + INTRA:          -4.333
REMARK INTER:                  -4.003
REMARK INTRA:                  -0.330
REMARK UNBOUND:                -0.312
REMARK SMILES O=c1c(O)c(-c2ccc(O)c(O)c2)oc2cc(O)cc(O)c12
REMARK SMILES IDX 5 1 3 2 2 3 1 4 22 5 20 6 19 7 17 8 16 9 15 10 14 11 6 12
REMARK SMILES IDX 7 13 8 14 9 15 13 16 11 17 10 18 12 20 4 22 21 24 18 26
REMARK H PARENT 10 19 12 21 4 23 21 25 18 27
REMARK Flexibility Score: inf
ROOT
ATOM      1  C   UNL     1     -45.962 -40.173  44.250  1.00  0.00     0.180 A 
ATOM      2  C   UNL     1     -45.703 -38.792  44.312  1.00  0.00     0.208 A 
ATOM      3  C   UNL     1     -45.753 -38.146  45.558  1.00  0.00     0.238 A 
ATOM      4  O   UNL     1     -45.467 -36.921  45.614  1.00  0.00    -0.285 OA
ATOM      5  C   UNL     1     -46.076 -38.883  46.722  1.00  0.00     0.111 A 
ATOM      6  C   UNL     1     -46.195 -38.323  48.029  1.00  0.00     0.134 A 
ATOM      7  C   UNL     1     -46.391 -39.168  49.128  1.00  0.00     0.093 A 
ATOM      8  C   UNL     1     -46.538 -40.547  48.959  1.00  0.00     0.123 A 
ATOM      9  C   UNL     1     -46.484 -41.096  47.681  1.00  0.00     0.094 A 
ATOM     10  C   UNL     1     -46.253 -40.282  46.568  1.00  0.00     0.146 A 
ATOM     11  O   UNL     1     -46.198 -40.848  45.369  1.00  0.00    -0.452 OA
ENDROOT
BRANCH   1  12
ATOM     12  C   UNL     1     -45.953 -40.919  42.971  1.00  0.00     0.025 A 
ATOM     13  C   UNL     1     -47.124 -41.083  42.211  1.00  0.00     0.016 A 
ATOM     14  C   UNL     1     -47.096 -41.812  41.019  1.00  0.00     0.051 A 
ATOM     15  C   UNL     1     -45.903 -42.399  40.577  1.00  0.00     0.157 A 
ATOM     16  C   UNL     1     -44.764 -41.527  42.535  1.00  0.00     0.062 A 
ATOM     17  C   UNL     1     -44.733 -42.257  41.342  1.00  0.00     0.158 A 
BRANCH  15  18
ATOM     18  O   UNL     1     -45.879 -43.124  39.386  1.00  0.00    -0.504 OA
ATOM     19  H   UNL     1     -45.144 -43.792  39.186  1.00  0.00     0.293 HD
ENDBRANCH  15  18
BRANCH  17  20
ATOM     20  O   UNL     1     -43.532 -42.835  40.932  1.00  0.00    -0.504 OA
ATOM     21  H   UNL     1     -43.076 -42.576  40.065  1.00  0.00     0.293 HD
ENDBRANCH  17  20
ENDBRANCH   1  12
BRANCH   2  22
ATOM     22  O   UNL     1     -45.364 -38.087  43.154  1.00  0.00    -0.502 OA
ATOM     23  H   UNL     1     -44.433 -37.724  42.991  1.00  0.00     0.293 HD
ENDBRANCH   2  22
BRANCH   6  24
ATOM     24  O   UNL     1     -46.155 -36.951  48.297  1.00  0.00    -0.507 OA
ATOM     25  H   UNL     1     -45.988 -36.547  49.206  1.00  0.00     0.293 HD
ENDBRANCH   6  24
BRANCH   8  26
ATOM     26  O   UNL     1     -46.749 -41.379  50.056  1.00  0.00    -0.508 OA
ATOM     27  H   UNL     1     -46.485 -41.098  50.993  1.00  0.00     0.293 HD
ENDBRANCH   8  26
TORSDOF 6
ENDMDL
MODEL 6
REMARK VINA RESULT:    -3.333      2.075      4.012
REMARK INTER + INTRA:          -4.327
REMARK INTER:                  -4.041
REMARK INTRA:                  -0.286
REMARK UNBOUND:                -0.312
REMARK SMILES O=c1c(O)c(-c2ccc(O)c(O)c2)oc2cc(O)cc(O)c12
REMARK SMILES IDX 5 1 3 2 2 3 1 4 22 5 20 6 19 7 17 8 16 9 15 10 14 11 6 12
REMARK SMILES IDX 7 13 8 14 9 15 13 16 11 17 10 18 12 20 4 22 21 24 18 26
REMARK H PARENT 10 19 12 21 4 23 21 25 18 27
REMARK Flexibility Score: inf
ROOT
ATOM      1  C   UNL     1     -43.564 -24.089  47.193  1.00  0.00     0.180 A 
ATOM      2  C   UNL     1     -44.245 -23.600  48.322  1.00  0.00     0.208 A 
ATOM      3  C   UNL     1     -43.522 -23.365  49.503  1.00  0.00     0.238 A 
ATOM      4  O   UNL     1     -44.127 -22.876  50.493  1.00  0.00    -0.285 OA
ATOM      5  C   UNL     1     -42.134 -23.637  49.546  1.00  0.00     0.111 A 
ATOM      6  C   UNL     1     -41.311 -23.475  50.701  1.00  0.00     0.134 A 
ATOM      7  C   UNL     1     -39.927 -23.650  50.594  1.00  0.00     0.093 A 
ATOM      8  C   UNL     1     -39.342 -24.046  49.388  1.00  0.00     0.123 A 
ATOM      9  C   UNL     1     -40.144 -24.265  48.270  1.00  0.00     0.094 A 
ATOM     10  C   UNL     1     -41.525 -24.063  48.337  1.00  0.00     0.146 A 
ATOM     11  O   UNL     1     -42.250 -24.273  47.246  1.00  0.00    -0.452 OA
ENDROOT
BRANCH   1  12
ATOM     12  C   UNL     1     -44.261 -24.385  45.921  1.00  0.00     0.025 A 
ATOM     13  C   UNL     1     -44.227 -23.485  44.842  1.00  0.00     0.016 A 
ATOM     14  C   UNL     1     -44.912 -23.775  43.659  1.00  0.00     0.051 A 
ATOM     15  C   UNL     1     -45.654 -24.958  43.542  1.00  0.00     0.157 A 
ATOM     16  C   UNL     1     -45.023 -25.560  45.807  1.00  0.00     0.062 A 
ATOM     17  C   UNL     1     -45.710 -25.853  44.624  1.00  0.00     0.158 A 
BRANCH  15  18
ATOM     18  O   UNL     1     -46.335 -25.244  42.360  1.00  0.00    -0.504 OA
ATOM     19  H   UNL     1     -46.930 -26.059  42.274  1.00  0.00     0.293 HD
ENDBRANCH  15  18
BRANCH  17  20
ATOM     20  O   UNL     1     -46.444 -27.035  44.542  1.00  0.00    -0.504 OA
ATOM     21  H   UNL     1     -46.066 -27.877  44.125  1.00  0.00     0.293 HD
ENDBRANCH  17  20
ENDBRANCH   1  12
BRANCH   2  22
ATOM     22  O   UNL     1     -45.611 -23.317  48.252  1.00  0.00    -0.502 OA
ATOM     23  H   UNL     1     -46.262 -23.590  48.978  1.00  0.00     0.293 HD
ENDBRANCH   2  22
BRANCH   6  24
ATOM     24  O   UNL     1     -41.805 -23.172  51.974  1.00  0.00    -0.507 OA
ATOM     25  H   UNL     1     -42.783 -23.112  52.213  1.00  0.00     0.293 HD
ENDBRANCH   6  24
BRANCH   8  26
ATOM     26  O   UNL     1     -37.965 -24.233  49.293  1.00  0.00    -0.508 OA
ATOM     27  H   UNL     1     -37.566 -24.923  48.668  1.00  0.00     0.293 HD
ENDBRANCH   8  26
TORSDOF 6
ENDMDL
MODEL 7
REMARK VINA RESULT:    -3.307     20.893     22.809
REMARK INTER + INTRA:          -4.296
REMARK INTER:                  -4.010
REMARK INTRA:                  -0.286
REMARK UNBOUND:                -0.312
REMARK SMILES O=c1c(O)c(-c2ccc(O)c(O)c2)oc2cc(O)cc(O)c12
REMARK SMILES IDX 5 1 3 2 2 3 1 4 22 5 20 6 19 7 17 8 16 9 15 10 14 11 6 12
REMARK SMILES IDX 7 13 8 14 9 15 13 16 11 17 10 18 12 20 4 22 21 24 18 26
REMARK H PARENT 10 19 12 21 4 23 21 25 18 27
REMARK Flexibility Score: inf
ROOT
ATOM      1  C   UNL     1     -30.345 -42.012  47.287  1.00  0.00     0.180 A 
ATOM      2  C   UNL     1     -29.736 -42.457  48.474  1.00  0.00     0.208 A 
ATOM      3  C   UNL     1     -30.532 -42.656  49.613  1.00  0.00     0.238 A 
ATOM      4  O   UNL     1     -29.990 -43.107  50.657  1.00  0.00    -0.285 OA
ATOM      5  C   UNL     1     -31.921 -42.392  49.558  1.00  0.00     0.111 A 
ATOM      6  C   UNL     1     -32.815 -42.519  50.663  1.00  0.00     0.134 A 
ATOM      7  C   UNL     1     -34.191 -42.357  50.461  1.00  0.00     0.093 A 
ATOM      8  C   UNL     1     -34.698 -42.007  49.208  1.00  0.00     0.123 A 
ATOM      9  C   UNL     1     -33.828 -41.822  48.137  1.00  0.00     0.094 A 
ATOM     10  C   UNL     1     -32.453 -42.012  48.299  1.00  0.00     0.146 A 
ATOM     11  O   UNL     1     -31.661 -41.836  47.249  1.00  0.00    -0.452 OA
ENDROOT
BRANCH   1  12
ATOM     12  C   UNL     1     -29.569 -41.756  46.052  1.00  0.00     0.025 A 
ATOM     13  C   UNL     1     -29.530 -42.693  45.005  1.00  0.00     0.016 A 
ATOM     14  C   UNL     1     -28.771 -42.440  43.859  1.00  0.00     0.051 A 
ATOM     15  C   UNL     1     -28.030 -41.255  43.748  1.00  0.00     0.157 A 
ATOM     16  C   UNL     1     -28.807 -40.580  45.946  1.00  0.00     0.062 A 
ATOM     17  C   UNL     1     -28.047 -40.324  44.800  1.00  0.00     0.158 A 
BRANCH  15  18
ATOM     18  O   UNL     1     -27.275 -41.006  42.603  1.00  0.00    -0.504 OA
ATOM     19  H   UNL     1     -27.237 -41.668  41.838  1.00  0.00     0.293 HD
ENDBRANCH  15  18
BRANCH  17  20
ATOM     20  O   UNL     1     -27.315 -39.140  44.723  1.00  0.00    -0.504 OA
ATOM     21  H   UNL     1     -26.343 -39.124  44.436  1.00  0.00     0.293 HD
ENDBRANCH  17  20
ENDBRANCH   1  12
BRANCH   2  22
ATOM     22  O   UNL     1     -28.367 -42.734  48.501  1.00  0.00    -0.502 OA
ATOM     23  H   UNL     1     -27.752 -42.518  47.725  1.00  0.00     0.293 HD
ENDBRANCH   2  22
BRANCH   6  24
ATOM     24  O   UNL     1     -32.403 -42.775  51.975  1.00  0.00    -0.507 OA
ATOM     25  H   UNL     1     -33.024 -42.888  52.761  1.00  0.00     0.293 HD
ENDBRANCH   6  24
BRANCH   8  26
ATOM     26  O   UNL     1     -36.068 -41.833  49.019  1.00  0.00    -0.508 OA
ATOM     27  H   UNL     1     -36.561 -41.043  49.417  1.00  0.00     0.293 HD
ENDBRANCH   8  26
TORSDOF 6
ENDMDL
MODEL 8
REMARK VINA RESULT:    -3.295     15.290     15.943
REMARK INTER + INTRA:          -4.281
REMARK INTER:                  -4.004
REMARK INTRA:                  -0.277
REMARK UNBOUND:                -0.312
REMARK SMILES O=c1c(O)c(-c2ccc(O)c(O)c2)oc2cc(O)cc(O)c12
REMARK SMILES IDX 5 1 3 2 2 3 1 4 22 5 20 6 19 7 17 8 16 9 15 10 14 11 6 12
REMARK SMILES IDX 7 13 8 14 9 15 13 16 11 17 10 18 12 20 4 22 21 24 18 26
REMARK H PARENT 10 19 12 21 4 23 21 25 18 27
REMARK Flexibility Score: inf
ROOT
ATOM      1  C   UNL     1     -45.881 -39.659  47.312  1.00  0.00     0.180 A 
ATOM      2  C   UNL     1     -46.375 -40.260  48.483  1.00  0.00     0.208 A 
ATOM      3  C   UNL     1     -46.628 -39.457  49.606  1.00  0.00     0.238 A 
ATOM      4  O   UNL     1     -47.122 -39.993  50.633  1.00  0.00    -0.285 OA
ATOM      5  C   UNL     1     -46.367 -38.067  49.552  1.00  0.00     0.111 A 
ATOM      6  C   UNL     1     -46.548 -37.165  50.643  1.00  0.00     0.134 A 
ATOM      7  C   UNL     1     -46.383 -35.790  50.438  1.00  0.00     0.093 A 
ATOM      8  C   UNL     1     -45.980 -35.290  49.196  1.00  0.00     0.123 A 
ATOM      9  C   UNL     1     -45.744 -36.168  48.141  1.00  0.00     0.094 A 
ATOM     10  C   UNL     1     -45.935 -37.543  48.306  1.00  0.00     0.146 A 
ATOM     11  O   UNL     1     -45.709 -38.342  47.272  1.00  0.00    -0.452 OA
ENDROOT
BRANCH   1  12
ATOM     12  C   UNL     1     -45.567 -40.443  46.096  1.00  0.00     0.025 A 
ATOM     13  C   UNL     1     -46.444 -40.472  44.998  1.00  0.00     0.016 A 
ATOM     14  C   UNL     1     -46.139 -41.239  43.870  1.00  0.00     0.051 A 
ATOM     15  C   UNL     1     -44.961 -41.998  43.828  1.00  0.00     0.157 A 
ATOM     16  C   UNL     1     -44.399 -41.222  46.058  1.00  0.00     0.062 A 
ATOM     17  C   UNL     1     -44.090 -41.991  44.931  1.00  0.00     0.158 A 
BRANCH  15  18
ATOM     18  O   UNL     1     -44.659 -42.760  42.701  1.00  0.00    -0.504 OA
ATOM     19  H   UNL     1     -45.345 -42.931  41.976  1.00  0.00     0.293 HD
ENDBRANCH  15  18
BRANCH  17  20
ATOM     20  O   UNL     1     -42.915 -42.741  44.923  1.00  0.00    -0.504 OA
ATOM     21  H   UNL     1     -42.404 -42.951  45.773  1.00  0.00     0.293 HD
ENDBRANCH  17  20
ENDBRANCH   1  12
BRANCH   2  22
ATOM     22  O   UNL     1     -46.647 -41.631  48.509  1.00  0.00    -0.502 OA
ATOM     23  H   UNL     1     -46.660 -42.168  49.367  1.00  0.00     0.293 HD
ENDBRANCH   2  22
BRANCH   6  24
ATOM     24  O   UNL     1     -46.859 -37.568  51.945  1.00  0.00    -0.507 OA
ATOM     25  H   UNL     1     -47.719 -38.019  52.217  1.00  0.00     0.293 HD
ENDBRANCH   6  24
BRANCH   8  26
ATOM     26  O   UNL     1     -45.804 -33.922  49.004  1.00  0.00    -0.508 OA
ATOM     27  H   UNL     1     -46.592 -33.287  48.958  1.00  0.00     0.293 HD
ENDBRANCH   8  26
TORSDOF 6
ENDMDL
