MODEL 1
REMARK VINA RESULT:    -4.674      0.000      0.000
REMARK INTER + INTRA:          -5.640
REMARK INTER:                  -5.494
REMARK INTRA:                  -0.147
REMARK UNBOUND:                -0.147
REMARK SMILES O=C([O-])C=Cc1ccc(O)c(O)c1
REMARK SMILES IDX 6 1 13 2 7 3 11 4 8 5 9 6 5 7 4 8 2 9 1 10 3 11 12 12 10 14
REMARK H PARENT 12 13 10 15
REMARK Flexibility Score: inf
ROOT
ATOM      1  C   UNL     1      74.752  39.262  19.629  1.00  0.00    -0.022 A 
ATOM      2  C   UNL     1      74.381  38.772  20.893  1.00  0.00     0.058 A 
ATOM      3  C   UNL     1      75.168  40.595  19.504  1.00  0.00     0.012 A 
ATOM      4  C   UNL     1      74.374  39.623  22.008  1.00  0.00     0.157 A 
ATOM      5  C   UNL     1      75.160  41.444  20.613  1.00  0.00     0.051 A 
ATOM      6  C   UNL     1      74.761  40.962  21.867  1.00  0.00     0.157 A 
ENDROOT
BRANCH   1   7
ATOM      7  C   UNL     1      74.817  38.370  18.452  1.00  0.00     0.010 C 
ATOM      8  C   UNL     1      73.771  37.740  17.896  1.00  0.00     0.025 C 
BRANCH   8   9
ATOM      9  C   UNL     1      72.354  37.972  18.235  1.00  0.00     0.064 C 
ATOM     10  O   UNL     1      71.803  39.044  17.875  1.00  0.00    -0.545 OA
ATOM     11  O   UNL     1      71.633  37.066  19.003  1.00  0.00    -0.545 OA
ENDBRANCH   8   9
ENDBRANCH   1   7
BRANCH   4  12
ATOM     12  O   UNL     1      73.988  39.143  23.259  1.00  0.00    -0.504 OA
ATOM     13  H   UNL     1      73.774  39.771  24.025  1.00  0.00     0.293 HD
ENDBRANCH   4  12
BRANCH   6  14
ATOM     14  O   UNL     1      74.749  41.806  22.977  1.00  0.00    -0.504 OA
ATOM     15  H   UNL     1      73.881  42.120  23.394  1.00  0.00     0.293 HD
ENDBRANCH   6  14
TORSDOF 4
ENDMDL
MODEL 2
REMARK VINA RESULT:    -4.285      2.925      3.861
REMARK INTER + INTRA:          -5.183
REMARK INTER:                  -4.914
REMARK INTRA:                  -0.269
REMARK UNBOUND:                -0.147
REMARK SMILES O=C([O-])C=Cc1ccc(O)c(O)c1
REMARK SMILES IDX 6 1 13 2 7 3 11 4 8 5 9 6 5 7 4 8 2 9 1 10 3 11 12 12 10 14
REMARK H PARENT 12 13 10 15
REMARK Flexibility Score: inf
ROOT
ATOM      1  C   UNL     1      71.270  38.881  19.910  1.00  0.00    -0.022 A 
ATOM      2  C   UNL     1      71.236  40.016  20.738  1.00  0.00     0.058 A 
ATOM      3  C   UNL     1      72.171  37.847  20.199  1.00  0.00     0.012 A 
ATOM      4  C   UNL     1      72.132  40.138  21.811  1.00  0.00     0.157 A 
ATOM      5  C   UNL     1      73.064  37.967  21.267  1.00  0.00     0.051 A 
ATOM      6  C   UNL     1      73.050  39.113  22.073  1.00  0.00     0.157 A 
ENDROOT
BRANCH   1   7
ATOM      7  C   UNL     1      70.301  38.709  18.807  1.00  0.00     0.010 C 
ATOM      8  C   UNL     1      69.096  38.130  18.916  1.00  0.00     0.025 C 
BRANCH   8   9
ATOM      9  C   UNL     1      68.446  37.737  20.182  1.00  0.00     0.064 C 
ATOM     10  O   UNL     1      68.343  36.516  20.466  1.00  0.00    -0.545 OA
ATOM     11  O   UNL     1      67.885  38.680  21.034  1.00  0.00    -0.545 OA
ENDBRANCH   8   9
ENDBRANCH   1   7
BRANCH   4  12
ATOM     12  O   UNL     1      72.111  41.271  22.621  1.00  0.00    -0.504 OA
ATOM     13  H   UNL     1      71.257  41.791  22.785  1.00  0.00     0.293 HD
ENDBRANCH   4  12
BRANCH   6  14
ATOM     14  O   UNL     1      73.942  39.238  23.137  1.00  0.00    -0.504 OA
ATOM     15  H   UNL     1      74.763  39.828  23.074  1.00  0.00     0.293 HD
ENDBRANCH   6  14
TORSDOF 4
ENDMDL
MODEL 3
REMARK VINA RESULT:    -4.254      3.275      4.150
REMARK INTER + INTRA:          -5.146
REMARK INTER:                  -4.882
REMARK INTRA:                  -0.265
REMARK UNBOUND:                -0.147
REMARK SMILES O=C([O-])C=Cc1ccc(O)c(O)c1
REMARK SMILES IDX 6 1 13 2 7 3 11 4 8 5 9 6 5 7 4 8 2 9 1 10 3 11 12 12 10 14
REMARK H PARENT 12 13 10 15
REMARK Flexibility Score: inf
ROOT
ATOM      1  C   UNL     1      70.659  39.255  20.286  1.00  0.00    -0.022 A 
ATOM      2  C   UNL     1      71.653  38.262  20.313  1.00  0.00     0.058 A 
ATOM      3  C   UNL     1      70.728  40.320  21.195  1.00  0.00     0.012 A 
ATOM      4  C   UNL     1      72.674  38.306  21.274  1.00  0.00     0.157 A 
ATOM      5  C   UNL     1      71.744  40.365  22.153  1.00  0.00     0.051 A 
ATOM      6  C   UNL     1      72.717  39.358  22.198  1.00  0.00     0.157 A 
ENDROOT
BRANCH   1   7
ATOM      7  C   UNL     1      69.605  39.256  19.250  1.00  0.00     0.010 C 
ATOM      8  C   UNL     1      68.490  38.511  19.276  1.00  0.00     0.025 C 
BRANCH   8   9
ATOM      9  C   UNL     1      68.023  37.708  20.423  1.00  0.00     0.064 C 
ATOM     10  O   UNL     1      68.007  36.454  20.330  1.00  0.00    -0.545 OA
ATOM     11  O   UNL     1      67.536  38.307  21.579  1.00  0.00    -0.545 OA
ENDBRANCH   8   9
ENDBRANCH   1   7
BRANCH   4  12
ATOM     12  O   UNL     1      73.650  37.312  21.312  1.00  0.00    -0.504 OA
ATOM     13  H   UNL     1      74.407  37.285  20.639  1.00  0.00     0.293 HD
ENDBRANCH   4  12
BRANCH   6  14
ATOM     14  O   UNL     1      73.731  39.397  23.154  1.00  0.00    -0.504 OA
ATOM     15  H   UNL     1      73.547  39.192  24.129  1.00  0.00     0.293 HD
ENDBRANCH   6  14
TORSDOF 4
ENDMDL
MODEL 4
REMARK VINA RESULT:    -4.218      2.027      2.760
REMARK INTER + INTRA:          -5.105
REMARK INTER:                  -4.845
REMARK INTRA:                  -0.260
REMARK UNBOUND:                -0.147
REMARK SMILES O=C([O-])C=Cc1ccc(O)c(O)c1
REMARK SMILES IDX 6 1 13 2 7 3 11 4 8 5 9 6 5 7 4 8 2 9 1 10 3 11 12 12 10 14
REMARK H PARENT 12 13 10 15
REMARK Flexibility Score: inf
ROOT
ATOM      1  C   UNL     1      72.649  37.550  20.070  1.00  0.00    -0.022 A 
ATOM      2  C   UNL     1      72.746  37.970  21.408  1.00  0.00     0.058 A 
ATOM      3  C   UNL     1      73.481  38.136  19.106  1.00  0.00     0.012 A 
ATOM      4  C   UNL     1      73.626  39.002  21.766  1.00  0.00     0.157 A 
ATOM      5  C   UNL     1      74.357  39.165  19.460  1.00  0.00     0.051 A 
ATOM      6  C   UNL     1      74.430  39.603  20.789  1.00  0.00     0.157 A 
ENDROOT
BRANCH   1   7
ATOM      7  C   UNL     1      71.768  36.430  19.681  1.00  0.00     0.010 C 
ATOM      8  C   UNL     1      70.436  36.503  19.535  1.00  0.00     0.025 C 
BRANCH   8   9
ATOM      9  C   UNL     1      69.642  37.747  19.549  1.00  0.00     0.064 C 
ATOM     10  O   UNL     1      68.911  37.999  20.542  1.00  0.00    -0.545 OA
ATOM     11  O   UNL     1      69.627  38.612  18.462  1.00  0.00    -0.545 OA
ENDBRANCH   8   9
ENDBRANCH   1   7
BRANCH   4  12
ATOM     12  O   UNL     1      73.709  39.431  23.090  1.00  0.00    -0.504 OA
ATOM     13  H   UNL     1      73.330  40.324  23.383  1.00  0.00     0.293 HD
ENDBRANCH   4  12
BRANCH   6  14
ATOM     14  O   UNL     1      75.301  40.632  21.147  1.00  0.00    -0.504 OA
ATOM     15  H   UNL     1      76.223  40.439  21.520  1.00  0.00     0.293 HD
ENDBRANCH   6  14
TORSDOF 4
ENDMDL
MODEL 5
REMARK VINA RESULT:    -3.958      2.667      4.873
REMARK INTER + INTRA:          -4.799
REMARK INTER:                  -4.540
REMARK INTRA:                  -0.260
REMARK UNBOUND:                -0.147
REMARK SMILES O=C([O-])C=Cc1ccc(O)c(O)c1
REMARK SMILES IDX 6 1 13 2 7 3 11 4 8 5 9 6 5 7 4 8 2 9 1 10 3 11 12 12 10 14
REMARK H PARENT 12 13 10 15
REMARK Flexibility Score: inf
ROOT
ATOM      1  C   UNL     1      72.309  38.045  20.815  1.00  0.00    -0.022 A 
ATOM      2  C   UNL     1      71.318  39.038  20.902  1.00  0.00     0.058 A 
ATOM      3  C   UNL     1      72.013  36.835  20.173  1.00  0.00     0.012 A 
ATOM      4  C   UNL     1      70.030  38.800  20.401  1.00  0.00     0.157 A 
ATOM      5  C   UNL     1      70.730  36.596  19.674  1.00  0.00     0.051 A 
ATOM      6  C   UNL     1      69.734  37.575  19.789  1.00  0.00     0.157 A 
ENDROOT
BRANCH   1   7
ATOM      7  C   UNL     1      73.686  38.295  21.289  1.00  0.00     0.010 C 
ATOM      8  C   UNL     1      74.724  38.641  20.512  1.00  0.00     0.025 C 
BRANCH   8   9
ATOM      9  C   UNL     1      74.638  39.020  19.088  1.00  0.00     0.064 C 
ATOM     10  O   UNL     1      75.097  38.238  18.215  1.00  0.00    -0.545 OA
ATOM     11  O   UNL     1      74.125  40.249  18.692  1.00  0.00    -0.545 OA
ENDBRANCH   8   9
ENDBRANCH   1   7
BRANCH   4  12
ATOM     12  O   UNL     1      69.041  39.777  20.503  1.00  0.00    -0.504 OA
ATOM     13  H   UNL     1      68.057  39.537  20.520  1.00  0.00     0.293 HD
ENDBRANCH   4  12
BRANCH   6  14
ATOM     14  O   UNL     1      68.452  37.340  19.295  1.00  0.00    -0.504 OA
ATOM     15  H   UNL     1      67.706  37.006  19.894  1.00  0.00     0.293 HD
ENDBRANCH   6  14
TORSDOF 4
ENDMDL
MODEL 6
REMARK VINA RESULT:    -3.923      2.847      4.171
REMARK INTER + INTRA:          -4.757
REMARK INTER:                  -4.477
REMARK INTRA:                  -0.280
REMARK UNBOUND:                -0.147
REMARK SMILES O=C([O-])C=Cc1ccc(O)c(O)c1
REMARK SMILES IDX 6 1 13 2 7 3 11 4 8 5 9 6 5 7 4 8 2 9 1 10 3 11 12 12 10 14
REMARK H PARENT 12 13 10 15
REMARK Flexibility Score: inf
ROOT
ATOM      1  C   UNL     1      71.375  37.212  19.607  1.00  0.00    -0.022 A 
ATOM      2  C   UNL     1      72.246  37.394  20.695  1.00  0.00     0.058 A 
ATOM      3  C   UNL     1      71.801  37.565  18.319  1.00  0.00     0.012 A 
ATOM      4  C   UNL     1      73.509  37.974  20.502  1.00  0.00     0.157 A 
ATOM      5  C   UNL     1      73.058  38.144  18.126  1.00  0.00     0.051 A 
ATOM      6  C   UNL     1      73.914  38.353  19.215  1.00  0.00     0.157 A 
ENDROOT
BRANCH   1   7
ATOM      7  C   UNL     1      70.062  36.555  19.780  1.00  0.00     0.010 C 
ATOM      8  C   UNL     1      68.938  37.162  20.192  1.00  0.00     0.025 C 
BRANCH   8   9
ATOM      9  C   UNL     1      68.764  38.618  20.360  1.00  0.00     0.064 C 
ATOM     10  O   UNL     1      68.669  39.096  21.520  1.00  0.00    -0.545 OA
ATOM     11  O   UNL     1      68.633  39.465  19.267  1.00  0.00    -0.545 OA
ENDBRANCH   8   9
ENDBRANCH   1   7
BRANCH   4  12
ATOM     12  O   UNL     1      74.367  38.171  21.583  1.00  0.00    -0.504 OA
ATOM     13  H   UNL     1      74.951  37.425  21.940  1.00  0.00     0.293 HD
ENDBRANCH   4  12
BRANCH   6  14
ATOM     14  O   UNL     1      75.168  38.932  19.028  1.00  0.00    -0.504 OA
ATOM     15  H   UNL     1      75.789  39.114  19.807  1.00  0.00     0.293 HD
ENDBRANCH   6  14
TORSDOF 4
ENDMDL
MODEL 7
REMARK VINA RESULT:    -3.891      4.080      6.354
REMARK INTER + INTRA:          -4.720
REMARK INTER:                  -4.503
REMARK INTRA:                  -0.217
REMARK UNBOUND:                -0.147
REMARK SMILES O=C([O-])C=Cc1ccc(O)c(O)c1
REMARK SMILES IDX 6 1 13 2 7 3 11 4 8 5 9 6 5 7 4 8 2 9 1 10 3 11 12 12 10 14
REMARK H PARENT 12 13 10 15
REMARK Flexibility Score: inf
ROOT
ATOM      1  C   UNL     1      69.287  36.917  19.269  1.00  0.00    -0.022 A 
ATOM      2  C   UNL     1      68.700  37.301  20.487  1.00  0.00     0.058 A 
ATOM      3  C   UNL     1      68.741  37.386  18.066  1.00  0.00     0.012 A 
ATOM      4  C   UNL     1      67.547  38.099  20.497  1.00  0.00     0.157 A 
ATOM      5  C   UNL     1      67.591  38.180  18.075  1.00  0.00     0.051 A 
ATOM      6  C   UNL     1      66.989  38.536  19.289  1.00  0.00     0.157 A 
ENDROOT
BRANCH   1   7
ATOM      7  C   UNL     1      70.532  36.121  19.236  1.00  0.00     0.010 C 
ATOM      8  C   UNL     1      71.765  36.599  19.459  1.00  0.00     0.025 C 
BRANCH   8   9
ATOM      9  C   UNL     1      72.082  37.950  19.960  1.00  0.00     0.064 C 
ATOM     10  O   UNL     1      72.226  38.130  21.197  1.00  0.00    -0.545 OA
ATOM     11  O   UNL     1      72.156  39.044  19.106  1.00  0.00    -0.545 OA
ENDBRANCH   8   9
ENDBRANCH   1   7
BRANCH   4  12
ATOM     12  O   UNL     1      66.953  38.465  21.704  1.00  0.00    -0.504 OA
ATOM     13  H   UNL     1      67.276  38.091  22.589  1.00  0.00     0.293 HD
ENDBRANCH   4  12
BRANCH   6  14
ATOM     14  O   UNL     1      65.841  39.326  19.303  1.00  0.00    -0.504 OA
ATOM     15  H   UNL     1      64.923  38.930  19.142  1.00  0.00     0.293 HD
ENDBRANCH   6  14
TORSDOF 4
ENDMDL
