MODEL 1
REMARK VINA RESULT:    -7.487      0.000      0.000
REMARK INTER + INTRA:          -9.616
REMARK INTER:                  -9.238
REMARK INTRA:                  -0.378
REMARK UNBOUND:                -0.378
REMARK SMILES Oc1cc(O)c2cc(O)c(-c3cc(O)c(O)c(O)c3)[o+]c2c1.[Cl-]
REMARK SMILES IDX 10 1 20 2 21 3 22 4 2 5 3 6 4 7 6 8 7 9 8 10 11 11 12 12
REMARK SMILES IDX 13 13 19 14 15 15 17 16 14 17 16 19 18 21 9 23 1 25 5 27
REMARK H PARENT 14 18 16 20 18 22 9 24 1 26 5 28
REMARK Flexibility Score: inf
ROOT
ATOM      1  C   UNL     1       9.087  -5.467   9.483  1.00  0.00     0.402 A 
ATOM      2  O   UNL     1       9.729  -4.772   8.547  1.00  0.00    -0.202 OA
ATOM      3  C   UNL     1      10.790  -4.013   8.799  1.00  0.00     0.368 A 
ATOM      4  C   UNL     1      11.395  -3.318   7.748  1.00  0.00     0.162 A 
ATOM      5  C   UNL     1      12.508  -2.511   7.985  1.00  0.00     0.128 A 
ATOM      6  C   UNL     1      13.021  -2.395   9.281  1.00  0.00     0.093 A 
ATOM      7  C   UNL     1      12.434  -3.080  10.351  1.00  0.00     0.136 A 
ATOM      8  C   UNL     1      11.303  -3.905  10.114  1.00  0.00     0.125 A 
ATOM      9  C   UNL     1      10.657  -4.639  11.122  1.00  0.00     0.078 A 
ATOM     10  C   UNL     1       9.550  -5.433  10.811  1.00  0.00     0.223 A 
ENDROOT
BRANCH   1  11
ATOM     11  C   UNL     1       7.911  -6.269   9.077  1.00  0.00     0.091 A 
ATOM     12  C   UNL     1       6.625  -5.720   9.197  1.00  0.00     0.068 A 
ATOM     13  C   UNL     1       5.495  -6.466   8.838  1.00  0.00     0.162 A 
ATOM     14  C   UNL     1       8.050  -7.594   8.626  1.00  0.00     0.068 A 
ATOM     15  C   UNL     1       5.641  -7.778   8.370  1.00  0.00     0.200 A 
ATOM     16  C   UNL     1       6.922  -8.346   8.268  1.00  0.00     0.162 A 
BRANCH  13  17
ATOM     17  O   UNL     1       4.221  -5.910   8.946  1.00  0.00    -0.504 OA
ATOM     18  H   UNL     1       3.877  -5.540   9.825  1.00  0.00     0.293 HD
ENDBRANCH  13  17
BRANCH  15  19
ATOM     19  O   UNL     1       4.503  -8.505   8.016  1.00  0.00    -0.502 OA
ATOM     20  H   UNL     1       4.363  -9.463   8.312  1.00  0.00     0.293 HD
ENDBRANCH  15  19
BRANCH  16  21
ATOM     21  O   UNL     1       7.070  -9.656   7.816  1.00  0.00    -0.504 OA
ATOM     22  H   UNL     1       7.765  -9.903   7.122  1.00  0.00     0.293 HD
ENDBRANCH  16  21
ENDBRANCH   1  11
BRANCH  10  23
ATOM     23  O   UNL     1       8.939  -6.202  11.803  1.00  0.00    -0.500 OA
ATOM     24  H   UNL     1       7.958  -6.450  11.756  1.00  0.00     0.294 HD
ENDBRANCH  10  23
BRANCH   5  25
ATOM     25  O   UNL     1      13.097  -1.827   6.924  1.00  0.00    -0.507 OA
ATOM     26  H   UNL     1      12.538  -1.386   6.203  1.00  0.00     0.293 HD
ENDBRANCH   5  25
BRANCH   7  27
ATOM     27  O   UNL     1      13.003  -2.911  11.616  1.00  0.00    -0.507 OA
ATOM     28  H   UNL     1      13.148  -2.016  12.063  1.00  0.00     0.293 HD
ENDBRANCH   7  27
TORSDOF 7
ENDMDL
MODEL 2
REMARK VINA RESULT:    -7.428      0.099      1.791
REMARK INTER + INTRA:          -9.542
REMARK INTER:                  -9.158
REMARK INTRA:                  -0.384
REMARK UNBOUND:                -0.378
REMARK SMILES Oc1cc(O)c2cc(O)c(-c3cc(O)c(O)c(O)c3)[o+]c2c1.[Cl-]
REMARK SMILES IDX 10 1 20 2 21 3 22 4 2 5 3 6 4 7 6 8 7 9 8 10 11 11 12 12
REMARK SMILES IDX 13 13 19 14 15 15 17 16 14 17 16 19 18 21 9 23 1 25 5 27
REMARK H PARENT 14 18 16 20 18 22 9 24 1 26 5 28
REMARK Flexibility Score: inf
ROOT
ATOM      1  C   UNL     1       9.056  -5.476   9.556  1.00  0.00     0.402 A 
ATOM      2  O   UNL     1       9.694  -4.767   8.628  1.00  0.00    -0.202 OA
ATOM      3  C   UNL     1      10.757  -4.013   8.888  1.00  0.00     0.368 A 
ATOM      4  C   UNL     1      11.357  -3.302   7.845  1.00  0.00     0.162 A 
ATOM      5  C   UNL     1      12.473  -2.500   8.090  1.00  0.00     0.128 A 
ATOM      6  C   UNL     1      12.992  -2.405   9.385  1.00  0.00     0.093 A 
ATOM      7  C   UNL     1      12.410  -3.108  10.447  1.00  0.00     0.136 A 
ATOM      8  C   UNL     1      11.277  -3.927  10.202  1.00  0.00     0.125 A 
ATOM      9  C   UNL     1      10.635  -4.676  11.201  1.00  0.00     0.078 A 
ATOM     10  C   UNL     1       9.526  -5.465  10.883  1.00  0.00     0.223 A 
ENDROOT
BRANCH   1  11
ATOM     11  C   UNL     1       7.878  -6.271   9.143  1.00  0.00     0.091 A 
ATOM     12  C   UNL     1       8.062  -7.562   8.624  1.00  0.00     0.068 A 
ATOM     13  C   UNL     1       6.964  -8.326   8.208  1.00  0.00     0.162 A 
ATOM     14  C   UNL     1       6.578  -5.738   9.206  1.00  0.00     0.068 A 
ATOM     15  C   UNL     1       5.670  -7.798   8.293  1.00  0.00     0.200 A 
ATOM     16  C   UNL     1       5.476  -6.498   8.788  1.00  0.00     0.162 A 
BRANCH  13  17
ATOM     17  O   UNL     1       7.152  -9.614   7.708  1.00  0.00    -0.504 OA
ATOM     18  H   UNL     1       6.392 -10.135   7.288  1.00  0.00     0.293 HD
ENDBRANCH  13  17
BRANCH  15  19
ATOM     19  O   UNL     1       4.588  -8.575   7.875  1.00  0.00    -0.502 OA
ATOM     20  H   UNL     1       4.256  -9.369   8.411  1.00  0.00     0.293 HD
ENDBRANCH  15  19
BRANCH  16  21
ATOM     21  O   UNL     1       4.190  -5.963   8.861  1.00  0.00    -0.504 OA
ATOM     22  H   UNL     1       3.757  -5.742   9.749  1.00  0.00     0.293 HD
ENDBRANCH  16  21
ENDBRANCH   1  11
BRANCH  10  23
ATOM     23  O   UNL     1       8.919  -6.249  11.865  1.00  0.00    -0.500 OA
ATOM     24  H   UNL     1       9.291  -6.307  12.805  1.00  0.00     0.294 HD
ENDBRANCH  10  23
BRANCH   5  25
ATOM     25  O   UNL     1      13.057  -1.799   7.038  1.00  0.00    -0.507 OA
ATOM     26  H   UNL     1      12.889  -0.809   6.902  1.00  0.00     0.293 HD
ENDBRANCH   5  25
BRANCH   7  27
ATOM     27  O   UNL     1      12.986  -2.959  11.711  1.00  0.00    -0.507 OA
ATOM     28  H   UNL     1      13.906  -2.577  11.879  1.00  0.00     0.293 HD
ENDBRANCH   7  27
TORSDOF 7
ENDMDL
MODEL 3
REMARK VINA RESULT:    -7.400      7.526     11.001
REMARK INTER + INTRA:          -9.508
REMARK INTER:                  -9.128
REMARK INTRA:                  -0.380
REMARK UNBOUND:                -0.378
REMARK SMILES Oc1cc(O)c2cc(O)c(-c3cc(O)c(O)c(O)c3)[o+]c2c1.[Cl-]
REMARK SMILES IDX 10 1 20 2 21 3 22 4 2 5 3 6 4 7 6 8 7 9 8 10 11 11 12 12
REMARK SMILES IDX 13 13 19 14 15 15 17 16 14 17 16 19 18 21 9 23 1 25 5 27
REMARK H PARENT 14 18 16 20 18 22 9 24 1 26 5 28
REMARK Flexibility Score: inf
ROOT
ATOM      1  C   UNL     1      13.803  -3.842  16.253  1.00  0.00     0.402 A 
ATOM      2  O   UNL     1      12.745  -4.348  16.881  1.00  0.00    -0.202 OA
ATOM      3  C   UNL     1      11.498  -3.951  16.648  1.00  0.00     0.368 A 
ATOM      4  C   UNL     1      10.452  -4.541  17.362  1.00  0.00     0.162 A 
ATOM      5  C   UNL     1       9.133  -4.142  17.139  1.00  0.00     0.128 A 
ATOM      6  C   UNL     1       8.857  -3.145  16.198  1.00  0.00     0.093 A 
ATOM      7  C   UNL     1       9.887  -2.538  15.470  1.00  0.00     0.136 A 
ATOM      8  C   UNL     1      11.229  -2.943  15.691  1.00  0.00     0.125 A 
ATOM      9  C   UNL     1      12.324  -2.400  14.999  1.00  0.00     0.078 A 
ATOM     10  C   UNL     1      13.619  -2.854  15.268  1.00  0.00     0.223 A 
ENDROOT
BRANCH   1  11
ATOM     11  C   UNL     1      15.143  -4.362  16.608  1.00  0.00     0.091 A 
ATOM     12  C   UNL     1      15.664  -5.463  15.911  1.00  0.00     0.068 A 
ATOM     13  C   UNL     1      16.922  -5.985  16.241  1.00  0.00     0.162 A 
ATOM     14  C   UNL     1      15.883  -3.811  17.669  1.00  0.00     0.068 A 
ATOM     15  C   UNL     1      17.663  -5.419  17.286  1.00  0.00     0.200 A 
ATOM     16  C   UNL     1      17.141  -4.332  18.006  1.00  0.00     0.162 A 
BRANCH  13  17
ATOM     17  O   UNL     1      17.441  -7.069  15.536  1.00  0.00    -0.504 OA
ATOM     18  H   UNL     1      17.100  -8.011  15.686  1.00  0.00     0.293 HD
ENDBRANCH  13  17
BRANCH  15  19
ATOM     19  O   UNL     1      18.915  -5.952  17.599  1.00  0.00    -0.502 OA
ATOM     20  H   UNL     1      19.777  -5.530  17.275  1.00  0.00     0.293 HD
ENDBRANCH  15  19
BRANCH  16  21
ATOM     21  O   UNL     1      17.870  -3.775  19.056  1.00  0.00    -0.504 OA
ATOM     22  H   UNL     1      17.557  -3.848  20.017  1.00  0.00     0.293 HD
ENDBRANCH  16  21
ENDBRANCH   1  11
BRANCH  10  23
ATOM     23  O   UNL     1      14.701  -2.351  14.545  1.00  0.00    -0.500 OA
ATOM     24  H   UNL     1      15.217  -1.536  14.855  1.00  0.00     0.294 HD
ENDBRANCH  10  23
BRANCH   5  25
ATOM     25  O   UNL     1       8.104  -4.742  17.860  1.00  0.00    -0.507 OA
ATOM     26  H   UNL     1       7.140  -4.691  17.552  1.00  0.00     0.293 HD
ENDBRANCH   5  25
BRANCH   7  27
ATOM     27  O   UNL     1       9.530  -1.548  14.551  1.00  0.00    -0.507 OA
ATOM     28  H   UNL     1      10.021  -1.366  13.687  1.00  0.00     0.293 HD
ENDBRANCH   7  27
TORSDOF 7
ENDMDL
MODEL 4
REMARK VINA RESULT:    -7.378      5.342      9.576
REMARK INTER + INTRA:          -9.481
REMARK INTER:                  -9.119
REMARK INTRA:                  -0.362
REMARK UNBOUND:                -0.378
REMARK SMILES Oc1cc(O)c2cc(O)c(-c3cc(O)c(O)c(O)c3)[o+]c2c1.[Cl-]
REMARK SMILES IDX 10 1 20 2 21 3 22 4 2 5 3 6 4 7 6 8 7 9 8 10 11 11 12 12
REMARK SMILES IDX 13 13 19 14 15 15 17 16 14 17 16 19 18 21 9 23 1 25 5 27
REMARK H PARENT 14 18 16 20 18 22 9 24 1 26 5 28
REMARK Flexibility Score: inf
ROOT
ATOM      1  C   UNL     1      11.990  -4.324  15.037  1.00  0.00     0.402 A 
ATOM      2  O   UNL     1      10.987  -3.574  15.486  1.00  0.00    -0.202 OA
ATOM      3  C   UNL     1       9.824  -3.456  14.854  1.00  0.00     0.368 A 
ATOM      4  C   UNL     1       8.831  -2.641  15.405  1.00  0.00     0.162 A 
ATOM      5  C   UNL     1       7.601  -2.497  14.761  1.00  0.00     0.128 A 
ATOM      6  C   UNL     1       7.360  -3.170  13.559  1.00  0.00     0.093 A 
ATOM      7  C   UNL     1       8.339  -3.992  12.987  1.00  0.00     0.136 A 
ATOM      8  C   UNL     1       9.590  -4.144  13.640  1.00  0.00     0.125 A 
ATOM      9  C   UNL     1      10.624  -4.957  13.148  1.00  0.00     0.078 A 
ATOM     10  C   UNL     1      11.829  -5.060  13.849  1.00  0.00     0.223 A 
ENDROOT
BRANCH   1  11
ATOM     11  C   UNL     1      13.242  -4.365  15.827  1.00  0.00     0.091 A 
ATOM     12  C   UNL     1      13.441  -5.403  16.751  1.00  0.00     0.068 A 
ATOM     13  C   UNL     1      14.608  -5.454  17.525  1.00  0.00     0.162 A 
ATOM     14  C   UNL     1      14.213  -3.355  15.713  1.00  0.00     0.068 A 
ATOM     15  C   UNL     1      15.581  -4.456  17.392  1.00  0.00     0.200 A 
ATOM     16  C   UNL     1      15.381  -3.400  16.487  1.00  0.00     0.162 A 
BRANCH  13  17
ATOM     17  O   UNL     1      14.807  -6.495  18.431  1.00  0.00    -0.504 OA
ATOM     18  H   UNL     1      14.232  -6.593  19.259  1.00  0.00     0.293 HD
ENDBRANCH  13  17
BRANCH  15  19
ATOM     19  O   UNL     1      16.737  -4.524  18.170  1.00  0.00    -0.502 OA
ATOM     20  H   UNL     1      16.777  -5.058  19.031  1.00  0.00     0.293 HD
ENDBRANCH  15  19
BRANCH  16  21
ATOM     21  O   UNL     1      16.341  -2.396  16.363  1.00  0.00    -0.504 OA
ATOM     22  H   UNL     1      16.788  -1.986  17.174  1.00  0.00     0.293 HD
ENDBRANCH  16  21
ENDBRANCH   1  11
BRANCH  10  23
ATOM     23  O   UNL     1      12.837  -5.907  13.387  1.00  0.00    -0.500 OA
ATOM     24  H   UNL     1      13.816  -5.717  13.568  1.00  0.00     0.294 HD
ENDBRANCH  10  23
BRANCH   5  25
ATOM     25  O   UNL     1       6.624  -1.681  15.326  1.00  0.00    -0.507 OA
ATOM     26  H   UNL     1       6.283  -1.835  16.267  1.00  0.00     0.293 HD
ENDBRANCH   5  25
BRANCH   7  27
ATOM     27  O   UNL     1       8.023  -4.628  11.784  1.00  0.00    -0.507 OA
ATOM     28  H   UNL     1       8.364  -4.340  10.878  1.00  0.00     0.293 HD
ENDBRANCH   7  27
TORSDOF 7
ENDMDL
MODEL 5
REMARK VINA RESULT:    -7.217      4.844      9.201
REMARK INTER + INTRA:          -9.282
REMARK INTER:                  -9.355
REMARK INTRA:                   0.073
REMARK UNBOUND:                -0.378
REMARK SMILES Oc1cc(O)c2cc(O)c(-c3cc(O)c(O)c(O)c3)[o+]c2c1.[Cl-]
REMARK SMILES IDX 10 1 20 2 21 3 22 4 2 5 3 6 4 7 6 8 7 9 8 10 11 11 12 12
REMARK SMILES IDX 13 13 19 14 15 15 17 16 14 17 16 19 18 21 9 23 1 25 5 27
REMARK H PARENT 14 18 16 20 18 22 9 24 1 26 5 28
REMARK Flexibility Score: inf
ROOT
ATOM      1  C   UNL     1      12.126  -4.034  14.626  1.00  0.00     0.402 A 
ATOM      2  O   UNL     1      10.877  -3.607  14.460  1.00  0.00    -0.202 OA
ATOM      3  C   UNL     1      10.078  -4.042  13.491  1.00  0.00     0.368 A 
ATOM      4  C   UNL     1       8.781  -3.530  13.397  1.00  0.00     0.162 A 
ATOM      5  C   UNL     1       7.922  -3.968  12.388  1.00  0.00     0.128 A 
ATOM      6  C   UNL     1       8.361  -4.923  11.465  1.00  0.00     0.093 A 
ATOM      7  C   UNL     1       9.655  -5.451  11.537  1.00  0.00     0.136 A 
ATOM      8  C   UNL     1      10.531  -5.011  12.564  1.00  0.00     0.125 A 
ATOM      9  C   UNL     1      11.840  -5.494  12.722  1.00  0.00     0.078 A 
ATOM     10  C   UNL     1      12.644  -5.016  13.761  1.00  0.00     0.223 A 
ENDROOT
BRANCH   1  11
ATOM     11  C   UNL     1      12.919  -3.465  15.738  1.00  0.00     0.091 A 
ATOM     12  C   UNL     1      12.279  -3.120  16.938  1.00  0.00     0.068 A 
ATOM     13  C   UNL     1      13.004  -2.562  17.999  1.00  0.00     0.162 A 
ATOM     14  C   UNL     1      14.295  -3.208  15.599  1.00  0.00     0.068 A 
ATOM     15  C   UNL     1      14.378  -2.327  17.861  1.00  0.00     0.200 A 
ATOM     16  C   UNL     1      15.025  -2.646  16.656  1.00  0.00     0.162 A 
BRANCH  13  17
ATOM     17  O   UNL     1      12.365  -2.235  19.194  1.00  0.00    -0.504 OA
ATOM     18  H   UNL     1      11.792  -1.404  19.278  1.00  0.00     0.293 HD
ENDBRANCH  13  17
BRANCH  15  19
ATOM     19  O   UNL     1      15.084  -1.771  18.929  1.00  0.00    -0.502 OA
ATOM     20  H   UNL     1      15.884  -2.233  19.345  1.00  0.00     0.293 HD
ENDBRANCH  15  19
BRANCH  16  21
ATOM     21  O   UNL     1      16.390  -2.400  16.510  1.00  0.00    -0.504 OA
ATOM     22  H   UNL     1      16.958  -2.085  17.287  1.00  0.00     0.293 HD
ENDBRANCH  16  21
ENDBRANCH   1  11
BRANCH  10  23
ATOM     23  O   UNL     1      13.926  -5.533  13.949  1.00  0.00    -0.500 OA
ATOM     24  H   UNL     1      14.448  -5.953  13.189  1.00  0.00     0.294 HD
ENDBRANCH  10  23
BRANCH   5  25
ATOM     25  O   UNL     1       6.633  -3.445  12.311  1.00  0.00    -0.507 OA
ATOM     26  H   UNL     1       6.257  -2.854  13.043  1.00  0.00     0.293 HD
ENDBRANCH   5  25
BRANCH   7  27
ATOM     27  O   UNL     1      10.019  -6.399  10.577  1.00  0.00    -0.507 OA
ATOM     28  H   UNL     1      10.965  -6.714  10.414  1.00  0.00     0.293 HD
ENDBRANCH   7  27
TORSDOF 7
ENDMDL
MODEL 6
REMARK VINA RESULT:    -7.180      3.516      6.074
REMARK INTER + INTRA:          -9.237
REMARK INTER:                  -8.857
REMARK INTRA:                  -0.379
REMARK UNBOUND:                -0.378
REMARK SMILES Oc1cc(O)c2cc(O)c(-c3cc(O)c(O)c(O)c3)[o+]c2c1.[Cl-]
REMARK SMILES IDX 10 1 20 2 21 3 22 4 2 5 3 6 4 7 6 8 7 9 8 10 11 11 12 12
REMARK SMILES IDX 13 13 19 14 15 15 17 16 14 17 16 19 18 21 9 23 1 25 5 27
REMARK H PARENT 14 18 16 20 18 22 9 24 1 26 5 28
REMARK Flexibility Score: inf
ROOT
ATOM      1  C   UNL     1       4.875  -7.225   6.854  1.00  0.00     0.402 A 
ATOM      2  O   UNL     1       5.022  -6.408   7.893  1.00  0.00    -0.202 OA
ATOM      3  C   UNL     1       6.142  -6.322   8.603  1.00  0.00     0.368 A 
ATOM      4  C   UNL     1       6.198  -5.434   9.681  1.00  0.00     0.162 A 
ATOM      5  C   UNL     1       7.361  -5.325  10.444  1.00  0.00     0.128 A 
ATOM      6  C   UNL     1       8.477  -6.108  10.130  1.00  0.00     0.093 A 
ATOM      7  C   UNL     1       8.446  -7.005   9.055  1.00  0.00     0.136 A 
ATOM      8  C   UNL     1       7.266  -7.117   8.275  1.00  0.00     0.125 A 
ATOM      9  C   UNL     1       7.149  -7.978   7.172  1.00  0.00     0.078 A 
ATOM     10  C   UNL     1       5.955  -8.031   6.447  1.00  0.00     0.223 A 
ENDROOT
BRANCH   1  11
ATOM     11  C   UNL     1       3.573  -7.237   6.150  1.00  0.00     0.091 A 
ATOM     12  C   UNL     1       3.363  -6.366   5.070  1.00  0.00     0.068 A 
ATOM     13  C   UNL     1       2.133  -6.345   4.400  1.00  0.00     0.162 A 
ATOM     14  C   UNL     1       2.519  -8.065   6.576  1.00  0.00     0.068 A 
ATOM     15  C   UNL     1       1.094  -7.186   4.816  1.00  0.00     0.200 A 
ATOM     16  C   UNL     1       1.285  -8.045   5.911  1.00  0.00     0.162 A 
BRANCH  13  17
ATOM     17  O   UNL     1       1.935  -5.487   3.319  1.00  0.00    -0.504 OA
ATOM     18  H   UNL     1       2.646  -5.357   2.609  1.00  0.00     0.293 HD
ENDBRANCH  13  17
BRANCH  15  19
ATOM     19  O   UNL     1      -0.124  -7.151   4.135  1.00  0.00    -0.502 OA
ATOM     20  H   UNL     1      -0.288  -7.695   3.297  1.00  0.00     0.293 HD
ENDBRANCH  15  19
BRANCH  16  21
ATOM     21  O   UNL     1       0.247  -8.874   6.337  1.00  0.00    -0.504 OA
ATOM     22  H   UNL     1      -0.055  -8.891   7.304  1.00  0.00     0.293 HD
ENDBRANCH  16  21
ENDBRANCH   1  11
BRANCH  10  23
ATOM     23  O   UNL     1       5.855  -8.849   5.321  1.00  0.00    -0.500 OA
ATOM     24  H   UNL     1       6.629  -8.968   4.678  1.00  0.00     0.294 HD
ENDBRANCH  10  23
BRANCH   5  25
ATOM     25  O   UNL     1       7.397  -4.435  11.515  1.00  0.00    -0.507 OA
ATOM     26  H   UNL     1       8.179  -4.411  12.158  1.00  0.00     0.293 HD
ENDBRANCH   5  25
BRANCH   7  27
ATOM     27  O   UNL     1       9.600  -7.753   8.808  1.00  0.00    -0.507 OA
ATOM     28  H   UNL     1       9.638  -8.762   8.808  1.00  0.00     0.293 HD
ENDBRANCH   7  27
TORSDOF 7
ENDMDL
MODEL 7
REMARK VINA RESULT:    -7.178      4.780      7.088
REMARK INTER + INTRA:          -9.234
REMARK INTER:                  -8.850
REMARK INTRA:                  -0.384
REMARK UNBOUND:                -0.378
REMARK SMILES Oc1cc(O)c2cc(O)c(-c3cc(O)c(O)c(O)c3)[o+]c2c1.[Cl-]
REMARK SMILES IDX 10 1 20 2 21 3 22 4 2 5 3 6 4 7 6 8 7 9 8 10 11 11 12 12
REMARK SMILES IDX 13 13 19 14 15 15 17 16 14 17 16 19 18 21 9 23 1 25 5 27
REMARK H PARENT 14 18 16 20 18 22 9 24 1 26 5 28
REMARK Flexibility Score: inf
ROOT
ATOM      1  C   UNL     1      11.765  -4.347  13.886  1.00  0.00     0.402 A 
ATOM      2  O   UNL     1      12.240  -3.104  13.904  1.00  0.00    -0.202 OA
ATOM      3  C   UNL     1      12.496  -2.404  12.804  1.00  0.00     0.368 A 
ATOM      4  C   UNL     1      12.997  -1.105  12.926  1.00  0.00     0.162 A 
ATOM      5  C   UNL     1      13.277  -0.348  11.788  1.00  0.00     0.128 A 
ATOM      6  C   UNL     1      13.056  -0.891  10.518  1.00  0.00     0.093 A 
ATOM      7  C   UNL     1      12.554  -2.190  10.369  1.00  0.00     0.136 A 
ATOM      8  C   UNL     1      12.266  -2.962  11.524  1.00  0.00     0.125 A 
ATOM      9  C   UNL     1      11.749  -4.267  11.471  1.00  0.00     0.078 A 
ATOM     10  C   UNL     1      11.485  -4.965  12.653  1.00  0.00     0.223 A 
ENDROOT
BRANCH   1  11
ATOM     11  C   UNL     1      11.530  -5.026  15.180  1.00  0.00     0.091 A 
ATOM     12  C   UNL     1      10.346  -4.773  15.889  1.00  0.00     0.068 A 
ATOM     13  C   UNL     1      10.109  -5.389  17.125  1.00  0.00     0.162 A 
ATOM     14  C   UNL     1      12.496  -5.879  15.745  1.00  0.00     0.068 A 
ATOM     15  C   UNL     1      11.066  -6.253  17.672  1.00  0.00     0.200 A 
ATOM     16  C   UNL     1      12.265  -6.495  16.983  1.00  0.00     0.162 A 
BRANCH  13  17
ATOM     17  O   UNL     1       8.924  -5.145  17.817  1.00  0.00    -0.504 OA
ATOM     18  H   UNL     1       8.870  -4.441  18.544  1.00  0.00     0.293 HD
ENDBRANCH  13  17
BRANCH  15  19
ATOM     19  O   UNL     1      10.811  -6.858  18.904  1.00  0.00    -0.502 OA
ATOM     20  H   UNL     1      11.195  -7.763  19.149  1.00  0.00     0.293 HD
ENDBRANCH  15  19
BRANCH  16  21
ATOM     21  O   UNL     1      13.227  -7.343  17.531  1.00  0.00    -0.504 OA
ATOM     22  H   UNL     1      13.207  -7.605  18.510  1.00  0.00     0.293 HD
ENDBRANCH  16  21
ENDBRANCH   1  11
BRANCH  10  23
ATOM     23  O   UNL     1      10.924  -6.242  12.602  1.00  0.00    -0.500 OA
ATOM     24  H   UNL     1      10.083  -6.433  12.071  1.00  0.00     0.294 HD
ENDBRANCH  10  23
BRANCH   5  25
ATOM     25  O   UNL     1      13.775   0.945  11.930  1.00  0.00    -0.507 OA
ATOM     26  H   UNL     1      13.631   1.478  12.780  1.00  0.00     0.293 HD
ENDBRANCH   5  25
BRANCH   7  27
ATOM     27  O   UNL     1      12.364  -2.661   9.067  1.00  0.00    -0.507 OA
ATOM     28  H   UNL     1      13.088  -3.076   8.498  1.00  0.00     0.293 HD
ENDBRANCH   7  27
TORSDOF 7
ENDMDL
MODEL 8
REMARK VINA RESULT:    -7.176      2.277      3.308
REMARK INTER + INTRA:          -9.232
REMARK INTER:                  -8.855
REMARK INTRA:                  -0.377
REMARK UNBOUND:                -0.378
REMARK SMILES Oc1cc(O)c2cc(O)c(-c3cc(O)c(O)c(O)c3)[o+]c2c1.[Cl-]
REMARK SMILES IDX 10 1 20 2 21 3 22 4 2 5 3 6 4 7 6 8 7 9 8 10 11 11 12 12
REMARK SMILES IDX 13 13 19 14 15 15 17 16 14 17 16 19 18 21 9 23 1 25 5 27
REMARK H PARENT 14 18 16 20 18 22 9 24 1 26 5 28
REMARK Flexibility Score: inf
ROOT
ATOM      1  C   UNL     1      10.460  -4.551  11.126  1.00  0.00     0.402 A 
ATOM      2  O   UNL     1      10.590  -3.291  10.720  1.00  0.00    -0.202 OA
ATOM      3  C   UNL     1      11.415  -2.420  11.293  1.00  0.00     0.368 A 
ATOM      4  C   UNL     1      11.479  -1.116  10.795  1.00  0.00     0.162 A 
ATOM      5  C   UNL     1      12.334  -0.180  11.379  1.00  0.00     0.128 A 
ATOM      6  C   UNL     1      13.131  -0.549  12.467  1.00  0.00     0.093 A 
ATOM      7  C   UNL     1      13.085  -1.849  12.984  1.00  0.00     0.136 A 
ATOM      8  C   UNL     1      12.219  -2.804  12.392  1.00  0.00     0.125 A 
ATOM      9  C   UNL     1      12.117  -4.133  12.835  1.00  0.00     0.078 A 
ATOM     10  C   UNL     1      11.243  -5.020  12.198  1.00  0.00     0.223 A 
ENDROOT
BRANCH   1  11
ATOM     11  C   UNL     1       9.499  -5.422  10.412  1.00  0.00     0.091 A 
ATOM     12  C   UNL     1       9.939  -6.186   9.320  1.00  0.00     0.068 A 
ATOM     13  C   UNL     1       9.044  -7.003   8.615  1.00  0.00     0.162 A 
ATOM     14  C   UNL     1       8.139  -5.458  10.769  1.00  0.00     0.068 A 
ATOM     15  C   UNL     1       7.696  -7.050   8.988  1.00  0.00     0.200 A 
ATOM     16  C   UNL     1       7.240  -6.271  10.065  1.00  0.00     0.162 A 
BRANCH  13  17
ATOM     17  O   UNL     1       9.490  -7.770   7.540  1.00  0.00    -0.504 OA
ATOM     18  H   UNL     1      10.453  -8.076   7.471  1.00  0.00     0.293 HD
ENDBRANCH  13  17
BRANCH  15  19
ATOM     19  O   UNL     1       6.820  -7.871   8.276  1.00  0.00    -0.502 OA
ATOM     20  H   UNL     1       6.968  -8.097   7.299  1.00  0.00     0.293 HD
ENDBRANCH  15  19
BRANCH  16  21
ATOM     21  O   UNL     1       5.895  -6.305  10.431  1.00  0.00    -0.504 OA
ATOM     22  H   UNL     1       5.506  -7.081  10.954  1.00  0.00     0.293 HD
ENDBRANCH  16  21
ENDBRANCH   1  11
BRANCH  10  23
ATOM     23  O   UNL     1      11.178  -6.352  12.604  1.00  0.00    -0.500 OA
ATOM     24  H   UNL     1      10.297  -6.800  12.825  1.00  0.00     0.294 HD
ENDBRANCH  10  23
BRANCH   5  25
ATOM     25  O   UNL     1      12.384   1.115  10.868  1.00  0.00    -0.507 OA
ATOM     26  H   UNL     1      12.170   1.920  11.444  1.00  0.00     0.293 HD
ENDBRANCH   5  25
BRANCH   7  27
ATOM     27  O   UNL     1      13.910  -2.138  14.075  1.00  0.00    -0.507 OA
ATOM     28  H   UNL     1      14.068  -3.066  14.442  1.00  0.00     0.293 HD
ENDBRANCH   7  27
TORSDOF 7
ENDMDL
MODEL 9
REMARK VINA RESULT:    -7.129      5.560      9.464
REMARK INTER + INTRA:          -9.174
REMARK INTER:                  -9.080
REMARK INTRA:                  -0.094
REMARK UNBOUND:                -0.378
REMARK SMILES Oc1cc(O)c2cc(O)c(-c3cc(O)c(O)c(O)c3)[o+]c2c1.[Cl-]
REMARK SMILES IDX 10 1 20 2 21 3 22 4 2 5 3 6 4 7 6 8 7 9 8 10 11 11 12 12
REMARK SMILES IDX 13 13 19 14 15 15 17 16 14 17 16 19 18 21 9 23 1 25 5 27
REMARK H PARENT 14 18 16 20 18 22 9 24 1 26 5 28
REMARK Flexibility Score: inf
ROOT
ATOM      1  C   UNL     1      11.561  -3.275  15.846  1.00  0.00     0.402 A 
ATOM      2  O   UNL     1      10.879  -3.790  14.827  1.00  0.00    -0.202 OA
ATOM      3  C   UNL     1       9.641  -3.420  14.515  1.00  0.00     0.368 A 
ATOM      4  C   UNL     1       9.006  -4.023  13.426  1.00  0.00     0.162 A 
ATOM      5  C   UNL     1       7.705  -3.656  13.077  1.00  0.00     0.128 A 
ATOM      6  C   UNL     1       7.033  -2.681  13.822  1.00  0.00     0.093 A 
ATOM      7  C   UNL     1       7.647  -2.063  14.917  1.00  0.00     0.136 A 
ATOM      8  C   UNL     1       8.971  -2.431  15.273  1.00  0.00     0.125 A 
ATOM      9  C   UNL     1       9.670  -1.856  16.347  1.00  0.00     0.078 A 
ATOM     10  C   UNL     1      10.975  -2.267  16.635  1.00  0.00     0.223 A 
ENDROOT
BRANCH   1  11
ATOM     11  C   UNL     1      12.930  -3.777  16.099  1.00  0.00     0.091 A 
ATOM     12  C   UNL     1      14.004  -2.874  16.119  1.00  0.00     0.068 A 
ATOM     13  C   UNL     1      15.313  -3.327  16.336  1.00  0.00     0.162 A 
ATOM     14  C   UNL     1      13.188  -5.149  16.262  1.00  0.00     0.068 A 
ATOM     15  C   UNL     1      15.560  -4.693  16.519  1.00  0.00     0.200 A 
ATOM     16  C   UNL     1      14.495  -5.608  16.477  1.00  0.00     0.162 A 
BRANCH  13  17
ATOM     17  O   UNL     1      16.374  -2.423  16.370  1.00  0.00    -0.504 OA
ATOM     18  H   UNL     1      16.815  -2.092  15.520  1.00  0.00     0.293 HD
ENDBRANCH  13  17
BRANCH  15  19
ATOM     19  O   UNL     1      16.869  -5.125  16.735  1.00  0.00    -0.502 OA
ATOM     20  H   UNL     1      17.362  -4.939  17.601  1.00  0.00     0.293 HD
ENDBRANCH  15  19
BRANCH  16  21
ATOM     21  O   UNL     1      14.740  -6.971  16.644  1.00  0.00    -0.504 OA
ATOM     22  H   UNL     1      15.057  -7.348  17.529  1.00  0.00     0.293 HD
ENDBRANCH  16  21
ENDBRANCH   1  11
BRANCH  10  23
ATOM     23  O   UNL     1      11.688  -1.660  17.669  1.00  0.00    -0.500 OA
ATOM     24  H   UNL     1      12.422  -2.148  18.168  1.00  0.00     0.294 HD
ENDBRANCH  10  23
BRANCH   5  25
ATOM     25  O   UNL     1       7.089  -4.268  11.988  1.00  0.00    -0.507 OA
ATOM     26  H   UNL     1       6.982  -3.788  11.102  1.00  0.00     0.293 HD
ENDBRANCH   5  25
BRANCH   7  27
ATOM     27  O   UNL     1       6.909  -1.101  15.612  1.00  0.00    -0.507 OA
ATOM     28  H   UNL     1       5.989  -0.782  15.343  1.00  0.00     0.293 HD
ENDBRANCH   7  27
TORSDOF 7
ENDMDL
