MODEL 1
REMARK VINA RESULT:     3.292      0.000      0.000
REMARK INTER + INTRA:           3.690
REMARK INTER:                   3.869
REMARK INTRA:                  -0.179
REMARK UNBOUND:                -0.179
REMARK SMILES O=c1c(O)c(-c2ccc(O)cc2)oc2cc(O)cc(O)c12
REMARK SMILES IDX 5 1 3 2 2 3 1 4 21 5 19 6 18 7 16 8 15 9 14 10 13 11 6 12
REMARK SMILES IDX 7 13 8 14 9 15 12 16 11 17 10 18 4 20 20 22 17 24
REMARK H PARENT 10 19 4 21 20 23 17 25
REMARK Flexibility Score: inf
ROOT
ATOM      1  C   UNL     1       0.576 -30.985  -3.236  1.00  0.00     0.180 A 
ATOM      2  C   UNL     1      -0.704 -31.220  -3.767  1.00  0.00     0.208 A 
ATOM      3  C   UNL     1      -0.825 -31.584  -5.117  1.00  0.00     0.238 A 
ATOM      4  O   UNL     1      -1.967 -31.865  -5.565  1.00  0.00    -0.285 OA
ATOM      5  C   UNL     1       0.330 -31.654  -5.934  1.00  0.00     0.111 A 
ATOM      6  C   UNL     1       0.320 -31.970  -7.328  1.00  0.00     0.134 A 
ATOM      7  C   UNL     1       1.534 -32.113  -8.010  1.00  0.00     0.093 A 
ATOM      8  C   UNL     1       2.752 -31.892  -7.371  1.00  0.00     0.123 A 
ATOM      9  C   UNL     1       2.771 -31.531  -6.023  1.00  0.00     0.094 A 
ATOM     10  C   UNL     1       1.578 -31.416  -5.305  1.00  0.00     0.146 A 
ATOM     11  O   UNL     1       1.643 -31.090  -4.019  1.00  0.00    -0.452 OA
ENDROOT
BRANCH   1  12
ATOM     12  C   UNL     1       0.787 -30.612  -1.818  1.00  0.00     0.021 A 
ATOM     13  C   UNL     1       0.516 -31.516  -0.775  1.00  0.00     0.016 A 
ATOM     14  C   UNL     1       0.746 -31.148   0.555  1.00  0.00     0.047 A 
ATOM     15  C   UNL     1       1.259 -29.884   0.858  1.00  0.00     0.115 A 
ATOM     16  C   UNL     1       1.322 -29.351  -1.508  1.00  0.00     0.016 A 
ATOM     17  C   UNL     1       1.550 -28.986  -0.178  1.00  0.00     0.047 A 
BRANCH  15  18
ATOM     18  O   UNL     1       1.482 -29.532   2.187  1.00  0.00    -0.508 OA
ATOM     19  H   UNL     1       0.792 -29.017   2.722  1.00  0.00     0.293 HD
ENDBRANCH  15  18
ENDBRANCH   1  12
BRANCH   2  20
ATOM     20  O   UNL     1      -1.837 -31.071  -2.962  1.00  0.00    -0.502 OA
ATOM     21  H   UNL     1      -2.700 -31.572  -3.139  1.00  0.00     0.293 HD
ENDBRANCH   2  20
BRANCH   6  22
ATOM     22  O   UNL     1      -0.843 -32.124  -8.088  1.00  0.00    -0.507 OA
ATOM     23  H   UNL     1      -1.043 -31.634  -8.946  1.00  0.00     0.293 HD
ENDBRANCH   6  22
BRANCH   8  24
ATOM     24  O   UNL     1       3.940 -32.028  -8.086  1.00  0.00    -0.508 OA
ATOM     25  H   UNL     1       4.537 -31.232  -8.279  1.00  0.00     0.293 HD
ENDBRANCH   8  24
TORSDOF 5
ENDMDL
MODEL 2
REMARK VINA RESULT:     5.582      1.524      3.459
REMARK INTER + INTRA:           6.382
REMARK INTER:                   6.485
REMARK INTRA:                  -0.103
REMARK UNBOUND:                -0.179
REMARK SMILES O=c1c(O)c(-c2ccc(O)cc2)oc2cc(O)cc(O)c12
REMARK SMILES IDX 5 1 3 2 2 3 1 4 21 5 19 6 18 7 16 8 15 9 14 10 13 11 6 12
REMARK SMILES IDX 7 13 8 14 9 15 12 16 11 17 10 18 4 20 20 22 17 24
REMARK H PARENT 10 19 4 21 20 23 17 25
REMARK Flexibility Score: inf
ROOT
ATOM      1  C   UNL     1       0.065 -30.818  -3.133  1.00  0.00     0.180 A 
ATOM      2  C   UNL     1       0.958 -30.938  -4.212  1.00  0.00     0.208 A 
ATOM      3  C   UNL     1       0.451 -31.242  -5.485  1.00  0.00     0.238 A 
ATOM      4  O   UNL     1       1.248 -31.273  -6.459  1.00  0.00    -0.285 OA
ATOM      5  C   UNL     1      -0.935 -31.478  -5.654  1.00  0.00     0.111 A 
ATOM      6  C   UNL     1      -1.553 -31.837  -6.891  1.00  0.00     0.134 A 
ATOM      7  C   UNL     1      -2.947 -31.942  -6.961  1.00  0.00     0.093 A 
ATOM      8  C   UNL     1      -3.741 -31.765  -5.829  1.00  0.00     0.123 A 
ATOM      9  C   UNL     1      -3.144 -31.466  -4.604  1.00  0.00     0.094 A 
ATOM     10  C   UNL     1      -1.758 -31.318  -4.510  1.00  0.00     0.146 A 
ATOM     11  O   UNL     1      -1.233 -31.013  -3.329  1.00  0.00    -0.452 OA
ENDROOT
BRANCH   1  12
ATOM     12  C   UNL     1       0.521 -30.486  -1.764  1.00  0.00     0.021 A 
ATOM     13  C   UNL     1       0.383 -31.400  -0.703  1.00  0.00     0.016 A 
ATOM     14  C   UNL     1       0.843 -31.071   0.576  1.00  0.00     0.047 A 
ATOM     15  C   UNL     1       1.457 -29.837   0.809  1.00  0.00     0.115 A 
ATOM     16  C   UNL     1       1.157 -29.256  -1.527  1.00  0.00     0.016 A 
ATOM     17  C   UNL     1       1.616 -28.930  -0.248  1.00  0.00     0.047 A 
BRANCH  15  18
ATOM     18  O   UNL     1       1.909 -29.523   2.088  1.00  0.00    -0.508 OA
ATOM     19  H   UNL     1       1.549 -28.724   2.597  1.00  0.00     0.293 HD
ENDBRANCH  15  18
ENDBRANCH   1  12
BRANCH   2  20
ATOM     20  O   UNL     1       2.332 -30.776  -4.009  1.00  0.00    -0.502 OA
ATOM     21  H   UNL     1       2.986 -31.547  -4.073  1.00  0.00     0.293 HD
ENDBRANCH   2  20
BRANCH   6  22
ATOM     22  O   UNL     1      -0.848 -32.125  -8.064  1.00  0.00    -0.507 OA
ATOM     23  H   UNL     1      -0.249 -32.925  -8.197  1.00  0.00     0.293 HD
ENDBRANCH   6  22
BRANCH   8  24
ATOM     24  O   UNL     1      -5.125 -31.894  -5.933  1.00  0.00    -0.508 OA
ATOM     25  H   UNL     1      -5.645 -32.523  -5.333  1.00  0.00     0.293 HD
ENDBRANCH   8  24
TORSDOF 5
ENDMDL
