MODEL 1
REMARK VINA RESULT:    -4.180      0.000      0.000
REMARK INTER + INTRA:         -11.704
REMARK INTER:                  -9.067
REMARK INTRA:                  -2.637
REMARK UNBOUND:                -2.637
REMARK SMILES CCCCCCCCCCCCCCCCCCCCCC(=O)[O-]
REMARK SMILES IDX 12 1 11 2 10 3 9 4 8 5 7 6 6 7 5 8 4 9 3 10 2 11 1 12 13 13
REMARK SMILES IDX 14 14 15 15 16 16 17 17 18 18 19 19 20 20 21 21 22 22 23 23
REMARK SMILES IDX 24 24
REMARK H PARENT
REMARK Flexibility Score: inf
ROOT
ATOM      1  C   UNL     1      -7.739  10.609  -5.404  1.00  0.00     0.000 C 
ENDROOT
BRANCH   1   2
ATOM      2  C   UNL     1      -8.289  10.082  -4.064  1.00  0.00     0.000 C 
BRANCH   2   3
ATOM      3  C   UNL     1      -9.108  11.100  -3.251  1.00  0.00     0.000 C 
BRANCH   3   4
ATOM      4  C   UNL     1      -9.605  12.280  -4.099  1.00  0.00    -0.000 C 
BRANCH   4   5
ATOM      5  C   UNL     1      -8.950  13.595  -3.651  1.00  0.00    -0.000 C 
BRANCH   5   6
ATOM      6  C   UNL     1      -7.632  13.375  -2.890  1.00  0.00    -0.000 C 
BRANCH   6   7
ATOM      7  C   UNL     1      -6.358  13.786  -3.656  1.00  0.00    -0.000 C 
BRANCH   7   8
ATOM      8  C   UNL     1      -5.040  13.609  -2.880  1.00  0.00    -0.000 C 
BRANCH   8   9
ATOM      9  C   UNL     1      -4.000  12.782  -3.655  1.00  0.00    -0.000 C 
BRANCH   9  10
ATOM     10  C   UNL     1      -4.586  12.100  -4.906  1.00  0.00    -0.000 C 
BRANCH  10  11
ATOM     11  C   UNL     1      -3.748  12.260  -6.190  1.00  0.00    -0.003 C 
ATOM     12  C   UNL     1      -2.693  13.360  -6.085  1.00  0.00     0.004 C 
ENDBRANCH  10  11
ENDBRANCH   9  10
ENDBRANCH   8   9
ENDBRANCH   7   8
ENDBRANCH   6   7
ENDBRANCH   5   6
ENDBRANCH   4   5
ENDBRANCH   3   4
ENDBRANCH   2   3
ENDBRANCH   1   2
BRANCH   1  13
ATOM     13  C   UNL     1      -8.317   9.895  -6.645  1.00  0.00     0.000 C 
BRANCH  13  14
ATOM     14  C   UNL     1      -8.802  10.885  -7.720  1.00  0.00     0.000 C 
BRANCH  14  15
ATOM     15  C   UNL     1      -8.341  12.327  -7.451  1.00  0.00     0.000 C 
BRANCH  15  16
ATOM     16  C   UNL     1      -7.567  12.932  -8.635  1.00  0.00     0.000 C 
BRANCH  16  17
ATOM     17  C   UNL     1      -7.412  11.938  -9.797  1.00  0.00     0.000 C 
BRANCH  17  18
ATOM     18  C   UNL     1      -6.457  12.455 -10.889  1.00  0.00     0.000 C 
BRANCH  18  19
ATOM     19  C   UNL     1      -5.237  11.540 -11.098  1.00  0.00     0.000 C 
BRANCH  19  20
ATOM     20  C   UNL     1      -4.213  11.548  -9.948  1.00  0.00     0.006 C 
BRANCH  20  21
ATOM     21  C   UNL     1      -2.921  10.795 -10.289  1.00  0.00     0.053 C 
BRANCH  21  22
ATOM     22  C   UNL     1      -1.843  11.132  -9.307  1.00  0.00     0.041 C 
ATOM     23  O   UNL     1      -1.371  10.240  -8.553  1.00  0.00    -0.550 OA
ATOM     24  O   UNL     1      -1.385  12.439  -9.196  1.00  0.00    -0.550 OA
ENDBRANCH  21  22
ENDBRANCH  20  21
ENDBRANCH  19  20
ENDBRANCH  18  19
ENDBRANCH  17  18
ENDBRANCH  16  17
ENDBRANCH  15  16
ENDBRANCH  14  15
ENDBRANCH  13  14
ENDBRANCH   1  13
TORSDOF 20
ENDMDL
MODEL 2
REMARK VINA RESULT:    -4.170     13.833     16.324
REMARK INTER + INTRA:         -11.682
REMARK INTER:                  -8.742
REMARK INTRA:                  -2.941
REMARK UNBOUND:                -2.637
REMARK SMILES CCCCCCCCCCCCCCCCCCCCCC(=O)[O-]
REMARK SMILES IDX 12 1 11 2 10 3 9 4 8 5 7 6 6 7 5 8 4 9 3 10 2 11 1 12 13 13
REMARK SMILES IDX 14 14 15 15 16 16 17 17 18 18 19 19 20 20 21 21 22 22 23 23
REMARK SMILES IDX 24 24
REMARK H PARENT
REMARK Flexibility Score: inf
ROOT
ATOM      1  C   UNL     1       3.504   3.694  -9.797  1.00  0.00     0.000 C 
ENDROOT
BRANCH   1   2
ATOM      2  C   UNL     1       4.816   4.469  -9.565  1.00  0.00     0.000 C 
BRANCH   2   3
ATOM      3  C   UNL     1       5.522   4.950 -10.843  1.00  0.00     0.000 C 
BRANCH   3   4
ATOM      4  C   UNL     1       7.044   4.750 -10.797  1.00  0.00    -0.000 C 
BRANCH   4   5
ATOM      5  C   UNL     1       7.769   6.087 -10.581  1.00  0.00    -0.000 C 
BRANCH   5   6
ATOM      6  C   UNL     1       6.898   7.128  -9.857  1.00  0.00    -0.000 C 
BRANCH   6   7
ATOM      7  C   UNL     1       7.617   7.926  -8.750  1.00  0.00    -0.000 C 
BRANCH   7   8
ATOM      8  C   UNL     1       7.636   7.253  -7.365  1.00  0.00    -0.000 C 
BRANCH   8   9
ATOM      9  C   UNL     1       6.376   6.412  -7.096  1.00  0.00    -0.000 C 
BRANCH   9  10
ATOM     10  C   UNL     1       6.687   4.919  -6.874  1.00  0.00    -0.000 C 
BRANCH  10  11
ATOM     11  C   UNL     1       6.218   4.349  -5.522  1.00  0.00    -0.003 C 
ATOM     12  C   UNL     1       7.228   4.565  -4.396  1.00  0.00     0.004 C 
ENDBRANCH  10  11
ENDBRANCH   9  10
ENDBRANCH   8   9
ENDBRANCH   7   8
ENDBRANCH   6   7
ENDBRANCH   5   6
ENDBRANCH   4   5
ENDBRANCH   3   4
ENDBRANCH   2   3
ENDBRANCH   1   2
BRANCH   1  13
ATOM     13  C   UNL     1       3.555   2.715 -10.990  1.00  0.00     0.000 C 
BRANCH  13  14
ATOM     14  C   UNL     1       4.066   1.320 -10.583  1.00  0.00     0.000 C 
BRANCH  14  15
ATOM     15  C   UNL     1       5.492   1.039 -11.085  1.00  0.00     0.000 C 
BRANCH  15  16
ATOM     16  C   UNL     1       6.397   0.442  -9.994  1.00  0.00     0.000 C 
BRANCH  16  17
ATOM     17  C   UNL     1       7.006   1.524  -9.087  1.00  0.00     0.000 C 
BRANCH  17  18
ATOM     18  C   UNL     1       8.529   1.655  -9.270  1.00  0.00     0.000 C 
BRANCH  18  19
ATOM     19  C   UNL     1       9.176   2.597  -8.239  1.00  0.00     0.000 C 
BRANCH  19  20
ATOM     20  C   UNL     1       8.996   2.174  -6.769  1.00  0.00     0.006 C 
BRANCH  20  21
ATOM     21  C   UNL     1       9.583   0.789  -6.466  1.00  0.00     0.053 C 
BRANCH  21  22
ATOM     22  C   UNL     1       9.215   0.355  -5.082  1.00  0.00     0.041 C 
ATOM     23  O   UNL     1       8.768   1.192  -4.254  1.00  0.00    -0.550 OA
ATOM     24  O   UNL     1       9.404  -0.965  -4.693  1.00  0.00    -0.550 OA
ENDBRANCH  21  22
ENDBRANCH  20  21
ENDBRANCH  19  20
ENDBRANCH  18  19
ENDBRANCH  17  18
ENDBRANCH  16  17
ENDBRANCH  15  16
ENDBRANCH  14  15
ENDBRANCH  13  14
ENDBRANCH   1  13
TORSDOF 20
ENDMDL
MODEL 3
REMARK VINA RESULT:    -4.162     14.002     16.727
REMARK INTER + INTRA:         -11.666
REMARK INTER:                  -7.737
REMARK INTRA:                  -3.929
REMARK UNBOUND:                -2.637
REMARK SMILES CCCCCCCCCCCCCCCCCCCCCC(=O)[O-]
REMARK SMILES IDX 12 1 11 2 10 3 9 4 8 5 7 6 6 7 5 8 4 9 3 10 2 11 1 12 13 13
REMARK SMILES IDX 14 14 15 15 16 16 17 17 18 18 19 19 20 20 21 21 22 22 23 23
REMARK SMILES IDX 24 24
REMARK H PARENT
REMARK Flexibility Score: inf
ROOT
ATOM      1  C   UNL     1       6.392   5.065  -5.690  1.00  0.00     0.000 C 
ENDROOT
BRANCH   1   2
ATOM      2  C   UNL     1       7.016   5.335  -7.073  1.00  0.00     0.000 C 
BRANCH   2   3
ATOM      3  C   UNL     1       6.640   6.687  -7.703  1.00  0.00     0.000 C 
BRANCH   3   4
ATOM      4  C   UNL     1       5.827   6.536  -8.998  1.00  0.00    -0.000 C 
BRANCH   4   5
ATOM      5  C   UNL     1       5.705   5.060  -9.403  1.00  0.00    -0.000 C 
BRANCH   5   6
ATOM      6  C   UNL     1       6.090   4.809 -10.870  1.00  0.00    -0.000 C 
BRANCH   6   7
ATOM      7  C   UNL     1       7.507   4.238 -11.086  1.00  0.00    -0.000 C 
BRANCH   7   8
ATOM      8  C   UNL     1       8.636   5.285 -11.125  1.00  0.00    -0.000 C 
BRANCH   8   9
ATOM      9  C   UNL     1       9.460   5.318  -9.826  1.00  0.00    -0.000 C 
BRANCH   9  10
ATOM     10  C   UNL     1       9.860   6.745  -9.405  1.00  0.00    -0.000 C 
BRANCH  10  11
ATOM     11  C   UNL     1       9.604   7.834 -10.465  1.00  0.00    -0.003 C 
ATOM     12  C   UNL     1       8.575   8.873 -10.022  1.00  0.00     0.004 C 
ENDBRANCH  10  11
ENDBRANCH   9  10
ENDBRANCH   8   9
ENDBRANCH   7   8
ENDBRANCH   6   7
ENDBRANCH   5   6
ENDBRANCH   4   5
ENDBRANCH   3   4
ENDBRANCH   2   3
ENDBRANCH   1   2
BRANCH   1  13
ATOM     13  C   UNL     1       5.734   3.674  -5.559  1.00  0.00     0.000 C 
BRANCH  13  14
ATOM     14  C   UNL     1       6.720   2.601  -5.059  1.00  0.00     0.000 C 
BRANCH  14  15
ATOM     15  C   UNL     1       7.909   3.200  -4.290  1.00  0.00     0.000 C 
BRANCH  15  16
ATOM     16  C   UNL     1       9.214   2.417  -4.515  1.00  0.00     0.000 C 
BRANCH  16  17
ATOM     17  C   UNL     1       9.007   1.186  -5.412  1.00  0.00     0.000 C 
BRANCH  17  18
ATOM     18  C   UNL     1       9.775   1.293  -6.742  1.00  0.00     0.000 C 
BRANCH  18  19
ATOM     19  C   UNL     1       9.134   2.290  -7.724  1.00  0.00     0.000 C 
BRANCH  19  20
ATOM     20  C   UNL     1       8.324   1.649  -8.865  1.00  0.00     0.006 C 
BRANCH  20  21
ATOM     21  C   UNL     1       6.835   1.492  -8.530  1.00  0.00     0.053 C 
BRANCH  21  22
ATOM     22  C   UNL     1       6.170   0.582  -9.515  1.00  0.00     0.041 C 
ATOM     23  O   UNL     1       6.257   0.813 -10.750  1.00  0.00    -0.550 OA
ATOM     24  O   UNL     1       5.421  -0.499  -9.068  1.00  0.00    -0.550 OA
ENDBRANCH  21  22
ENDBRANCH  20  21
ENDBRANCH  19  20
ENDBRANCH  18  19
ENDBRANCH  17  18
ENDBRANCH  16  17
ENDBRANCH  15  16
ENDBRANCH  14  15
ENDBRANCH  13  14
ENDBRANCH   1  13
TORSDOF 20
ENDMDL
MODEL 4
REMARK VINA RESULT:    -4.112     13.840     16.235
REMARK INTER + INTRA:         -11.557
REMARK INTER:                  -8.202
REMARK INTRA:                  -3.355
REMARK UNBOUND:                -2.637
REMARK SMILES CCCCCCCCCCCCCCCCCCCCCC(=O)[O-]
REMARK SMILES IDX 12 1 11 2 10 3 9 4 8 5 7 6 6 7 5 8 4 9 3 10 2 11 1 12 13 13
REMARK SMILES IDX 14 14 15 15 16 16 17 17 18 18 19 19 20 20 21 21 22 22 23 23
REMARK SMILES IDX 24 24
REMARK H PARENT
REMARK Flexibility Score: inf
ROOT
ATOM      1  C   UNL     1       5.733   3.664  -6.359  1.00  0.00     0.000 C 
ENDROOT
BRANCH   1   2
ATOM      2  C   UNL     1       6.547   4.857  -5.821  1.00  0.00     0.000 C 
BRANCH   2   3
ATOM      3  C   UNL     1       7.138   5.781  -6.900  1.00  0.00     0.000 C 
BRANCH   3   4
ATOM      4  C   UNL     1       6.183   6.913  -7.306  1.00  0.00    -0.000 C 
BRANCH   4   5
ATOM      5  C   UNL     1       5.817   6.817  -8.794  1.00  0.00    -0.000 C 
BRANCH   5   6
ATOM      6  C   UNL     1       7.051   6.783  -9.712  1.00  0.00    -0.000 C 
BRANCH   6   7
ATOM      7  C   UNL     1       7.095   7.886 -10.789  1.00  0.00    -0.000 C 
BRANCH   7   8
ATOM      8  C   UNL     1       8.419   8.666 -10.874  1.00  0.00    -0.000 C 
BRANCH   8   9
ATOM      9  C   UNL     1       9.331   8.423  -9.659  1.00  0.00    -0.000 C 
BRANCH   9  10
ATOM     10  C   UNL     1       9.445   9.652  -8.738  1.00  0.00    -0.000 C 
BRANCH  10  11
ATOM     11  C   UNL     1       8.499   9.648  -7.522  1.00  0.00    -0.003 C 
ATOM     12  C   UNL     1       7.203  10.419  -7.767  1.00  0.00     0.004 C 
ENDBRANCH  10  11
ENDBRANCH   9  10
ENDBRANCH   8   9
ENDBRANCH   7   8
ENDBRANCH   6   7
ENDBRANCH   5   6
ENDBRANCH   4   5
ENDBRANCH   3   4
ENDBRANCH   2   3
ENDBRANCH   1   2
BRANCH   1  13
ATOM     13  C   UNL     1       6.242   3.116  -7.711  1.00  0.00     0.000 C 
BRANCH  13  14
ATOM     14  C   UNL     1       5.201   3.270  -8.836  1.00  0.00     0.000 C 
BRANCH  14  15
ATOM     15  C   UNL     1       5.803   3.059 -10.235  1.00  0.00     0.000 C 
BRANCH  15  16
ATOM     16  C   UNL     1       7.338   3.170 -10.242  1.00  0.00     0.000 C 
BRANCH  16  17
ATOM     17  C   UNL     1       8.000   2.027 -11.028  1.00  0.00     0.000 C 
BRANCH  17  18
ATOM     18  C   UNL     1       9.249   1.473 -10.319  1.00  0.00     0.000 C 
BRANCH  18  19
ATOM     19  C   UNL     1       9.422   2.027  -8.893  1.00  0.00     0.000 C 
BRANCH  19  20
ATOM     20  C   UNL     1       9.510   0.960  -7.787  1.00  0.00     0.006 C 
BRANCH  20  21
ATOM     21  C   UNL     1       9.178   1.510  -6.393  1.00  0.00     0.053 C 
BRANCH  21  22
ATOM     22  C   UNL     1       8.427   0.492  -5.593  1.00  0.00     0.041 C 
ATOM     23  O   UNL     1       7.168   0.517  -5.560  1.00  0.00    -0.550 OA
ATOM     24  O   UNL     1       9.117  -0.460  -4.853  1.00  0.00    -0.550 OA
ENDBRANCH  21  22
ENDBRANCH  20  21
ENDBRANCH  19  20
ENDBRANCH  18  19
ENDBRANCH  17  18
ENDBRANCH  16  17
ENDBRANCH  15  16
ENDBRANCH  14  15
ENDBRANCH  13  14
ENDBRANCH   1  13
TORSDOF 20
ENDMDL
MODEL 5
REMARK VINA RESULT:    -4.105     13.460     15.903
REMARK INTER + INTRA:         -11.542
REMARK INTER:                  -7.341
REMARK INTRA:                  -4.201
REMARK UNBOUND:                -2.637
REMARK SMILES CCCCCCCCCCCCCCCCCCCCCC(=O)[O-]
REMARK SMILES IDX 12 1 11 2 10 3 9 4 8 5 7 6 6 7 5 8 4 9 3 10 2 11 1 12 13 13
REMARK SMILES IDX 14 14 15 15 16 16 17 17 18 18 19 19 20 20 21 21 22 22 23 23
REMARK SMILES IDX 24 24
REMARK H PARENT
REMARK Flexibility Score: inf
ROOT
ATOM      1  C   UNL     1       6.598   5.086  -5.740  1.00  0.00     0.000 C 
ENDROOT
BRANCH   1   2
ATOM      2  C   UNL     1       5.955   3.785  -6.257  1.00  0.00     0.000 C 
BRANCH   2   3
ATOM      3  C   UNL     1       6.452   2.498  -5.577  1.00  0.00     0.000 C 
BRANCH   3   4
ATOM      4  C   UNL     1       7.353   1.651  -6.487  1.00  0.00    -0.000 C 
BRANCH   4   5
ATOM      5  C   UNL     1       8.769   2.241  -6.564  1.00  0.00    -0.000 C 
BRANCH   5   6
ATOM      6  C   UNL     1       9.400   2.097  -7.959  1.00  0.00    -0.000 C 
BRANCH   6   7
ATOM      7  C   UNL     1       9.016   3.199  -8.968  1.00  0.00    -0.000 C 
BRANCH   7   8
ATOM      8  C   UNL     1       8.844   2.724 -10.422  1.00  0.00    -0.000 C 
BRANCH   8   9
ATOM      9  C   UNL     1       7.612   1.822 -10.611  1.00  0.00    -0.000 C 
BRANCH   9  10
ATOM     10  C   UNL     1       6.293   2.614 -10.681  1.00  0.00    -0.000 C 
BRANCH  10  11
ATOM     11  C   UNL     1       5.290   2.311  -9.551  1.00  0.00    -0.003 C 
ATOM     12  C   UNL     1       4.061   3.219  -9.580  1.00  0.00     0.004 C 
ENDBRANCH  10  11
ENDBRANCH   9  10
ENDBRANCH   8   9
ENDBRANCH   7   8
ENDBRANCH   6   7
ENDBRANCH   5   6
ENDBRANCH   4   5
ENDBRANCH   3   4
ENDBRANCH   2   3
ENDBRANCH   1   2
BRANCH   1  13
ATOM     13  C   UNL     1       6.744   6.185  -6.816  1.00  0.00     0.000 C 
BRANCH  13  14
ATOM     14  C   UNL     1       6.412   5.670  -8.230  1.00  0.00     0.000 C 
BRANCH  14  15
ATOM     15  C   UNL     1       5.609   6.686  -9.058  1.00  0.00     0.000 C 
BRANCH  15  16
ATOM     16  C   UNL     1       6.024   6.704 -10.539  1.00  0.00     0.000 C 
BRANCH  16  17
ATOM     17  C   UNL     1       7.381   6.019 -10.771  1.00  0.00     0.000 C 
BRANCH  17  18
ATOM     18  C   UNL     1       8.538   7.030 -10.876  1.00  0.00     0.000 C 
BRANCH  18  19
ATOM     19  C   UNL     1       9.556   6.894  -9.730  1.00  0.00     0.000 C 
BRANCH  19  20
ATOM     20  C   UNL     1       9.372   7.896  -8.575  1.00  0.00     0.006 C 
BRANCH  20  21
ATOM     21  C   UNL     1       8.517   9.109  -8.962  1.00  0.00     0.053 C 
BRANCH  21  22
ATOM     22  C   UNL     1       7.968   9.775  -7.740  1.00  0.00     0.041 C 
ATOM     23  O   UNL     1       8.744  10.337  -6.923  1.00  0.00    -0.550 OA
ATOM     24  O   UNL     1       6.603   9.741  -7.481  1.00  0.00    -0.550 OA
ENDBRANCH  21  22
ENDBRANCH  20  21
ENDBRANCH  19  20
ENDBRANCH  18  19
ENDBRANCH  17  18
ENDBRANCH  16  17
ENDBRANCH  15  16
ENDBRANCH  14  15
ENDBRANCH  13  14
ENDBRANCH   1  13
TORSDOF 20
ENDMDL
MODEL 6
REMARK VINA RESULT:    -4.009     13.941     17.363
REMARK INTER + INTRA:         -11.334
REMARK INTER:                  -9.211
REMARK INTRA:                  -2.123
REMARK UNBOUND:                -2.637
REMARK SMILES CCCCCCCCCCCCCCCCCCCCCC(=O)[O-]
REMARK SMILES IDX 12 1 11 2 10 3 9 4 8 5 7 6 6 7 5 8 4 9 3 10 2 11 1 12 13 13
REMARK SMILES IDX 14 14 15 15 16 16 17 17 18 18 19 19 20 20 21 21 22 22 23 23
REMARK SMILES IDX 24 24
REMARK H PARENT
REMARK Flexibility Score: inf
ROOT
ATOM      1  C   UNL     1       4.601   4.471  -9.648  1.00  0.00     0.000 C 
ENDROOT
BRANCH   1   2
ATOM      2  C   UNL     1       4.703   2.933  -9.645  1.00  0.00     0.000 C 
BRANCH   2   3
ATOM      3  C   UNL     1       5.916   2.363  -8.891  1.00  0.00     0.000 C 
BRANCH   3   4
ATOM      4  C   UNL     1       6.452   1.067  -9.516  1.00  0.00    -0.000 C 
BRANCH   4   5
ATOM      5  C   UNL     1       5.789   0.794 -10.874  1.00  0.00    -0.000 C 
BRANCH   5   6
ATOM      6  C   UNL     1       5.205  -0.625 -10.979  1.00  0.00    -0.000 C 
BRANCH   6   7
ATOM      7  C   UNL     1       4.128  -0.968  -9.929  1.00  0.00    -0.000 C 
BRANCH   7   8
ATOM      8  C   UNL     1       3.576  -2.404 -10.003  1.00  0.00    -0.000 C 
BRANCH   8   9
ATOM      9  C   UNL     1       4.670  -3.447 -10.289  1.00  0.00    -0.000 C 
BRANCH   9  10
ATOM     10  C   UNL     1       4.269  -4.871  -9.859  1.00  0.00    -0.000 C 
BRANCH  10  11
ATOM     11  C   UNL     1       5.447  -5.825  -9.581  1.00  0.00    -0.003 C 
ATOM     12  C   UNL     1       6.811  -5.147  -9.702  1.00  0.00     0.004 C 
ENDBRANCH  10  11
ENDBRANCH   9  10
ENDBRANCH   8   9
ENDBRANCH   7   8
ENDBRANCH   6   7
ENDBRANCH   5   6
ENDBRANCH   4   5
ENDBRANCH   3   4
ENDBRANCH   2   3
ENDBRANCH   1   2
BRANCH   1  13
ATOM     13  C   UNL     1       5.652   5.168 -10.539  1.00  0.00     0.000 C 
BRANCH  13  14
ATOM     14  C   UNL     1       6.135   6.504  -9.943  1.00  0.00     0.000 C 
BRANCH  14  15
ATOM     15  C   UNL     1       7.011   6.314  -8.693  1.00  0.00     0.000 C 
BRANCH  15  16
ATOM     16  C   UNL     1       6.461   7.061  -7.466  1.00  0.00     0.000 C 
BRANCH  16  17
ATOM     17  C   UNL     1       6.559   6.222  -6.182  1.00  0.00     0.000 C 
BRANCH  17  18
ATOM     18  C   UNL     1       6.352   4.719  -6.445  1.00  0.00     0.000 C 
BRANCH  18  19
ATOM     19  C   UNL     1       6.270   3.891  -5.150  1.00  0.00     0.000 C 
BRANCH  19  20
ATOM     20  C   UNL     1       7.605   3.285  -4.680  1.00  0.00     0.006 C 
BRANCH  20  21
ATOM     21  C   UNL     1       8.447   2.721  -5.831  1.00  0.00     0.053 C 
BRANCH  21  22
ATOM     22  C   UNL     1       8.153   1.267  -6.033  1.00  0.00     0.041 C 
ATOM     23  O   UNL     1       8.991   0.527  -6.613  1.00  0.00    -0.550 OA
ATOM     24  O   UNL     1       6.938   0.739  -5.616  1.00  0.00    -0.550 OA
ENDBRANCH  21  22
ENDBRANCH  20  21
ENDBRANCH  19  20
ENDBRANCH  18  19
ENDBRANCH  17  18
ENDBRANCH  16  17
ENDBRANCH  15  16
ENDBRANCH  14  15
ENDBRANCH  13  14
ENDBRANCH   1  13
TORSDOF 20
ENDMDL
MODEL 7
REMARK VINA RESULT:    -3.982     13.817     16.283
REMARK INTER + INTRA:         -11.274
REMARK INTER:                  -7.567
REMARK INTRA:                  -3.707
REMARK UNBOUND:                -2.637
REMARK SMILES CCCCCCCCCCCCCCCCCCCCCC(=O)[O-]
REMARK SMILES IDX 12 1 11 2 10 3 9 4 8 5 7 6 6 7 5 8 4 9 3 10 2 11 1 12 13 13
REMARK SMILES IDX 14 14 15 15 16 16 17 17 18 18 19 19 20 20 21 21 22 22 23 23
REMARK SMILES IDX 24 24
REMARK H PARENT
REMARK Flexibility Score: inf
ROOT
ATOM      1  C   UNL     1       6.020   3.808  -6.033  1.00  0.00     0.000 C 
ENDROOT
BRANCH   1   2
ATOM      2  C   UNL     1       6.617   5.123  -5.494  1.00  0.00     0.000 C 
BRANCH   2   3
ATOM      3  C   UNL     1       6.470   6.336  -6.429  1.00  0.00     0.000 C 
BRANCH   3   4
ATOM      4  C   UNL     1       6.783   6.002  -7.895  1.00  0.00    -0.000 C 
BRANCH   4   5
ATOM      5  C   UNL     1       5.783   6.684  -8.840  1.00  0.00    -0.000 C 
BRANCH   5   6
ATOM      6  C   UNL     1       6.390   7.011 -10.215  1.00  0.00    -0.000 C 
BRANCH   6   7
ATOM      7  C   UNL     1       7.838   6.522 -10.424  1.00  0.00    -0.000 C 
BRANCH   7   8
ATOM      8  C   UNL     1       8.859   7.624 -10.760  1.00  0.00    -0.000 C 
BRANCH   8   9
ATOM      9  C   UNL     1       8.748   8.842  -9.827  1.00  0.00    -0.000 C 
BRANCH   9  10
ATOM     10  C   UNL     1       9.272   8.560  -8.406  1.00  0.00    -0.000 C 
BRANCH  10  11
ATOM     11  C   UNL     1       8.634   9.414  -7.293  1.00  0.00    -0.003 C 
ATOM     12  C   UNL     1       7.250   9.946  -7.663  1.00  0.00     0.004 C 
ENDBRANCH  10  11
ENDBRANCH   9  10
ENDBRANCH   8   9
ENDBRANCH   7   8
ENDBRANCH   6   7
ENDBRANCH   5   6
ENDBRANCH   4   5
ENDBRANCH   3   4
ENDBRANCH   2   3
ENDBRANCH   1   2
BRANCH   1  13
ATOM     13  C   UNL     1       6.716   2.537  -5.500  1.00  0.00     0.000 C 
BRANCH  13  14
ATOM     14  C   UNL     1       8.083   2.841  -4.858  1.00  0.00     0.000 C 
BRANCH  14  15
ATOM     15  C   UNL     1       9.241   2.105  -5.549  1.00  0.00     0.000 C 
BRANCH  15  16
ATOM     16  C   UNL     1       8.795   1.360  -6.819  1.00  0.00     0.000 C 
BRANCH  16  17
ATOM     17  C   UNL     1       9.918   1.269  -7.865  1.00  0.00     0.000 C 
BRANCH  17  18
ATOM     18  C   UNL     1       9.872   2.427  -8.878  1.00  0.00     0.000 C 
BRANCH  18  19
ATOM     19  C   UNL     1       8.541   3.199  -8.844  1.00  0.00     0.000 C 
BRANCH  19  20
ATOM     20  C   UNL     1       7.548   2.833  -9.964  1.00  0.00     0.006 C 
BRANCH  20  21
ATOM     21  C   UNL     1       6.164   2.437  -9.434  1.00  0.00     0.053 C 
BRANCH  21  22
ATOM     22  C   UNL     1       5.932   0.969  -9.618  1.00  0.00     0.041 C 
ATOM     23  O   UNL     1       6.006   0.188  -8.633  1.00  0.00    -0.550 OA
ATOM     24  O   UNL     1       5.674   0.459 -10.884  1.00  0.00    -0.550 OA
ENDBRANCH  21  22
ENDBRANCH  20  21
ENDBRANCH  19  20
ENDBRANCH  18  19
ENDBRANCH  17  18
ENDBRANCH  16  17
ENDBRANCH  15  16
ENDBRANCH  14  15
ENDBRANCH  13  14
ENDBRANCH   1  13
TORSDOF 20
ENDMDL
MODEL 8
REMARK VINA RESULT:    -3.971     13.933     16.620
REMARK INTER + INTRA:         -11.251
REMARK INTER:                  -7.663
REMARK INTRA:                  -3.588
REMARK UNBOUND:                -2.637
REMARK SMILES CCCCCCCCCCCCCCCCCCCCCC(=O)[O-]
REMARK SMILES IDX 12 1 11 2 10 3 9 4 8 5 7 6 6 7 5 8 4 9 3 10 2 11 1 12 13 13
REMARK SMILES IDX 14 14 15 15 16 16 17 17 18 18 19 19 20 20 21 21 22 22 23 23
REMARK SMILES IDX 24 24
REMARK H PARENT
REMARK Flexibility Score: inf
ROOT
ATOM      1  C   UNL     1       6.780   2.715  -5.134  1.00  0.00     0.000 C 
ENDROOT
BRANCH   1   2
ATOM      2  C   UNL     1       5.926   3.695  -5.963  1.00  0.00     0.000 C 
BRANCH   2   3
ATOM      3  C   UNL     1       6.725   4.654  -6.862  1.00  0.00     0.000 C 
BRANCH   3   4
ATOM      4  C   UNL     1       6.754   4.210  -8.332  1.00  0.00    -0.000 C 
BRANCH   4   5
ATOM      5  C   UNL     1       5.342   3.874  -8.833  1.00  0.00    -0.000 C 
BRANCH   5   6
ATOM      6  C   UNL     1       5.189   4.055 -10.353  1.00  0.00    -0.000 C 
BRANCH   6   7
ATOM      7  C   UNL     1       6.065   5.165 -10.970  1.00  0.00    -0.000 C 
BRANCH   7   8
ATOM      8  C   UNL     1       5.414   6.559 -11.024  1.00  0.00    -0.000 C 
BRANCH   8   9
ATOM      9  C   UNL     1       6.416   7.694 -10.748  1.00  0.00    -0.000 C 
BRANCH   9  10
ATOM     10  C   UNL     1       7.787   7.181 -10.269  1.00  0.00    -0.000 C 
BRANCH  10  11
ATOM     11  C   UNL     1       8.174   7.594  -8.836  1.00  0.00    -0.003 C 
ATOM     12  C   UNL     1       7.006   8.179  -8.043  1.00  0.00     0.004 C 
ENDBRANCH  10  11
ENDBRANCH   9  10
ENDBRANCH   8   9
ENDBRANCH   7   8
ENDBRANCH   6   7
ENDBRANCH   5   6
ENDBRANCH   4   5
ENDBRANCH   3   4
ENDBRANCH   2   3
ENDBRANCH   1   2
BRANCH   1  13
ATOM     13  C   UNL     1       8.198   3.235  -4.812  1.00  0.00     0.000 C 
BRANCH  13  14
ATOM     14  C   UNL     1       9.300   2.375  -5.460  1.00  0.00     0.000 C 
BRANCH  14  15
ATOM     15  C   UNL     1       8.764   1.465  -6.576  1.00  0.00     0.000 C 
BRANCH  15  16
ATOM     16  C   UNL     1       9.834   1.124  -7.628  1.00  0.00     0.000 C 
BRANCH  16  17
ATOM     17  C   UNL     1       9.981   2.229  -8.687  1.00  0.00     0.000 C 
BRANCH  17  18
ATOM     18  C   UNL     1       9.815   1.694 -10.121  1.00  0.00     0.000 C 
BRANCH  18  19
ATOM     19  C   UNL     1       8.597   2.295 -10.845  1.00  0.00     0.000 C 
BRANCH  19  20
ATOM     20  C   UNL     1       7.433   1.315 -11.082  1.00  0.00     0.006 C 
BRANCH  20  21
ATOM     21  C   UNL     1       6.831   0.771  -9.780  1.00  0.00     0.053 C 
BRANCH  21  22
ATOM     22  C   UNL     1       5.673  -0.130 -10.073  1.00  0.00     0.041 C 
ATOM     23  O   UNL     1       5.718  -1.346  -9.745  1.00  0.00    -0.550 OA
ATOM     24  O   UNL     1       4.560   0.361 -10.744  1.00  0.00    -0.550 OA
ENDBRANCH  21  22
ENDBRANCH  20  21
ENDBRANCH  19  20
ENDBRANCH  18  19
ENDBRANCH  17  18
ENDBRANCH  16  17
ENDBRANCH  15  16
ENDBRANCH  14  15
ENDBRANCH  13  14
ENDBRANCH   1  13
TORSDOF 20
ENDMDL
MODEL 9
REMARK VINA RESULT:    -3.963     13.626     15.816
REMARK INTER + INTRA:         -11.233
REMARK INTER:                  -7.457
REMARK INTRA:                  -3.776
REMARK UNBOUND:                -2.637
REMARK SMILES CCCCCCCCCCCCCCCCCCCCCC(=O)[O-]
REMARK SMILES IDX 12 1 11 2 10 3 9 4 8 5 7 6 6 7 5 8 4 9 3 10 2 11 1 12 13 13
REMARK SMILES IDX 14 14 15 15 16 16 17 17 18 18 19 19 20 20 21 21 22 22 23 23
REMARK SMILES IDX 24 24
REMARK H PARENT
REMARK Flexibility Score: inf
ROOT
ATOM      1  C   UNL     1       6.557   5.776  -5.779  1.00  0.00     0.000 C 
ENDROOT
BRANCH   1   2
ATOM      2  C   UNL     1       7.008   6.058  -7.225  1.00  0.00     0.000 C 
BRANCH   2   3
ATOM      3  C   UNL     1       6.096   7.010  -8.017  1.00  0.00     0.000 C 
BRANCH   3   4
ATOM      4  C   UNL     1       6.214   6.824  -9.537  1.00  0.00    -0.000 C 
BRANCH   4   5
ATOM      5  C   UNL     1       7.614   6.325  -9.924  1.00  0.00    -0.000 C 
BRANCH   5   6
ATOM      6  C   UNL     1       8.365   7.306 -10.841  1.00  0.00    -0.000 C 
BRANCH   6   7
ATOM      7  C   UNL     1       9.734   7.780 -10.311  1.00  0.00    -0.000 C 
BRANCH   7   8
ATOM      8  C   UNL     1       9.879   7.776  -8.778  1.00  0.00    -0.000 C 
BRANCH   8   9
ATOM      9  C   UNL     1       9.803   9.188  -8.170  1.00  0.00    -0.000 C 
BRANCH   9  10
ATOM     10  C   UNL     1       8.568   9.388  -7.272  1.00  0.00    -0.000 C 
BRANCH  10  11
ATOM     11  C   UNL     1       7.589  10.481  -7.741  1.00  0.00    -0.003 C 
ATOM     12  C   UNL     1       7.382  10.492  -9.255  1.00  0.00     0.004 C 
ENDBRANCH  10  11
ENDBRANCH   9  10
ENDBRANCH   8   9
ENDBRANCH   7   8
ENDBRANCH   6   7
ENDBRANCH   5   6
ENDBRANCH   4   5
ENDBRANCH   3   4
ENDBRANCH   2   3
ENDBRANCH   1   2
BRANCH   1  13
ATOM     13  C   UNL     1       6.442   4.274  -5.439  1.00  0.00     0.000 C 
BRANCH  13  14
ATOM     14  C   UNL     1       7.459   3.834  -4.369  1.00  0.00     0.000 C 
BRANCH  14  15
ATOM     15  C   UNL     1       8.617   3.010  -4.953  1.00  0.00     0.000 C 
BRANCH  15  16
ATOM     16  C   UNL     1       8.131   1.834  -5.817  1.00  0.00     0.000 C 
BRANCH  16  17
ATOM     17  C   UNL     1       8.880   1.748  -7.157  1.00  0.00     0.000 C 
BRANCH  17  18
ATOM     18  C   UNL     1       8.596   2.956  -8.068  1.00  0.00     0.000 C 
BRANCH  18  19
ATOM     19  C   UNL     1       7.595   2.635  -9.193  1.00  0.00     0.000 C 
BRANCH  19  20
ATOM     20  C   UNL     1       6.208   2.167  -8.714  1.00  0.00     0.006 C 
BRANCH  20  21
ATOM     21  C   UNL     1       5.147   3.274  -8.772  1.00  0.00     0.053 C 
BRANCH  21  22
ATOM     22  C   UNL     1       4.244   3.073  -9.949  1.00  0.00     0.041 C 
ATOM     23  O   UNL     1       3.687   4.062 -10.495  1.00  0.00    -0.550 OA
ATOM     24  O   UNL     1       3.987   1.792 -10.419  1.00  0.00    -0.550 OA
ENDBRANCH  21  22
ENDBRANCH  20  21
ENDBRANCH  19  20
ENDBRANCH  18  19
ENDBRANCH  17  18
ENDBRANCH  16  17
ENDBRANCH  15  16
ENDBRANCH  14  15
ENDBRANCH  13  14
ENDBRANCH   1  13
TORSDOF 20
ENDMDL
