MODEL 1
REMARK VINA RESULT:    -3.320      0.000      0.000
REMARK INTER + INTRA:          -6.469
REMARK INTER:                  -5.649
REMARK INTRA:                  -0.820
REMARK UNBOUND:                -0.820
REMARK SMILES CCCCCCCCCCCCCC(=O)[O-]
REMARK SMILES IDX 8 1 9 2 10 3 11 4 12 5 13 6 14 7 15 8 16 9 7 10 6 11 5 12
REMARK SMILES IDX 4 13 3 14 2 15 1 16
REMARK H PARENT
REMARK Flexibility Score: inf
ROOT
ATOM      1  C   UNL     1     -22.911   0.375   2.479  1.00  0.00     0.000 C 
ENDROOT
BRANCH   1   2
ATOM      2  C   UNL     1     -21.377   0.428   2.425  1.00  0.00     0.000 C 
BRANCH   2   3
ATOM      3  C   UNL     1     -20.885   0.593   0.979  1.00  0.00     0.000 C 
BRANCH   3   4
ATOM      4  C   UNL     1     -19.530   1.311   0.891  1.00  0.00     0.000 C 
BRANCH   4   5
ATOM      5  C   UNL     1     -19.551   2.497  -0.089  1.00  0.00     0.006 C 
BRANCH   5   6
ATOM      6  C   UNL     1     -18.338   3.419   0.093  1.00  0.00     0.053 C 
BRANCH   6   7
ATOM      7  C   UNL     1     -18.731   4.865   0.065  1.00  0.00     0.041 C 
ATOM      8  O   UNL     1     -17.852   5.759  -0.056  1.00  0.00    -0.550 OA
ATOM      9  O   UNL     1     -20.071   5.224   0.145  1.00  0.00    -0.550 OA
ENDBRANCH   6   7
ENDBRANCH   5   6
ENDBRANCH   4   5
ENDBRANCH   3   4
ENDBRANCH   2   3
ENDBRANCH   1   2
BRANCH   1  10
ATOM     10  C   UNL     1     -23.576   0.984   1.230  1.00  0.00     0.000 C 
BRANCH  10  11
ATOM     11  C   UNL     1     -24.888   1.750   1.495  1.00  0.00    -0.000 C 
BRANCH  11  12
ATOM     12  C   UNL     1     -25.088   2.219   2.948  1.00  0.00    -0.000 C 
BRANCH  12  13
ATOM     13  C   UNL     1     -25.136   3.748   3.079  1.00  0.00    -0.000 C 
BRANCH  13  14
ATOM     14  C   UNL     1     -23.757   4.309   3.460  1.00  0.00    -0.000 C 
BRANCH  14  15
ATOM     15  C   UNL     1     -23.761   5.839   3.604  1.00  0.00    -0.003 C 
ATOM     16  C   UNL     1     -25.132   6.394   3.988  1.00  0.00     0.004 C 
ENDBRANCH  14  15
ENDBRANCH  13  14
ENDBRANCH  12  13
ENDBRANCH  11  12
ENDBRANCH  10  11
ENDBRANCH   1  10
TORSDOF 12
ENDMDL
MODEL 2
REMARK VINA RESULT:    -3.314     15.654     17.681
REMARK INTER + INTRA:          -6.458
REMARK INTER:                  -5.477
REMARK INTRA:                  -0.981
REMARK UNBOUND:                -0.820
REMARK SMILES CCCCCCCCCCCCCC(=O)[O-]
REMARK SMILES IDX 8 1 9 2 10 3 11 4 12 5 13 6 14 7 15 8 16 9 7 10 6 11 5 12
REMARK SMILES IDX 4 13 3 14 2 15 1 16
REMARK H PARENT
REMARK Flexibility Score: inf
ROOT
ATOM      1  C   UNL     1     -15.185 -10.318   3.176  1.00  0.00     0.000 C 
ENDROOT
BRANCH   1   2
ATOM      2  C   UNL     1     -16.418 -11.067   2.649  1.00  0.00     0.000 C 
BRANCH   2   3
ATOM      3  C   UNL     1     -16.177 -11.581   1.221  1.00  0.00     0.000 C 
BRANCH   3   4
ATOM      4  C   UNL     1     -17.151 -12.701   0.822  1.00  0.00     0.000 C 
BRANCH   4   5
ATOM      5  C   UNL     1     -18.137 -13.058   1.947  1.00  0.00     0.006 C 
BRANCH   5   6
ATOM      6  C   UNL     1     -19.598 -12.894   1.509  1.00  0.00     0.053 C 
BRANCH   6   7
ATOM      7  C   UNL     1     -20.493 -12.573   2.667  1.00  0.00     0.041 C 
ATOM      8  O   UNL     1     -21.734 -12.446   2.495  1.00  0.00    -0.550 OA
ATOM      9  O   UNL     1     -19.959 -12.443   3.943  1.00  0.00    -0.550 OA
ENDBRANCH   6   7
ENDBRANCH   5   6
ENDBRANCH   4   5
ENDBRANCH   3   4
ENDBRANCH   2   3
ENDBRANCH   1   2
BRANCH   1  10
ATOM     10  C   UNL     1     -14.016 -10.309   2.174  1.00  0.00     0.000 C 
BRANCH  10  11
ATOM     11  C   UNL     1     -12.772 -11.106   2.614  1.00  0.00    -0.000 C 
BRANCH  11  12
ATOM     12  C   UNL     1     -13.010 -12.608   2.853  1.00  0.00    -0.000 C 
BRANCH  12  13
ATOM     13  C   UNL     1     -12.949 -12.993   4.338  1.00  0.00    -0.000 C 
BRANCH  13  14
ATOM     14  C   UNL     1     -11.621 -12.546   4.966  1.00  0.00    -0.000 C 
BRANCH  14  15
ATOM     15  C   UNL     1     -11.619 -12.675   6.498  1.00  0.00    -0.003 C 
ATOM     16  C   UNL     1     -13.023 -12.821   7.081  1.00  0.00     0.004 C 
ENDBRANCH  14  15
ENDBRANCH  13  14
ENDBRANCH  12  13
ENDBRANCH  11  12
ENDBRANCH  10  11
ENDBRANCH   1  10
TORSDOF 12
ENDMDL
MODEL 3
REMARK VINA RESULT:    -3.271      2.353      4.598
REMARK INTER + INTRA:          -6.386
REMARK INTER:                  -4.527
REMARK INTRA:                  -1.859
REMARK UNBOUND:                -0.820
REMARK SMILES CCCCCCCCCCCCCC(=O)[O-]
REMARK SMILES IDX 8 1 9 2 10 3 11 4 12 5 13 6 14 7 15 8 16 9 7 10 6 11 5 12
REMARK SMILES IDX 4 13 3 14 2 15 1 16
REMARK H PARENT
REMARK Flexibility Score: inf
ROOT
ATOM      1  C   UNL     1     -25.901   3.270   3.457  1.00  0.00     0.000 C 
ENDROOT
BRANCH   1   2
ATOM      2  C   UNL     1     -26.004   3.219   1.925  1.00  0.00     0.000 C 
BRANCH   2   3
ATOM      3  C   UNL     1     -24.862   2.384   1.327  1.00  0.00     0.000 C 
BRANCH   3   4
ATOM      4  C   UNL     1     -24.176   1.485   2.367  1.00  0.00     0.000 C 
BRANCH   4   5
ATOM      5  C   UNL     1     -22.668   1.764   2.489  1.00  0.00     0.006 C 
BRANCH   5   6
ATOM      6  C   UNL     1     -21.826   0.499   2.279  1.00  0.00     0.053 C 
BRANCH   6   7
ATOM      7  C   UNL     1     -20.979   0.592   1.046  1.00  0.00     0.041 C 
ATOM      8  O   UNL     1     -21.477   0.358  -0.086  1.00  0.00    -0.550 OA
ATOM      9  O   UNL     1     -19.645   0.968   1.147  1.00  0.00    -0.550 OA
ENDBRANCH   6   7
ENDBRANCH   5   6
ENDBRANCH   4   5
ENDBRANCH   3   4
ENDBRANCH   2   3
ENDBRANCH   1   2
BRANCH   1  10
ATOM     10  C   UNL     1     -25.474   4.653   3.983  1.00  0.00     0.000 C 
BRANCH  10  11
ATOM     11  C   UNL     1     -23.955   4.920   3.960  1.00  0.00    -0.000 C 
BRANCH  11  12
ATOM     12  C   UNL     1     -23.529   6.205   3.228  1.00  0.00    -0.000 C 
BRANCH  12  13
ATOM     13  C   UNL     1     -24.365   6.479   1.969  1.00  0.00    -0.000 C 
BRANCH  13  14
ATOM     14  C   UNL     1     -23.705   5.859   0.728  1.00  0.00    -0.000 C 
BRANCH  14  15
ATOM     15  C   UNL     1     -22.205   5.590   0.928  1.00  0.00    -0.003 C 
ATOM     16  C   UNL     1     -21.713   4.369   0.152  1.00  0.00     0.004 C 
ENDBRANCH  14  15
ENDBRANCH  13  14
ENDBRANCH  12  13
ENDBRANCH  11  12
ENDBRANCH  10  11
ENDBRANCH   1  10
TORSDOF 12
ENDMDL
MODEL 4
REMARK VINA RESULT:    -3.178     14.442     16.970
REMARK INTER + INTRA:          -6.227
REMARK INTER:                  -5.358
REMARK INTRA:                  -0.869
REMARK UNBOUND:                -0.820
REMARK SMILES CCCCCCCCCCCCCC(=O)[O-]
REMARK SMILES IDX 8 1 9 2 10 3 11 4 12 5 13 6 14 7 15 8 16 9 7 10 6 11 5 12
REMARK SMILES IDX 4 13 3 14 2 15 1 16
REMARK H PARENT
REMARK Flexibility Score: inf
ROOT
ATOM      1  C   UNL     1     -17.902 -12.498   2.698  1.00  0.00     0.000 C 
ENDROOT
BRANCH   1   2
ATOM      2  C   UNL     1     -18.637 -12.736   1.370  1.00  0.00     0.000 C 
BRANCH   2   3
ATOM      3  C   UNL     1     -20.123 -13.041   1.613  1.00  0.00     0.000 C 
BRANCH   3   4
ATOM      4  C   UNL     1     -20.550 -12.793   3.068  1.00  0.00     0.000 C 
BRANCH   4   5
ATOM      5  C   UNL     1     -22.040 -13.091   3.307  1.00  0.00     0.006 C 
BRANCH   5   6
ATOM      6  C   UNL     1     -22.945 -12.343   2.320  1.00  0.00     0.053 C 
BRANCH   6   7
ATOM      7  C   UNL     1     -23.625 -11.174   2.965  1.00  0.00     0.041 C 
ATOM      8  O   UNL     1     -24.081 -10.236   2.260  1.00  0.00    -0.550 OA
ATOM      9  O   UNL     1     -23.780 -11.135   4.346  1.00  0.00    -0.550 OA
ENDBRANCH   6   7
ENDBRANCH   5   6
ENDBRANCH   4   5
ENDBRANCH   3   4
ENDBRANCH   2   3
ENDBRANCH   1   2
BRANCH   1  10
ATOM     10  C   UNL     1     -16.424 -12.115   2.504  1.00  0.00     0.000 C 
BRANCH  10  11
ATOM     11  C   UNL     1     -15.987 -10.814   3.207  1.00  0.00    -0.000 C 
BRANCH  11  12
ATOM     12  C   UNL     1     -14.839 -10.054   2.520  1.00  0.00    -0.000 C 
BRANCH  12  13
ATOM     13  C   UNL     1     -13.792 -10.990   1.899  1.00  0.00    -0.000 C 
BRANCH  13  14
ATOM     14  C   UNL     1     -12.663 -11.289   2.897  1.00  0.00    -0.000 C 
BRANCH  14  15
ATOM     15  C   UNL     1     -12.639 -12.760   3.339  1.00  0.00    -0.003 C 
ATOM     16  C   UNL     1     -13.317 -12.983   4.690  1.00  0.00     0.004 C 
ENDBRANCH  14  15
ENDBRANCH  13  14
ENDBRANCH  12  13
ENDBRANCH  11  12
ENDBRANCH  10  11
ENDBRANCH   1  10
TORSDOF 12
ENDMDL
MODEL 5
REMARK VINA RESULT:    -3.153      2.239      4.391
REMARK INTER + INTRA:          -6.185
REMARK INTER:                  -5.083
REMARK INTRA:                  -1.102
REMARK UNBOUND:                -0.820
REMARK SMILES CCCCCCCCCCCCCC(=O)[O-]
REMARK SMILES IDX 8 1 9 2 10 3 11 4 12 5 13 6 14 7 15 8 16 9 7 10 6 11 5 12
REMARK SMILES IDX 4 13 3 14 2 15 1 16
REMARK H PARENT
REMARK Flexibility Score: inf
ROOT
ATOM      1  C   UNL     1     -18.508   2.111   0.448  1.00  0.00     0.000 C 
ENDROOT
BRANCH   1   2
ATOM      2  C   UNL     1     -18.374   3.544  -0.087  1.00  0.00     0.000 C 
BRANCH   2   3
ATOM      3  C   UNL     1     -19.740   4.245  -0.125  1.00  0.00     0.000 C 
BRANCH   3   4
ATOM      4  C   UNL     1     -19.640   5.756   0.137  1.00  0.00     0.000 C 
BRANCH   4   5
ATOM      5  C   UNL     1     -21.017   6.424   0.289  1.00  0.00     0.006 C 
BRANCH   5   6
ATOM      6  C   UNL     1     -22.113   5.414   0.652  1.00  0.00     0.053 C 
BRANCH   6   7
ATOM      7  C   UNL     1     -23.194   6.038   1.481  1.00  0.00     0.041 C 
ATOM      8  O   UNL     1     -24.392   5.998   1.097  1.00  0.00    -0.550 OA
ATOM      9  O   UNL     1     -22.879   6.640   2.694  1.00  0.00    -0.550 OA
ENDBRANCH   6   7
ENDBRANCH   5   6
ENDBRANCH   4   5
ENDBRANCH   3   4
ENDBRANCH   2   3
ENDBRANCH   1   2
BRANCH   1  10
ATOM     10  C   UNL     1     -19.972   1.643   0.546  1.00  0.00     0.000 C 
BRANCH  10  11
ATOM     11  C   UNL     1     -20.217   0.453   1.496  1.00  0.00    -0.000 C 
BRANCH  11  12
ATOM     12  C   UNL     1     -21.605   0.422   2.160  1.00  0.00    -0.000 C 
BRANCH  12  13
ATOM     13  C   UNL     1     -22.638   1.286   1.423  1.00  0.00    -0.000 C 
BRANCH  13  14
ATOM     14  C   UNL     1     -23.229   2.352   2.358  1.00  0.00    -0.000 C 
BRANCH  14  15
ATOM     15  C   UNL     1     -24.724   2.598   2.103  1.00  0.00    -0.003 C 
ATOM     16  C   UNL     1     -25.516   2.822   3.391  1.00  0.00     0.004 C 
ENDBRANCH  14  15
ENDBRANCH  13  14
ENDBRANCH  12  13
ENDBRANCH  11  12
ENDBRANCH  10  11
ENDBRANCH   1  10
TORSDOF 12
ENDMDL
MODEL 6
REMARK VINA RESULT:    -3.150      2.801      4.537
REMARK INTER + INTRA:          -6.180
REMARK INTER:                  -4.718
REMARK INTRA:                  -1.462
REMARK UNBOUND:                -0.820
REMARK SMILES CCCCCCCCCCCCCC(=O)[O-]
REMARK SMILES IDX 8 1 9 2 10 3 11 4 12 5 13 6 14 7 15 8 16 9 7 10 6 11 5 12
REMARK SMILES IDX 4 13 3 14 2 15 1 16
REMARK H PARENT
REMARK Flexibility Score: inf
ROOT
ATOM      1  C   UNL     1     -24.574   2.362   2.648  1.00  0.00     0.000 C 
ENDROOT
BRANCH   1   2
ATOM      2  C   UNL     1     -24.631   1.782   1.226  1.00  0.00     0.000 C 
BRANCH   2   3
ATOM      3  C   UNL     1     -23.551   2.412   0.334  1.00  0.00     0.000 C 
BRANCH   3   4
ATOM      4  C   UNL     1     -22.440   1.420  -0.044  1.00  0.00     0.000 C 
BRANCH   4   5
ATOM      5  C   UNL     1     -21.074   1.807   0.548  1.00  0.00     0.006 C 
BRANCH   5   6
ATOM      6  C   UNL     1     -20.440   0.656   1.340  1.00  0.00     0.053 C 
BRANCH   6   7
ATOM      7  C   UNL     1     -21.473  -0.298   1.859  1.00  0.00     0.041 C 
ATOM      8  O   UNL     1     -22.079  -0.053   2.934  1.00  0.00    -0.550 OA
ATOM      9  O   UNL     1     -21.785  -1.443   1.137  1.00  0.00    -0.550 OA
ENDBRANCH   6   7
ENDBRANCH   5   6
ENDBRANCH   4   5
ENDBRANCH   3   4
ENDBRANCH   2   3
ENDBRANCH   1   2
BRANCH   1  10
ATOM     10  C   UNL     1     -23.475   3.427   2.816  1.00  0.00     0.000 C 
BRANCH  10  11
ATOM     11  C   UNL     1     -23.873   4.647   3.673  1.00  0.00    -0.000 C 
BRANCH  11  12
ATOM     12  C   UNL     1     -23.637   6.015   3.009  1.00  0.00    -0.000 C 
BRANCH  12  13
ATOM     13  C   UNL     1     -23.409   5.911   1.494  1.00  0.00    -0.000 C 
BRANCH  13  14
ATOM     14  C   UNL     1     -21.972   6.313   1.127  1.00  0.00    -0.000 C 
BRANCH  14  15
ATOM     15  C   UNL     1     -21.399   5.473  -0.026  1.00  0.00    -0.003 C 
ATOM     16  C   UNL     1     -19.873   5.402  -0.004  1.00  0.00     0.004 C 
ENDBRANCH  14  15
ENDBRANCH  13  14
ENDBRANCH  12  13
ENDBRANCH  11  12
ENDBRANCH  10  11
ENDBRANCH   1  10
TORSDOF 12
ENDMDL
MODEL 7
REMARK VINA RESULT:    -3.131      1.629      4.870
REMARK INTER + INTRA:          -6.147
REMARK INTER:                  -4.901
REMARK INTRA:                  -1.247
REMARK UNBOUND:                -0.820
REMARK SMILES CCCCCCCCCCCCCC(=O)[O-]
REMARK SMILES IDX 8 1 9 2 10 3 11 4 12 5 13 6 14 7 15 8 16 9 7 10 6 11 5 12
REMARK SMILES IDX 4 13 3 14 2 15 1 16
REMARK H PARENT
REMARK Flexibility Score: inf
ROOT
ATOM      1  C   UNL     1     -25.851   3.386   3.651  1.00  0.00     0.000 C 
ENDROOT
BRANCH   1   2
ATOM      2  C   UNL     1     -25.295   4.717   4.180  1.00  0.00     0.000 C 
BRANCH   2   3
ATOM      3  C   UNL     1     -23.802   4.858   3.846  1.00  0.00     0.000 C 
BRANCH   3   4
ATOM      4  C   UNL     1     -23.458   6.224   3.231  1.00  0.00     0.000 C 
BRANCH   4   5
ATOM      5  C   UNL     1     -23.777   6.293   1.727  1.00  0.00     0.006 C 
BRANCH   5   6
ATOM      6  C   UNL     1     -22.592   6.822   0.908  1.00  0.00     0.053 C 
BRANCH   6   7
ATOM      7  C   UNL     1     -21.582   5.749   0.636  1.00  0.00     0.041 C 
ATOM      8  O   UNL     1     -20.357   6.033   0.573  1.00  0.00    -0.550 OA
ATOM      9  O   UNL     1     -21.992   4.431   0.480  1.00  0.00    -0.550 OA
ENDBRANCH   6   7
ENDBRANCH   5   6
ENDBRANCH   4   5
ENDBRANCH   3   4
ENDBRANCH   2   3
ENDBRANCH   1   2
BRANCH   1  10
ATOM     10  C   UNL     1     -25.922   3.336   2.114  1.00  0.00     0.000 C 
BRANCH  10  11
ATOM     11  C   UNL     1     -24.981   2.310   1.449  1.00  0.00    -0.000 C 
BRANCH  11  12
ATOM     12  C   UNL     1     -24.213   1.400   2.425  1.00  0.00    -0.000 C 
BRANCH  12  13
ATOM     13  C   UNL     1     -22.689   1.506   2.266  1.00  0.00    -0.000 C 
BRANCH  13  14
ATOM     14  C   UNL     1     -22.005   0.186   2.650  1.00  0.00    -0.000 C 
BRANCH  14  15
ATOM     15  C   UNL     1     -20.896  -0.214   1.665  1.00  0.00    -0.003 C 
ATOM     16  C   UNL     1     -20.159   0.991   1.082  1.00  0.00     0.004 C 
ENDBRANCH  14  15
ENDBRANCH  13  14
ENDBRANCH  12  13
ENDBRANCH  11  12
ENDBRANCH  10  11
ENDBRANCH   1  10
TORSDOF 12
ENDMDL
MODEL 8
REMARK VINA RESULT:    -3.012      1.867      2.977
REMARK INTER + INTRA:          -5.945
REMARK INTER:                  -4.516
REMARK INTRA:                  -1.429
REMARK UNBOUND:                -0.820
REMARK SMILES CCCCCCCCCCCCCC(=O)[O-]
REMARK SMILES IDX 8 1 9 2 10 3 11 4 12 5 13 6 14 7 15 8 16 9 7 10 6 11 5 12
REMARK SMILES IDX 4 13 3 14 2 15 1 16
REMARK H PARENT
REMARK Flexibility Score: inf
ROOT
ATOM      1  C   UNL     1     -23.607   2.825   2.016  1.00  0.00     0.000 C 
ENDROOT
BRANCH   1   2
ATOM      2  C   UNL     1     -24.086   1.418   1.627  1.00  0.00     0.000 C 
BRANCH   2   3
ATOM      3  C   UNL     1     -23.080   0.351   2.084  1.00  0.00     0.000 C 
BRANCH   3   4
ATOM      4  C   UNL     1     -21.692   0.936   2.392  1.00  0.00     0.000 C 
BRANCH   4   5
ATOM      5  C   UNL     1     -20.638   0.541   1.343  1.00  0.00     0.006 C 
BRANCH   5   6
ATOM      6  C   UNL     1     -20.572   1.544   0.183  1.00  0.00     0.053 C 
BRANCH   6   7
ATOM      7  C   UNL     1     -19.343   2.398   0.255  1.00  0.00     0.041 C 
ATOM      8  O   UNL     1     -18.249   1.905   0.635  1.00  0.00    -0.550 OA
ATOM      9  O   UNL     1     -19.402   3.733  -0.125  1.00  0.00    -0.550 OA
ENDBRANCH   6   7
ENDBRANCH   5   6
ENDBRANCH   4   5
ENDBRANCH   3   4
ENDBRANCH   2   3
ENDBRANCH   1   2
BRANCH   1  10
ATOM     10  C   UNL     1     -23.799   3.856   0.888  1.00  0.00     0.000 C 
BRANCH  10  11
ATOM     11  C   UNL     1     -22.612   4.817   0.672  1.00  0.00    -0.000 C 
BRANCH  11  12
ATOM     12  C   UNL     1     -22.672   6.122   1.486  1.00  0.00    -0.000 C 
BRANCH  12  13
ATOM     13  C   UNL     1     -23.961   6.919   1.241  1.00  0.00    -0.000 C 
BRANCH  13  14
ATOM     14  C   UNL     1     -24.811   6.994   2.519  1.00  0.00    -0.000 C 
BRANCH  14  15
ATOM     15  C   UNL     1     -24.196   6.203   3.684  1.00  0.00    -0.003 C 
ATOM     16  C   UNL     1     -25.196   5.260   4.352  1.00  0.00     0.004 C 
ENDBRANCH  14  15
ENDBRANCH  13  14
ENDBRANCH  12  13
ENDBRANCH  11  12
ENDBRANCH  10  11
ENDBRANCH   1  10
TORSDOF 12
ENDMDL
