MODEL 1
REMARK VINA RESULT:    -7.471      0.000      0.000
REMARK INTER + INTRA:          -9.227
REMARK INTER:                  -9.000
REMARK INTRA:                  -0.228
REMARK UNBOUND:                -0.228
REMARK SMILES O=c1c(O)c(-c2ccc(O)c(O)c2)oc2cc(O)cc(O)c12
REMARK SMILES IDX 5 1 3 2 2 3 1 4 22 5 20 6 19 7 17 8 16 9 15 10 14 11 6 12
REMARK SMILES IDX 7 13 8 14 9 15 13 16 11 17 10 18 12 20 4 22 21 24 18 26
REMARK H PARENT 10 19 12 21 4 23 21 25 18 27
REMARK Flexibility Score: inf
ROOT
ATOM      1  C   UNL     1      -6.231 -33.641 -49.556  1.00  0.00     0.180 A 
ATOM      2  C   UNL     1      -7.343 -34.370 -50.011  1.00  0.00     0.208 A 
ATOM      3  C   UNL     1      -8.601 -33.747 -50.035  1.00  0.00     0.238 A 
ATOM      4  O   UNL     1      -9.602 -34.421 -50.392  1.00  0.00    -0.285 OA
ATOM      5  C   UNL     1      -8.729 -32.401 -49.617  1.00  0.00     0.111 A 
ATOM      6  C   UNL     1      -9.948 -31.659 -49.637  1.00  0.00     0.134 A 
ATOM      7  C   UNL     1      -9.985 -30.375 -49.078  1.00  0.00     0.093 A 
ATOM      8  C   UNL     1      -8.830 -29.782 -48.561  1.00  0.00     0.123 A 
ATOM      9  C   UNL     1      -7.623 -30.475 -48.592  1.00  0.00     0.094 A 
ATOM     10  C   UNL     1      -7.563 -31.772 -49.109  1.00  0.00     0.146 A 
ATOM     11  O   UNL     1      -6.393 -32.401 -49.109  1.00  0.00    -0.452 OA
ENDROOT
BRANCH   1  12
ATOM     12  C   UNL     1      -4.867 -34.220 -49.525  1.00  0.00     0.025 A 
ATOM     13  C   UNL     1      -4.172 -34.516 -50.711  1.00  0.00     0.016 A 
ATOM     14  C   UNL     1      -2.877 -35.039 -50.658  1.00  0.00     0.051 A 
ATOM     15  C   UNL     1      -2.253 -35.261 -49.423  1.00  0.00     0.157 A 
ATOM     16  C   UNL     1      -4.230 -34.425 -48.291  1.00  0.00     0.062 A 
ATOM     17  C   UNL     1      -2.933 -34.949 -48.234  1.00  0.00     0.158 A 
BRANCH  15  18
ATOM     18  O   UNL     1      -0.963 -35.785 -49.374  1.00  0.00    -0.504 OA
ATOM     19  H   UNL     1      -0.642 -36.471 -50.048  1.00  0.00     0.293 HD
ENDBRANCH  15  18
BRANCH  17  20
ATOM     20  O   UNL     1      -2.338 -35.152 -46.990  1.00  0.00    -0.504 OA
ATOM     21  H   UNL     1      -2.246 -34.407 -46.309  1.00  0.00     0.293 HD
ENDBRANCH  17  20
ENDBRANCH   1  12
BRANCH   2  22
ATOM     22  O   UNL     1      -7.198 -35.705 -50.398  1.00  0.00    -0.502 OA
ATOM     23  H   UNL     1      -6.636 -36.365 -49.874  1.00  0.00     0.293 HD
ENDBRANCH   2  22
BRANCH   6  24
ATOM     24  O   UNL     1     -11.134 -32.123 -50.212  1.00  0.00    -0.507 OA
ATOM     25  H   UNL     1     -11.184 -32.748 -51.002  1.00  0.00     0.293 HD
ENDBRANCH   6  24
BRANCH   8  26
ATOM     26  O   UNL     1      -8.872 -28.498 -48.021  1.00  0.00    -0.508 OA
ATOM     27  H   UNL     1      -8.026 -28.000 -47.772  1.00  0.00     0.293 HD
ENDBRANCH   8  26
TORSDOF 6
ENDMDL
MODEL 2
REMARK VINA RESULT:    -7.384      2.101      7.234
REMARK INTER + INTRA:          -9.122
REMARK INTER:                  -8.876
REMARK INTRA:                  -0.247
REMARK UNBOUND:                -0.228
REMARK SMILES O=c1c(O)c(-c2ccc(O)c(O)c2)oc2cc(O)cc(O)c12
REMARK SMILES IDX 5 1 3 2 2 3 1 4 22 5 20 6 19 7 17 8 16 9 15 10 14 11 6 12
REMARK SMILES IDX 7 13 8 14 9 15 13 16 11 17 10 18 12 20 4 22 21 24 18 26
REMARK H PARENT 10 19 12 21 4 23 21 25 18 27
REMARK Flexibility Score: inf
ROOT
ATOM      1  C   UNL     1      -5.428 -32.990 -49.506  1.00  0.00     0.180 A 
ATOM      2  C   UNL     1      -4.327 -32.124 -49.617  1.00  0.00     0.208 A 
ATOM      3  C   UNL     1      -3.055 -32.667 -49.862  1.00  0.00     0.238 A 
ATOM      4  O   UNL     1      -2.065 -31.892 -49.906  1.00  0.00    -0.285 OA
ATOM      5  C   UNL     1      -2.904 -34.067 -50.009  1.00  0.00     0.111 A 
ATOM      6  C   UNL     1      -1.669 -34.722 -50.299  1.00  0.00     0.134 A 
ATOM      7  C   UNL     1      -1.612 -36.121 -50.293  1.00  0.00     0.093 A 
ATOM      8  C   UNL     1      -2.760 -36.888 -50.074  1.00  0.00     0.123 A 
ATOM      9  C   UNL     1      -3.980 -36.258 -49.849  1.00  0.00     0.094 A 
ATOM     10  C   UNL     1      -4.062 -34.863 -49.812  1.00  0.00     0.146 A 
ATOM     11  O   UNL     1      -5.244 -34.303 -49.584  1.00  0.00    -0.452 OA
ENDROOT
BRANCH   1  12
ATOM     12  C   UNL     1      -6.803 -32.491 -49.273  1.00  0.00     0.025 A 
ATOM     13  C   UNL     1      -7.510 -31.800 -50.273  1.00  0.00     0.016 A 
ATOM     14  C   UNL     1      -8.815 -31.359 -50.039  1.00  0.00     0.051 A 
ATOM     15  C   UNL     1      -9.438 -31.614 -48.810  1.00  0.00     0.157 A 
ATOM     16  C   UNL     1      -7.439 -32.762 -48.051  1.00  0.00     0.062 A 
ATOM     17  C   UNL     1      -8.747 -32.322 -47.813  1.00  0.00     0.158 A 
BRANCH  15  18
ATOM     18  O   UNL     1     -10.739 -31.172 -48.579  1.00  0.00    -0.504 OA
ATOM     19  H   UNL     1     -10.942 -30.451 -47.896  1.00  0.00     0.293 HD
ENDBRANCH  15  18
BRANCH  17  20
ATOM     20  O   UNL     1      -9.341 -32.597 -46.582  1.00  0.00    -0.504 OA
ATOM     21  H   UNL     1      -9.795 -33.482 -46.389  1.00  0.00     0.293 HD
ENDBRANCH  17  20
ENDBRANCH   1  12
BRANCH   2  22
ATOM     22  O   UNL     1      -4.495 -30.747 -49.446  1.00  0.00    -0.502 OA
ATOM     23  H   UNL     1      -5.365 -30.275 -49.663  1.00  0.00     0.293 HD
ENDBRANCH   2  22
BRANCH   6  24
ATOM     24  O   UNL     1      -0.487 -34.051 -50.624  1.00  0.00    -0.507 OA
ATOM     25  H   UNL     1      -0.410 -33.054 -50.755  1.00  0.00     0.293 HD
ENDBRANCH   6  24
BRANCH   8  26
ATOM     26  O   UNL     1      -2.697 -38.281 -50.085  1.00  0.00    -0.508 OA
ATOM     27  H   UNL     1      -3.518 -38.850 -49.918  1.00  0.00     0.293 HD
ENDBRANCH   8  26
TORSDOF 6
ENDMDL
MODEL 3
REMARK VINA RESULT:    -6.732      3.280      6.926
REMARK INTER + INTRA:          -8.337
REMARK INTER:                  -8.025
REMARK INTRA:                  -0.312
REMARK UNBOUND:                -0.228
REMARK SMILES O=c1c(O)c(-c2ccc(O)c(O)c2)oc2cc(O)cc(O)c12
REMARK SMILES IDX 5 1 3 2 2 3 1 4 22 5 20 6 19 7 17 8 16 9 15 10 14 11 6 12
REMARK SMILES IDX 7 13 8 14 9 15 13 16 11 17 10 18 12 20 4 22 21 24 18 26
REMARK H PARENT 10 19 12 21 4 23 21 25 18 27
REMARK Flexibility Score: inf
ROOT
ATOM      1  C   UNL     1      -7.876 -35.767 -51.235  1.00  0.00     0.180 A 
ATOM      2  C   UNL     1      -8.392 -34.799 -50.357  1.00  0.00     0.208 A 
ATOM      3  C   UNL     1      -7.540 -34.224 -49.400  1.00  0.00     0.238 A 
ATOM      4  O   UNL     1      -8.021 -33.398 -48.582  1.00  0.00    -0.285 OA
ATOM      5  C   UNL     1      -6.181 -34.613 -49.343  1.00  0.00     0.111 A 
ATOM      6  C   UNL     1      -5.219 -34.067 -48.441  1.00  0.00     0.134 A 
ATOM      7  C   UNL     1      -3.934 -34.620 -48.384  1.00  0.00     0.093 A 
ATOM      8  C   UNL     1      -3.556 -35.655 -49.245  1.00  0.00     0.123 A 
ATOM      9  C   UNL     1      -4.469 -36.153 -50.170  1.00  0.00     0.094 A 
ATOM     10  C   UNL     1      -5.770 -35.647 -50.225  1.00  0.00     0.146 A 
ATOM     11  O   UNL     1      -6.613 -36.159 -51.115  1.00  0.00    -0.452 OA
ENDROOT
BRANCH   1  12
ATOM     12  C   UNL     1      -8.705 -36.400 -52.287  1.00  0.00     0.025 A 
ATOM     13  C   UNL     1      -9.350 -37.630 -52.069  1.00  0.00     0.016 A 
ATOM     14  C   UNL     1     -10.148 -38.196 -53.067  1.00  0.00     0.051 A 
ATOM     15  C   UNL     1     -10.324 -37.537 -54.291  1.00  0.00     0.157 A 
ATOM     16  C   UNL     1      -8.901 -35.733 -53.507  1.00  0.00     0.062 A 
ATOM     17  C   UNL     1      -9.700 -36.298 -54.510  1.00  0.00     0.158 A 
BRANCH  15  18
ATOM     18  O   UNL     1     -11.117 -38.105 -55.285  1.00  0.00    -0.504 OA
ATOM     19  H   UNL     1     -11.131 -37.737 -56.230  1.00  0.00     0.293 HD
ENDBRANCH  15  18
BRANCH  17  20
ATOM     20  O   UNL     1      -9.859 -35.613 -55.714  1.00  0.00    -0.504 OA
ATOM     21  H   UNL     1     -10.643 -35.786 -56.332  1.00  0.00     0.293 HD
ENDBRANCH  17  20
ENDBRANCH   1  12
BRANCH   2  22
ATOM     22  O   UNL     1      -9.743 -34.445 -50.417  1.00  0.00    -0.502 OA
ATOM     23  H   UNL     1     -10.235 -34.323 -51.294  1.00  0.00     0.293 HD
ENDBRANCH   2  22
BRANCH   6  24
ATOM     24  O   UNL     1      -5.466 -32.975 -47.605  1.00  0.00    -0.507 OA
ATOM     25  H   UNL     1      -6.372 -32.724 -47.239  1.00  0.00     0.293 HD
ENDBRANCH   6  24
BRANCH   8  26
ATOM     26  O   UNL     1      -2.269 -36.188 -49.192  1.00  0.00    -0.508 OA
ATOM     27  H   UNL     1      -1.453 -35.624 -49.397  1.00  0.00     0.293 HD
ENDBRANCH   8  26
TORSDOF 6
ENDMDL
MODEL 4
REMARK VINA RESULT:    -6.710      4.540      5.654
REMARK INTER + INTRA:          -8.311
REMARK INTER:                  -8.014
REMARK INTRA:                  -0.297
REMARK UNBOUND:                -0.228
REMARK SMILES O=c1c(O)c(-c2ccc(O)c(O)c2)oc2cc(O)cc(O)c12
REMARK SMILES IDX 5 1 3 2 2 3 1 4 22 5 20 6 19 7 17 8 16 9 15 10 14 11 6 12
REMARK SMILES IDX 7 13 8 14 9 15 13 16 11 17 10 18 12 20 4 22 21 24 18 26
REMARK H PARENT 10 19 12 21 4 23 21 25 18 27
REMARK Flexibility Score: inf
ROOT
ATOM      1  C   UNL     1      -4.106 -30.383 -50.162  1.00  0.00     0.180 A 
ATOM      2  C   UNL     1      -3.612 -31.655 -49.828  1.00  0.00     0.208 A 
ATOM      3  C   UNL     1      -4.478 -32.589 -49.237  1.00  0.00     0.238 A 
ATOM      4  O   UNL     1      -4.017 -33.707 -48.890  1.00  0.00    -0.285 OA
ATOM      5  C   UNL     1      -5.831 -32.244 -49.002  1.00  0.00     0.111 A 
ATOM      6  C   UNL     1      -6.806 -33.125 -48.447  1.00  0.00     0.134 A 
ATOM      7  C   UNL     1      -8.082 -32.636 -48.138  1.00  0.00     0.093 A 
ATOM      8  C   UNL     1      -8.437 -31.316 -48.427  1.00  0.00     0.123 A 
ATOM      9  C   UNL     1      -7.510 -30.466 -49.024  1.00  0.00     0.094 A 
ATOM     10  C   UNL     1      -6.218 -30.914 -49.310  1.00  0.00     0.146 A 
ATOM     11  O   UNL     1      -5.362 -30.067 -49.870  1.00  0.00    -0.452 OA
ENDROOT
BRANCH   1  12
ATOM     12  C   UNL     1      -3.260 -29.354 -50.810  1.00  0.00     0.025 A 
ATOM     13  C   UNL     1      -2.646 -28.335 -50.062  1.00  0.00     0.016 A 
ATOM     14  C   UNL     1      -1.832 -27.388 -50.691  1.00  0.00     0.051 A 
ATOM     15  C   UNL     1      -1.609 -27.454 -52.073  1.00  0.00     0.157 A 
ATOM     16  C   UNL     1      -3.017 -29.428 -52.191  1.00  0.00     0.062 A 
ATOM     17  C   UNL     1      -2.203 -28.482 -52.825  1.00  0.00     0.158 A 
BRANCH  15  18
ATOM     18  O   UNL     1      -0.799 -26.509 -52.698  1.00  0.00    -0.504 OA
ATOM     19  H   UNL     1      -0.986 -25.515 -52.621  1.00  0.00     0.293 HD
ENDBRANCH  15  18
BRANCH  17  20
ATOM     20  O   UNL     1      -1.996 -28.579 -54.201  1.00  0.00    -0.504 OA
ATOM     21  H   UNL     1      -2.297 -27.856 -54.843  1.00  0.00     0.293 HD
ENDBRANCH  17  20
ENDBRANCH   1  12
BRANCH   2  22
ATOM     22  O   UNL     1      -2.267 -31.967 -50.048  1.00  0.00    -0.502 OA
ATOM     23  H   UNL     1      -1.558 -31.255 -50.179  1.00  0.00     0.293 HD
ENDBRANCH   2  22
BRANCH   6  24
ATOM     24  O   UNL     1      -6.584 -34.484 -48.206  1.00  0.00    -0.507 OA
ATOM     25  H   UNL     1      -7.303 -35.149 -47.964  1.00  0.00     0.293 HD
ENDBRANCH   6  24
BRANCH   8  26
ATOM     26  O   UNL     1      -9.714 -30.842 -48.130  1.00  0.00    -0.508 OA
ATOM     27  H   UNL     1     -10.353 -30.549 -48.859  1.00  0.00     0.293 HD
ENDBRANCH   8  26
TORSDOF 6
ENDMDL
MODEL 5
REMARK VINA RESULT:    -6.613      1.995      6.782
REMARK INTER + INTRA:          -8.194
REMARK INTER:                  -7.875
REMARK INTRA:                  -0.319
REMARK UNBOUND:                -0.228
REMARK SMILES O=c1c(O)c(-c2ccc(O)c(O)c2)oc2cc(O)cc(O)c12
REMARK SMILES IDX 5 1 3 2 2 3 1 4 22 5 20 6 19 7 17 8 16 9 15 10 14 11 6 12
REMARK SMILES IDX 7 13 8 14 9 15 13 16 11 17 10 18 12 20 4 22 21 24 18 26
REMARK H PARENT 10 19 12 21 4 23 21 25 18 27
REMARK Flexibility Score: inf
ROOT
ATOM      1  C   UNL     1      -6.346 -34.458 -50.150  1.00  0.00     0.180 A 
ATOM      2  C   UNL     1      -6.507 -35.840 -50.346  1.00  0.00     0.208 A 
ATOM      3  C   UNL     1      -5.366 -36.640 -50.523  1.00  0.00     0.238 A 
ATOM      4  O   UNL     1      -5.519 -37.867 -50.753  1.00  0.00    -0.285 OA
ATOM      5  C   UNL     1      -4.080 -36.050 -50.488  1.00  0.00     0.111 A 
ATOM      6  C   UNL     1      -2.855 -36.771 -50.617  1.00  0.00     0.134 A 
ATOM      7  C   UNL     1      -1.646 -36.069 -50.698  1.00  0.00     0.093 A 
ATOM      8  C   UNL     1      -1.613 -34.676 -50.588  1.00  0.00     0.123 A 
ATOM      9  C   UNL     1      -2.798 -33.969 -50.402  1.00  0.00     0.094 A 
ATOM     10  C   UNL     1      -4.023 -34.638 -50.355  1.00  0.00     0.146 A 
ATOM     11  O   UNL     1      -5.130 -33.924 -50.186  1.00  0.00    -0.452 OA
ENDROOT
BRANCH   1  12
ATOM     12  C   UNL     1      -7.498 -33.553 -49.930  1.00  0.00     0.025 A 
ATOM     13  C   UNL     1      -8.203 -32.991 -51.009  1.00  0.00     0.016 A 
ATOM     14  C   UNL     1      -9.302 -32.159 -50.778  1.00  0.00     0.051 A 
ATOM     15  C   UNL     1      -9.722 -31.889 -49.469  1.00  0.00     0.157 A 
ATOM     16  C   UNL     1      -7.935 -33.296 -48.621  1.00  0.00     0.062 A 
ATOM     17  C   UNL     1      -9.037 -32.463 -48.386  1.00  0.00     0.158 A 
BRANCH  15  18
ATOM     18  O   UNL     1     -10.817 -31.058 -49.241  1.00  0.00    -0.504 OA
ATOM     19  H   UNL     1     -10.740 -30.049 -49.299  1.00  0.00     0.293 HD
ENDBRANCH  15  18
BRANCH  17  20
ATOM     20  O   UNL     1      -9.432 -32.220 -47.071  1.00  0.00    -0.504 OA
ATOM     21  H   UNL     1     -10.057 -32.842 -46.573  1.00  0.00     0.293 HD
ENDBRANCH  17  20
ENDBRANCH   1  12
BRANCH   2  22
ATOM     22  O   UNL     1      -7.787 -36.398 -50.399  1.00  0.00    -0.502 OA
ATOM     23  H   UNL     1      -8.049 -37.093 -51.088  1.00  0.00     0.293 HD
ENDBRANCH   2  22
BRANCH   6  24
ATOM     24  O   UNL     1      -2.769 -38.165 -50.643  1.00  0.00    -0.507 OA
ATOM     25  H   UNL     1      -3.386 -38.770 -51.164  1.00  0.00     0.293 HD
ENDBRANCH   6  24
BRANCH   8  26
ATOM     26  O   UNL     1      -0.404 -33.986 -50.654  1.00  0.00    -0.508 OA
ATOM     27  H   UNL     1       0.161 -33.986 -51.495  1.00  0.00     0.293 HD
ENDBRANCH   8  26
TORSDOF 6
ENDMDL
MODEL 6
REMARK VINA RESULT:    -6.603      1.467      3.143
REMARK INTER + INTRA:          -8.181
REMARK INTER:                  -7.860
REMARK INTRA:                  -0.321
REMARK UNBOUND:                -0.228
REMARK SMILES O=c1c(O)c(-c2ccc(O)c(O)c2)oc2cc(O)cc(O)c12
REMARK SMILES IDX 5 1 3 2 2 3 1 4 22 5 20 6 19 7 17 8 16 9 15 10 14 11 6 12
REMARK SMILES IDX 7 13 8 14 9 15 13 16 11 17 10 18 12 20 4 22 21 24 18 26
REMARK H PARENT 10 19 12 21 4 23 21 25 18 27
REMARK Flexibility Score: inf
ROOT
ATOM      1  C   UNL     1      -5.229 -32.056 -49.617  1.00  0.00     0.180 A 
ATOM      2  C   UNL     1      -5.039 -30.684 -49.376  1.00  0.00     0.208 A 
ATOM      3  C   UNL     1      -6.162 -29.843 -49.307  1.00  0.00     0.238 A 
ATOM      4  O   UNL     1      -5.982 -28.608 -49.146  1.00  0.00    -0.285 OA
ATOM      5  C   UNL     1      -7.459 -30.386 -49.464  1.00  0.00     0.111 A 
ATOM      6  C   UNL     1      -8.669 -29.634 -49.374  1.00  0.00     0.134 A 
ATOM      7  C   UNL     1      -9.890 -30.250 -49.676  1.00  0.00     0.093 A 
ATOM      8  C   UNL     1      -9.950 -31.608 -50.000  1.00  0.00     0.123 A 
ATOM      9  C   UNL     1      -8.782 -32.364 -50.033  1.00  0.00     0.094 A 
ATOM     10  C   UNL     1      -7.545 -31.769 -49.773  1.00  0.00     0.146 A 
ATOM     11  O   UNL     1      -6.454 -32.525 -49.825  1.00  0.00    -0.452 OA
ENDROOT
BRANCH   1  12
ATOM     12  C   UNL     1      -4.097 -33.009 -49.678  1.00  0.00     0.025 A 
ATOM     13  C   UNL     1      -3.398 -33.238 -50.876  1.00  0.00     0.016 A 
ATOM     14  C   UNL     1      -2.317 -34.124 -50.906  1.00  0.00     0.051 A 
ATOM     15  C   UNL     1      -1.911 -34.783 -49.737  1.00  0.00     0.157 A 
ATOM     16  C   UNL     1      -3.674 -33.656 -48.506  1.00  0.00     0.062 A 
ATOM     17  C   UNL     1      -2.591 -34.545 -48.532  1.00  0.00     0.158 A 
BRANCH  15  18
ATOM     18  O   UNL     1      -0.835 -35.668 -49.769  1.00  0.00    -0.504 OA
ATOM     19  H   UNL     1      -0.955 -36.640 -50.029  1.00  0.00     0.293 HD
ENDBRANCH  15  18
BRANCH  17  20
ATOM     20  O   UNL     1      -2.209 -35.179 -47.350  1.00  0.00    -0.504 OA
ATOM     21  H   UNL     1      -1.943 -36.156 -47.326  1.00  0.00     0.293 HD
ENDBRANCH  17  20
ENDBRANCH   1  12
BRANCH   2  22
ATOM     22  O   UNL     1      -3.748 -30.166 -49.246  1.00  0.00    -0.502 OA
ATOM     23  H   UNL     1      -3.439 -29.678 -48.413  1.00  0.00     0.293 HD
ENDBRANCH   2  22
BRANCH   6  24
ATOM     24  O   UNL     1      -8.728 -28.298 -48.968  1.00  0.00    -0.507 OA
ATOM     25  H   UNL     1      -8.687 -27.506 -49.592  1.00  0.00     0.293 HD
ENDBRANCH   6  24
BRANCH   8  26
ATOM     26  O   UNL     1     -11.172 -32.216 -50.285  1.00  0.00    -0.508 OA
ATOM     27  H   UNL     1     -11.939 -32.197 -49.625  1.00  0.00     0.293 HD
ENDBRANCH   8  26
TORSDOF 6
ENDMDL
MODEL 7
REMARK VINA RESULT:    -6.576      2.316      6.129
REMARK INTER + INTRA:          -8.150
REMARK INTER:                  -7.819
REMARK INTRA:                  -0.331
REMARK UNBOUND:                -0.228
REMARK SMILES O=c1c(O)c(-c2ccc(O)c(O)c2)oc2cc(O)cc(O)c12
REMARK SMILES IDX 5 1 3 2 2 3 1 4 22 5 20 6 19 7 17 8 16 9 15 10 14 11 6 12
REMARK SMILES IDX 7 13 8 14 9 15 13 16 11 17 10 18 12 20 4 22 21 24 18 26
REMARK H PARENT 10 19 12 21 4 23 21 25 18 27
REMARK Flexibility Score: inf
ROOT
ATOM      1  C   UNL     1      -6.328 -31.996 -49.247  1.00  0.00     0.180 A 
ATOM      2  C   UNL     1      -5.322 -32.854 -48.769  1.00  0.00     0.208 A 
ATOM      3  C   UNL     1      -5.337 -34.203 -49.156  1.00  0.00     0.238 A 
ATOM      4  O   UNL     1      -4.467 -34.978 -48.682  1.00  0.00    -0.285 OA
ATOM      5  C   UNL     1      -6.348 -34.675 -50.027  1.00  0.00     0.111 A 
ATOM      6  C   UNL     1      -6.437 -36.013 -50.516  1.00  0.00     0.134 A 
ATOM      7  C   UNL     1      -7.553 -36.401 -51.268  1.00  0.00     0.093 A 
ATOM      8  C   UNL     1      -8.550 -35.481 -51.606  1.00  0.00     0.123 A 
ATOM      9  C   UNL     1      -8.441 -34.159 -51.184  1.00  0.00     0.094 A 
ATOM     10  C   UNL     1      -7.359 -33.751 -50.401  1.00  0.00     0.146 A 
ATOM     11  O   UNL     1      -7.300 -32.482 -50.011  1.00  0.00    -0.452 OA
ENDROOT
BRANCH   1  12
ATOM     12  C   UNL     1      -6.365 -30.556 -48.904  1.00  0.00     0.025 A 
ATOM     13  C   UNL     1      -5.641 -29.608 -49.648  1.00  0.00     0.016 A 
ATOM     14  C   UNL     1      -5.710 -28.251 -49.321  1.00  0.00     0.051 A 
ATOM     15  C   UNL     1      -6.513 -27.820 -48.256  1.00  0.00     0.157 A 
ATOM     16  C   UNL     1      -7.185 -30.117 -47.852  1.00  0.00     0.062 A 
ATOM     17  C   UNL     1      -7.256 -28.757 -47.521  1.00  0.00     0.158 A 
BRANCH  15  18
ATOM     18  O   UNL     1      -6.578 -26.466 -47.931  1.00  0.00    -0.504 OA
ATOM     19  H   UNL     1      -6.947 -26.151 -47.041  1.00  0.00     0.293 HD
ENDBRANCH  15  18
BRANCH  17  20
ATOM     20  O   UNL     1      -8.070 -28.361 -46.461  1.00  0.00    -0.504 OA
ATOM     21  H   UNL     1      -9.075 -28.281 -46.554  1.00  0.00     0.293 HD
ENDBRANCH  17  20
ENDBRANCH   1  12
BRANCH   2  22
ATOM     22  O   UNL     1      -4.347 -32.372 -47.892  1.00  0.00    -0.502 OA
ATOM     23  H   UNL     1      -3.386 -32.693 -47.917  1.00  0.00     0.293 HD
ENDBRANCH   2  22
BRANCH   6  24
ATOM     24  O   UNL     1      -5.452 -36.984 -50.315  1.00  0.00    -0.507 OA
ATOM     25  H   UNL     1      -4.462 -36.798 -50.275  1.00  0.00     0.293 HD
ENDBRANCH   6  24
BRANCH   8  26
ATOM     26  O   UNL     1      -9.649 -35.872 -52.368  1.00  0.00    -0.508 OA
ATOM     27  H   UNL     1      -9.988 -35.308 -53.138  1.00  0.00     0.293 HD
ENDBRANCH   8  26
TORSDOF 6
ENDMDL
MODEL 8
REMARK VINA RESULT:    -6.516      4.173      6.316
REMARK INTER + INTRA:          -8.076
REMARK INTER:                  -7.795
REMARK INTRA:                  -0.281
REMARK UNBOUND:                -0.228
REMARK SMILES O=c1c(O)c(-c2ccc(O)c(O)c2)oc2cc(O)cc(O)c12
REMARK SMILES IDX 5 1 3 2 2 3 1 4 22 5 20 6 19 7 17 8 16 9 15 10 14 11 6 12
REMARK SMILES IDX 7 13 8 14 9 15 13 16 11 17 10 18 12 20 4 22 21 24 18 26
REMARK H PARENT 10 19 12 21 4 23 21 25 18 27
REMARK Flexibility Score: inf
ROOT
ATOM      1  C   UNL     1      -5.111 -31.739 -50.122  1.00  0.00     0.180 A 
ATOM      2  C   UNL     1      -3.946 -31.583 -49.351  1.00  0.00     0.208 A 
ATOM      3  C   UNL     1      -2.958 -30.685 -49.785  1.00  0.00     0.238 A 
ATOM      4  O   UNL     1      -1.893 -30.591 -49.120  1.00  0.00    -0.285 OA
ATOM      5  C   UNL     1      -3.153 -29.943 -50.974  1.00  0.00     0.111 A 
ATOM      6  C   UNL     1      -2.236 -28.977 -51.486  1.00  0.00     0.134 A 
ATOM      7  C   UNL     1      -2.471 -28.398 -52.740  1.00  0.00     0.093 A 
ATOM      8  C   UNL     1      -3.624 -28.702 -53.469  1.00  0.00     0.123 A 
ATOM      9  C   UNL     1      -4.553 -29.598 -52.950  1.00  0.00     0.094 A 
ATOM     10  C   UNL     1      -4.329 -30.220 -51.719  1.00  0.00     0.146 A 
ATOM     11  O   UNL     1      -5.237 -31.077 -51.266  1.00  0.00    -0.452 OA
ENDROOT
BRANCH   1  12
ATOM     12  C   UNL     1      -6.209 -32.647 -49.717  1.00  0.00     0.025 A 
ATOM     13  C   UNL     1      -6.356 -33.920 -50.296  1.00  0.00     0.016 A 
ATOM     14  C   UNL     1      -7.385 -34.770 -49.881  1.00  0.00     0.051 A 
ATOM     15  C   UNL     1      -8.271 -34.368 -48.873  1.00  0.00     0.157 A 
ATOM     16  C   UNL     1      -7.086 -32.257 -48.692  1.00  0.00     0.062 A 
ATOM     17  C   UNL     1      -8.118 -33.107 -48.274  1.00  0.00     0.158 A 
BRANCH  15  18
ATOM     18  O   UNL     1      -9.297 -35.217 -48.462  1.00  0.00    -0.504 OA
ATOM     19  H   UNL     1     -10.103 -34.869 -47.955  1.00  0.00     0.293 HD
ENDBRANCH  15  18
BRANCH  17  20
ATOM     20  O   UNL     1      -8.979 -32.679 -47.264  1.00  0.00    -0.504 OA
ATOM     21  H   UNL     1      -9.920 -32.358 -47.459  1.00  0.00     0.293 HD
ENDBRANCH  17  20
ENDBRANCH   1  12
BRANCH   2  22
ATOM     22  O   UNL     1      -3.764 -32.342 -48.192  1.00  0.00    -0.502 OA
ATOM     23  H   UNL     1      -4.367 -32.253 -47.383  1.00  0.00     0.293 HD
ENDBRANCH   2  22
BRANCH   6  24
ATOM     24  O   UNL     1      -1.103 -28.534 -50.797  1.00  0.00    -0.507 OA
ATOM     25  H   UNL     1      -1.108 -27.827 -50.078  1.00  0.00     0.293 HD
ENDBRANCH   6  24
BRANCH   8  26
ATOM     26  O   UNL     1      -3.857 -28.109 -54.708  1.00  0.00    -0.508 OA
ATOM     27  H   UNL     1      -3.098 -27.893 -55.344  1.00  0.00     0.293 HD
ENDBRANCH   8  26
TORSDOF 6
ENDMDL
MODEL 9
REMARK VINA RESULT:    -6.446      3.121      4.185
REMARK INTER + INTRA:          -7.992
REMARK INTER:                  -7.663
REMARK INTRA:                  -0.329
REMARK UNBOUND:                -0.228
REMARK SMILES O=c1c(O)c(-c2ccc(O)c(O)c2)oc2cc(O)cc(O)c12
REMARK SMILES IDX 5 1 3 2 2 3 1 4 22 5 20 6 19 7 17 8 16 9 15 10 14 11 6 12
REMARK SMILES IDX 7 13 8 14 9 15 13 16 11 17 10 18 12 20 4 22 21 24 18 26
REMARK H PARENT 10 19 12 21 4 23 21 25 18 27
REMARK Flexibility Score: inf
ROOT
ATOM      1  C   UNL     1      -5.505 -34.604 -49.786  1.00  0.00     0.180 A 
ATOM      2  C   UNL     1      -6.556 -34.008 -49.068  1.00  0.00     0.208 A 
ATOM      3  C   UNL     1      -6.583 -32.611 -48.933  1.00  0.00     0.238 A 
ATOM      4  O   UNL     1      -7.495 -32.088 -48.243  1.00  0.00    -0.285 OA
ATOM      5  C   UNL     1      -5.568 -31.826 -49.531  1.00  0.00     0.111 A 
ATOM      6  C   UNL     1      -5.517 -30.401 -49.492  1.00  0.00     0.134 A 
ATOM      7  C   UNL     1      -4.397 -29.735 -50.005  1.00  0.00     0.093 A 
ATOM      8  C   UNL     1      -3.357 -30.441 -50.616  1.00  0.00     0.123 A 
ATOM      9  C   UNL     1      -3.426 -31.828 -50.712  1.00  0.00     0.094 A 
ATOM     10  C   UNL     1      -4.512 -32.523 -50.176  1.00  0.00     0.146 A 
ATOM     11  O   UNL     1      -4.533 -33.847 -50.280  1.00  0.00    -0.452 OA
ENDROOT
BRANCH   1  12
ATOM     12  C   UNL     1      -5.422 -36.068 -49.993  1.00  0.00     0.025 A 
ATOM     13  C   UNL     1      -6.102 -36.698 -51.050  1.00  0.00     0.016 A 
ATOM     14  C   UNL     1      -5.990 -38.078 -51.241  1.00  0.00     0.051 A 
ATOM     15  C   UNL     1      -5.187 -38.846 -50.387  1.00  0.00     0.157 A 
ATOM     16  C   UNL     1      -4.603 -36.840 -49.153  1.00  0.00     0.062 A 
ATOM     17  C   UNL     1      -4.488 -38.223 -49.341  1.00  0.00     0.158 A 
BRANCH  15  18
ATOM     18  O   UNL     1      -5.079 -40.222 -50.578  1.00  0.00    -0.504 OA
ATOM     19  H   UNL     1      -4.193 -40.659 -50.807  1.00  0.00     0.293 HD
ENDBRANCH  15  18
BRANCH  17  20
ATOM     20  O   UNL     1      -3.676 -38.958 -48.478  1.00  0.00    -0.504 OA
ATOM     21  H   UNL     1      -3.154 -39.768 -48.790  1.00  0.00     0.293 HD
ENDBRANCH  17  20
ENDBRANCH   1  12
BRANCH   2  22
ATOM     22  O   UNL     1      -7.536 -34.803 -48.467  1.00  0.00    -0.502 OA
ATOM     23  H   UNL     1      -7.956 -35.596 -48.937  1.00  0.00     0.293 HD
ENDBRANCH   2  22
BRANCH   6  24
ATOM     24  O   UNL     1      -6.544 -29.597 -48.988  1.00  0.00    -0.507 OA
ATOM     25  H   UNL     1      -6.549 -29.179 -48.070  1.00  0.00     0.293 HD
ENDBRANCH   6  24
BRANCH   8  26
ATOM     26  O   UNL     1      -2.253 -29.769 -51.138  1.00  0.00    -0.508 OA
ATOM     27  H   UNL     1      -2.220 -28.757 -51.180  1.00  0.00     0.293 HD
ENDBRANCH   8  26
TORSDOF 6
ENDMDL
