MODEL 1
REMARK VINA RESULT:    -6.697      0.000      0.000
REMARK INTER + INTRA:         -11.053
REMARK INTER:                  -9.829
REMARK INTRA:                  -1.224
REMARK UNBOUND:                -1.224
REMARK SMILES O=c1c(O[C@@H]2O[C@@H](CO)[C@@H](O)[C@H](O)[C@H]2O)c(-c2ccc(O)c(O)c2)oc2cc(O)cc(O)c12
REMARK SMILES IDX 4 1 3 2 16 3 25 4 2 5 26 6 1 7 33 8 27 9 31 10 28 11 30 12
REMARK SMILES IDX 17 13 18 14 19 15 20 16 24 17 22 18 21 19 23 21 32 23 29 25
REMARK SMILES IDX 5 27 14 28 6 29 12 30 7 31 10 32 15 33 13 35 8 37 9 38 11 40
REMARK H PARENT 21 20 23 22 32 24 29 26 15 34 13 36 9 39 11 41
REMARK Flexibility Score: inf
ROOT
ATOM      1  O   UNL     1     -38.230   5.423  80.898  1.00  0.00    -0.454 OA
ENDROOT
BRANCH   1   2
ATOM      2  C   UNL     1     -38.346   6.214  79.749  1.00  0.00     0.214 A 
ATOM      3  C   UNL     1     -39.209   5.861  78.694  1.00  0.00     0.180 A 
ATOM      4  O   UNL     1     -39.210   6.580  77.578  1.00  0.00    -0.452 OA
ATOM      5  C   UNL     1     -37.574   7.374  79.636  1.00  0.00     0.239 A 
ATOM      6  C   UNL     1     -38.475   7.674  77.414  1.00  0.00     0.146 A 
ATOM      7  O   UNL     1     -36.788   7.663  80.576  1.00  0.00    -0.285 OA
ATOM      8  C   UNL     1     -37.649   8.161  78.462  1.00  0.00     0.111 A 
ATOM      9  C   UNL     1     -38.531   8.339  76.188  1.00  0.00     0.094 A 
ATOM     10  C   UNL     1     -36.924   9.372  78.250  1.00  0.00     0.134 A 
ATOM     11  C   UNL     1     -37.775   9.488  75.970  1.00  0.00     0.123 A 
ATOM     12  C   UNL     1     -36.974   9.996  76.997  1.00  0.00     0.093 A 
BRANCH   3  13
ATOM     13  C   UNL     1     -40.127   4.703  78.780  1.00  0.00     0.025 A 
ATOM     14  C   UNL     1     -40.209   3.763  77.741  1.00  0.00     0.016 A 
ATOM     15  C   UNL     1     -41.080   2.678  77.840  1.00  0.00     0.051 A 
ATOM     16  C   UNL     1     -41.871   2.498  78.979  1.00  0.00     0.157 A 
ATOM     17  C   UNL     1     -40.900   4.513  79.935  1.00  0.00     0.062 A 
ATOM     18  C   UNL     1     -41.775   3.426  80.045  1.00  0.00     0.158 A 
BRANCH  16  19
ATOM     19  O   UNL     1     -42.726   1.395  79.013  1.00  0.00    -0.504 OA
ATOM     20  H   UNL     1     -42.932   0.815  78.212  1.00  0.00     0.293 HD
ENDBRANCH  16  19
BRANCH  18  21
ATOM     21  O   UNL     1     -42.524   3.306  81.218  1.00  0.00    -0.504 OA
ATOM     22  H   UNL     1     -42.327   2.637  81.947  1.00  0.00     0.293 HD
ENDBRANCH  18  21
ENDBRANCH   3  13
BRANCH  10  23
ATOM     23  O   UNL     1     -36.167  10.010  79.237  1.00  0.00    -0.507 OA
ATOM     24  H   UNL     1     -35.286  10.474  79.075  1.00  0.00     0.293 HD
ENDBRANCH  10  23
BRANCH  11  25
ATOM     25  O   UNL     1     -37.830  10.124  74.733  1.00  0.00    -0.508 OA
ATOM     26  H   UNL     1     -37.740  11.129  74.648  1.00  0.00     0.293 HD
ENDBRANCH  11  25
ENDBRANCH   1   2
BRANCH   1  27
ATOM     27  C   UNL     1     -37.292   4.346  81.008  1.00  0.00     0.339 C 
ATOM     28  C   UNL     1     -36.115   4.730  81.933  1.00  0.00     0.214 C 
ATOM     29  O   UNL     1     -37.933   3.156  81.441  1.00  0.00    -0.332 OA
ATOM     30  C   UNL     1     -36.533   4.755  83.420  1.00  0.00     0.180 C 
ATOM     31  C   UNL     1     -38.512   3.316  82.724  1.00  0.00     0.179 C 
ATOM     32  C   UNL     1     -37.415   3.539  83.791  1.00  0.00     0.177 C 
BRANCH  28  33
ATOM     33  O   UNL     1     -35.073   3.802  81.770  1.00  0.00    -0.384 OA
ATOM     34  H   UNL     1     -35.256   3.048  82.389  1.00  0.00     0.211 HD
ENDBRANCH  28  33
BRANCH  30  35
ATOM     35  O   UNL     1     -37.152   5.973  83.761  1.00  0.00    -0.387 OA
ATOM     36  H   UNL     1     -37.062   6.111  84.736  1.00  0.00     0.211 HD
ENDBRANCH  30  35
BRANCH  31  37
ATOM     37  C   UNL     1     -39.357   2.072  83.030  1.00  0.00     0.191 C 
BRANCH  37  38
ATOM     38  O   UNL     1     -38.660   0.912  82.670  1.00  0.00    -0.394 OA
ATOM     39  H   UNL     1     -38.990   0.660  81.769  1.00  0.00     0.210 HD
ENDBRANCH  37  38
ENDBRANCH  31  37
BRANCH  32  40
ATOM     40  O   UNL     1     -36.612   2.388  83.887  1.00  0.00    -0.387 OA
ATOM     41  H   UNL     1     -37.225   1.620  84.030  1.00  0.00     0.211 HD
ENDBRANCH  32  40
ENDBRANCH   1  27
TORSDOF 12
ENDMDL
MODEL 2
REMARK VINA RESULT:    -6.502      2.183      6.856
REMARK INTER + INTRA:         -10.767
REMARK INTER:                  -9.143
REMARK INTRA:                  -1.624
REMARK UNBOUND:                -1.224
REMARK SMILES O=c1c(O[C@@H]2O[C@@H](CO)[C@@H](O)[C@H](O)[C@H]2O)c(-c2ccc(O)c(O)c2)oc2cc(O)cc(O)c12
REMARK SMILES IDX 4 1 3 2 16 3 25 4 2 5 26 6 1 7 33 8 27 9 31 10 28 11 30 12
REMARK SMILES IDX 17 13 18 14 19 15 20 16 24 17 22 18 21 19 23 21 32 23 29 25
REMARK SMILES IDX 5 27 14 28 6 29 12 30 7 31 10 32 15 33 13 35 8 37 9 38 11 40
REMARK H PARENT 21 20 23 22 32 24 29 26 15 34 13 36 9 39 11 41
REMARK Flexibility Score: inf
ROOT
ATOM      1  O   UNL     1     -36.135   6.151  79.588  1.00  0.00    -0.454 OA
ENDROOT
BRANCH   1   2
ATOM      2  C   UNL     1     -37.290   5.501  80.036  1.00  0.00     0.214 A 
ATOM      3  C   UNL     1     -38.564   5.831  79.536  1.00  0.00     0.180 A 
ATOM      4  O   UNL     1     -39.643   5.265  80.064  1.00  0.00    -0.452 OA
ATOM      5  C   UNL     1     -37.181   4.512  81.019  1.00  0.00     0.239 A 
ATOM      6  C   UNL     1     -39.591   4.341  81.017  1.00  0.00     0.146 A 
ATOM      7  O   UNL     1     -36.038   4.248  81.476  1.00  0.00    -0.285 OA
ATOM      8  C   UNL     1     -38.344   3.876  81.513  1.00  0.00     0.111 A 
ATOM      9  C   UNL     1     -40.790   3.834  81.521  1.00  0.00     0.094 A 
ATOM     10  C   UNL     1     -38.347   2.841  82.497  1.00  0.00     0.134 A 
ATOM     11  C   UNL     1     -40.783   2.866  82.523  1.00  0.00     0.123 A 
ATOM     12  C   UNL     1     -39.566   2.378  83.007  1.00  0.00     0.093 A 
BRANCH   3  13
ATOM     13  C   UNL     1     -38.751   6.796  78.429  1.00  0.00     0.025 A 
ATOM     14  C   UNL     1     -38.307   6.504  77.130  1.00  0.00     0.016 A 
ATOM     15  C   UNL     1     -38.491   7.425  76.099  1.00  0.00     0.051 A 
ATOM     16  C   UNL     1     -39.136   8.644  76.336  1.00  0.00     0.157 A 
ATOM     17  C   UNL     1     -39.419   8.005  78.666  1.00  0.00     0.062 A 
ATOM     18  C   UNL     1     -39.612   8.935  77.638  1.00  0.00     0.158 A 
BRANCH  16  19
ATOM     19  O   UNL     1     -39.283   9.524  75.264  1.00  0.00    -0.504 OA
ATOM     20  H   UNL     1     -39.779  10.402  75.317  1.00  0.00     0.293 HD
ENDBRANCH  16  19
BRANCH  18  21
ATOM     21  O   UNL     1     -40.274  10.125  77.949  1.00  0.00    -0.504 OA
ATOM     22  H   UNL     1     -41.277  10.233  77.934  1.00  0.00     0.293 HD
ENDBRANCH  18  21
ENDBRANCH   3  13
BRANCH  10  23
ATOM     23  O   UNL     1     -37.191   2.224  82.982  1.00  0.00    -0.507 OA
ATOM     24  H   UNL     1     -36.638   1.555  82.468  1.00  0.00     0.293 HD
ENDBRANCH  10  23
BRANCH  11  25
ATOM     25  O   UNL     1     -41.990   2.388  83.026  1.00  0.00    -0.508 OA
ATOM     26  H   UNL     1     -42.127   1.406  83.232  1.00  0.00     0.293 HD
ENDBRANCH  11  25
ENDBRANCH   1   2
BRANCH   1  27
ATOM     27  C   UNL     1     -35.639   7.356  80.185  1.00  0.00     0.339 C 
ATOM     28  C   UNL     1     -34.171   7.187  80.637  1.00  0.00     0.214 C 
ATOM     29  O   UNL     1     -35.794   8.460  79.307  1.00  0.00    -0.332 OA
ATOM     30  C   UNL     1     -33.197   7.168  79.439  1.00  0.00     0.180 C 
ATOM     31  C   UNL     1     -35.062   8.276  78.109  1.00  0.00     0.179 C 
ATOM     32  C   UNL     1     -33.542   8.261  78.399  1.00  0.00     0.177 C 
BRANCH  28  33
ATOM     33  O   UNL     1     -33.821   8.246  81.491  1.00  0.00    -0.384 OA
ATOM     34  H   UNL     1     -32.872   8.468  81.303  1.00  0.00     0.211 HD
ENDBRANCH  28  33
BRANCH  30  35
ATOM     35  O   UNL     1     -33.127   5.891  78.851  1.00  0.00    -0.387 OA
ATOM     36  H   UNL     1     -32.434   5.363  79.321  1.00  0.00     0.211 HD
ENDBRANCH  30  35
BRANCH  31  37
ATOM     37  C   UNL     1     -35.441   9.399  77.134  1.00  0.00     0.191 C 
BRANCH  37  38
ATOM     38  O   UNL     1     -34.325   9.784  76.380  1.00  0.00    -0.394 OA
ATOM     39  H   UNL     1     -34.109  10.711  76.663  1.00  0.00     0.210 HD
ENDBRANCH  37  38
ENDBRANCH  31  37
BRANCH  32  40
ATOM     40  O   UNL     1     -33.144   9.518  78.888  1.00  0.00    -0.387 OA
ATOM     41  H   UNL     1     -33.438   9.565  79.836  1.00  0.00     0.211 HD
ENDBRANCH  32  40
ENDBRANCH   1  27
TORSDOF 12
ENDMDL
MODEL 3
REMARK VINA RESULT:    -6.395      2.534      6.423
REMARK INTER + INTRA:         -10.610
REMARK INTER:                  -9.149
REMARK INTRA:                  -1.461
REMARK UNBOUND:                -1.224
REMARK SMILES O=c1c(O[C@@H]2O[C@@H](CO)[C@@H](O)[C@H](O)[C@H]2O)c(-c2ccc(O)c(O)c2)oc2cc(O)cc(O)c12
REMARK SMILES IDX 4 1 3 2 16 3 25 4 2 5 26 6 1 7 33 8 27 9 31 10 28 11 30 12
REMARK SMILES IDX 17 13 18 14 19 15 20 16 24 17 22 18 21 19 23 21 32 23 29 25
REMARK SMILES IDX 5 27 14 28 6 29 12 30 7 31 10 32 15 33 13 35 8 37 9 38 11 40
REMARK H PARENT 21 20 23 22 32 24 29 26 15 34 13 36 9 39 11 41
REMARK Flexibility Score: inf
ROOT
ATOM      1  O   UNL     1     -37.785   5.779  81.552  1.00  0.00    -0.454 OA
ENDROOT
BRANCH   1   2
ATOM      2  C   UNL     1     -38.450   5.099  80.526  1.00  0.00     0.214 A 
ATOM      3  C   UNL     1     -37.867   4.925  79.256  1.00  0.00     0.180 A 
ATOM      4  O   UNL     1     -38.573   4.368  78.280  1.00  0.00    -0.452 OA
ATOM      5  C   UNL     1     -39.734   4.594  80.759  1.00  0.00     0.239 A 
ATOM      6  C   UNL     1     -39.805   3.897  78.446  1.00  0.00     0.146 A 
ATOM      7  O   UNL     1     -40.253   4.781  81.891  1.00  0.00    -0.285 OA
ATOM      8  C   UNL     1     -40.436   3.941  79.718  1.00  0.00     0.111 A 
ATOM      9  C   UNL     1     -40.467   3.357  77.343  1.00  0.00     0.094 A 
ATOM     10  C   UNL     1     -41.737   3.371  79.852  1.00  0.00     0.134 A 
ATOM     11  C   UNL     1     -41.761   2.855  77.471  1.00  0.00     0.123 A 
ATOM     12  C   UNL     1     -42.389   2.868  78.719  1.00  0.00     0.093 A 
BRANCH   3  13
ATOM     13  C   UNL     1     -36.479   5.345  78.963  1.00  0.00     0.025 A 
ATOM     14  C   UNL     1     -35.382   4.613  79.447  1.00  0.00     0.016 A 
ATOM     15  C   UNL     1     -34.080   5.024  79.161  1.00  0.00     0.051 A 
ATOM     16  C   UNL     1     -33.844   6.156  78.373  1.00  0.00     0.157 A 
ATOM     17  C   UNL     1     -36.247   6.466  78.153  1.00  0.00     0.062 A 
ATOM     18  C   UNL     1     -34.944   6.884  77.858  1.00  0.00     0.158 A 
BRANCH  16  19
ATOM     19  O   UNL     1     -32.518   6.516  78.129  1.00  0.00    -0.504 OA
ATOM     20  H   UNL     1     -32.241   7.259  77.504  1.00  0.00     0.293 HD
ENDBRANCH  16  19
BRANCH  18  21
ATOM     21  O   UNL     1     -34.788   8.017  77.056  1.00  0.00    -0.504 OA
ATOM     22  H   UNL     1     -35.273   8.162  76.182  1.00  0.00     0.293 HD
ENDBRANCH  18  21
ENDBRANCH   3  13
BRANCH  10  23
ATOM     23  O   UNL     1     -42.416   3.253  81.068  1.00  0.00    -0.507 OA
ATOM     24  H   UNL     1     -43.411   3.365  81.184  1.00  0.00     0.293 HD
ENDBRANCH  10  23
BRANCH  11  25
ATOM     25  O   UNL     1     -42.412   2.339  76.353  1.00  0.00    -0.508 OA
ATOM     26  H   UNL     1     -42.128   1.463  75.932  1.00  0.00     0.293 HD
ENDBRANCH  11  25
ENDBRANCH   1   2
BRANCH   1  27
ATOM     27  C   UNL     1     -38.099   7.128  81.921  1.00  0.00     0.339 C 
ATOM     28  C   UNL     1     -38.014   7.317  83.452  1.00  0.00     0.214 C 
ATOM     29  O   UNL     1     -37.269   8.049  81.232  1.00  0.00    -0.332 OA
ATOM     30  C   UNL     1     -36.552   7.331  83.952  1.00  0.00     0.180 C 
ATOM     31  C   UNL     1     -35.903   7.855  81.549  1.00  0.00     0.179 C 
ATOM     32  C   UNL     1     -35.639   8.182  83.038  1.00  0.00     0.177 C 
BRANCH  28  33
ATOM     33  O   UNL     1     -38.627   8.530  83.807  1.00  0.00    -0.384 OA
ATOM     34  H   UNL     1     -38.019   9.259  83.515  1.00  0.00     0.211 HD
ENDBRANCH  28  33
BRANCH  30  35
ATOM     35  O   UNL     1     -36.052   6.025  84.120  1.00  0.00    -0.387 OA
ATOM     36  H   UNL     1     -36.788   5.442  84.433  1.00  0.00     0.211 HD
ENDBRANCH  30  35
BRANCH  31  37
ATOM     37  C   UNL     1     -35.060   8.737  80.618  1.00  0.00     0.191 C 
BRANCH  37  38
ATOM     38  O   UNL     1     -35.770   9.894  80.272  1.00  0.00    -0.394 OA
ATOM     39  H   UNL     1     -36.625   9.584  79.873  1.00  0.00     0.210 HD
ENDBRANCH  37  38
ENDBRANCH  31  37
BRANCH  32  40
ATOM     40  O   UNL     1     -35.883   9.548  83.270  1.00  0.00    -0.387 OA
ATOM     41  H   UNL     1     -35.194  10.053  82.765  1.00  0.00     0.211 HD
ENDBRANCH  32  40
ENDBRANCH   1  27
TORSDOF 12
ENDMDL
MODEL 4
REMARK VINA RESULT:    -6.268      2.393      8.138
REMARK INTER + INTRA:         -10.424
REMARK INTER:                  -8.647
REMARK INTRA:                  -1.777
REMARK UNBOUND:                -1.224
REMARK SMILES O=c1c(O[C@@H]2O[C@@H](CO)[C@@H](O)[C@H](O)[C@H]2O)c(-c2ccc(O)c(O)c2)oc2cc(O)cc(O)c12
REMARK SMILES IDX 4 1 3 2 16 3 25 4 2 5 26 6 1 7 33 8 27 9 31 10 28 11 30 12
REMARK SMILES IDX 17 13 18 14 19 15 20 16 24 17 22 18 21 19 23 21 32 23 29 25
REMARK SMILES IDX 5 27 14 28 6 29 12 30 7 31 10 32 15 33 13 35 8 37 9 38 11 40
REMARK H PARENT 21 20 23 22 32 24 29 26 15 34 13 36 9 39 11 41
REMARK Flexibility Score: inf
ROOT
ATOM      1  O   UNL     1     -38.088   7.503  79.193  1.00  0.00    -0.454 OA
ENDROOT
BRANCH   1   2
ATOM      2  C   UNL     1     -38.005   6.420  80.075  1.00  0.00     0.214 A 
ATOM      3  C   UNL     1     -36.790   6.055  80.685  1.00  0.00     0.180 A 
ATOM      4  O   UNL     1     -36.733   4.959  81.432  1.00  0.00    -0.452 OA
ATOM      5  C   UNL     1     -39.154   5.668  80.345  1.00  0.00     0.239 A 
ATOM      6  C   UNL     1     -37.791   4.199  81.694  1.00  0.00     0.146 A 
ATOM      7  O   UNL     1     -40.227   5.990  79.771  1.00  0.00    -0.285 OA
ATOM      8  C   UNL     1     -39.077   4.545  81.202  1.00  0.00     0.111 A 
ATOM      9  C   UNL     1     -37.612   3.051  82.468  1.00  0.00     0.094 A 
ATOM     10  C   UNL     1     -40.187   3.723  81.562  1.00  0.00     0.134 A 
ATOM     11  C   UNL     1     -38.692   2.223  82.765  1.00  0.00     0.123 A 
ATOM     12  C   UNL     1     -39.969   2.559  82.310  1.00  0.00     0.093 A 
BRANCH   3  13
ATOM     13  C   UNL     1     -35.556   6.857  80.526  1.00  0.00     0.025 A 
ATOM     14  C   UNL     1     -35.322   7.992  81.317  1.00  0.00     0.016 A 
ATOM     15  C   UNL     1     -34.154   8.736  81.152  1.00  0.00     0.051 A 
ATOM     16  C   UNL     1     -33.189   8.356  80.213  1.00  0.00     0.157 A 
ATOM     17  C   UNL     1     -34.582   6.457  79.600  1.00  0.00     0.062 A 
ATOM     18  C   UNL     1     -33.405   7.196  79.429  1.00  0.00     0.158 A 
BRANCH  16  19
ATOM     19  O   UNL     1     -32.046   9.146  80.093  1.00  0.00    -0.504 OA
ATOM     20  H   UNL     1     -31.419   9.352  80.858  1.00  0.00     0.293 HD
ENDBRANCH  16  19
BRANCH  18  21
ATOM     21  O   UNL     1     -32.484   6.746  78.480  1.00  0.00    -0.504 OA
ATOM     22  H   UNL     1     -32.019   5.852  78.523  1.00  0.00     0.293 HD
ENDBRANCH  18  21
ENDBRANCH   3  13
BRANCH  10  23
ATOM     23  O   UNL     1     -41.514   4.017  81.234  1.00  0.00    -0.507 OA
ATOM     24  H   UNL     1     -41.847   4.205  80.301  1.00  0.00     0.293 HD
ENDBRANCH  10  23
BRANCH  11  25
ATOM     25  O   UNL     1     -38.488   1.071  83.521  1.00  0.00    -0.508 OA
ATOM     26  H   UNL     1     -38.341   0.169  83.085  1.00  0.00     0.293 HD
ENDBRANCH  11  25
ENDBRANCH   1   2
BRANCH   1  27
ATOM     27  C   UNL     1     -37.797   7.390  77.795  1.00  0.00     0.339 C 
ATOM     28  C   UNL     1     -38.974   7.913  76.940  1.00  0.00     0.214 C 
ATOM     29  O   UNL     1     -36.582   8.048  77.473  1.00  0.00    -0.332 OA
ATOM     30  C   UNL     1     -39.074   9.454  76.977  1.00  0.00     0.180 C 
ATOM     31  C   UNL     1     -36.652   9.434  77.756  1.00  0.00     0.179 C 
ATOM     32  C   UNL     1     -37.687  10.125  76.836  1.00  0.00     0.177 C 
BRANCH  28  33
ATOM     33  O   UNL     1     -38.802   7.501  75.608  1.00  0.00    -0.384 OA
ATOM     34  H   UNL     1     -39.457   8.008  75.061  1.00  0.00     0.211 HD
ENDBRANCH  28  33
BRANCH  30  35
ATOM     35  O   UNL     1     -39.755   9.899  78.126  1.00  0.00    -0.387 OA
ATOM     36  H   UNL     1     -40.711  10.017  77.901  1.00  0.00     0.211 HD
ENDBRANCH  30  35
BRANCH  31  37
ATOM     37  C   UNL     1     -35.250  10.034  77.583  1.00  0.00     0.191 C 
BRANCH  37  38
ATOM     38  O   UNL     1     -34.504   9.270  76.676  1.00  0.00    -0.394 OA
ATOM     39  H   UNL     1     -35.057   8.473  76.467  1.00  0.00     0.210 HD
ENDBRANCH  37  38
ENDBRANCH  31  37
BRANCH  32  40
ATOM     40  O   UNL     1     -37.257  10.041  75.500  1.00  0.00    -0.387 OA
ATOM     41  H   UNL     1     -36.308   9.749  75.520  1.00  0.00     0.211 HD
ENDBRANCH  32  40
ENDBRANCH   1  27
TORSDOF 12
ENDMDL
MODEL 5
REMARK VINA RESULT:    -6.184      1.897      5.793
REMARK INTER + INTRA:         -10.301
REMARK INTER:                  -9.564
REMARK INTRA:                  -0.737
REMARK UNBOUND:                -1.224
REMARK SMILES O=c1c(O[C@@H]2O[C@@H](CO)[C@@H](O)[C@H](O)[C@H]2O)c(-c2ccc(O)c(O)c2)oc2cc(O)cc(O)c12
REMARK SMILES IDX 4 1 3 2 16 3 25 4 2 5 26 6 1 7 33 8 27 9 31 10 28 11 30 12
REMARK SMILES IDX 17 13 18 14 19 15 20 16 24 17 22 18 21 19 23 21 32 23 29 25
REMARK SMILES IDX 5 27 14 28 6 29 12 30 7 31 10 32 15 33 13 35 8 37 9 38 11 40
REMARK H PARENT 21 20 23 22 32 24 29 26 15 34 13 36 9 39 11 41
REMARK Flexibility Score: inf
ROOT
ATOM      1  O   UNL     1     -37.811   6.380  81.213  1.00  0.00    -0.454 OA
ENDROOT
BRANCH   1   2
ATOM      2  C   UNL     1     -38.519   5.609  80.284  1.00  0.00     0.214 A 
ATOM      3  C   UNL     1     -38.199   5.625  78.913  1.00  0.00     0.180 A 
ATOM      4  O   UNL     1     -38.962   4.963  78.052  1.00  0.00    -0.452 OA
ATOM      5  C   UNL     1     -39.585   4.817  80.723  1.00  0.00     0.239 A 
ATOM      6  C   UNL     1     -40.000   4.219  78.419  1.00  0.00     0.146 A 
ATOM      7  O   UNL     1     -39.877   4.834  81.948  1.00  0.00    -0.285 OA
ATOM      8  C   UNL     1     -40.338   4.065  79.790  1.00  0.00     0.111 A 
ATOM      9  C   UNL     1     -40.753   3.588  77.427  1.00  0.00     0.094 A 
ATOM     10  C   UNL     1     -41.428   3.209  80.130  1.00  0.00     0.134 A 
ATOM     11  C   UNL     1     -41.851   2.801  77.766  1.00  0.00     0.123 A 
ATOM     12  C   UNL     1     -42.185   2.618  79.111  1.00  0.00     0.093 A 
BRANCH   3  13
ATOM     13  C   UNL     1     -37.028   6.361  78.386  1.00  0.00     0.025 A 
ATOM     14  C   UNL     1     -35.803   5.712  78.165  1.00  0.00     0.016 A 
ATOM     15  C   UNL     1     -34.709   6.422  77.669  1.00  0.00     0.051 A 
ATOM     16  C   UNL     1     -34.818   7.783  77.365  1.00  0.00     0.157 A 
ATOM     17  C   UNL     1     -37.149   7.719  78.060  1.00  0.00     0.062 A 
ATOM     18  C   UNL     1     -36.058   8.439  77.558  1.00  0.00     0.158 A 
BRANCH  16  19
ATOM     19  O   UNL     1     -33.686   8.436  76.877  1.00  0.00    -0.504 OA
ATOM     20  H   UNL     1     -33.387   9.352  77.180  1.00  0.00     0.293 HD
ENDBRANCH  16  19
BRANCH  18  21
ATOM     21  O   UNL     1     -36.247   9.792  77.268  1.00  0.00    -0.504 OA
ATOM     22  H   UNL     1     -36.078  10.540  77.924  1.00  0.00     0.293 HD
ENDBRANCH  18  21
ENDBRANCH   3  13
BRANCH  10  23
ATOM     23  O   UNL     1     -41.789   2.890  81.442  1.00  0.00    -0.507 OA
ATOM     24  H   UNL     1     -41.409   3.330  82.266  1.00  0.00     0.293 HD
ENDBRANCH  10  23
BRANCH  11  25
ATOM     25  O   UNL     1     -42.601   2.197  76.760  1.00  0.00    -0.508 OA
ATOM     26  H   UNL     1     -43.514   1.799  76.945  1.00  0.00     0.293 HD
ENDBRANCH  11  25
ENDBRANCH   1   2
BRANCH   1  27
ATOM     27  C   UNL     1     -36.380   6.397  81.278  1.00  0.00     0.339 C 
ATOM     28  C   UNL     1     -35.879   7.580  82.136  1.00  0.00     0.214 C 
ATOM     29  O   UNL     1     -35.877   5.157  81.750  1.00  0.00    -0.332 OA
ATOM     30  C   UNL     1     -36.123   7.345  83.643  1.00  0.00     0.180 C 
ATOM     31  C   UNL     1     -36.334   4.877  83.060  1.00  0.00     0.179 C 
ATOM     32  C   UNL     1     -35.758   5.902  84.067  1.00  0.00     0.177 C 
BRANCH  28  33
ATOM     33  O   UNL     1     -34.503   7.762  81.921  1.00  0.00    -0.384 OA
ATOM     34  H   UNL     1     -34.038   6.995  82.348  1.00  0.00     0.211 HD
ENDBRANCH  28  33
BRANCH  30  35
ATOM     35  O   UNL     1     -37.440   7.680  84.011  1.00  0.00    -0.387 OA
ATOM     36  H   UNL     1     -38.052   7.400  83.286  1.00  0.00     0.211 HD
ENDBRANCH  30  35
BRANCH  31  37
ATOM     37  C   UNL     1     -35.927   3.442  83.418  1.00  0.00     0.191 C 
BRANCH  37  38
ATOM     38  O   UNL     1     -34.606   3.199  83.019  1.00  0.00    -0.394 OA
ATOM     39  H   UNL     1     -34.172   2.726  83.776  1.00  0.00     0.210 HD
ENDBRANCH  37  38
ENDBRANCH  31  37
BRANCH  32  40
ATOM     40  O   UNL     1     -34.359   5.768  84.125  1.00  0.00    -0.387 OA
ATOM     41  H   UNL     1     -34.128   5.570  85.070  1.00  0.00     0.211 HD
ENDBRANCH  32  40
ENDBRANCH   1  27
TORSDOF 12
ENDMDL
MODEL 6
REMARK VINA RESULT:    -6.159      1.922      6.182
REMARK INTER + INTRA:         -10.264
REMARK INTER:                 -10.168
REMARK INTRA:                  -0.096
REMARK UNBOUND:                -1.224
REMARK SMILES O=c1c(O[C@@H]2O[C@@H](CO)[C@@H](O)[C@H](O)[C@H]2O)c(-c2ccc(O)c(O)c2)oc2cc(O)cc(O)c12
REMARK SMILES IDX 4 1 3 2 16 3 25 4 2 5 26 6 1 7 33 8 27 9 31 10 28 11 30 12
REMARK SMILES IDX 17 13 18 14 19 15 20 16 24 17 22 18 21 19 23 21 32 23 29 25
REMARK SMILES IDX 5 27 14 28 6 29 12 30 7 31 10 32 15 33 13 35 8 37 9 38 11 40
REMARK H PARENT 21 20 23 22 32 24 29 26 15 34 13 36 9 39 11 41
REMARK Flexibility Score: inf
ROOT
ATOM      1  O   UNL     1     -38.945   7.302  79.251  1.00  0.00    -0.454 OA
ENDROOT
BRANCH   1   2
ATOM      2  C   UNL     1     -38.019   6.439  79.847  1.00  0.00     0.214 A 
ATOM      3  C   UNL     1     -38.257   5.055  79.949  1.00  0.00     0.180 A 
ATOM      4  O   UNL     1     -37.403   4.288  80.615  1.00  0.00    -0.452 OA
ATOM      5  C   UNL     1     -36.834   6.964  80.374  1.00  0.00     0.239 A 
ATOM      6  C   UNL     1     -36.279   4.746  81.155  1.00  0.00     0.146 A 
ATOM      7  O   UNL     1     -36.647   8.207  80.300  1.00  0.00    -0.285 OA
ATOM      8  C   UNL     1     -35.908   6.110  81.018  1.00  0.00     0.111 A 
ATOM      9  C   UNL     1     -35.467   3.857  81.860  1.00  0.00     0.094 A 
ATOM     10  C   UNL     1     -34.662   6.535  81.570  1.00  0.00     0.134 A 
ATOM     11  C   UNL     1     -34.280   4.294  82.445  1.00  0.00     0.123 A 
ATOM     12  C   UNL     1     -33.886   5.627  82.301  1.00  0.00     0.093 A 
BRANCH   3  13
ATOM     13  C   UNL     1     -39.439   4.412  79.332  1.00  0.00     0.025 A 
ATOM     14  C   UNL     1     -39.422   3.995  77.992  1.00  0.00     0.016 A 
ATOM     15  C   UNL     1     -40.545   3.392  77.427  1.00  0.00     0.051 A 
ATOM     16  C   UNL     1     -41.699   3.174  78.188  1.00  0.00     0.157 A 
ATOM     17  C   UNL     1     -40.585   4.174  80.106  1.00  0.00     0.062 A 
ATOM     18  C   UNL     1     -41.716   3.566  79.549  1.00  0.00     0.158 A 
BRANCH  16  19
ATOM     19  O   UNL     1     -42.790   2.571  77.562  1.00  0.00    -0.504 OA
ATOM     20  H   UNL     1     -43.528   2.088  78.054  1.00  0.00     0.293 HD
ENDBRANCH  16  19
BRANCH  18  21
ATOM     21  O   UNL     1     -42.826   3.372  80.375  1.00  0.00    -0.504 OA
ATOM     22  H   UNL     1     -43.132   4.032  81.073  1.00  0.00     0.293 HD
ENDBRANCH  18  21
ENDBRANCH   3  13
BRANCH  10  23
ATOM     23  O   UNL     1     -34.134   7.819  81.407  1.00  0.00    -0.507 OA
ATOM     24  H   UNL     1     -34.626   8.674  81.619  1.00  0.00     0.293 HD
ENDBRANCH  10  23
BRANCH  11  25
ATOM     25  O   UNL     1     -33.495   3.395  83.162  1.00  0.00    -0.508 OA
ATOM     26  H   UNL     1     -33.364   3.485  84.163  1.00  0.00     0.293 HD
ENDBRANCH  11  25
ENDBRANCH   1   2
BRANCH   1  27
ATOM     27  C   UNL     1     -38.581   8.576  78.707  1.00  0.00     0.339 C 
ATOM     28  C   UNL     1     -37.717   8.410  77.437  1.00  0.00     0.214 C 
ATOM     29  O   UNL     1     -39.731   9.370  78.458  1.00  0.00    -0.332 OA
ATOM     30  C   UNL     1     -38.552   7.932  76.228  1.00  0.00     0.180 C 
ATOM     31  C   UNL     1     -40.588   8.759  77.510  1.00  0.00     0.179 C 
ATOM     32  C   UNL     1     -39.900   8.684  76.126  1.00  0.00     0.177 C 
BRANCH  28  33
ATOM     33  O   UNL     1     -37.117   9.639  77.117  1.00  0.00    -0.384 OA
ATOM     34  H   UNL     1     -36.290   9.709  77.663  1.00  0.00     0.211 HD
ENDBRANCH  28  33
BRANCH  30  35
ATOM     35  O   UNL     1     -38.733   6.536  76.246  1.00  0.00    -0.387 OA
ATOM     36  H   UNL     1     -37.848   6.101  76.163  1.00  0.00     0.211 HD
ENDBRANCH  30  35
BRANCH  31  37
ATOM     37  C   UNL     1     -41.893   9.563  77.451  1.00  0.00     0.191 C 
BRANCH  37  38
ATOM     38  O   UNL     1     -42.402   9.567  76.146  1.00  0.00    -0.394 OA
ATOM     39  H   UNL     1     -41.617   9.642  75.544  1.00  0.00     0.210 HD
ENDBRANCH  37  38
ENDBRANCH  31  37
BRANCH  32  40
ATOM     40  O   UNL     1     -39.677   9.985  75.641  1.00  0.00    -0.387 OA
ATOM     41  H   UNL     1     -39.595  10.578  76.434  1.00  0.00     0.211 HD
ENDBRANCH  32  40
ENDBRANCH   1  27
TORSDOF 12
ENDMDL
MODEL 7
REMARK VINA RESULT:    -6.121      2.220      6.403
REMARK INTER + INTRA:         -10.207
REMARK INTER:                  -9.591
REMARK INTRA:                  -0.616
REMARK UNBOUND:                -1.224
REMARK SMILES O=c1c(O[C@@H]2O[C@@H](CO)[C@@H](O)[C@H](O)[C@H]2O)c(-c2ccc(O)c(O)c2)oc2cc(O)cc(O)c12
REMARK SMILES IDX 4 1 3 2 16 3 25 4 2 5 26 6 1 7 33 8 27 9 31 10 28 11 30 12
REMARK SMILES IDX 17 13 18 14 19 15 20 16 24 17 22 18 21 19 23 21 32 23 29 25
REMARK SMILES IDX 5 27 14 28 6 29 12 30 7 31 10 32 15 33 13 35 8 37 9 38 11 40
REMARK H PARENT 21 20 23 22 32 24 29 26 15 34 13 36 9 39 11 41
REMARK Flexibility Score: inf
ROOT
ATOM      1  O   UNL     1     -36.985   7.254  79.925  1.00  0.00    -0.454 OA
ENDROOT
BRANCH   1   2
ATOM      2  C   UNL     1     -37.955   6.319  80.304  1.00  0.00     0.214 A 
ATOM      3  C   UNL     1     -39.249   6.331  79.749  1.00  0.00     0.180 A 
ATOM      4  O   UNL     1     -40.170   5.495  80.213  1.00  0.00    -0.452 OA
ATOM      5  C   UNL     1     -37.640   5.359  81.271  1.00  0.00     0.239 A 
ATOM      6  C   UNL     1     -39.926   4.585  81.148  1.00  0.00     0.146 A 
ATOM      7  O   UNL     1     -36.488   5.377  81.778  1.00  0.00    -0.285 OA
ATOM      8  C   UNL     1     -38.624   4.434  81.695  1.00  0.00     0.111 A 
ATOM      9  C   UNL     1     -40.976   3.775  81.583  1.00  0.00     0.094 A 
ATOM     10  C   UNL     1     -38.405   3.402  82.657  1.00  0.00     0.134 A 
ATOM     11  C   UNL     1     -40.766   2.810  82.565  1.00  0.00     0.123 A 
ATOM     12  C   UNL     1     -39.487   2.630  83.098  1.00  0.00     0.093 A 
BRANCH   3  13
ATOM     13  C   UNL     1     -39.628   7.252  78.654  1.00  0.00     0.025 A 
ATOM     14  C   UNL     1     -40.536   8.300  78.869  1.00  0.00     0.016 A 
ATOM     15  C   UNL     1     -40.883   9.158  77.825  1.00  0.00     0.051 A 
ATOM     16  C   UNL     1     -40.318   9.003  76.555  1.00  0.00     0.157 A 
ATOM     17  C   UNL     1     -39.041   7.107  77.389  1.00  0.00     0.062 A 
ATOM     18  C   UNL     1     -39.379   7.965  76.336  1.00  0.00     0.158 A 
BRANCH  16  19
ATOM     19  O   UNL     1     -40.710   9.891  75.553  1.00  0.00    -0.504 OA
ATOM     20  H   UNL     1     -40.712   9.666  74.568  1.00  0.00     0.293 HD
ENDBRANCH  16  19
BRANCH  18  21
ATOM     21  O   UNL     1     -38.765   7.754  75.099  1.00  0.00    -0.504 OA
ATOM     22  H   UNL     1     -39.136   8.084  74.220  1.00  0.00     0.293 HD
ENDBRANCH  18  21
ENDBRANCH   3  13
BRANCH  10  23
ATOM     23  O   UNL     1     -37.151   3.081  83.185  1.00  0.00    -0.507 OA
ATOM     24  H   UNL     1     -36.906   3.142  84.161  1.00  0.00     0.293 HD
ENDBRANCH  10  23
BRANCH  11  25
ATOM     25  O   UNL     1     -41.832   2.027  82.999  1.00  0.00    -0.508 OA
ATOM     26  H   UNL     1     -42.233   1.303  82.414  1.00  0.00     0.293 HD
ENDBRANCH  11  25
ENDBRANCH   1   2
BRANCH   1  27
ATOM     27  C   UNL     1     -36.274   7.177  78.684  1.00  0.00     0.339 C 
ATOM     28  C   UNL     1     -35.517   8.493  78.398  1.00  0.00     0.214 C 
ATOM     29  O   UNL     1     -35.404   6.056  78.665  1.00  0.00    -0.332 OA
ATOM     30  C   UNL     1     -34.276   8.654  79.303  1.00  0.00     0.180 C 
ATOM     31  C   UNL     1     -34.424   6.143  79.683  1.00  0.00     0.179 C 
ATOM     32  C   UNL     1     -33.474   7.336  79.422  1.00  0.00     0.177 C 
BRANCH  28  33
ATOM     33  O   UNL     1     -35.104   8.510  77.054  1.00  0.00    -0.384 OA
ATOM     34  H   UNL     1     -35.678   9.170  76.583  1.00  0.00     0.211 HD
ENDBRANCH  28  33
BRANCH  30  35
ATOM     35  O   UNL     1     -34.624   9.170  80.566  1.00  0.00    -0.387 OA
ATOM     36  H   UNL     1     -35.540   9.539  80.517  1.00  0.00     0.211 HD
ENDBRANCH  30  35
BRANCH  31  37
ATOM     37  C   UNL     1     -33.661   4.813  79.734  1.00  0.00     0.191 C 
BRANCH  37  38
ATOM     38  O   UNL     1     -33.886   4.170  80.958  1.00  0.00    -0.394 OA
ATOM     39  H   UNL     1     -34.837   4.340  81.187  1.00  0.00     0.210 HD
ENDBRANCH  37  38
ENDBRANCH  31  37
BRANCH  32  40
ATOM     40  O   UNL     1     -32.756   7.114  78.233  1.00  0.00    -0.387 OA
ATOM     41  H   UNL     1     -31.812   6.949  78.494  1.00  0.00     0.211 HD
ENDBRANCH  32  40
ENDBRANCH   1  27
TORSDOF 12
ENDMDL
MODEL 8
REMARK VINA RESULT:    -5.929      1.844      6.331
REMARK INTER + INTRA:          -9.926
REMARK INTER:                  -9.046
REMARK INTRA:                  -0.880
REMARK UNBOUND:                -1.224
REMARK SMILES O=c1c(O[C@@H]2O[C@@H](CO)[C@@H](O)[C@H](O)[C@H]2O)c(-c2ccc(O)c(O)c2)oc2cc(O)cc(O)c12
REMARK SMILES IDX 4 1 3 2 16 3 25 4 2 5 26 6 1 7 33 8 27 9 31 10 28 11 30 12
REMARK SMILES IDX 17 13 18 14 19 15 20 16 24 17 22 18 21 19 23 21 32 23 29 25
REMARK SMILES IDX 5 27 14 28 6 29 12 30 7 31 10 32 15 33 13 35 8 37 9 38 11 40
REMARK H PARENT 21 20 23 22 32 24 29 26 15 34 13 36 9 39 11 41
REMARK Flexibility Score: inf
ROOT
ATOM      1  O   UNL     1     -38.241   7.335  78.944  1.00  0.00    -0.454 OA
ENDROOT
BRANCH   1   2
ATOM      2  C   UNL     1     -37.444   6.533  79.768  1.00  0.00     0.214 A 
ATOM      3  C   UNL     1     -37.826   5.223  80.118  1.00  0.00     0.180 A 
ATOM      4  O   UNL     1     -37.094   4.536  80.986  1.00  0.00    -0.452 OA
ATOM      5  C   UNL     1     -36.245   7.048  80.272  1.00  0.00     0.239 A 
ATOM      6  C   UNL     1     -35.963   4.993  81.512  1.00  0.00     0.146 A 
ATOM      7  O   UNL     1     -35.930   8.230  79.973  1.00  0.00    -0.285 OA
ATOM      8  C   UNL     1     -35.449   6.264  81.141  1.00  0.00     0.111 A 
ATOM      9  C   UNL     1     -35.287   4.197  82.438  1.00  0.00     0.094 A 
ATOM     10  C   UNL     1     -34.201   6.682  81.694  1.00  0.00     0.134 A 
ATOM     11  C   UNL     1     -34.100   4.638  83.017  1.00  0.00     0.123 A 
ATOM     12  C   UNL     1     -33.566   5.876  82.647  1.00  0.00     0.093 A 
BRANCH   3  13
ATOM     13  C   UNL     1     -39.028   4.575  79.548  1.00  0.00     0.025 A 
ATOM     14  C   UNL     1     -39.048   4.125  78.219  1.00  0.00     0.016 A 
ATOM     15  C   UNL     1     -40.190   3.517  77.698  1.00  0.00     0.051 A 
ATOM     16  C   UNL     1     -41.325   3.326  78.494  1.00  0.00     0.157 A 
ATOM     17  C   UNL     1     -40.154   4.363  80.357  1.00  0.00     0.062 A 
ATOM     18  C   UNL     1     -41.303   3.751  79.845  1.00  0.00     0.158 A 
BRANCH  16  19
ATOM     19  O   UNL     1     -42.436   2.716  77.912  1.00  0.00    -0.504 OA
ATOM     20  H   UNL     1     -42.702   1.755  78.072  1.00  0.00     0.293 HD
ENDBRANCH  16  19
BRANCH  18  21
ATOM     21  O   UNL     1     -42.392   3.585  80.704  1.00  0.00    -0.504 OA
ATOM     22  H   UNL     1     -42.429   2.898  81.443  1.00  0.00     0.293 HD
ENDBRANCH  18  21
ENDBRANCH   3  13
BRANCH  10  23
ATOM     23  O   UNL     1     -33.539   7.856  81.326  1.00  0.00    -0.507 OA
ATOM     24  H   UNL     1     -33.846   8.486  80.601  1.00  0.00     0.293 HD
ENDBRANCH  10  23
BRANCH  11  25
ATOM     25  O   UNL     1     -33.452   3.838  83.954  1.00  0.00    -0.508 OA
ATOM     26  H   UNL     1     -32.754   4.215  84.583  1.00  0.00     0.293 HD
ENDBRANCH  11  25
ENDBRANCH   1   2
BRANCH   1  27
ATOM     27  C   UNL     1     -38.145   7.319  77.515  1.00  0.00     0.339 C 
ATOM     28  C   UNL     1     -39.446   7.846  76.867  1.00  0.00     0.214 C 
ATOM     29  O   UNL     1     -37.008   8.045  77.074  1.00  0.00    -0.332 OA
ATOM     30  C   UNL     1     -39.588   9.376  77.019  1.00  0.00     0.180 C 
ATOM     31  C   UNL     1     -37.082   9.406  77.456  1.00  0.00     0.179 C 
ATOM     32  C   UNL     1     -38.256  10.110  76.734  1.00  0.00     0.177 C 
BRANCH  28  33
ATOM     33  O   UNL     1     -39.449   7.522  75.500  1.00  0.00    -0.384 OA
ATOM     34  H   UNL     1     -40.238   6.940  75.341  1.00  0.00     0.211 HD
ENDBRANCH  28  33
BRANCH  30  35
ATOM     35  O   UNL     1     -40.116   9.722  78.277  1.00  0.00    -0.387 OA
ATOM     36  H   UNL     1     -40.846  10.377  78.145  1.00  0.00     0.211 HD
ENDBRANCH  30  35
BRANCH  31  37
ATOM     37  C   UNL     1     -35.738  10.072  77.132  1.00  0.00     0.191 C 
BRANCH  37  38
ATOM     38  O   UNL     1     -34.702   9.131  77.200  1.00  0.00    -0.394 OA
ATOM     39  H   UNL     1     -33.895   9.631  77.490  1.00  0.00     0.210 HD
ENDBRANCH  37  38
ENDBRANCH  31  37
BRANCH  32  40
ATOM     40  O   UNL     1     -38.015  10.125  75.348  1.00  0.00    -0.387 OA
ATOM     41  H   UNL     1     -38.356  10.993  75.006  1.00  0.00     0.211 HD
ENDBRANCH  32  40
ENDBRANCH   1  27
TORSDOF 12
ENDMDL
MODEL 9
REMARK VINA RESULT:    -5.873      2.653      5.258
REMARK INTER + INTRA:          -9.843
REMARK INTER:                  -9.577
REMARK INTRA:                  -0.266
REMARK UNBOUND:                -1.224
REMARK SMILES O=c1c(O[C@@H]2O[C@@H](CO)[C@@H](O)[C@H](O)[C@H]2O)c(-c2ccc(O)c(O)c2)oc2cc(O)cc(O)c12
REMARK SMILES IDX 4 1 3 2 16 3 25 4 2 5 26 6 1 7 33 8 27 9 31 10 28 11 30 12
REMARK SMILES IDX 17 13 18 14 19 15 20 16 24 17 22 18 21 19 23 21 32 23 29 25
REMARK SMILES IDX 5 27 14 28 6 29 12 30 7 31 10 32 15 33 13 35 8 37 9 38 11 40
REMARK H PARENT 21 20 23 22 32 24 29 26 15 34 13 36 9 39 11 41
REMARK Flexibility Score: inf
ROOT
ATOM      1  O   UNL     1     -38.429   5.463  77.469  1.00  0.00    -0.454 OA
ENDROOT
BRANCH   1   2
ATOM      2  C   UNL     1     -37.458   6.357  77.933  1.00  0.00     0.214 A 
ATOM      3  C   UNL     1     -37.711   7.739  78.027  1.00  0.00     0.180 A 
ATOM      4  O   UNL     1     -36.730   8.565  78.371  1.00  0.00    -0.452 OA
ATOM      5  C   UNL     1     -36.198   5.871  78.296  1.00  0.00     0.239 A 
ATOM      6  C   UNL     1     -35.510   8.153  78.698  1.00  0.00     0.146 A 
ATOM      7  O   UNL     1     -35.978   4.637  78.181  1.00  0.00    -0.285 OA
ATOM      8  C   UNL     1     -35.192   6.769  78.727  1.00  0.00     0.111 A 
ATOM      9  C   UNL     1     -34.545   9.110  79.016  1.00  0.00     0.094 A 
ATOM     10  C   UNL     1     -33.882   6.380  79.140  1.00  0.00     0.134 A 
ATOM     11  C   UNL     1     -33.252   8.723  79.362  1.00  0.00     0.123 A 
ATOM     12  C   UNL     1     -32.926   7.366  79.419  1.00  0.00     0.093 A 
BRANCH   3  13
ATOM     13  C   UNL     1     -39.047   8.316  77.754  1.00  0.00     0.025 A 
ATOM     14  C   UNL     1     -40.039   8.348  78.746  1.00  0.00     0.016 A 
ATOM     15  C   UNL     1     -41.293   8.894  78.470  1.00  0.00     0.051 A 
ATOM     16  C   UNL     1     -41.576   9.437  77.212  1.00  0.00     0.157 A 
ATOM     17  C   UNL     1     -39.317   8.881  76.499  1.00  0.00     0.062 A 
ATOM     18  C   UNL     1     -40.570   9.435  76.214  1.00  0.00     0.158 A 
BRANCH  16  19
ATOM     19  O   UNL     1     -42.850   9.964  77.000  1.00  0.00    -0.504 OA
ATOM     20  H   UNL     1     -43.149  10.386  76.133  1.00  0.00     0.293 HD
ENDBRANCH  16  19
BRANCH  18  21
ATOM     21  O   UNL     1     -40.774   9.968  74.939  1.00  0.00    -0.504 OA
ATOM     22  H   UNL     1     -41.105   9.433  74.150  1.00  0.00     0.293 HD
ENDBRANCH  18  21
ENDBRANCH   3  13
BRANCH  10  23
ATOM     23  O   UNL     1     -33.481   5.053  79.316  1.00  0.00    -0.507 OA
ATOM     24  H   UNL     1     -33.821   4.441  80.042  1.00  0.00     0.293 HD
ENDBRANCH  10  23
BRANCH  11  25
ATOM     25  O   UNL     1     -32.299   9.695  79.655  1.00  0.00    -0.508 OA
ATOM     26  H   UNL     1     -31.421   9.459  80.101  1.00  0.00     0.293 HD
ENDBRANCH  11  25
ENDBRANCH   1   2
BRANCH   1  27
ATOM     27  C   UNL     1     -39.612   5.146  78.212  1.00  0.00     0.339 C 
ATOM     28  C   UNL     1     -40.094   3.711  77.900  1.00  0.00     0.214 C 
ATOM     29  O   UNL     1     -39.407   5.340  79.602  1.00  0.00    -0.332 OA
ATOM     30  C   UNL     1     -39.185   2.643  78.548  1.00  0.00     0.180 C 
ATOM     31  C   UNL     1     -38.384   4.495  80.098  1.00  0.00     0.179 C 
ATOM     32  C   UNL     1     -38.813   3.011  80.004  1.00  0.00     0.177 C 
BRANCH  28  33
ATOM     33  O   UNL     1     -41.404   3.545  78.379  1.00  0.00    -0.384 OA
ATOM     34  H   UNL     1     -41.981   3.367  77.591  1.00  0.00     0.211 HD
ENDBRANCH  28  33
BRANCH  30  35
ATOM     35  O   UNL     1     -38.043   2.393  77.764  1.00  0.00    -0.387 OA
ATOM     36  H   UNL     1     -37.503   3.221  77.718  1.00  0.00     0.211 HD
ENDBRANCH  30  35
BRANCH  31  37
ATOM     37  C   UNL     1     -38.078   4.905  81.545  1.00  0.00     0.191 C 
BRANCH  37  38
ATOM     38  O   UNL     1     -39.267   5.172  82.236  1.00  0.00    -0.394 OA
ATOM     39  H   UNL     1     -39.011   5.721  83.022  1.00  0.00     0.210 HD
ENDBRANCH  37  38
ENDBRANCH  31  37
BRANCH  32  40
ATOM     40  O   UNL     1     -39.919   2.787  80.844  1.00  0.00    -0.387 OA
ATOM     41  H   UNL     1     -39.994   3.578  81.439  1.00  0.00     0.211 HD
ENDBRANCH  32  40
ENDBRANCH   1  27
TORSDOF 12
ENDMDL
