MODEL 1
REMARK VINA RESULT:    -7.016      0.000      0.000
REMARK INTER + INTRA:         -10.227
REMARK INTER:                 -10.093
REMARK INTRA:                  -0.134
REMARK UNBOUND:                -0.134
REMARK SMILES O=c1c(O[C@H]2O[C@H](CO)[C@H](O)[C@@H](O)[C@H]2O)c(-c2ccc(O)cc2)oc2cc(O)cc(O)c12
REMARK SMILES IDX 4 1 3 2 16 3 24 4 2 5 25 6 1 7 32 8 26 9 30 10 27 11 29 12
REMARK SMILES IDX 17 13 18 14 19 15 20 16 23 17 22 18 21 19 31 21 28 23 5 25
REMARK SMILES IDX 14 26 6 27 12 28 7 29 10 30 15 31 13 33 8 35 9 36 11 38
REMARK H PARENT 21 20 31 22 28 24 15 32 13 34 9 37 11 39
REMARK Flexibility Score: inf
ROOT
ATOM      1  O   UNL     1      17.528  42.739  75.875  1.00  0.00    -0.454 OA
ENDROOT
BRANCH   1   2
ATOM      2  C   UNL     1      18.096  41.564  76.383  1.00  0.00     0.214 A 
ATOM      3  C   UNL     1      18.616  41.491  77.692  1.00  0.00     0.180 A 
ATOM      4  O   UNL     1      19.062  40.329  78.160  1.00  0.00    -0.452 OA
ATOM      5  C   UNL     1      18.141  40.425  75.573  1.00  0.00     0.239 A 
ATOM      6  C   UNL     1      19.088  39.214  77.437  1.00  0.00     0.146 A 
ATOM      7  O   UNL     1      17.716  40.498  74.387  1.00  0.00    -0.285 OA
ATOM      8  C   UNL     1      18.640  39.215  76.095  1.00  0.00     0.111 A 
ATOM      9  C   UNL     1      19.576  38.038  78.016  1.00  0.00     0.094 A 
ATOM     10  C   UNL     1      18.697  38.014  75.348  1.00  0.00     0.134 A 
ATOM     11  C   UNL     1      19.629  36.857  77.276  1.00  0.00     0.123 A 
ATOM     12  C   UNL     1      19.192  36.846  75.947  1.00  0.00     0.093 A 
BRANCH   3  13
ATOM     13  C   UNL     1      18.707  42.675  78.571  1.00  0.00     0.021 A 
ATOM     14  C   UNL     1      19.721  43.633  78.392  1.00  0.00     0.016 A 
ATOM     15  C   UNL     1      19.800  44.743  79.238  1.00  0.00     0.047 A 
ATOM     16  C   UNL     1      18.879  44.898  80.282  1.00  0.00     0.115 A 
ATOM     17  C   UNL     1      17.803  42.824  79.635  1.00  0.00     0.016 A 
ATOM     18  C   UNL     1      17.886  43.935  80.480  1.00  0.00     0.047 A 
BRANCH  16  19
ATOM     19  O   UNL     1      18.947  46.003  81.130  1.00  0.00    -0.508 OA
ATOM     20  H   UNL     1      18.256  46.156  81.855  1.00  0.00     0.293 HD
ENDBRANCH  16  19
ENDBRANCH   3  13
BRANCH  10  21
ATOM     21  O   UNL     1      18.266  37.973  74.022  1.00  0.00    -0.507 OA
ATOM     22  H   UNL     1      18.904  37.773  73.260  1.00  0.00     0.293 HD
ENDBRANCH  10  21
BRANCH  11  23
ATOM     23  O   UNL     1      20.120  35.695  77.871  1.00  0.00    -0.508 OA
ATOM     24  H   UNL     1      20.739  35.067  77.373  1.00  0.00     0.293 HD
ENDBRANCH  11  23
ENDBRANCH   1   2
BRANCH   1  25
ATOM     25  C   UNL     1      17.186  42.912  74.494  1.00  0.00     0.339 C 
ATOM     26  C   UNL     1      17.907  44.132  73.885  1.00  0.00     0.214 C 
ATOM     27  O   UNL     1      15.781  43.003  74.324  1.00  0.00    -0.332 OA
ATOM     28  C   UNL     1      17.324  45.470  74.397  1.00  0.00     0.180 C 
ATOM     29  C   UNL     1      15.243  44.116  75.019  1.00  0.00     0.179 C 
ATOM     30  C   UNL     1      15.776  45.448  74.424  1.00  0.00     0.177 C 
BRANCH  26  31
ATOM     31  O   UNL     1      19.283  44.053  74.154  1.00  0.00    -0.384 OA
ATOM     32  H   UNL     1      19.375  43.653  75.058  1.00  0.00     0.211 HD
ENDBRANCH  26  31
BRANCH  28  33
ATOM     33  O   UNL     1      17.858  45.822  75.652  1.00  0.00    -0.387 OA
ATOM     34  H   UNL     1      17.242  45.501  76.358  1.00  0.00     0.211 HD
ENDBRANCH  28  33
BRANCH  29  35
ATOM     35  C   UNL     1      13.710  44.037  74.950  1.00  0.00     0.191 C 
BRANCH  35  36
ATOM     36  O   UNL     1      13.133  44.381  76.182  1.00  0.00    -0.394 OA
ATOM     37  H   UNL     1      13.879  44.646  76.781  1.00  0.00     0.210 HD
ENDBRANCH  35  36
ENDBRANCH  29  35
BRANCH  30  38
ATOM     38  O   UNL     1      15.259  45.681  73.135  1.00  0.00    -0.387 OA
ATOM     39  H   UNL     1      14.519  46.336  73.215  1.00  0.00     0.211 HD
ENDBRANCH  30  38
ENDBRANCH   1  25
TORSDOF 11
ENDMDL
MODEL 2
REMARK VINA RESULT:    -6.681     14.686     17.852
REMARK INTER + INTRA:          -9.745
REMARK INTER:                  -9.031
REMARK INTRA:                  -0.714
REMARK UNBOUND:                -0.134
REMARK SMILES O=c1c(O[C@H]2O[C@H](CO)[C@H](O)[C@@H](O)[C@H]2O)c(-c2ccc(O)cc2)oc2cc(O)cc(O)c12
REMARK SMILES IDX 4 1 3 2 16 3 24 4 2 5 25 6 1 7 32 8 26 9 30 10 27 11 29 12
REMARK SMILES IDX 17 13 18 14 19 15 20 16 23 17 22 18 21 19 31 21 28 23 5 25
REMARK SMILES IDX 14 26 6 27 12 28 7 29 10 30 15 31 13 33 8 35 9 36 11 38
REMARK H PARENT 21 20 31 22 28 24 15 32 13 34 9 37 11 39
REMARK Flexibility Score: inf
ROOT
ATOM      1  O   UNL     1       5.487  31.879  68.366  1.00  0.00    -0.454 OA
ENDROOT
BRANCH   1   2
ATOM      2  C   UNL     1       4.656  32.798  69.020  1.00  0.00     0.214 A 
ATOM      3  C   UNL     1       4.807  33.100  70.389  1.00  0.00     0.180 A 
ATOM      4  O   UNL     1       4.054  34.045  70.943  1.00  0.00    -0.452 OA
ATOM      5  C   UNL     1       3.652  33.444  68.292  1.00  0.00     0.239 A 
ATOM      6  C   UNL     1       3.114  34.710  70.279  1.00  0.00     0.146 A 
ATOM      7  O   UNL     1       3.485  33.145  67.078  1.00  0.00    -0.285 OA
ATOM      8  C   UNL     1       2.858  34.426  68.917  1.00  0.00     0.111 A 
ATOM      9  C   UNL     1       2.371  35.689  70.947  1.00  0.00     0.094 A 
ATOM     10  C   UNL     1       1.838  35.141  68.244  1.00  0.00     0.134 A 
ATOM     11  C   UNL     1       1.368  36.391  70.279  1.00  0.00     0.123 A 
ATOM     12  C   UNL     1       1.102  36.117  68.932  1.00  0.00     0.093 A 
BRANCH   3  13
ATOM     13  C   UNL     1       5.769  32.383  71.253  1.00  0.00     0.021 A 
ATOM     14  C   UNL     1       5.590  31.022  71.560  1.00  0.00     0.016 A 
ATOM     15  C   UNL     1       6.503  30.360  72.387  1.00  0.00     0.047 A 
ATOM     16  C   UNL     1       7.592  31.053  72.929  1.00  0.00     0.115 A 
ATOM     17  C   UNL     1       6.849  33.077  71.819  1.00  0.00     0.016 A 
ATOM     18  C   UNL     1       7.760  32.412  72.646  1.00  0.00     0.047 A 
BRANCH  16  19
ATOM     19  O   UNL     1       8.510  30.403  73.751  1.00  0.00    -0.508 OA
ATOM     20  H   UNL     1       9.227  29.797  73.369  1.00  0.00     0.293 HD
ENDBRANCH  16  19
ENDBRANCH   3  13
BRANCH  10  21
ATOM     21  O   UNL     1       1.552  34.890  66.901  1.00  0.00    -0.507 OA
ATOM     22  H   UNL     1       1.789  35.553  66.173  1.00  0.00     0.293 HD
ENDBRANCH  10  21
BRANCH  11  23
ATOM     23  O   UNL     1       0.638  37.362  70.963  1.00  0.00    -0.508 OA
ATOM     24  H   UNL     1       0.593  38.319  70.634  1.00  0.00     0.293 HD
ENDBRANCH  11  23
ENDBRANCH   1   2
BRANCH   1  25
ATOM     25  C   UNL     1       6.285  32.217  67.224  1.00  0.00     0.339 C 
ATOM     26  C   UNL     1       7.363  31.148  66.956  1.00  0.00     0.214 C 
ATOM     27  O   UNL     1       6.858  33.507  67.366  1.00  0.00    -0.332 OA
ATOM     28  C   UNL     1       8.500  31.190  68.004  1.00  0.00     0.180 C 
ATOM     29  C   UNL     1       7.714  33.574  68.495  1.00  0.00     0.179 C 
ATOM     30  C   UNL     1       8.941  32.640  68.314  1.00  0.00     0.177 C 
BRANCH  26  31
ATOM     31  O   UNL     1       6.771  29.875  66.915  1.00  0.00    -0.384 OA
ATOM     32  H   UNL     1       5.955  29.957  66.353  1.00  0.00     0.211 HD
ENDBRANCH  26  31
BRANCH  28  33
ATOM     33  O   UNL     1       8.149  30.494  69.177  1.00  0.00    -0.387 OA
ATOM     34  H   UNL     1       7.981  29.546  68.943  1.00  0.00     0.211 HD
ENDBRANCH  28  33
BRANCH  29  35
ATOM     35  C   UNL     1       8.138  35.038  68.695  1.00  0.00     0.191 C 
BRANCH  35  36
ATOM     36  O   UNL     1       7.093  35.794  69.248  1.00  0.00    -0.394 OA
ATOM     37  H   UNL     1       6.261  35.270  69.112  1.00  0.00     0.210 HD
ENDBRANCH  35  36
ENDBRANCH  29  35
BRANCH  30  38
ATOM     38  O   UNL     1       9.808  33.115  67.311  1.00  0.00    -0.387 OA
ATOM     39  H   UNL     1       9.281  33.692  66.699  1.00  0.00     0.211 HD
ENDBRANCH  30  38
ENDBRANCH   1  25
TORSDOF 11
ENDMDL
MODEL 3
REMARK VINA RESULT:    -6.655     15.285     18.693
REMARK INTER + INTRA:          -9.707
REMARK INTER:                  -8.930
REMARK INTRA:                  -0.777
REMARK UNBOUND:                -0.134
REMARK SMILES O=c1c(O[C@H]2O[C@H](CO)[C@H](O)[C@@H](O)[C@H]2O)c(-c2ccc(O)cc2)oc2cc(O)cc(O)c12
REMARK SMILES IDX 4 1 3 2 16 3 24 4 2 5 25 6 1 7 32 8 26 9 30 10 27 11 29 12
REMARK SMILES IDX 17 13 18 14 19 15 20 16 23 17 22 18 21 19 31 21 28 23 5 25
REMARK SMILES IDX 14 26 6 27 12 28 7 29 10 30 15 31 13 33 8 35 9 36 11 38
REMARK H PARENT 21 20 31 22 28 24 15 32 13 34 9 37 11 39
REMARK Flexibility Score: inf
ROOT
ATOM      1  O   UNL     1       4.858  32.578  70.332  1.00  0.00    -0.454 OA
ENDROOT
BRANCH   1   2
ATOM      2  C   UNL     1       4.212  33.385  69.387  1.00  0.00     0.214 A 
ATOM      3  C   UNL     1       4.706  33.542  68.076  1.00  0.00     0.180 A 
ATOM      4  O   UNL     1       4.009  34.245  67.188  1.00  0.00    -0.452 OA
ATOM      5  C   UNL     1       3.035  34.047  69.750  1.00  0.00     0.239 A 
ATOM      6  C   UNL     1       2.867  34.859  67.480  1.00  0.00     0.146 A 
ATOM      7  O   UNL     1       2.612  33.943  70.934  1.00  0.00    -0.285 OA
ATOM      8  C   UNL     1       2.332  34.800  68.789  1.00  0.00     0.111 A 
ATOM      9  C   UNL     1       2.204  35.575  66.480  1.00  0.00     0.094 A 
ATOM     10  C   UNL     1       1.122  35.480  69.070  1.00  0.00     0.134 A 
ATOM     11  C   UNL     1       1.011  36.242  66.761  1.00  0.00     0.123 A 
ATOM     12  C   UNL     1       0.474  36.195  68.053  1.00  0.00     0.093 A 
BRANCH   3  13
ATOM     13  C   UNL     1       5.999  32.968  67.647  1.00  0.00     0.021 A 
ATOM     14  C   UNL     1       6.104  31.613  67.286  1.00  0.00     0.016 A 
ATOM     15  C   UNL     1       7.336  31.082  66.891  1.00  0.00     0.047 A 
ATOM     16  C   UNL     1       8.478  31.893  66.871  1.00  0.00     0.115 A 
ATOM     17  C   UNL     1       7.152  33.769  67.648  1.00  0.00     0.016 A 
ATOM     18  C   UNL     1       8.383  33.235  67.254  1.00  0.00     0.047 A 
BRANCH  16  19
ATOM     19  O   UNL     1       9.710  31.376  66.477  1.00  0.00    -0.508 OA
ATOM     20  H   UNL     1       9.775  30.541  65.907  1.00  0.00     0.293 HD
ENDBRANCH  16  19
ENDBRANCH   3  13
BRANCH  10  21
ATOM     21  O   UNL     1       0.562  35.448  70.347  1.00  0.00    -0.507 OA
ATOM     22  H   UNL     1       0.135  34.610  70.722  1.00  0.00     0.293 HD
ENDBRANCH  10  21
BRANCH  11  23
ATOM     23  O   UNL     1       0.366  36.953  65.750  1.00  0.00    -0.508 OA
ATOM     24  H   UNL     1       0.887  37.454  65.040  1.00  0.00     0.293 HD
ENDBRANCH  11  23
ENDBRANCH   1   2
BRANCH   1  25
ATOM     25  C   UNL     1       5.245  33.047  71.631  1.00  0.00     0.339 C 
ATOM     26  C   UNL     1       6.755  33.351  71.692  1.00  0.00     0.214 C 
ATOM     27  O   UNL     1       4.861  32.127  72.640  1.00  0.00    -0.332 OA
ATOM     28  C   UNL     1       7.611  32.062  71.689  1.00  0.00     0.180 C 
ATOM     29  C   UNL     1       5.485  30.866  72.460  1.00  0.00     0.179 C 
ATOM     30  C   UNL     1       7.024  30.982  72.629  1.00  0.00     0.177 C 
BRANCH  26  31
ATOM     31  O   UNL     1       7.115  34.189  70.623  1.00  0.00    -0.384 OA
ATOM     32  H   UNL     1       7.680  33.647  70.012  1.00  0.00     0.211 HD
ENDBRANCH  26  31
BRANCH  28  33
ATOM     33  O   UNL     1       7.797  31.566  70.384  1.00  0.00    -0.387 OA
ATOM     34  H   UNL     1       6.956  31.134  70.088  1.00  0.00     0.211 HD
ENDBRANCH  28  33
BRANCH  29  35
ATOM     35  C   UNL     1       4.875  29.875  73.464  1.00  0.00     0.191 C 
BRANCH  35  36
ATOM     36  O   UNL     1       4.945  30.377  74.772  1.00  0.00    -0.394 OA
ATOM     37  H   UNL     1       4.278  29.872  75.306  1.00  0.00     0.210 HD
ENDBRANCH  35  36
ENDBRANCH  29  35
BRANCH  30  38
ATOM     38  O   UNL     1       7.377  31.250  73.966  1.00  0.00    -0.387 OA
ATOM     39  H   UNL     1       6.566  31.570  74.439  1.00  0.00     0.211 HD
ENDBRANCH  30  38
ENDBRANCH   1  25
TORSDOF 11
ENDMDL
MODEL 4
REMARK VINA RESULT:    -6.556      1.305      2.081
REMARK INTER + INTRA:          -9.564
REMARK INTER:                  -7.855
REMARK INTRA:                  -1.709
REMARK UNBOUND:                -0.134
REMARK SMILES O=c1c(O[C@H]2O[C@H](CO)[C@H](O)[C@@H](O)[C@H]2O)c(-c2ccc(O)cc2)oc2cc(O)cc(O)c12
REMARK SMILES IDX 4 1 3 2 16 3 24 4 2 5 25 6 1 7 32 8 26 9 30 10 27 11 29 12
REMARK SMILES IDX 17 13 18 14 19 15 20 16 23 17 22 18 21 19 31 21 28 23 5 25
REMARK SMILES IDX 14 26 6 27 12 28 7 29 10 30 15 31 13 33 8 35 9 36 11 38
REMARK H PARENT 21 20 31 22 28 24 15 32 13 34 9 37 11 39
REMARK Flexibility Score: inf
ROOT
ATOM      1  O   UNL     1      18.396  42.395  75.741  1.00  0.00    -0.454 OA
ENDROOT
BRANCH   1   2
ATOM      2  C   UNL     1      18.755  41.271  76.496  1.00  0.00     0.214 A 
ATOM      3  C   UNL     1      19.036  41.356  77.875  1.00  0.00     0.180 A 
ATOM      4  O   UNL     1      19.283  40.247  78.567  1.00  0.00    -0.452 OA
ATOM      5  C   UNL     1      18.827  40.024  75.866  1.00  0.00     0.239 A 
ATOM      6  C   UNL     1      19.323  39.038  78.016  1.00  0.00     0.146 A 
ATOM      7  O   UNL     1      18.617  39.950  74.624  1.00  0.00    -0.285 OA
ATOM      8  C   UNL     1      19.111  38.872  76.627  1.00  0.00     0.111 A 
ATOM      9  C   UNL     1      19.591  37.930  78.825  1.00  0.00     0.094 A 
ATOM     10  C   UNL     1      19.178  37.573  76.070  1.00  0.00     0.134 A 
ATOM     11  C   UNL     1      19.655  36.651  78.272  1.00  0.00     0.123 A 
ATOM     12  C   UNL     1      19.450  36.474  76.898  1.00  0.00     0.093 A 
BRANCH   3  13
ATOM     13  C   UNL     1      19.091  42.648  78.590  1.00  0.00     0.021 A 
ATOM     14  C   UNL     1      20.081  43.601  78.289  1.00  0.00     0.016 A 
ATOM     15  C   UNL     1      20.125  44.815  78.981  1.00  0.00     0.047 A 
ATOM     16  C   UNL     1      19.194  45.082  79.993  1.00  0.00     0.115 A 
ATOM     17  C   UNL     1      18.176  42.912  79.622  1.00  0.00     0.016 A 
ATOM     18  C   UNL     1      18.224  44.127  80.314  1.00  0.00     0.047 A 
BRANCH  16  19
ATOM     19  O   UNL     1      19.227  46.290  80.688  1.00  0.00    -0.508 OA
ATOM     20  H   UNL     1      20.090  46.804  80.813  1.00  0.00     0.293 HD
ENDBRANCH  16  19
ENDBRANCH   3  13
BRANCH  10  21
ATOM     21  O   UNL     1      18.976  37.367  74.705  1.00  0.00    -0.507 OA
ATOM     22  H   UNL     1      18.446  36.577  74.358  1.00  0.00     0.293 HD
ENDBRANCH  10  21
BRANCH  11  23
ATOM     23  O   UNL     1      19.924  35.559  79.095  1.00  0.00    -0.508 OA
ATOM     24  H   UNL     1      20.257  35.681  80.044  1.00  0.00     0.293 HD
ENDBRANCH  11  23
ENDBRANCH   1   2
BRANCH   1  25
ATOM     25  C   UNL     1      17.109  43.020  75.828  1.00  0.00     0.339 C 
ATOM     26  C   UNL     1      16.363  42.957  74.479  1.00  0.00     0.214 C 
ATOM     27  O   UNL     1      17.219  44.354  76.296  1.00  0.00    -0.332 OA
ATOM     28  C   UNL     1      16.972  43.917  73.430  1.00  0.00     0.180 C 
ATOM     29  C   UNL     1      18.001  45.150  75.421  1.00  0.00     0.179 C 
ATOM     30  C   UNL     1      17.305  45.299  74.041  1.00  0.00     0.177 C 
BRANCH  26  31
ATOM     31  O   UNL     1      16.355  41.637  74.001  1.00  0.00    -0.384 OA
ATOM     32  H   UNL     1      15.555  41.548  73.420  1.00  0.00     0.211 HD
ENDBRANCH  26  31
BRANCH  28  33
ATOM     33  O   UNL     1      18.095  43.347  72.797  1.00  0.00    -0.387 OA
ATOM     34  H   UNL     1      18.576  44.061  72.307  1.00  0.00     0.211 HD
ENDBRANCH  28  33
BRANCH  29  35
ATOM     35  C   UNL     1      18.238  46.514  76.089  1.00  0.00     0.191 C 
BRANCH  35  36
ATOM     36  O   UNL     1      18.390  47.525  75.128  1.00  0.00    -0.394 OA
ATOM     37  H   UNL     1      19.351  47.774  75.128  1.00  0.00     0.210 HD
ENDBRANCH  35  36
ENDBRANCH  29  35
BRANCH  30  38
ATOM     38  O   UNL     1      16.142  46.088  74.132  1.00  0.00    -0.387 OA
ATOM     39  H   UNL     1      15.954  46.462  73.232  1.00  0.00     0.211 HD
ENDBRANCH  30  38
ENDBRANCH   1  25
TORSDOF 11
ENDMDL
MODEL 5
REMARK VINA RESULT:    -6.341     15.402     18.964
REMARK INTER + INTRA:          -9.255
REMARK INTER:                  -9.470
REMARK INTRA:                   0.215
REMARK UNBOUND:                -0.134
REMARK SMILES O=c1c(O[C@H]2O[C@H](CO)[C@H](O)[C@@H](O)[C@H]2O)c(-c2ccc(O)cc2)oc2cc(O)cc(O)c12
REMARK SMILES IDX 4 1 3 2 16 3 24 4 2 5 25 6 1 7 32 8 26 9 30 10 27 11 29 12
REMARK SMILES IDX 17 13 18 14 19 15 20 16 23 17 22 18 21 19 31 21 28 23 5 25
REMARK SMILES IDX 14 26 6 27 12 28 7 29 10 30 15 31 13 33 8 35 9 36 11 38
REMARK H PARENT 21 20 31 22 28 24 15 32 13 34 9 37 11 39
REMARK Flexibility Score: inf
ROOT
ATOM      1  O   UNL     1       4.480  32.887  70.431  1.00  0.00    -0.454 OA
ENDROOT
BRANCH   1   2
ATOM      2  C   UNL     1       3.837  33.675  69.468  1.00  0.00     0.214 A 
ATOM      3  C   UNL     1       4.438  33.978  68.229  1.00  0.00     0.180 A 
ATOM      4  O   UNL     1       3.752  34.652  67.310  1.00  0.00    -0.452 OA
ATOM      5  C   UNL     1       2.556  34.167  69.737  1.00  0.00     0.239 A 
ATOM      6  C   UNL     1       2.518  35.106  67.510  1.00  0.00     0.146 A 
ATOM      7  O   UNL     1       2.032  33.934  70.860  1.00  0.00    -0.285 OA
ATOM      8  C   UNL     1       1.865  34.896  68.747  1.00  0.00     0.111 A 
ATOM      9  C   UNL     1       1.875  35.806  66.484  1.00  0.00     0.094 A 
ATOM     10  C   UNL     1       0.559  35.407  68.933  1.00  0.00     0.134 A 
ATOM     11  C   UNL     1       0.587  36.307  66.671  1.00  0.00     0.123 A 
ATOM     12  C   UNL     1      -0.068  36.109  67.892  1.00  0.00     0.093 A 
BRANCH   3  13
ATOM     13  C   UNL     1       5.828  33.591  67.911  1.00  0.00     0.021 A 
ATOM     14  C   UNL     1       6.110  32.380  67.253  1.00  0.00     0.016 A 
ATOM     15  C   UNL     1       7.431  32.022  66.968  1.00  0.00     0.047 A 
ATOM     16  C   UNL     1       8.485  32.861  67.354  1.00  0.00     0.115 A 
ATOM     17  C   UNL     1       6.890  34.414  68.316  1.00  0.00     0.016 A 
ATOM     18  C   UNL     1       8.211  34.053  68.030  1.00  0.00     0.047 A 
BRANCH  16  19
ATOM     19  O   UNL     1       9.806  32.517  67.072  1.00  0.00    -0.508 OA
ATOM     20  H   UNL     1      10.167  32.533  66.126  1.00  0.00     0.293 HD
ENDBRANCH  16  19
ENDBRANCH   3  13
BRANCH  10  21
ATOM     21  O   UNL     1      -0.120  35.223  70.139  1.00  0.00    -0.507 OA
ATOM     22  H   UNL     1      -0.835  34.514  70.246  1.00  0.00     0.293 HD
ENDBRANCH  10  21
BRANCH  11  23
ATOM     23  O   UNL     1      -0.036  37.003  65.637  1.00  0.00    -0.508 OA
ATOM     24  H   UNL     1       0.278  36.918  64.678  1.00  0.00     0.293 HD
ENDBRANCH  11  23
ENDBRANCH   1   2
BRANCH   1  25
ATOM     25  C   UNL     1       5.531  31.964  70.116  1.00  0.00     0.339 C 
ATOM     26  C   UNL     1       5.085  30.506  70.346  1.00  0.00     0.214 C 
ATOM     27  O   UNL     1       6.710  32.266  70.844  1.00  0.00    -0.332 OA
ATOM     28  C   UNL     1       4.970  30.161  71.850  1.00  0.00     0.180 C 
ATOM     29  C   UNL     1       6.496  32.177  72.243  1.00  0.00     0.179 C 
ATOM     30  C   UNL     1       6.166  30.718  72.659  1.00  0.00     0.177 C 
BRANCH  26  31
ATOM     31  O   UNL     1       3.868  30.272  69.687  1.00  0.00    -0.384 OA
ATOM     32  H   UNL     1       3.879  30.822  68.861  1.00  0.00     0.211 HD
ENDBRANCH  26  31
BRANCH  28  33
ATOM     33  O   UNL     1       3.740  30.587  72.386  1.00  0.00    -0.387 OA
ATOM     34  H   UNL     1       3.116  30.770  71.639  1.00  0.00     0.211 HD
ENDBRANCH  28  33
BRANCH  29  35
ATOM     35  C   UNL     1       7.749  32.704  72.960  1.00  0.00     0.191 C 
BRANCH  35  36
ATOM     36  O   UNL     1       8.039  31.936  74.097  1.00  0.00    -0.394 OA
ATOM     37  H   UNL     1       7.308  32.106  74.748  1.00  0.00     0.210 HD
ENDBRANCH  35  36
ENDBRANCH  29  35
BRANCH  30  38
ATOM     38  O   UNL     1       7.287  29.877  72.520  1.00  0.00    -0.387 OA
ATOM     39  H   UNL     1       7.718  30.080  71.650  1.00  0.00     0.211 HD
ENDBRANCH  30  38
ENDBRANCH   1  25
TORSDOF 11
ENDMDL
MODEL 6
REMARK VINA RESULT:    -6.280      1.747      4.982
REMARK INTER + INTRA:          -9.168
REMARK INTER:                  -7.462
REMARK INTRA:                  -1.706
REMARK UNBOUND:                -0.134
REMARK SMILES O=c1c(O[C@H]2O[C@H](CO)[C@H](O)[C@@H](O)[C@H]2O)c(-c2ccc(O)cc2)oc2cc(O)cc(O)c12
REMARK SMILES IDX 4 1 3 2 16 3 24 4 2 5 25 6 1 7 32 8 26 9 30 10 27 11 29 12
REMARK SMILES IDX 17 13 18 14 19 15 20 16 23 17 22 18 21 19 31 21 28 23 5 25
REMARK SMILES IDX 14 26 6 27 12 28 7 29 10 30 15 31 13 33 8 35 9 36 11 38
REMARK H PARENT 21 20 31 22 28 24 15 32 13 34 9 37 11 39
REMARK Flexibility Score: inf
ROOT
ATOM      1  O   UNL     1      18.429  43.539  77.544  1.00  0.00    -0.454 OA
ENDROOT
BRANCH   1   2
ATOM      2  C   UNL     1      18.234  42.444  76.692  1.00  0.00     0.214 A 
ATOM      3  C   UNL     1      17.604  42.576  75.437  1.00  0.00     0.180 A 
ATOM      4  O   UNL     1      17.524  41.526  74.626  1.00  0.00    -0.452 OA
ATOM      5  C   UNL     1      18.686  41.183  77.092  1.00  0.00     0.239 A 
ATOM      6  C   UNL     1      17.974  40.319  74.950  1.00  0.00     0.146 A 
ATOM      7  O   UNL     1      19.212  41.052  78.232  1.00  0.00    -0.285 OA
ATOM      8  C   UNL     1      18.566  40.086  76.214  1.00  0.00     0.111 A 
ATOM      9  C   UNL     1      17.846  39.274  74.030  1.00  0.00     0.094 A 
ATOM     10  C   UNL     1      19.020  38.785  76.535  1.00  0.00     0.134 A 
ATOM     11  C   UNL     1      18.296  37.992  74.350  1.00  0.00     0.123 A 
ATOM     12  C   UNL     1      18.880  37.750  75.599  1.00  0.00     0.093 A 
BRANCH   3  13
ATOM     13  C   UNL     1      17.001  43.849  74.989  1.00  0.00     0.021 A 
ATOM     14  C   UNL     1      15.634  44.112  75.189  1.00  0.00     0.016 A 
ATOM     15  C   UNL     1      15.075  45.316  74.751  1.00  0.00     0.047 A 
ATOM     16  C   UNL     1      15.872  46.261  74.091  1.00  0.00     0.115 A 
ATOM     17  C   UNL     1      17.787  44.790  74.305  1.00  0.00     0.016 A 
ATOM     18  C   UNL     1      17.225  45.993  73.866  1.00  0.00     0.047 A 
BRANCH  16  19
ATOM     19  O   UNL     1      15.326  47.466  73.652  1.00  0.00    -0.508 OA
ATOM     20  H   UNL     1      15.769  48.354  73.858  1.00  0.00     0.293 HD
ENDBRANCH  16  19
ENDBRANCH   3  13
BRANCH  10  21
ATOM     21  O   UNL     1      19.608  38.513  77.771  1.00  0.00    -0.507 OA
ATOM     22  H   UNL     1      20.097  39.228  78.297  1.00  0.00     0.293 HD
ENDBRANCH  10  21
BRANCH  11  23
ATOM     23  O   UNL     1      18.157  36.964  73.420  1.00  0.00    -0.508 OA
ATOM     24  H   UNL     1      18.912  36.315  73.232  1.00  0.00     0.293 HD
ENDBRANCH  11  23
ENDBRANCH   1   2
BRANCH   1  25
ATOM     25  C   UNL     1      19.676  44.238  77.650  1.00  0.00     0.339 C 
ATOM     26  C   UNL     1      20.125  44.364  79.120  1.00  0.00     0.214 C 
ATOM     27  O   UNL     1      19.605  45.506  77.020  1.00  0.00    -0.332 OA
ATOM     28  C   UNL     1      19.266  45.381  79.908  1.00  0.00     0.180 C 
ATOM     29  C   UNL     1      18.623  46.333  77.622  1.00  0.00     0.179 C 
ATOM     30  C   UNL     1      19.006  46.668  79.089  1.00  0.00     0.177 C 
BRANCH  26  31
ATOM     31  O   UNL     1      20.093  43.102  79.737  1.00  0.00    -0.384 OA
ATOM     32  H   UNL     1      20.965  42.986  80.197  1.00  0.00     0.211 HD
ENDBRANCH  26  31
BRANCH  28  33
ATOM     33  O   UNL     1      18.063  44.804  80.360  1.00  0.00    -0.387 OA
ATOM     34  H   UNL     1      18.190  44.502  81.294  1.00  0.00     0.211 HD
ENDBRANCH  28  33
BRANCH  29  35
ATOM     35  C   UNL     1      18.469  47.602  76.770  1.00  0.00     0.191 C 
BRANCH  35  36
ATOM     36  O   UNL     1      17.955  48.662  77.533  1.00  0.00    -0.394 OA
ATOM     37  H   UNL     1      18.699  49.307  77.659  1.00  0.00     0.210 HD
ENDBRANCH  35  36
ENDBRANCH  29  35
BRANCH  30  38
ATOM     38  O   UNL     1      20.125  47.521  79.147  1.00  0.00    -0.387 OA
ATOM     39  H   UNL     1      20.103  47.997  80.018  1.00  0.00     0.211 HD
ENDBRANCH  30  38
ENDBRANCH   1  25
TORSDOF 11
ENDMDL
MODEL 7
REMARK VINA RESULT:    -6.183      3.032      5.577
REMARK INTER + INTRA:          -9.028
REMARK INTER:                  -8.756
REMARK INTRA:                  -0.272
REMARK UNBOUND:                -0.134
REMARK SMILES O=c1c(O[C@H]2O[C@H](CO)[C@H](O)[C@@H](O)[C@H]2O)c(-c2ccc(O)cc2)oc2cc(O)cc(O)c12
REMARK SMILES IDX 4 1 3 2 16 3 24 4 2 5 25 6 1 7 32 8 26 9 30 10 27 11 29 12
REMARK SMILES IDX 17 13 18 14 19 15 20 16 23 17 22 18 21 19 31 21 28 23 5 25
REMARK SMILES IDX 14 26 6 27 12 28 7 29 10 30 15 31 13 33 8 35 9 36 11 38
REMARK H PARENT 21 20 31 22 28 24 15 32 13 34 9 37 11 39
REMARK Flexibility Score: inf
ROOT
ATOM      1  O   UNL     1      17.065  45.807  75.442  1.00  0.00    -0.454 OA
ENDROOT
BRANCH   1   2
ATOM      2  C   UNL     1      16.789  44.464  75.153  1.00  0.00     0.214 A 
ATOM      3  C   UNL     1      15.515  44.040  74.721  1.00  0.00     0.180 A 
ATOM      4  O   UNL     1      15.327  42.771  74.372  1.00  0.00    -0.452 OA
ATOM      5  C   UNL     1      17.809  43.517  75.286  1.00  0.00     0.239 A 
ATOM      6  C   UNL     1      16.278  41.845  74.447  1.00  0.00     0.146 A 
ATOM      7  O   UNL     1      18.938  43.885  75.713  1.00  0.00    -0.285 OA
ATOM      8  C   UNL     1      17.568  42.175  74.926  1.00  0.00     0.111 A 
ATOM      9  C   UNL     1      15.986  40.535  74.056  1.00  0.00     0.094 A 
ATOM     10  C   UNL     1      18.553  41.162  75.009  1.00  0.00     0.134 A 
ATOM     11  C   UNL     1      16.960  39.540  74.139  1.00  0.00     0.123 A 
ATOM     12  C   UNL     1      18.239  39.853  74.615  1.00  0.00     0.093 A 
BRANCH   3  13
ATOM     13  C   UNL     1      14.358  44.956  74.661  1.00  0.00     0.021 A 
ATOM     14  C   UNL     1      14.481  46.243  74.106  1.00  0.00     0.016 A 
ATOM     15  C   UNL     1      13.379  47.102  74.065  1.00  0.00     0.047 A 
ATOM     16  C   UNL     1      12.148  46.692  74.594  1.00  0.00     0.115 A 
ATOM     17  C   UNL     1      13.128  44.562  75.211  1.00  0.00     0.016 A 
ATOM     18  C   UNL     1      12.027  45.424  75.169  1.00  0.00     0.047 A 
BRANCH  16  19
ATOM     19  O   UNL     1      11.042  47.540  74.555  1.00  0.00    -0.508 OA
ATOM     20  H   UNL     1      11.119  48.495  74.227  1.00  0.00     0.293 HD
ENDBRANCH  16  19
ENDBRANCH   3  13
BRANCH  10  21
ATOM     21  O   UNL     1      19.836  41.445  75.478  1.00  0.00    -0.507 OA
ATOM     22  H   UNL     1      20.049  41.470  76.468  1.00  0.00     0.293 HD
ENDBRANCH  10  21
BRANCH  11  23
ATOM     23  O   UNL     1      16.649  38.239  73.746  1.00  0.00    -0.508 OA
ATOM     24  H   UNL     1      17.369  37.586  73.461  1.00  0.00     0.293 HD
ENDBRANCH  11  23
ENDBRANCH   1   2
BRANCH   1  25
ATOM     25  C   UNL     1      18.274  46.464  75.039  1.00  0.00     0.339 C 
ATOM     26  C   UNL     1      18.655  47.591  76.020  1.00  0.00     0.214 C 
ATOM     27  O   UNL     1      18.173  46.947  73.709  1.00  0.00    -0.332 OA
ATOM     28  C   UNL     1      17.718  48.816  75.894  1.00  0.00     0.180 C 
ATOM     29  C   UNL     1      17.129  47.898  73.579  1.00  0.00     0.179 C 
ATOM     30  C   UNL     1      17.435  49.171  74.414  1.00  0.00     0.177 C 
BRANCH  26  31
ATOM     31  O   UNL     1      18.653  47.097  77.335  1.00  0.00    -0.384 OA
ATOM     32  H   UNL     1      17.852  46.517  77.422  1.00  0.00     0.211 HD
ENDBRANCH  26  31
BRANCH  28  33
ATOM     33  O   UNL     1      16.524  48.632  76.619  1.00  0.00    -0.387 OA
ATOM     34  H   UNL     1      15.762  48.889  76.041  1.00  0.00     0.211 HD
ENDBRANCH  28  33
BRANCH  29  35
ATOM     35  C   UNL     1      16.954  48.225  72.088  1.00  0.00     0.191 C 
BRANCH  35  36
ATOM     36  O   UNL     1      18.096  47.866  71.356  1.00  0.00    -0.394 OA
ATOM     37  H   UNL     1      18.858  47.883  71.993  1.00  0.00     0.210 HD
ENDBRANCH  35  36
ENDBRANCH  29  35
BRANCH  30  38
ATOM     38  O   UNL     1      18.510  49.899  73.870  1.00  0.00    -0.387 OA
ATOM     39  H   UNL     1      19.330  49.346  73.955  1.00  0.00     0.211 HD
ENDBRANCH  30  38
ENDBRANCH   1  25
TORSDOF 11
ENDMDL
MODEL 8
REMARK VINA RESULT:    -5.746     15.744     17.962
REMARK INTER + INTRA:          -8.400
REMARK INTER:                  -8.384
REMARK INTRA:                  -0.015
REMARK UNBOUND:                -0.134
REMARK SMILES O=c1c(O[C@H]2O[C@H](CO)[C@H](O)[C@@H](O)[C@H]2O)c(-c2ccc(O)cc2)oc2cc(O)cc(O)c12
REMARK SMILES IDX 4 1 3 2 16 3 24 4 2 5 25 6 1 7 32 8 26 9 30 10 27 11 29 12
REMARK SMILES IDX 17 13 18 14 19 15 20 16 23 17 22 18 21 19 31 21 28 23 5 25
REMARK SMILES IDX 14 26 6 27 12 28 7 29 10 30 15 31 13 33 8 35 9 36 11 38
REMARK H PARENT 21 20 31 22 28 24 15 32 13 34 9 37 11 39
REMARK Flexibility Score: inf
ROOT
ATOM      1  O   UNL     1       3.034  32.628  69.359  1.00  0.00    -0.454 OA
ENDROOT
BRANCH   1   2
ATOM      2  C   UNL     1       4.161  32.242  70.096  1.00  0.00     0.214 A 
ATOM      3  C   UNL     1       5.465  32.626  69.722  1.00  0.00     0.180 A 
ATOM      4  O   UNL     1       6.494  32.312  70.504  1.00  0.00    -0.452 OA
ATOM      5  C   UNL     1       3.988  31.461  71.243  1.00  0.00     0.239 A 
ATOM      6  C   UNL     1       6.371  31.604  71.622  1.00  0.00     0.146 A 
ATOM      7  O   UNL     1       2.827  31.080  71.558  1.00  0.00    -0.285 OA
ATOM      8  C   UNL     1       5.104  31.129  72.038  1.00  0.00     0.111 A 
ATOM      9  C   UNL     1       7.511  31.323  72.380  1.00  0.00     0.094 A 
ATOM     10  C   UNL     1       5.010  30.364  73.224  1.00  0.00     0.134 A 
ATOM     11  C   UNL     1       7.414  30.569  73.549  1.00  0.00     0.123 A 
ATOM     12  C   UNL     1       6.167  30.091  73.969  1.00  0.00     0.093 A 
BRANCH   3  13
ATOM     13  C   UNL     1       5.743  33.355  68.467  1.00  0.00     0.021 A 
ATOM     14  C   UNL     1       5.046  33.051  67.284  1.00  0.00     0.016 A 
ATOM     15  C   UNL     1       5.327  33.743  66.102  1.00  0.00     0.047 A 
ATOM     16  C   UNL     1       6.319  34.732  66.085  1.00  0.00     0.115 A 
ATOM     17  C   UNL     1       6.753  34.329  68.437  1.00  0.00     0.016 A 
ATOM     18  C   UNL     1       7.033  35.019  67.253  1.00  0.00     0.047 A 
BRANCH  16  19
ATOM     19  O   UNL     1       6.605  35.430  64.914  1.00  0.00    -0.508 OA
ATOM     20  H   UNL     1       5.978  36.139  64.554  1.00  0.00     0.293 HD
ENDBRANCH  16  19
ENDBRANCH   3  13
BRANCH  10  21
ATOM     21  O   UNL     1       3.780  29.876  73.668  1.00  0.00    -0.507 OA
ATOM     22  H   UNL     1       3.630  29.606  74.633  1.00  0.00     0.293 HD
ENDBRANCH  10  21
BRANCH  11  23
ATOM     23  O   UNL     1       8.563  30.298  74.290  1.00  0.00    -0.508 OA
ATOM     24  H   UNL     1       9.389  29.900  73.859  1.00  0.00     0.293 HD
ENDBRANCH  11  23
ENDBRANCH   1   2
BRANCH   1  25
ATOM     25  C   UNL     1       1.856  33.182  69.959  1.00  0.00     0.339 C 
ATOM     26  C   UNL     1       0.953  33.855  68.906  1.00  0.00     0.214 C 
ATOM     27  O   UNL     1       2.191  34.081  71.004  1.00  0.00    -0.332 OA
ATOM     28  C   UNL     1       1.549  35.185  68.388  1.00  0.00     0.180 C 
ATOM     29  C   UNL     1       2.957  35.174  70.525  1.00  0.00     0.179 C 
ATOM     30  C   UNL     1       2.126  36.042  69.541  1.00  0.00     0.177 C 
BRANCH  26  31
ATOM     31  O   UNL     1       0.719  32.967  67.843  1.00  0.00    -0.384 OA
ATOM     32  H   UNL     1       0.246  33.482  67.138  1.00  0.00     0.211 HD
ENDBRANCH  26  31
BRANCH  28  33
ATOM     33  O   UNL     1       2.507  34.965  67.378  1.00  0.00    -0.387 OA
ATOM     34  H   UNL     1       2.891  34.060  67.500  1.00  0.00     0.211 HD
ENDBRANCH  28  33
BRANCH  29  35
ATOM     35  C   UNL     1       3.444  35.991  71.732  1.00  0.00     0.191 C 
BRANCH  35  36
ATOM     36  O   UNL     1       2.450  36.072  72.719  1.00  0.00    -0.394 OA
ATOM     37  H   UNL     1       1.991  36.942  72.589  1.00  0.00     0.210 HD
ENDBRANCH  35  36
ENDBRANCH  29  35
BRANCH  30  38
ATOM     38  O   UNL     1       1.093  36.729  70.206  1.00  0.00    -0.387 OA
ATOM     39  H   UNL     1       0.230  36.319  69.939  1.00  0.00     0.211 HD
ENDBRANCH  30  38
ENDBRANCH   1  25
TORSDOF 11
ENDMDL
MODEL 9
REMARK VINA RESULT:    -5.585      3.015      5.405
REMARK INTER + INTRA:          -8.168
REMARK INTER:                  -8.128
REMARK INTRA:                  -0.040
REMARK UNBOUND:                -0.134
REMARK SMILES O=c1c(O[C@H]2O[C@H](CO)[C@H](O)[C@@H](O)[C@H]2O)c(-c2ccc(O)cc2)oc2cc(O)cc(O)c12
REMARK SMILES IDX 4 1 3 2 16 3 24 4 2 5 25 6 1 7 32 8 26 9 30 10 27 11 29 12
REMARK SMILES IDX 17 13 18 14 19 15 20 16 23 17 22 18 21 19 31 21 28 23 5 25
REMARK SMILES IDX 14 26 6 27 12 28 7 29 10 30 15 31 13 33 8 35 9 36 11 38
REMARK H PARENT 21 20 31 22 28 24 15 32 13 34 9 37 11 39
REMARK Flexibility Score: inf
ROOT
ATOM      1  O   UNL     1      17.131  45.690  75.641  1.00  0.00    -0.454 OA
ENDROOT
BRANCH   1   2
ATOM      2  C   UNL     1      16.871  44.357  75.299  1.00  0.00     0.214 A 
ATOM      3  C   UNL     1      15.618  43.944  74.798  1.00  0.00     0.180 A 
ATOM      4  O   UNL     1      15.448  42.687  74.402  1.00  0.00    -0.452 OA
ATOM      5  C   UNL     1      17.885  43.406  75.448  1.00  0.00     0.239 A 
ATOM      6  C   UNL     1      16.397  41.760  74.490  1.00  0.00     0.146 A 
ATOM      7  O   UNL     1      18.993  43.762  75.935  1.00  0.00    -0.285 OA
ATOM      8  C   UNL     1      17.663  42.076  75.036  1.00  0.00     0.111 A 
ATOM      9  C   UNL     1      16.125  40.462  74.047  1.00  0.00     0.094 A 
ATOM     10  C   UNL     1      18.646  41.062  75.132  1.00  0.00     0.134 A 
ATOM     11  C   UNL     1      17.097  39.466  74.142  1.00  0.00     0.123 A 
ATOM     12  C   UNL     1      18.353  39.765  74.683  1.00  0.00     0.093 A 
BRANCH   3  13
ATOM     13  C   UNL     1      14.462  44.861  74.715  1.00  0.00     0.021 A 
ATOM     14  C   UNL     1      14.563  46.094  74.045  1.00  0.00     0.016 A 
ATOM     15  C   UNL     1      13.464  46.956  73.983  1.00  0.00     0.047 A 
ATOM     16  C   UNL     1      12.258  46.603  74.605  1.00  0.00     0.115 A 
ATOM     17  C   UNL     1      13.259  44.526  75.356  1.00  0.00     0.016 A 
ATOM     18  C   UNL     1      12.161  45.390  75.293  1.00  0.00     0.047 A 
BRANCH  16  19
ATOM     19  O   UNL     1      11.155  47.452  74.547  1.00  0.00    -0.508 OA
ATOM     20  H   UNL     1      10.731  47.826  75.387  1.00  0.00     0.293 HD
ENDBRANCH  16  19
ENDBRANCH   3  13
BRANCH  10  21
ATOM     21  O   UNL     1      19.907  41.332  75.665  1.00  0.00    -0.507 OA
ATOM     22  H   UNL     1      20.169  42.261  75.970  1.00  0.00     0.293 HD
ENDBRANCH  10  21
BRANCH  11  23
ATOM     23  O   UNL     1      16.806  38.178  73.696  1.00  0.00    -0.508 OA
ATOM     24  H   UNL     1      17.263  37.784  72.882  1.00  0.00     0.293 HD
ENDBRANCH  11  23
ENDBRANCH   1   2
BRANCH   1  25
ATOM     25  C   UNL     1      17.340  46.723  74.669  1.00  0.00     0.339 C 
ATOM     26  C   UNL     1      18.839  46.904  74.357  1.00  0.00     0.214 C 
ATOM     27  O   UNL     1      16.747  47.942  75.084  1.00  0.00    -0.332 OA
ATOM     28  C   UNL     1      19.601  47.578  75.522  1.00  0.00     0.180 C 
ATOM     29  C   UNL     1      17.309  48.407  76.301  1.00  0.00     0.179 C 
ATOM     30  C   UNL     1      18.808  48.768  76.113  1.00  0.00     0.177 C 
BRANCH  26  31
ATOM     31  O   UNL     1      19.412  45.661  74.040  1.00  0.00    -0.384 OA
ATOM     32  H   UNL     1      18.703  45.122  73.603  1.00  0.00     0.211 HD
ENDBRANCH  26  31
BRANCH  28  33
ATOM     33  O   UNL     1      19.955  46.646  76.518  1.00  0.00    -0.387 OA
ATOM     34  H   UNL     1      19.804  45.734  76.163  1.00  0.00     0.211 HD
ENDBRANCH  28  33
BRANCH  29  35
ATOM     35  C   UNL     1      16.489  49.613  76.784  1.00  0.00     0.191 C 
BRANCH  35  36
ATOM     36  O   UNL     1      15.128  49.447  76.490  1.00  0.00    -0.394 OA
ATOM     37  H   UNL     1      14.627  49.709  77.306  1.00  0.00     0.210 HD
ENDBRANCH  35  36
ENDBRANCH  29  35
BRANCH  30  38
ATOM     38  O   UNL     1      18.966  49.912  75.308  1.00  0.00    -0.387 OA
ATOM     39  H   UNL     1      19.366  49.628  74.446  1.00  0.00     0.211 HD
ENDBRANCH  30  38
ENDBRANCH   1  25
TORSDOF 11
ENDMDL
