MODEL 1
REMARK VINA RESULT:    -4.578      0.000      0.000
REMARK INTER + INTRA:         -10.100
REMARK INTER:                  -8.593
REMARK INTRA:                  -1.508
REMARK UNBOUND:                -1.508
REMARK SMILES CCCCCCCCC=CCCCCCCCC(=O)[O-]
REMARK SMILES IDX 10 1 9 2 11 3 12 4 13 5 14 6 15 7 16 8 17 9 18 10 19 11
REMARK SMILES IDX 20 12 8 13 7 14 6 15 5 16 4 17 3 18 2 19 1 20
REMARK H PARENT
REMARK Flexibility Score: inf
ROOT
ATOM      1  C   UNL     1      -4.132   5.874   0.755  1.00  0.00    -0.031 C 
ATOM      2  C   UNL     1      -2.839   6.146   0.983  1.00  0.00    -0.031 C 
ENDROOT
BRANCH   1   3
ATOM      3  C   UNL     1      -4.871   6.465  -0.414  1.00  0.00     0.027 C 
BRANCH   3   4
ATOM      4  C   UNL     1      -6.327   5.975  -0.504  1.00  0.00     0.004 C 
BRANCH   4   5
ATOM      5  C   UNL     1      -6.743   5.448  -1.893  1.00  0.00     0.000 C 
BRANCH   5   6
ATOM      6  C   UNL     1      -5.664   5.566  -2.983  1.00  0.00     0.000 C 
BRANCH   6   7
ATOM      7  C   UNL     1      -5.726   4.427  -4.011  1.00  0.00     0.000 C 
BRANCH   7   8
ATOM      8  C   UNL     1      -4.578   4.542  -5.024  1.00  0.00     0.006 C 
BRANCH   8   9
ATOM      9  C   UNL     1      -3.812   5.865  -4.886  1.00  0.00     0.053 C 
BRANCH   9  10
ATOM     10  C   UNL     1      -3.064   6.207  -6.138  1.00  0.00     0.041 C 
ATOM     11  O   UNL     1      -2.901   5.339  -7.035  1.00  0.00    -0.550 OA
ATOM     12  O   UNL     1      -2.569   7.492  -6.324  1.00  0.00    -0.550 OA
ENDBRANCH   9  10
ENDBRANCH   8   9
ENDBRANCH   7   8
ENDBRANCH   6   7
ENDBRANCH   5   6
ENDBRANCH   4   5
ENDBRANCH   3   4
ENDBRANCH   1   3
BRANCH   2  13
ATOM     13  C   UNL     1      -2.103   5.527   2.139  1.00  0.00     0.027 C 
BRANCH  13  14
ATOM     14  C   UNL     1      -2.980   4.486   2.850  1.00  0.00     0.004 C 
BRANCH  14  15
ATOM     15  C   UNL     1      -2.161   3.460   3.653  1.00  0.00     0.000 C 
BRANCH  15  16
ATOM     16  C   UNL     1      -2.984   2.317   4.273  1.00  0.00     0.000 C 
BRANCH  16  17
ATOM     17  C   UNL     1      -4.454   2.315   3.813  1.00  0.00    -0.000 C 
BRANCH  17  18
ATOM     18  C   UNL     1      -4.743   1.197   2.789  1.00  0.00    -0.000 C 
BRANCH  18  19
ATOM     19  C   UNL     1      -5.317   1.716   1.460  1.00  0.00    -0.003 C 
ATOM     20  C   UNL     1      -6.217   2.938   1.635  1.00  0.00     0.004 C 
ENDBRANCH  18  19
ENDBRANCH  17  18
ENDBRANCH  16  17
ENDBRANCH  15  16
ENDBRANCH  14  15
ENDBRANCH  13  14
ENDBRANCH   2  13
TORSDOF 15
ENDMDL
MODEL 2
REMARK VINA RESULT:    -4.470     17.632     19.684
REMARK INTER + INTRA:          -9.897
REMARK INTER:                  -6.735
REMARK INTRA:                  -3.162
REMARK UNBOUND:                -1.508
REMARK SMILES CCCCCCCCC=CCCCCCCCC(=O)[O-]
REMARK SMILES IDX 10 1 9 2 11 3 12 4 13 5 14 6 15 7 16 8 17 9 18 10 19 11
REMARK SMILES IDX 20 12 8 13 7 14 6 15 5 16 4 17 3 18 2 19 1 20
REMARK H PARENT
REMARK Flexibility Score: inf
ROOT
ATOM      1  C   UNL     1       6.395  -2.443 -12.026  1.00  0.00    -0.031 C 
ATOM      2  C   UNL     1       5.964  -3.048 -13.143  1.00  0.00    -0.031 C 
ENDROOT
BRANCH   1   3
ATOM      3  C   UNL     1       7.094  -3.204 -10.933  1.00  0.00     0.027 C 
BRANCH   3   4
ATOM      4  C   UNL     1       8.483  -2.629 -10.606  1.00  0.00     0.004 C 
BRANCH   4   5
ATOM      5  C   UNL     1       8.954  -1.507 -11.555  1.00  0.00     0.000 C 
BRANCH   5   6
ATOM      6  C   UNL     1      10.088  -1.902 -12.518  1.00  0.00     0.000 C 
BRANCH   6   7
ATOM      7  C   UNL     1       9.638  -1.941 -13.986  1.00  0.00     0.000 C 
BRANCH   7   8
ATOM      8  C   UNL     1       9.189  -3.356 -14.381  1.00  0.00     0.006 C 
BRANCH   8   9
ATOM      9  C   UNL     1      10.081  -4.442 -13.763  1.00  0.00     0.053 C 
BRANCH   9  10
ATOM     10  C   UNL     1       9.282  -5.434 -12.974  1.00  0.00     0.041 C 
ATOM     11  O   UNL     1       9.612  -5.714 -11.791  1.00  0.00    -0.550 OA
ATOM     12  O   UNL     1       8.160  -6.029 -13.536  1.00  0.00    -0.550 OA
ENDBRANCH   9  10
ENDBRANCH   8   9
ENDBRANCH   7   8
ENDBRANCH   6   7
ENDBRANCH   5   6
ENDBRANCH   4   5
ENDBRANCH   3   4
ENDBRANCH   1   3
BRANCH   2  13
ATOM     13  C   UNL     1       5.292  -2.272 -14.242  1.00  0.00     0.027 C 
BRANCH  13  14
ATOM     14  C   UNL     1       5.070  -0.812 -13.822  1.00  0.00     0.004 C 
BRANCH  14  15
ATOM     15  C   UNL     1       5.731   0.194 -14.780  1.00  0.00     0.000 C 
BRANCH  15  16
ATOM     16  C   UNL     1       7.145   0.645 -14.371  1.00  0.00     0.000 C 
BRANCH  16  17
ATOM     17  C   UNL     1       7.167   1.434 -13.049  1.00  0.00    -0.000 C 
BRANCH  17  18
ATOM     18  C   UNL     1       8.582   1.935 -12.692  1.00  0.00    -0.000 C 
BRANCH  18  19
ATOM     19  C   UNL     1       9.594   1.784 -13.840  1.00  0.00    -0.003 C 
ATOM     20  C   UNL     1      11.040   1.701 -13.355  1.00  0.00     0.004 C 
ENDBRANCH  18  19
ENDBRANCH  17  18
ENDBRANCH  16  17
ENDBRANCH  15  16
ENDBRANCH  14  15
ENDBRANCH  13  14
ENDBRANCH   2  13
TORSDOF 15
ENDMDL
MODEL 3
REMARK VINA RESULT:    -4.378      0.944      2.954
REMARK INTER + INTRA:          -9.724
REMARK INTER:                  -8.185
REMARK INTRA:                  -1.539
REMARK UNBOUND:                -1.508
REMARK SMILES CCCCCCCCC=CCCCCCCCC(=O)[O-]
REMARK SMILES IDX 10 1 9 2 11 3 12 4 13 5 14 6 15 7 16 8 17 9 18 10 19 11
REMARK SMILES IDX 20 12 8 13 7 14 6 15 5 16 4 17 3 18 2 19 1 20
REMARK H PARENT
REMARK Flexibility Score: inf
ROOT
ATOM      1  C   UNL     1      -5.965   4.024   0.483  1.00  0.00    -0.031 C 
ATOM      2  C   UNL     1      -6.974   3.281   0.960  1.00  0.00    -0.031 C 
ENDROOT
BRANCH   1   3
ATOM      3  C   UNL     1      -6.159   5.461   0.083  1.00  0.00     0.027 C 
BRANCH   3   4
ATOM      4  C   UNL     1      -5.529   5.787  -1.283  1.00  0.00     0.004 C 
BRANCH   4   5
ATOM      5  C   UNL     1      -6.368   5.343  -2.499  1.00  0.00     0.000 C 
BRANCH   5   6
ATOM      6  C   UNL     1      -5.634   4.432  -3.499  1.00  0.00     0.000 C 
BRANCH   6   7
ATOM      7  C   UNL     1      -5.578   5.023  -4.915  1.00  0.00     0.000 C 
BRANCH   7   8
ATOM      8  C   UNL     1      -4.126   5.277  -5.344  1.00  0.00     0.006 C 
BRANCH   8   9
ATOM      9  C   UNL     1      -3.988   5.434  -6.865  1.00  0.00     0.053 C 
BRANCH   9  10
ATOM     10  C   UNL     1      -2.713   6.126  -7.238  1.00  0.00     0.041 C 
ATOM     11  O   UNL     1      -2.053   5.740  -8.239  1.00  0.00    -0.550 OA
ATOM     12  O   UNL     1      -2.267   7.213  -6.497  1.00  0.00    -0.550 OA
ENDBRANCH   9  10
ENDBRANCH   8   9
ENDBRANCH   7   8
ENDBRANCH   6   7
ENDBRANCH   5   6
ENDBRANCH   4   5
ENDBRANCH   3   4
ENDBRANCH   1   3
BRANCH   2  13
ATOM     13  C   UNL     1      -6.762   1.854   1.384  1.00  0.00     0.027 C 
BRANCH  13  14
ATOM     14  C   UNL     1      -5.270   1.569   1.612  1.00  0.00     0.004 C 
BRANCH  14  15
ATOM     15  C   UNL     1      -4.939   1.251   3.080  1.00  0.00     0.000 C 
BRANCH  15  16
ATOM     16  C   UNL     1      -4.630   2.479   3.955  1.00  0.00     0.000 C 
BRANCH  16  17
ATOM     17  C   UNL     1      -3.288   3.147   3.602  1.00  0.00    -0.000 C 
BRANCH  17  18
ATOM     18  C   UNL     1      -3.479   4.553   2.995  1.00  0.00    -0.000 C 
BRANCH  18  19
ATOM     19  C   UNL     1      -2.293   5.012   2.129  1.00  0.00    -0.003 C 
ATOM     20  C   UNL     1      -2.629   6.213   1.245  1.00  0.00     0.004 C 
ENDBRANCH  18  19
ENDBRANCH  17  18
ENDBRANCH  16  17
ENDBRANCH  15  16
ENDBRANCH  14  15
ENDBRANCH  13  14
ENDBRANCH   2  13
TORSDOF 15
ENDMDL
MODEL 4
REMARK VINA RESULT:    -4.337     13.983     18.399
REMARK INTER + INTRA:          -9.649
REMARK INTER:                  -8.012
REMARK INTRA:                  -1.636
REMARK UNBOUND:                -1.508
REMARK SMILES CCCCCCCCC=CCCCCCCCC(=O)[O-]
REMARK SMILES IDX 10 1 9 2 11 3 12 4 13 5 14 6 15 7 16 8 17 9 18 10 19 11
REMARK SMILES IDX 20 12 8 13 7 14 6 15 5 16 4 17 3 18 2 19 1 20
REMARK H PARENT
REMARK Flexibility Score: inf
ROOT
ATOM      1  C   UNL     1       7.525  -0.627 -12.520  1.00  0.00    -0.031 C 
ATOM      2  C   UNL     1       6.962  -0.790 -13.726  1.00  0.00    -0.031 C 
ENDROOT
BRANCH   1   3
ATOM      3  C   UNL     1       8.987  -0.309 -12.365  1.00  0.00     0.027 C 
BRANCH   3   4
ATOM      4  C   UNL     1       9.807  -0.668 -13.617  1.00  0.00     0.004 C 
BRANCH   4   5
ATOM      5  C   UNL     1      10.613  -1.978 -13.504  1.00  0.00     0.000 C 
BRANCH   5   6
ATOM      6  C   UNL     1       9.822  -3.259 -13.822  1.00  0.00     0.000 C 
BRANCH   6   7
ATOM      7  C   UNL     1       9.590  -4.141 -12.586  1.00  0.00     0.000 C 
BRANCH   7   8
ATOM      8  C   UNL     1       8.104  -4.159 -12.200  1.00  0.00     0.006 C 
BRANCH   8   9
ATOM      9  C   UNL     1       7.897  -4.038 -10.684  1.00  0.00     0.053 C 
BRANCH   9  10
ATOM     10  C   UNL     1       6.454  -3.831 -10.335  1.00  0.00     0.041 C 
ATOM     11  O   UNL     1       5.812  -2.875 -10.844  1.00  0.00    -0.550 OA
ATOM     12  O   UNL     1       5.815  -4.707  -9.467  1.00  0.00    -0.550 OA
ENDBRANCH   9  10
ENDBRANCH   8   9
ENDBRANCH   7   8
ENDBRANCH   6   7
ENDBRANCH   5   6
ENDBRANCH   4   5
ENDBRANCH   3   4
ENDBRANCH   1   3
BRANCH   2  13
ATOM     13  C   UNL     1       5.493  -1.079 -13.869  1.00  0.00     0.027 C 
BRANCH  13  14
ATOM     14  C   UNL     1       4.669   0.211 -13.744  1.00  0.00     0.004 C 
BRANCH  14  15
ATOM     15  C   UNL     1       5.234   1.367 -14.588  1.00  0.00     0.000 C 
BRANCH  15  16
ATOM     16  C   UNL     1       5.717   2.584 -13.778  1.00  0.00     0.000 C 
BRANCH  16  17
ATOM     17  C   UNL     1       4.619   3.642 -13.569  1.00  0.00    -0.000 C 
BRANCH  17  18
ATOM     18  C   UNL     1       4.600   4.186 -12.124  1.00  0.00    -0.000 C 
BRANCH  18  19
ATOM     19  C   UNL     1       3.702   5.422 -11.947  1.00  0.00    -0.003 C 
ATOM     20  C   UNL     1       2.228   5.066 -11.762  1.00  0.00     0.004 C 
ENDBRANCH  18  19
ENDBRANCH  17  18
ENDBRANCH  16  17
ENDBRANCH  15  16
ENDBRANCH  14  15
ENDBRANCH  13  14
ENDBRANCH   2  13
TORSDOF 15
ENDMDL
MODEL 5
REMARK VINA RESULT:    -4.322     15.733     18.498
REMARK INTER + INTRA:          -9.620
REMARK INTER:                  -6.994
REMARK INTRA:                  -2.626
REMARK UNBOUND:                -1.508
REMARK SMILES CCCCCCCCC=CCCCCCCCC(=O)[O-]
REMARK SMILES IDX 10 1 9 2 11 3 12 4 13 5 14 6 15 7 16 8 17 9 18 10 19 11
REMARK SMILES IDX 20 12 8 13 7 14 6 15 5 16 4 17 3 18 2 19 1 20
REMARK H PARENT
REMARK Flexibility Score: inf
ROOT
ATOM      1  C   UNL     1       6.465  -2.446 -11.823  1.00  0.00    -0.031 C 
ATOM      2  C   UNL     1       7.688  -2.066 -11.425  1.00  0.00    -0.031 C 
ENDROOT
BRANCH   1   3
ATOM      3  C   UNL     1       5.642  -1.607 -12.761  1.00  0.00     0.027 C 
BRANCH   3   4
ATOM      4  C   UNL     1       6.036  -1.806 -14.236  1.00  0.00     0.004 C 
BRANCH   4   5
ATOM      5  C   UNL     1       6.503  -0.523 -14.954  1.00  0.00     0.000 C 
BRANCH   5   6
ATOM      6  C   UNL     1       7.051   0.578 -14.030  1.00  0.00     0.000 C 
BRANCH   6   7
ATOM      7  C   UNL     1       6.566   1.982 -14.419  1.00  0.00     0.000 C 
BRANCH   7   8
ATOM      8  C   UNL     1       7.390   3.063 -13.703  1.00  0.00     0.006 C 
BRANCH   8   9
ATOM      9  C   UNL     1       6.797   3.434 -12.337  1.00  0.00     0.053 C 
BRANCH   9  10
ATOM     10  C   UNL     1       5.450   4.078 -12.472  1.00  0.00     0.041 C 
ATOM     11  O   UNL     1       5.312   5.117 -13.170  1.00  0.00    -0.550 OA
ATOM     12  O   UNL     1       4.344   3.515 -11.848  1.00  0.00    -0.550 OA
ENDBRANCH   9  10
ENDBRANCH   8   9
ENDBRANCH   7   8
ENDBRANCH   6   7
ENDBRANCH   5   6
ENDBRANCH   4   5
ENDBRANCH   3   4
ENDBRANCH   1   3
BRANCH   2  13
ATOM     13  C   UNL     1       8.514  -2.926 -10.510  1.00  0.00     0.027 C 
BRANCH  13  14
ATOM     14  C   UNL     1       8.301  -4.415 -10.821  1.00  0.00     0.004 C 
BRANCH  14  15
ATOM     15  C   UNL     1       9.220  -4.931 -11.941  1.00  0.00     0.000 C 
BRANCH  15  16
ATOM     16  C   UNL     1       8.510  -5.232 -13.274  1.00  0.00     0.000 C 
BRANCH  16  17
ATOM     17  C   UNL     1       8.900  -4.255 -14.398  1.00  0.00    -0.000 C 
BRANCH  17  18
ATOM     18  C   UNL     1      10.059  -3.323 -13.986  1.00  0.00    -0.000 C 
BRANCH  18  19
ATOM     19  C   UNL     1       9.884  -1.875 -14.473  1.00  0.00    -0.003 C 
ATOM     20  C   UNL     1      10.527  -0.850 -13.541  1.00  0.00     0.004 C 
ENDBRANCH  18  19
ENDBRANCH  17  18
ENDBRANCH  16  17
ENDBRANCH  15  16
ENDBRANCH  14  15
ENDBRANCH  13  14
ENDBRANCH   2  13
TORSDOF 15
ENDMDL
MODEL 6
REMARK VINA RESULT:    -4.317     16.494     19.275
REMARK INTER + INTRA:          -9.611
REMARK INTER:                  -6.989
REMARK INTRA:                  -2.622
REMARK UNBOUND:                -1.508
REMARK SMILES CCCCCCCCC=CCCCCCCCC(=O)[O-]
REMARK SMILES IDX 10 1 9 2 11 3 12 4 13 5 14 6 15 7 16 8 17 9 18 10 19 11
REMARK SMILES IDX 20 12 8 13 7 14 6 15 5 16 4 17 3 18 2 19 1 20
REMARK H PARENT
REMARK Flexibility Score: inf
ROOT
ATOM      1  C   UNL     1       6.297  -2.393 -11.941  1.00  0.00    -0.031 C 
ATOM      2  C   UNL     1       5.832  -2.893 -13.095  1.00  0.00    -0.031 C 
ENDROOT
BRANCH   1   3
ATOM      3  C   UNL     1       6.907  -3.273 -10.885  1.00  0.00     0.027 C 
BRANCH   3   4
ATOM      4  C   UNL     1       8.385  -2.941 -10.617  1.00  0.00     0.004 C 
BRANCH   4   5
ATOM      5  C   UNL     1       8.915  -1.710 -11.381  1.00  0.00     0.000 C 
BRANCH   5   6
ATOM      6  C   UNL     1       9.960  -2.018 -12.468  1.00  0.00     0.000 C 
BRANCH   6   7
ATOM      7  C   UNL     1       9.378  -1.961 -13.888  1.00  0.00     0.000 C 
BRANCH   7   8
ATOM      8  C   UNL     1       9.213  -3.374 -14.468  1.00  0.00     0.006 C 
BRANCH   8   9
ATOM      9  C   UNL     1       9.964  -4.430 -13.646  1.00  0.00     0.053 C 
BRANCH   9  10
ATOM     10  C   UNL     1       9.116  -5.637 -13.385  1.00  0.00     0.041 C 
ATOM     11  O   UNL     1       7.864  -5.570 -13.507  1.00  0.00    -0.550 OA
ATOM     12  O   UNL     1       9.710  -6.842 -13.032  1.00  0.00    -0.550 OA
ENDBRANCH   9  10
ENDBRANCH   8   9
ENDBRANCH   7   8
ENDBRANCH   6   7
ENDBRANCH   5   6
ENDBRANCH   4   5
ENDBRANCH   3   4
ENDBRANCH   1   3
BRANCH   2  13
ATOM     13  C   UNL     1       5.250  -2.000 -14.155  1.00  0.00     0.027 C 
BRANCH  13  14
ATOM     14  C   UNL     1       4.988  -0.592 -13.600  1.00  0.00     0.004 C 
BRANCH  14  15
ATOM     15  C   UNL     1       5.141   0.509 -14.663  1.00  0.00     0.000 C 
BRANCH  15  16
ATOM     16  C   UNL     1       6.533   1.165 -14.721  1.00  0.00     0.000 C 
BRANCH  16  17
ATOM     17  C   UNL     1       7.319   1.027 -13.405  1.00  0.00    -0.000 C 
BRANCH  17  18
ATOM     18  C   UNL     1       7.405   2.361 -12.633  1.00  0.00    -0.000 C 
BRANCH  18  19
ATOM     19  C   UNL     1       6.690   3.524 -13.341  1.00  0.00    -0.003 C 
ATOM     20  C   UNL     1       5.650   4.211 -12.457  1.00  0.00     0.004 C 
ENDBRANCH  18  19
ENDBRANCH  17  18
ENDBRANCH  16  17
ENDBRANCH  15  16
ENDBRANCH  14  15
ENDBRANCH  13  14
ENDBRANCH   2  13
TORSDOF 15
ENDMDL
MODEL 7
REMARK VINA RESULT:    -4.219     15.266     18.122
REMARK INTER + INTRA:          -9.426
REMARK INTER:                  -7.398
REMARK INTRA:                  -2.028
REMARK UNBOUND:                -1.508
REMARK SMILES CCCCCCCCC=CCCCCCCCC(=O)[O-]
REMARK SMILES IDX 10 1 9 2 11 3 12 4 13 5 14 6 15 7 16 8 17 9 18 10 19 11
REMARK SMILES IDX 20 12 8 13 7 14 6 15 5 16 4 17 3 18 2 19 1 20
REMARK H PARENT
REMARK Flexibility Score: inf
ROOT
ATOM      1  C   UNL     1       6.814   1.378 -13.926  1.00  0.00    -0.031 C 
ATOM      2  C   UNL     1       7.507   1.815 -12.864  1.00  0.00    -0.031 C 
ENDROOT
BRANCH   1   3
ATOM      3  C   UNL     1       5.316   1.250 -13.896  1.00  0.00     0.027 C 
BRANCH   3   4
ATOM      4  C   UNL     1       4.831  -0.145 -14.328  1.00  0.00     0.004 C 
BRANCH   4   5
ATOM      5  C   UNL     1       5.955  -1.184 -14.521  1.00  0.00     0.000 C 
BRANCH   5   6
ATOM      6  C   UNL     1       5.867  -2.416 -13.604  1.00  0.00     0.000 C 
BRANCH   6   7
ATOM      7  C   UNL     1       6.117  -2.080 -12.127  1.00  0.00     0.000 C 
BRANCH   7   8
ATOM      8  C   UNL     1       7.587  -1.697 -11.896  1.00  0.00     0.006 C 
BRANCH   8   9
ATOM      9  C   UNL     1       8.240  -2.541 -10.792  1.00  0.00     0.053 C 
BRANCH   9  10
ATOM     10  C   UNL     1       7.729  -3.949 -10.793  1.00  0.00     0.041 C 
ATOM     11  O   UNL     1       8.177  -4.784 -11.623  1.00  0.00    -0.550 OA
ATOM     12  O   UNL     1       6.776  -4.345  -9.863  1.00  0.00    -0.550 OA
ENDBRANCH   9  10
ENDBRANCH   8   9
ENDBRANCH   7   8
ENDBRANCH   6   7
ENDBRANCH   5   6
ENDBRANCH   4   5
ENDBRANCH   3   4
ENDBRANCH   1   3
BRANCH   2  13
ATOM     13  C   UNL     1       9.002   1.966 -12.916  1.00  0.00     0.027 C 
BRANCH  13  14
ATOM     14  C   UNL     1       9.393   3.324 -13.517  1.00  0.00     0.004 C 
BRANCH  14  15
ATOM     15  C   UNL     1       8.715   4.510 -12.809  1.00  0.00     0.000 C 
BRANCH  15  16
ATOM     16  C   UNL     1       8.423   5.723 -13.712  1.00  0.00     0.000 C 
BRANCH  16  17
ATOM     17  C   UNL     1       6.951   6.172 -13.660  1.00  0.00    -0.000 C 
BRANCH  17  18
ATOM     18  C   UNL     1       5.982   4.979 -13.513  1.00  0.00    -0.000 C 
BRANCH  18  19
ATOM     19  C   UNL     1       5.032   5.107 -12.310  1.00  0.00    -0.003 C 
ATOM     20  C   UNL     1       3.753   4.285 -12.470  1.00  0.00     0.004 C 
ENDBRANCH  18  19
ENDBRANCH  17  18
ENDBRANCH  16  17
ENDBRANCH  15  16
ENDBRANCH  14  15
ENDBRANCH  13  14
ENDBRANCH   2  13
TORSDOF 15
ENDMDL
MODEL 8
REMARK VINA RESULT:    -4.194     16.000     18.679
REMARK INTER + INTRA:          -9.379
REMARK INTER:                  -6.280
REMARK INTRA:                  -3.100
REMARK UNBOUND:                -1.508
REMARK SMILES CCCCCCCCC=CCCCCCCCC(=O)[O-]
REMARK SMILES IDX 10 1 9 2 11 3 12 4 13 5 14 6 15 7 16 8 17 9 18 10 19 11
REMARK SMILES IDX 20 12 8 13 7 14 6 15 5 16 4 17 3 18 2 19 1 20
REMARK H PARENT
REMARK Flexibility Score: inf
ROOT
ATOM      1  C   UNL     1       7.138  -1.389 -12.152  1.00  0.00    -0.031 C 
ATOM      2  C   UNL     1       7.856  -2.153 -11.316  1.00  0.00    -0.031 C 
ENDROOT
BRANCH   1   3
ATOM      3  C   UNL     1       5.721  -1.735 -12.521  1.00  0.00     0.027 C 
BRANCH   3   4
ATOM      4  C   UNL     1       5.466  -1.653 -14.036  1.00  0.00     0.004 C 
BRANCH   4   5
ATOM      5  C   UNL     1       6.636  -1.066 -14.853  1.00  0.00     0.000 C 
BRANCH   5   6
ATOM      6  C   UNL     1       6.576   0.455 -15.076  1.00  0.00     0.000 C 
BRANCH   6   7
ATOM      7  C   UNL     1       7.824   1.184 -14.556  1.00  0.00     0.000 C 
BRANCH   7   8
ATOM      8  C   UNL     1       7.450   2.186 -13.453  1.00  0.00     0.006 C 
BRANCH   8   9
ATOM      9  C   UNL     1       5.961   2.558 -13.487  1.00  0.00     0.053 C 
BRANCH   9  10
ATOM     10  C   UNL     1       5.670   3.762 -12.645  1.00  0.00     0.041 C 
ATOM     11  O   UNL     1       4.769   3.718 -11.766  1.00  0.00    -0.550 OA
ATOM     12  O   UNL     1       6.411   4.925 -12.813  1.00  0.00    -0.550 OA
ENDBRANCH   9  10
ENDBRANCH   8   9
ENDBRANCH   7   8
ENDBRANCH   6   7
ENDBRANCH   5   6
ENDBRANCH   4   5
ENDBRANCH   3   4
ENDBRANCH   1   3
BRANCH   2  13
ATOM     13  C   UNL     1       9.262  -1.783 -10.932  1.00  0.00     0.027 C 
BRANCH  13  14
ATOM     14  C   UNL     1       9.885  -0.847 -11.979  1.00  0.00     0.004 C 
BRANCH  14  15
ATOM     15  C   UNL     1      10.811  -1.582 -12.963  1.00  0.00     0.000 C 
BRANCH  15  16
ATOM     16  C   UNL     1      10.270  -1.696 -14.400  1.00  0.00     0.000 C 
BRANCH  16  17
ATOM     17  C   UNL     1       9.724  -3.097 -14.730  1.00  0.00    -0.000 C 
BRANCH  17  18
ATOM     18  C   UNL     1      10.065  -4.128 -13.634  1.00  0.00    -0.000 C 
BRANCH  18  19
ATOM     19  C   UNL     1       8.932  -5.133 -13.364  1.00  0.00    -0.003 C 
ATOM     20  C   UNL     1       7.615  -4.742 -14.033  1.00  0.00     0.004 C 
ENDBRANCH  18  19
ENDBRANCH  17  18
ENDBRANCH  16  17
ENDBRANCH  15  16
ENDBRANCH  14  15
ENDBRANCH  13  14
ENDBRANCH   2  13
TORSDOF 15
ENDMDL
MODEL 9
REMARK VINA RESULT:    -4.181     14.919     17.346
REMARK INTER + INTRA:          -9.355
REMARK INTER:                  -7.355
REMARK INTRA:                  -2.001
REMARK UNBOUND:                -1.508
REMARK SMILES CCCCCCCCC=CCCCCCCCC(=O)[O-]
REMARK SMILES IDX 10 1 9 2 11 3 12 4 13 5 14 6 15 7 16 8 17 9 18 10 19 11
REMARK SMILES IDX 20 12 8 13 7 14 6 15 5 16 4 17 3 18 2 19 1 20
REMARK H PARENT
REMARK Flexibility Score: inf
ROOT
ATOM      1  C   UNL     1       7.630   1.590 -13.193  1.00  0.00    -0.031 C 
ATOM      2  C   UNL     1       7.431   1.377 -14.502  1.00  0.00    -0.031 C 
ENDROOT
BRANCH   1   3
ATOM      3  C   UNL     1       8.893   2.221 -12.676  1.00  0.00     0.027 C 
BRANCH   3   4
ATOM      4  C   UNL     1       8.656   3.618 -12.077  1.00  0.00     0.004 C 
BRANCH   4   5
ATOM      5  C   UNL     1       9.039   4.789 -13.006  1.00  0.00     0.000 C 
BRANCH   5   6
ATOM      6  C   UNL     1       7.858   5.643 -13.499  1.00  0.00     0.000 C 
BRANCH   6   7
ATOM      7  C   UNL     1       7.094   4.992 -14.661  1.00  0.00     0.000 C 
BRANCH   7   8
ATOM      8  C   UNL     1       5.579   5.042 -14.415  1.00  0.00     0.006 C 
BRANCH   8   9
ATOM      9  C   UNL     1       5.231   5.688 -13.067  1.00  0.00     0.053 C 
BRANCH   9  10
ATOM     10  C   UNL     1       4.482   4.745 -12.175  1.00  0.00     0.041 C 
ATOM     11  O   UNL     1       3.312   5.021 -11.801  1.00  0.00    -0.550 OA
ATOM     12  O   UNL     1       5.068   3.550 -11.778  1.00  0.00    -0.550 OA
ENDBRANCH   9  10
ENDBRANCH   8   9
ENDBRANCH   7   8
ENDBRANCH   6   7
ENDBRANCH   5   6
ENDBRANCH   4   5
ENDBRANCH   3   4
ENDBRANCH   1   3
BRANCH   2  13
ATOM     13  C   UNL     1       6.152   0.772 -15.010  1.00  0.00     0.027 C 
BRANCH  13  14
ATOM     14  C   UNL     1       5.136   0.609 -13.871  1.00  0.00     0.004 C 
BRANCH  14  15
ATOM     15  C   UNL     1       4.781  -0.862 -13.591  1.00  0.00     0.000 C 
BRANCH  15  16
ATOM     16  C   UNL     1       5.990  -1.808 -13.473  1.00  0.00     0.000 C 
BRANCH  16  17
ATOM     17  C   UNL     1       6.630  -1.795 -12.073  1.00  0.00    -0.000 C 
BRANCH  17  18
ATOM     18  C   UNL     1       6.347  -3.094 -11.289  1.00  0.00    -0.000 C 
BRANCH  18  19
ATOM     19  C   UNL     1       7.558  -3.605 -10.491  1.00  0.00    -0.003 C 
ATOM     20  C   UNL     1       8.556  -4.378 -11.352  1.00  0.00     0.004 C 
ENDBRANCH  18  19
ENDBRANCH  17  18
ENDBRANCH  16  17
ENDBRANCH  15  16
ENDBRANCH  14  15
ENDBRANCH  13  14
ENDBRANCH   2  13
TORSDOF 15
ENDMDL
