MODEL 1
REMARK VINA RESULT:    -4.465      0.000      0.000
REMARK INTER + INTRA:         -10.342
REMARK INTER:                  -8.642
REMARK INTRA:                  -1.700
REMARK UNBOUND:                -1.700
REMARK SMILES CCCCCCCCCCCCCCCCCC(=O)[O-]
REMARK SMILES IDX 10 1 11 2 12 3 13 4 14 5 15 6 16 7 17 8 18 9 19 10 20 11
REMARK SMILES IDX 9 12 8 13 7 14 6 15 5 16 4 17 3 18 2 19 1 20
REMARK H PARENT
REMARK Flexibility Score: inf
ROOT
ATOM      1  C   UNL     1     -12.672   3.750 -40.561  1.00  0.00     0.000 C 
ENDROOT
BRANCH   1   2
ATOM      2  C   UNL     1     -12.158   3.197 -41.900  1.00  0.00     0.000 C 
BRANCH   2   3
ATOM      3  C   UNL     1     -12.292   4.215 -43.043  1.00  0.00     0.000 C 
BRANCH   3   4
ATOM      4  C   UNL     1     -13.188   5.409 -42.665  1.00  0.00     0.000 C 
BRANCH   4   5
ATOM      5  C   UNL     1     -14.584   5.325 -43.314  1.00  0.00     0.000 C 
BRANCH   5   6
ATOM      6  C   UNL     1     -15.669   6.142 -42.586  1.00  0.00     0.000 C 
BRANCH   6   7
ATOM      7  C   UNL     1     -15.837   5.779 -41.096  1.00  0.00     0.006 C 
BRANCH   7   8
ATOM      8  C   UNL     1     -17.287   5.423 -40.744  1.00  0.00     0.053 C 
BRANCH   8   9
ATOM      9  C   UNL     1     -17.503   3.946 -40.846  1.00  0.00     0.041 C 
ATOM     10  O   UNL     1     -18.456   3.491 -41.530  1.00  0.00    -0.550 OA
ATOM     11  O   UNL     1     -16.621   3.071 -40.224  1.00  0.00    -0.550 OA
ENDBRANCH   8   9
ENDBRANCH   7   8
ENDBRANCH   6   7
ENDBRANCH   5   6
ENDBRANCH   4   5
ENDBRANCH   3   4
ENDBRANCH   2   3
ENDBRANCH   1   2
BRANCH   1  12
ATOM     12  C   UNL     1     -11.594   3.751 -39.462  1.00  0.00     0.000 C 
BRANCH  12  13
ATOM     13  C   UNL     1     -10.308   2.974 -39.812  1.00  0.00    -0.000 C 
BRANCH  13  14
ATOM     14  C   UNL     1     -10.233   1.540 -39.248  1.00  0.00    -0.000 C 
BRANCH  14  15
ATOM     15  C   UNL     1      -9.687   0.486 -40.229  1.00  0.00    -0.000 C 
BRANCH  15  16
ATOM     16  C   UNL     1     -10.747  -0.159 -41.142  1.00  0.00    -0.000 C 
BRANCH  16  17
ATOM     17  C   UNL     1     -12.141  -0.275 -40.490  1.00  0.00    -0.000 C 
BRANCH  17  18
ATOM     18  C   UNL     1     -12.295  -1.560 -39.657  1.00  0.00    -0.000 C 
BRANCH  18  19
ATOM     19  C   UNL     1     -13.707  -2.158 -39.749  1.00  0.00    -0.003 C 
ATOM     20  C   UNL     1     -14.727  -1.173 -40.323  1.00  0.00     0.004 C 
ENDBRANCH  18  19
ENDBRANCH  17  18
ENDBRANCH  16  17
ENDBRANCH  15  16
ENDBRANCH  14  15
ENDBRANCH  13  14
ENDBRANCH  12  13
ENDBRANCH   1  12
TORSDOF 16
ENDMDL
MODEL 2
REMARK VINA RESULT:    -4.335      2.896      6.934
REMARK INTER + INTRA:         -10.091
REMARK INTER:                  -7.516
REMARK INTRA:                  -2.575
REMARK UNBOUND:                -1.700
REMARK SMILES CCCCCCCCCCCCCCCCCC(=O)[O-]
REMARK SMILES IDX 10 1 11 2 12 3 13 4 14 5 15 6 16 7 17 8 18 9 19 10 20 11
REMARK SMILES IDX 9 12 8 13 7 14 6 15 5 16 4 17 3 18 2 19 1 20
REMARK H PARENT
REMARK Flexibility Score: inf
ROOT
ATOM      1  C   UNL     1     -16.303   4.983 -44.844  1.00  0.00     0.000 C 
ENDROOT
BRANCH   1   2
ATOM      2  C   UNL     1     -14.930   4.881 -45.530  1.00  0.00     0.000 C 
BRANCH   2   3
ATOM      3  C   UNL     1     -13.772   5.198 -44.571  1.00  0.00     0.000 C 
BRANCH   3   4
ATOM      4  C   UNL     1     -14.160   4.999 -43.094  1.00  0.00     0.000 C 
BRANCH   4   5
ATOM      5  C   UNL     1     -13.157   5.662 -42.129  1.00  0.00     0.000 C 
BRANCH   5   6
ATOM      6  C   UNL     1     -12.927   4.878 -40.822  1.00  0.00     0.000 C 
BRANCH   6   7
ATOM      7  C   UNL     1     -11.467   4.437 -40.600  1.00  0.00     0.006 C 
BRANCH   7   8
ATOM      8  C   UNL     1     -11.369   3.048 -39.957  1.00  0.00     0.053 C 
BRANCH   8   9
ATOM      9  C   UNL     1     -11.330   1.986 -41.009  1.00  0.00     0.041 C 
ATOM     10  O   UNL     1     -10.409   1.976 -41.867  1.00  0.00    -0.550 OA
ATOM     11  O   UNL     1     -12.285   0.977 -41.012  1.00  0.00    -0.550 OA
ENDBRANCH   8   9
ENDBRANCH   7   8
ENDBRANCH   6   7
ENDBRANCH   5   6
ENDBRANCH   4   5
ENDBRANCH   3   4
ENDBRANCH   2   3
ENDBRANCH   1   2
BRANCH   1  12
ATOM     12  C   UNL     1     -16.997   6.333 -45.098  1.00  0.00     0.000 C 
BRANCH  12  13
ATOM     13  C   UNL     1     -17.407   7.104 -43.826  1.00  0.00    -0.000 C 
BRANCH  13  14
ATOM     14  C   UNL     1     -16.293   7.960 -43.190  1.00  0.00    -0.000 C 
BRANCH  14  15
ATOM     15  C   UNL     1     -16.199   7.866 -41.656  1.00  0.00    -0.000 C 
BRANCH  15  16
ATOM     16  C   UNL     1     -17.552   7.757 -40.929  1.00  0.00    -0.000 C 
BRANCH  16  17
ATOM     17  C   UNL     1     -17.758   6.414 -40.197  1.00  0.00    -0.000 C 
BRANCH  17  18
ATOM     18  C   UNL     1     -16.529   5.493 -40.301  1.00  0.00    -0.000 C 
BRANCH  18  19
ATOM     19  C   UNL     1     -16.898   4.062 -40.720  1.00  0.00    -0.003 C 
ATOM     20  C   UNL     1     -18.056   4.020 -41.718  1.00  0.00     0.004 C 
ENDBRANCH  18  19
ENDBRANCH  17  18
ENDBRANCH  16  17
ENDBRANCH  15  16
ENDBRANCH  14  15
ENDBRANCH  13  14
ENDBRANCH  12  13
ENDBRANCH   1  12
TORSDOF 16
ENDMDL
MODEL 3
REMARK VINA RESULT:    -4.323      2.539      7.651
REMARK INTER + INTRA:         -10.067
REMARK INTER:                  -8.237
REMARK INTRA:                  -1.831
REMARK UNBOUND:                -1.700
REMARK SMILES CCCCCCCCCCCCCCCCCC(=O)[O-]
REMARK SMILES IDX 10 1 11 2 12 3 13 4 14 5 15 6 16 7 17 8 18 9 19 10 20 11
REMARK SMILES IDX 9 12 8 13 7 14 6 15 5 16 4 17 3 18 2 19 1 20
REMARK H PARENT
REMARK Flexibility Score: inf
ROOT
ATOM      1  C   UNL     1     -14.947   5.258 -42.560  1.00  0.00     0.000 C 
ENDROOT
BRANCH   1   2
ATOM      2  C   UNL     1     -13.503   5.236 -43.087  1.00  0.00     0.000 C 
BRANCH   2   3
ATOM      3  C   UNL     1     -12.503   4.739 -42.032  1.00  0.00     0.000 C 
BRANCH   3   4
ATOM      4  C   UNL     1     -11.834   3.412 -42.434  1.00  0.00     0.000 C 
BRANCH   4   5
ATOM      5  C   UNL     1     -11.725   2.427 -41.252  1.00  0.00     0.000 C 
BRANCH   5   6
ATOM      6  C   UNL     1     -10.574   1.411 -41.382  1.00  0.00     0.000 C 
BRANCH   6   7
ATOM      7  C   UNL     1     -10.970  -0.038 -41.037  1.00  0.00     0.006 C 
BRANCH   7   8
ATOM      8  C   UNL     1     -12.458  -0.168 -40.685  1.00  0.00     0.053 C 
BRANCH   8   9
ATOM      9  C   UNL     1     -12.717  -1.456 -39.970  1.00  0.00     0.041 C 
ATOM     10  O   UNL     1     -11.795  -2.020 -39.326  1.00  0.00    -0.550 OA
ATOM     11  O   UNL     1     -13.992  -2.008 -39.977  1.00  0.00    -0.550 OA
ENDBRANCH   8   9
ENDBRANCH   7   8
ENDBRANCH   6   7
ENDBRANCH   5   6
ENDBRANCH   4   5
ENDBRANCH   3   4
ENDBRANCH   2   3
ENDBRANCH   1   2
BRANCH   1  12
ATOM     12  C   UNL     1     -15.045   4.877 -41.072  1.00  0.00     0.000 C 
BRANCH  12  13
ATOM     13  C   UNL     1     -16.460   4.496 -40.590  1.00  0.00    -0.000 C 
BRANCH  13  14
ATOM     14  C   UNL     1     -17.564   4.577 -41.664  1.00  0.00    -0.000 C 
BRANCH  14  15
ATOM     15  C   UNL     1     -18.474   5.815 -41.566  1.00  0.00    -0.000 C 
BRANCH  15  16
ATOM     16  C   UNL     1     -18.180   6.742 -40.371  1.00  0.00    -0.000 C 
BRANCH  16  17
ATOM     17  C   UNL     1     -17.389   8.012 -40.749  1.00  0.00    -0.000 C 
BRANCH  17  18
ATOM     18  C   UNL     1     -17.229   8.174 -42.272  1.00  0.00    -0.000 C 
BRANCH  18  19
ATOM     19  C   UNL     1     -15.952   8.938 -42.653  1.00  0.00    -0.003 C 
ATOM     20  C   UNL     1     -14.864   8.838 -41.583  1.00  0.00     0.004 C 
ENDBRANCH  18  19
ENDBRANCH  17  18
ENDBRANCH  16  17
ENDBRANCH  15  16
ENDBRANCH  14  15
ENDBRANCH  13  14
ENDBRANCH  12  13
ENDBRANCH   1  12
TORSDOF 16
ENDMDL
MODEL 4
REMARK VINA RESULT:    -4.280      2.506      5.348
REMARK INTER + INTRA:          -9.984
REMARK INTER:                  -7.331
REMARK INTRA:                  -2.653
REMARK UNBOUND:                -1.700
REMARK SMILES CCCCCCCCCCCCCCCCCC(=O)[O-]
REMARK SMILES IDX 10 1 11 2 12 3 13 4 14 5 15 6 16 7 17 8 18 9 19 10 20 11
REMARK SMILES IDX 9 12 8 13 7 14 6 15 5 16 4 17 3 18 2 19 1 20
REMARK H PARENT
REMARK Flexibility Score: inf
ROOT
ATOM      1  C   UNL     1     -14.737   4.819 -45.482  1.00  0.00     0.000 C 
ENDROOT
BRANCH   1   2
ATOM      2  C   UNL     1     -15.981   4.970 -44.590  1.00  0.00     0.000 C 
BRANCH   2   3
ATOM      3  C   UNL     1     -16.746   6.272 -44.869  1.00  0.00     0.000 C 
BRANCH   3   4
ATOM      4  C   UNL     1     -16.716   7.240 -43.671  1.00  0.00     0.000 C 
BRANCH   4   5
ATOM      5  C   UNL     1     -17.608   6.762 -42.508  1.00  0.00     0.000 C 
BRANCH   5   6
ATOM      6  C   UNL     1     -16.977   6.944 -41.114  1.00  0.00     0.000 C 
BRANCH   6   7
ATOM      7  C   UNL     1     -17.139   5.725 -40.184  1.00  0.00     0.006 C 
BRANCH   7   8
ATOM      8  C   UNL     1     -16.600   4.435 -40.817  1.00  0.00     0.053 C 
BRANCH   8   9
ATOM      9  C   UNL     1     -17.654   3.374 -40.824  1.00  0.00     0.041 C 
ATOM     10  O   UNL     1     -17.497   2.319 -40.156  1.00  0.00    -0.550 OA
ATOM     11  O   UNL     1     -18.834   3.573 -41.530  1.00  0.00    -0.550 OA
ENDBRANCH   8   9
ENDBRANCH   7   8
ENDBRANCH   6   7
ENDBRANCH   5   6
ENDBRANCH   4   5
ENDBRANCH   3   4
ENDBRANCH   2   3
ENDBRANCH   1   2
BRANCH   1  12
ATOM     12  C   UNL     1     -14.430   6.089 -46.296  1.00  0.00     0.000 C 
BRANCH  12  13
ATOM     13  C   UNL     1     -13.076   6.755 -45.975  1.00  0.00    -0.000 C 
BRANCH  13  14
ATOM     14  C   UNL     1     -12.159   5.957 -45.026  1.00  0.00    -0.000 C 
BRANCH  14  15
ATOM     15  C   UNL     1     -11.888   6.629 -43.668  1.00  0.00    -0.000 C 
BRANCH  15  16
ATOM     16  C   UNL     1     -13.149   7.045 -42.887  1.00  0.00    -0.000 C 
BRANCH  16  17
ATOM     17  C   UNL     1     -13.470   6.124 -41.691  1.00  0.00    -0.000 C 
BRANCH  17  18
ATOM     18  C   UNL     1     -13.173   4.644 -41.991  1.00  0.00    -0.000 C 
BRANCH  18  19
ATOM     19  C   UNL     1     -12.505   3.924 -40.810  1.00  0.00    -0.003 C 
ATOM     20  C   UNL     1     -12.089   2.493 -41.151  1.00  0.00     0.004 C 
ENDBRANCH  18  19
ENDBRANCH  17  18
ENDBRANCH  16  17
ENDBRANCH  15  16
ENDBRANCH  14  15
ENDBRANCH  13  14
ENDBRANCH  12  13
ENDBRANCH   1  12
TORSDOF 16
ENDMDL
MODEL 5
REMARK VINA RESULT:    -4.279      3.221      7.488
REMARK INTER + INTRA:          -9.982
REMARK INTER:                  -7.827
REMARK INTRA:                  -2.156
REMARK UNBOUND:                -1.700
REMARK SMILES CCCCCCCCCCCCCCCCCC(=O)[O-]
REMARK SMILES IDX 10 1 11 2 12 3 13 4 14 5 15 6 16 7 17 8 18 9 19 10 20 11
REMARK SMILES IDX 9 12 8 13 7 14 6 15 5 16 4 17 3 18 2 19 1 20
REMARK H PARENT
REMARK Flexibility Score: inf
ROOT
ATOM      1  C   UNL     1     -14.023   4.998 -42.975  1.00  0.00     0.000 C 
ENDROOT
BRANCH   1   2
ATOM      2  C   UNL     1     -13.708   5.991 -41.845  1.00  0.00     0.000 C 
BRANCH   2   3
ATOM      3  C   UNL     1     -13.251   5.287 -40.558  1.00  0.00     0.000 C 
BRANCH   3   4
ATOM      4  C   UNL     1     -13.094   3.767 -40.743  1.00  0.00     0.000 C 
BRANCH   4   5
ATOM      5  C   UNL     1     -11.646   3.292 -40.506  1.00  0.00     0.000 C 
BRANCH   5   6
ATOM      6  C   UNL     1     -11.206   2.130 -41.417  1.00  0.00     0.000 C 
BRANCH   6   7
ATOM      7  C   UNL     1     -11.837   0.771 -41.055  1.00  0.00     0.006 C 
BRANCH   7   8
ATOM      8  C   UNL     1     -11.074   0.054 -39.934  1.00  0.00     0.053 C 
BRANCH   8   9
ATOM      9  C   UNL     1     -10.442  -1.200 -40.449  1.00  0.00     0.041 C 
ATOM     10  O   UNL     1     -10.133  -2.126 -39.655  1.00  0.00    -0.550 OA
ATOM     11  O   UNL     1     -10.239  -1.365 -41.814  1.00  0.00    -0.550 OA
ENDBRANCH   8   9
ENDBRANCH   7   8
ENDBRANCH   6   7
ENDBRANCH   5   6
ENDBRANCH   4   5
ENDBRANCH   3   4
ENDBRANCH   2   3
ENDBRANCH   1   2
BRANCH   1  12
ATOM     12  C   UNL     1     -15.146   5.490 -43.906  1.00  0.00     0.000 C 
BRANCH  12  13
ATOM     13  C   UNL     1     -15.544   6.968 -43.720  1.00  0.00    -0.000 C 
BRANCH  13  14
ATOM     14  C   UNL     1     -16.934   7.348 -44.271  1.00  0.00    -0.000 C 
BRANCH  14  15
ATOM     15  C   UNL     1     -18.104   7.105 -43.300  1.00  0.00    -0.000 C 
BRANCH  15  16
ATOM     16  C   UNL     1     -17.820   7.485 -41.835  1.00  0.00    -0.000 C 
BRANCH  16  17
ATOM     17  C   UNL     1     -18.224   6.394 -40.821  1.00  0.00    -0.000 C 
BRANCH  17  18
ATOM     18  C   UNL     1     -17.009   5.634 -40.260  1.00  0.00    -0.000 C 
BRANCH  18  19
ATOM     19  C   UNL     1     -16.916   4.195 -40.790  1.00  0.00    -0.003 C 
ATOM     20  C   UNL     1     -18.179   3.758 -41.531  1.00  0.00     0.004 C 
ENDBRANCH  18  19
ENDBRANCH  17  18
ENDBRANCH  16  17
ENDBRANCH  15  16
ENDBRANCH  14  15
ENDBRANCH  13  14
ENDBRANCH  12  13
ENDBRANCH   1  12
TORSDOF 16
ENDMDL
MODEL 6
REMARK VINA RESULT:    -4.230      1.457      2.035
REMARK INTER + INTRA:          -9.888
REMARK INTER:                  -8.258
REMARK INTRA:                  -1.630
REMARK UNBOUND:                -1.700
REMARK SMILES CCCCCCCCCCCCCCCCCC(=O)[O-]
REMARK SMILES IDX 10 1 11 2 12 3 13 4 14 5 15 6 16 7 17 8 18 9 19 10 20 11
REMARK SMILES IDX 9 12 8 13 7 14 6 15 5 16 4 17 3 18 2 19 1 20
REMARK H PARENT
REMARK Flexibility Score: inf
ROOT
ATOM      1  C   UNL     1     -10.353   1.212 -41.080  1.00  0.00     0.000 C 
ENDROOT
BRANCH   1   2
ATOM      2  C   UNL     1     -11.772   1.804 -41.129  1.00  0.00     0.000 C 
BRANCH   2   3
ATOM      3  C   UNL     1     -11.837   3.099 -41.953  1.00  0.00     0.000 C 
BRANCH   3   4
ATOM      4  C   UNL     1     -12.323   4.301 -41.121  1.00  0.00     0.000 C 
BRANCH   4   5
ATOM      5  C   UNL     1     -13.797   4.160 -40.692  1.00  0.00     0.000 C 
BRANCH   5   6
ATOM      6  C   UNL     1     -14.659   5.406 -40.978  1.00  0.00     0.000 C 
BRANCH   6   7
ATOM      7  C   UNL     1     -16.101   5.311 -40.441  1.00  0.00     0.006 C 
BRANCH   7   8
ATOM      8  C   UNL     1     -16.712   3.920 -40.654  1.00  0.00     0.053 C 
BRANCH   8   9
ATOM      9  C   UNL     1     -17.720   3.953 -41.758  1.00  0.00     0.041 C 
ATOM     10  O   UNL     1     -18.930   3.703 -41.519  1.00  0.00    -0.550 OA
ATOM     11  O   UNL     1     -17.330   4.309 -43.043  1.00  0.00    -0.550 OA
ENDBRANCH   8   9
ENDBRANCH   7   8
ENDBRANCH   6   7
ENDBRANCH   5   6
ENDBRANCH   4   5
ENDBRANCH   3   4
ENDBRANCH   2   3
ENDBRANCH   1   2
BRANCH   1  12
ATOM     12  C   UNL     1      -9.356   2.113 -40.331  1.00  0.00     0.000 C 
BRANCH  12  13
ATOM     13  C   UNL     1      -9.796   2.533 -38.913  1.00  0.00    -0.000 C 
BRANCH  13  14
ATOM     14  C   UNL     1     -10.148   1.370 -37.963  1.00  0.00    -0.000 C 
BRANCH  14  15
ATOM     15  C   UNL     1      -9.133   0.212 -37.952  1.00  0.00    -0.000 C 
BRANCH  15  16
ATOM     16  C   UNL     1      -9.699  -1.150 -38.397  1.00  0.00    -0.000 C 
BRANCH  16  17
ATOM     17  C   UNL     1     -11.241  -1.216 -38.382  1.00  0.00    -0.000 C 
BRANCH  17  18
ATOM     18  C   UNL     1     -11.811  -1.937 -39.616  1.00  0.00    -0.000 C 
BRANCH  18  19
ATOM     19  C   UNL     1     -13.322  -2.194 -39.505  1.00  0.00    -0.003 C 
ATOM     20  C   UNL     1     -14.153  -1.166 -40.272  1.00  0.00     0.004 C 
ENDBRANCH  18  19
ENDBRANCH  17  18
ENDBRANCH  16  17
ENDBRANCH  15  16
ENDBRANCH  14  15
ENDBRANCH  13  14
ENDBRANCH  12  13
ENDBRANCH   1  12
TORSDOF 16
ENDMDL
MODEL 7
REMARK VINA RESULT:    -4.219      2.680      7.640
REMARK INTER + INTRA:          -9.866
REMARK INTER:                  -8.209
REMARK INTRA:                  -1.657
REMARK UNBOUND:                -1.700
REMARK SMILES CCCCCCCCCCCCCCCCCC(=O)[O-]
REMARK SMILES IDX 10 1 11 2 12 3 13 4 14 5 15 6 16 7 17 8 18 9 19 10 20 11
REMARK SMILES IDX 9 12 8 13 7 14 6 15 5 16 4 17 3 18 2 19 1 20
REMARK H PARENT
REMARK Flexibility Score: inf
ROOT
ATOM      1  C   UNL     1     -14.834   4.610 -40.666  1.00  0.00     0.000 C 
ENDROOT
BRANCH   1   2
ATOM      2  C   UNL     1     -14.011   5.241 -41.801  1.00  0.00     0.000 C 
BRANCH   2   3
ATOM      3  C   UNL     1     -12.792   4.387 -42.184  1.00  0.00     0.000 C 
BRANCH   3   4
ATOM      4  C   UNL     1     -12.376   3.420 -41.061  1.00  0.00     0.000 C 
BRANCH   4   5
ATOM      5  C   UNL     1     -11.489   2.269 -41.577  1.00  0.00     0.000 C 
BRANCH   5   6
ATOM      6  C   UNL     1     -11.881   0.880 -41.037  1.00  0.00     0.000 C 
BRANCH   6   7
ATOM      7  C   UNL     1     -10.693  -0.088 -40.866  1.00  0.00     0.006 C 
BRANCH   7   8
ATOM      8  C   UNL     1     -11.147  -1.514 -40.525  1.00  0.00     0.053 C 
BRANCH   8   9
ATOM      9  C   UNL     1     -11.904  -1.529 -39.236  1.00  0.00     0.041 C 
ATOM     10  O   UNL     1     -11.355  -1.136 -38.174  1.00  0.00    -0.550 OA
ATOM     11  O   UNL     1     -13.234  -1.932 -39.216  1.00  0.00    -0.550 OA
ENDBRANCH   8   9
ENDBRANCH   7   8
ENDBRANCH   6   7
ENDBRANCH   5   6
ENDBRANCH   4   5
ENDBRANCH   3   4
ENDBRANCH   2   3
ENDBRANCH   1   2
BRANCH   1  12
ATOM     12  C   UNL     1     -16.338   4.536 -40.989  1.00  0.00     0.000 C 
BRANCH  12  13
ATOM     13  C   UNL     1     -17.191   5.665 -40.376  1.00  0.00    -0.000 C 
BRANCH  13  14
ATOM     14  C   UNL     1     -18.286   6.237 -41.300  1.00  0.00    -0.000 C 
BRANCH  14  15
ATOM     15  C   UNL     1     -18.051   7.686 -41.764  1.00  0.00    -0.000 C 
BRANCH  15  16
ATOM     16  C   UNL     1     -17.817   7.851 -43.277  1.00  0.00    -0.000 C 
BRANCH  16  17
ATOM     17  C   UNL     1     -16.582   7.090 -43.802  1.00  0.00    -0.000 C 
BRANCH  17  18
ATOM     18  C   UNL     1     -16.941   6.065 -44.892  1.00  0.00    -0.000 C 
BRANCH  18  19
ATOM     19  C   UNL     1     -16.137   4.762 -44.766  1.00  0.00    -0.003 C 
ATOM     20  C   UNL     1     -14.841   4.788 -45.575  1.00  0.00     0.004 C 
ENDBRANCH  18  19
ENDBRANCH  17  18
ENDBRANCH  16  17
ENDBRANCH  15  16
ENDBRANCH  14  15
ENDBRANCH  13  14
ENDBRANCH  12  13
ENDBRANCH   1  12
TORSDOF 16
ENDMDL
MODEL 8
REMARK VINA RESULT:    -4.214      1.834      2.500
REMARK INTER + INTRA:          -9.856
REMARK INTER:                  -8.438
REMARK INTRA:                  -1.417
REMARK UNBOUND:                -1.700
REMARK SMILES CCCCCCCCCCCCCCCCCC(=O)[O-]
REMARK SMILES IDX 10 1 11 2 12 3 13 4 14 5 15 6 16 7 17 8 18 9 19 10 20 11
REMARK SMILES IDX 9 12 8 13 7 14 6 15 5 16 4 17 3 18 2 19 1 20
REMARK H PARENT
REMARK Flexibility Score: inf
ROOT
ATOM      1  C   UNL     1     -10.666   1.210 -41.504  1.00  0.00     0.000 C 
ENDROOT
BRANCH   1   2
ATOM      2  C   UNL     1     -11.965   1.734 -40.869  1.00  0.00     0.000 C 
BRANCH   2   3
ATOM      3  C   UNL     1     -11.981   3.266 -40.751  1.00  0.00     0.000 C 
BRANCH   3   4
ATOM      4  C   UNL     1     -13.411   3.839 -40.738  1.00  0.00     0.000 C 
BRANCH   4   5
ATOM      5  C   UNL     1     -13.624   4.911 -41.825  1.00  0.00     0.000 C 
BRANCH   5   6
ATOM      6  C   UNL     1     -15.076   5.414 -41.938  1.00  0.00     0.000 C 
BRANCH   6   7
ATOM      7  C   UNL     1     -15.872   5.345 -40.619  1.00  0.00     0.006 C 
BRANCH   7   8
ATOM      8  C   UNL     1     -17.383   5.234 -40.856  1.00  0.00     0.053 C 
BRANCH   8   9
ATOM      9  C   UNL     1     -18.020   6.587 -40.824  1.00  0.00     0.041 C 
ATOM     10  O   UNL     1     -18.510   7.082 -41.872  1.00  0.00    -0.550 OA
ATOM     11  O   UNL     1     -18.115   7.280 -39.624  1.00  0.00    -0.550 OA
ENDBRANCH   8   9
ENDBRANCH   7   8
ENDBRANCH   6   7
ENDBRANCH   5   6
ENDBRANCH   4   5
ENDBRANCH   3   4
ENDBRANCH   2   3
ENDBRANCH   1   2
BRANCH   1  12
ATOM     12  C   UNL     1      -9.403   1.731 -40.796  1.00  0.00     0.000 C 
BRANCH  12  13
ATOM     13  C   UNL     1      -8.679   0.695 -39.911  1.00  0.00    -0.000 C 
BRANCH  13  14
ATOM     14  C   UNL     1      -7.989  -0.454 -40.675  1.00  0.00    -0.000 C 
BRANCH  14  15
ATOM     15  C   UNL     1      -8.381  -1.869 -40.211  1.00  0.00    -0.000 C 
BRANCH  15  16
ATOM     16  C   UNL     1      -9.847  -2.257 -40.482  1.00  0.00    -0.000 C 
BRANCH  16  17
ATOM     17  C   UNL     1     -10.676  -2.484 -39.201  1.00  0.00    -0.000 C 
BRANCH  17  18
ATOM     18  C   UNL     1     -11.889  -1.541 -39.111  1.00  0.00    -0.000 C 
BRANCH  18  19
ATOM     19  C   UNL     1     -13.205  -2.234 -39.496  1.00  0.00    -0.003 C 
ATOM     20  C   UNL     1     -14.178  -1.295 -40.210  1.00  0.00     0.004 C 
ENDBRANCH  18  19
ENDBRANCH  17  18
ENDBRANCH  16  17
ENDBRANCH  15  16
ENDBRANCH  14  15
ENDBRANCH  13  14
ENDBRANCH  12  13
ENDBRANCH   1  12
TORSDOF 16
ENDMDL
MODEL 9
REMARK VINA RESULT:    -4.208      1.487      2.771
REMARK INTER + INTRA:          -9.844
REMARK INTER:                  -8.239
REMARK INTRA:                  -1.604
REMARK UNBOUND:                -1.700
REMARK SMILES CCCCCCCCCCCCCCCCCC(=O)[O-]
REMARK SMILES IDX 10 1 11 2 12 3 13 4 14 5 15 6 16 7 17 8 18 9 19 10 20 11
REMARK SMILES IDX 9 12 8 13 7 14 6 15 5 16 4 17 3 18 2 19 1 20
REMARK H PARENT
REMARK Flexibility Score: inf
ROOT
ATOM      1  C   UNL     1     -14.250   5.177 -42.257  1.00  0.00     0.000 C 
ENDROOT
BRANCH   1   2
ATOM      2  C   UNL     1     -14.384   6.580 -42.871  1.00  0.00     0.000 C 
BRANCH   2   3
ATOM      3  C   UNL     1     -14.410   7.685 -41.804  1.00  0.00     0.000 C 
BRANCH   3   4
ATOM      4  C   UNL     1     -15.660   8.578 -41.912  1.00  0.00     0.000 C 
BRANCH   4   5
ATOM      5  C   UNL     1     -16.831   8.055 -41.056  1.00  0.00     0.000 C 
BRANCH   5   6
ATOM      6  C   UNL     1     -18.043   7.570 -41.875  1.00  0.00     0.000 C 
BRANCH   6   7
ATOM      7  C   UNL     1     -18.631   6.228 -41.396  1.00  0.00     0.006 C 
BRANCH   7   8
ATOM      8  C   UNL     1     -17.588   5.354 -40.687  1.00  0.00     0.053 C 
BRANCH   8   9
ATOM      9  C   UNL     1     -17.652   3.948 -41.191  1.00  0.00     0.041 C 
ATOM     10  O   UNL     1     -17.795   3.721 -42.421  1.00  0.00    -0.550 OA
ATOM     11  O   UNL     1     -17.504   2.886 -40.307  1.00  0.00    -0.550 OA
ENDBRANCH   8   9
ENDBRANCH   7   8
ENDBRANCH   6   7
ENDBRANCH   5   6
ENDBRANCH   4   5
ENDBRANCH   3   4
ENDBRANCH   2   3
ENDBRANCH   1   2
BRANCH   1  12
ATOM     12  C   UNL     1     -13.908   5.212 -40.757  1.00  0.00     0.000 C 
BRANCH  12  13
ATOM     13  C   UNL     1     -12.821   4.212 -40.313  1.00  0.00    -0.000 C 
BRANCH  13  14
ATOM     14  C   UNL     1     -12.245   3.326 -41.436  1.00  0.00    -0.000 C 
BRANCH  14  15
ATOM     15  C   UNL     1     -12.172   1.825 -41.105  1.00  0.00    -0.000 C 
BRANCH  15  16
ATOM     16  C   UNL     1     -10.756   1.221 -41.144  1.00  0.00    -0.000 C 
BRANCH  16  17
ATOM     17  C   UNL     1     -10.740  -0.317 -41.275  1.00  0.00    -0.000 C 
BRANCH  17  18
ATOM     18  C   UNL     1     -10.284  -1.013 -39.980  1.00  0.00    -0.000 C 
BRANCH  18  19
ATOM     19  C   UNL     1     -11.456  -1.348 -39.046  1.00  0.00    -0.003 C 
ATOM     20  C   UNL     1     -12.723  -1.739 -39.807  1.00  0.00     0.004 C 
ENDBRANCH  18  19
ENDBRANCH  17  18
ENDBRANCH  16  17
ENDBRANCH  15  16
ENDBRANCH  14  15
ENDBRANCH  13  14
ENDBRANCH  12  13
ENDBRANCH   1  12
TORSDOF 16
ENDMDL
