MODEL 1
REMARK VINA RESULT:    -4.812      0.000      0.000
REMARK INTER + INTRA:          -5.650
REMARK INTER:                  -5.515
REMARK INTRA:                  -0.134
REMARK UNBOUND:                -0.134
REMARK SMILES O=C([O-])C=Cc1ccc(O)cc1
REMARK SMILES IDX 6 1 7 2 12 3 8 4 11 5 9 6 5 7 4 8 2 9 1 10 3 11 10 12
REMARK H PARENT 10 13
REMARK Flexibility Score: inf
ROOT
ATOM      1  C   UNL     1      20.761  -0.626 -19.637  1.00  0.00    -0.025 A 
ATOM      2  C   UNL     1      21.414   0.618 -19.622  1.00  0.00     0.012 A 
ATOM      3  C   UNL     1      20.748  -1.373 -20.833  1.00  0.00     0.012 A 
ATOM      4  C   UNL     1      22.018   1.118 -20.780  1.00  0.00     0.047 A 
ATOM      5  C   UNL     1      21.355  -0.869 -21.988  1.00  0.00     0.047 A 
ATOM      6  C   UNL     1      21.988   0.376 -21.966  1.00  0.00     0.115 A 
ENDROOT
BRANCH   1   7
ATOM      7  C   UNL     1      20.143  -1.119 -18.381  1.00  0.00     0.010 C 
ATOM      8  C   UNL     1      18.874  -0.867 -18.025  1.00  0.00     0.025 C 
BRANCH   8   9
ATOM      9  C   UNL     1      18.298  -1.363 -16.764  1.00  0.00     0.064 C 
ATOM     10  O   UNL     1      18.508  -2.542 -16.370  1.00  0.00    -0.545 OA
ATOM     11  O   UNL     1      17.508  -0.518 -15.996  1.00  0.00    -0.545 OA
ENDBRANCH   8   9
ENDBRANCH   1   7
BRANCH   6  12
ATOM     12  O   UNL     1      22.587   0.864 -23.125  1.00  0.00    -0.508 OA
ATOM     13  H   UNL     1      22.191   1.644 -23.637  1.00  0.00     0.293 HD
ENDBRANCH   6  12
TORSDOF 3
ENDMDL
MODEL 2
REMARK VINA RESULT:    -4.811      0.223      1.690
REMARK INTER + INTRA:          -5.648
REMARK INTER:                  -5.514
REMARK INTRA:                  -0.135
REMARK UNBOUND:                -0.134
REMARK SMILES O=C([O-])C=Cc1ccc(O)cc1
REMARK SMILES IDX 6 1 7 2 12 3 8 4 11 5 9 6 5 7 4 8 2 9 1 10 3 11 10 12
REMARK H PARENT 10 13
REMARK Flexibility Score: inf
ROOT
ATOM      1  C   UNL     1      20.867  -0.607 -19.504  1.00  0.00    -0.025 A 
ATOM      2  C   UNL     1      20.756  -1.352 -20.690  1.00  0.00     0.012 A 
ATOM      3  C   UNL     1      21.508   0.648 -19.546  1.00  0.00     0.012 A 
ATOM      4  C   UNL     1      21.296  -0.869 -21.886  1.00  0.00     0.047 A 
ATOM      5  C   UNL     1      22.044   1.128 -20.746  1.00  0.00     0.047 A 
ATOM      6  C   UNL     1      21.943   0.372 -21.916  1.00  0.00     0.115 A 
ENDROOT
BRANCH   1   7
ATOM      7  C   UNL     1      20.270  -1.158 -18.262  1.00  0.00     0.010 C 
ATOM      8  C   UNL     1      19.004  -0.934 -17.879  1.00  0.00     0.025 C 
BRANCH   8   9
ATOM      9  C   UNL     1      18.450  -1.488 -16.633  1.00  0.00     0.064 C 
ATOM     10  O   UNL     1      17.915  -0.743 -15.769  1.00  0.00    -0.545 OA
ATOM     11  O   UNL     1      18.519  -2.856 -16.403  1.00  0.00    -0.545 OA
ENDBRANCH   8   9
ENDBRANCH   1   7
BRANCH   6  12
ATOM     12  O   UNL     1      22.483   0.863 -23.102  1.00  0.00    -0.508 OA
ATOM     13  H   UNL     1      23.472   0.778 -23.308  1.00  0.00     0.293 HD
ENDBRANCH   6  12
TORSDOF 3
ENDMDL
MODEL 3
REMARK VINA RESULT:    -4.757      3.140      3.563
REMARK INTER + INTRA:          -5.587
REMARK INTER:                  -5.449
REMARK INTRA:                  -0.138
REMARK UNBOUND:                -0.134
REMARK SMILES O=C([O-])C=Cc1ccc(O)cc1
REMARK SMILES IDX 6 1 7 2 12 3 8 4 11 5 9 6 5 7 4 8 2 9 1 10 3 11 10 12
REMARK H PARENT 10 13
REMARK Flexibility Score: inf
ROOT
ATOM      1  C   UNL     1      21.513  -0.137 -18.732  1.00  0.00    -0.025 A 
ATOM      2  C   UNL     1      21.872   0.759 -19.753  1.00  0.00     0.012 A 
ATOM      3  C   UNL     1      21.021  -1.410 -19.085  1.00  0.00     0.012 A 
ATOM      4  C   UNL     1      21.721   0.403 -21.097  1.00  0.00     0.047 A 
ATOM      5  C   UNL     1      20.874  -1.762 -20.431  1.00  0.00     0.047 A 
ATOM      6  C   UNL     1      21.220  -0.858 -21.439  1.00  0.00     0.115 A 
ENDROOT
BRANCH   1   7
ATOM      7  C   UNL     1      21.700   0.284 -17.321  1.00  0.00     0.010 C 
ATOM      8  C   UNL     1      22.898   0.390 -16.727  1.00  0.00     0.025 C 
BRANCH   8   9
ATOM      9  C   UNL     1      23.044   0.798 -15.320  1.00  0.00     0.064 C 
ATOM     10  O   UNL     1      22.375   1.756 -14.846  1.00  0.00    -0.545 OA
ATOM     11  O   UNL     1      23.937   0.120 -14.501  1.00  0.00    -0.545 OA
ENDBRANCH   8   9
ENDBRANCH   1   7
BRANCH   6  12
ATOM     12  O   UNL     1      21.066  -1.224 -22.774  1.00  0.00    -0.508 OA
ATOM     13  H   UNL     1      20.665  -0.588 -23.454  1.00  0.00     0.293 HD
ENDBRANCH   6  12
TORSDOF 3
ENDMDL
MODEL 4
REMARK VINA RESULT:    -4.676      1.089      5.681
REMARK INTER + INTRA:          -5.494
REMARK INTER:                  -5.342
REMARK INTRA:                  -0.152
REMARK UNBOUND:                -0.134
REMARK SMILES O=C([O-])C=Cc1ccc(O)cc1
REMARK SMILES IDX 6 1 7 2 12 3 8 4 11 5 9 6 5 7 4 8 2 9 1 10 3 11 10 12
REMARK H PARENT 10 13
REMARK Flexibility Score: inf
ROOT
ATOM      1  C   UNL     1      20.209  -1.214 -19.649  1.00  0.00    -0.025 A 
ATOM      2  C   UNL     1      20.158  -0.190 -18.687  1.00  0.00     0.012 A 
ATOM      3  C   UNL     1      19.573  -2.441 -19.371  1.00  0.00     0.012 A 
ATOM      4  C   UNL     1      19.510  -0.395 -17.465  1.00  0.00     0.047 A 
ATOM      5  C   UNL     1      18.924  -2.640 -18.147  1.00  0.00     0.047 A 
ATOM      6  C   UNL     1      18.894  -1.621 -17.191  1.00  0.00     0.115 A 
ENDROOT
BRANCH   1   7
ATOM      7  C   UNL     1      20.900  -0.945 -20.934  1.00  0.00     0.010 C 
ATOM      8  C   UNL     1      21.581   0.181 -21.195  1.00  0.00     0.025 C 
BRANCH   8   9
ATOM      9  C   UNL     1      22.245   0.417 -22.487  1.00  0.00     0.064 C 
ATOM     10  O   UNL     1      22.796  -0.524 -23.119  1.00  0.00    -0.545 OA
ATOM     11  O   UNL     1      22.267   1.699 -23.019  1.00  0.00    -0.545 OA
ENDBRANCH   8   9
ENDBRANCH   1   7
BRANCH   6  12
ATOM     12  O   UNL     1      18.245  -1.836 -15.978  1.00  0.00    -0.508 OA
ATOM     13  H   UNL     1      18.761  -1.916 -15.109  1.00  0.00     0.293 HD
ENDBRANCH   6  12
TORSDOF 3
ENDMDL
MODEL 5
REMARK VINA RESULT:    -4.650      1.089      1.327
REMARK INTER + INTRA:          -5.464
REMARK INTER:                  -5.326
REMARK INTRA:                  -0.138
REMARK UNBOUND:                -0.134
REMARK SMILES O=C([O-])C=Cc1ccc(O)cc1
REMARK SMILES IDX 6 1 7 2 12 3 8 4 11 5 9 6 5 7 4 8 2 9 1 10 3 11 10 12
REMARK H PARENT 10 13
REMARK Flexibility Score: inf
ROOT
ATOM      1  C   UNL     1      19.973  -0.423 -18.663  1.00  0.00    -0.025 A 
ATOM      2  C   UNL     1      21.190   0.267 -18.522  1.00  0.00     0.012 A 
ATOM      3  C   UNL     1      19.533  -0.768 -19.957  1.00  0.00     0.012 A 
ATOM      4  C   UNL     1      21.938   0.626 -19.648  1.00  0.00     0.047 A 
ATOM      5  C   UNL     1      20.286  -0.407 -21.080  1.00  0.00     0.047 A 
ATOM      6  C   UNL     1      21.486   0.291 -20.929  1.00  0.00     0.115 A 
ENDROOT
BRANCH   1   7
ATOM      7  C   UNL     1      19.220  -0.790 -17.438  1.00  0.00     0.010 C 
ATOM      8  C   UNL     1      18.865  -2.047 -17.130  1.00  0.00     0.025 C 
BRANCH   8   9
ATOM      9  C   UNL     1      18.107  -2.372 -15.910  1.00  0.00     0.064 C 
ATOM     10  O   UNL     1      18.233  -3.491 -15.343  1.00  0.00    -0.545 OA
ATOM     11  O   UNL     1      17.236  -1.432 -15.377  1.00  0.00    -0.545 OA
ENDBRANCH   8   9
ENDBRANCH   1   7
BRANCH   6  12
ATOM     12  O   UNL     1      22.223   0.644 -22.057  1.00  0.00    -0.508 OA
ATOM     13  H   UNL     1      23.119   0.215 -22.259  1.00  0.00     0.293 HD
ENDBRANCH   6  12
TORSDOF 3
ENDMDL
MODEL 6
REMARK VINA RESULT:    -4.588     15.554     18.615
REMARK INTER + INTRA:          -5.393
REMARK INTER:                  -5.253
REMARK INTRA:                  -0.140
REMARK UNBOUND:                -0.134
REMARK SMILES O=C([O-])C=Cc1ccc(O)cc1
REMARK SMILES IDX 6 1 7 2 12 3 8 4 11 5 9 6 5 7 4 8 2 9 1 10 3 11 10 12
REMARK H PARENT 10 13
REMARK Flexibility Score: inf
ROOT
ATOM      1  C   UNL     1       8.037  -6.093  -7.530  1.00  0.00    -0.025 A 
ATOM      2  C   UNL     1       7.733  -7.317  -6.910  1.00  0.00     0.012 A 
ATOM      3  C   UNL     1       8.282  -4.963  -6.722  1.00  0.00     0.012 A 
ATOM      4  C   UNL     1       7.650  -7.408  -5.517  1.00  0.00     0.047 A 
ATOM      5  C   UNL     1       8.199  -5.060  -5.329  1.00  0.00     0.047 A 
ATOM      6  C   UNL     1       7.881  -6.278  -4.724  1.00  0.00     0.115 A 
ENDROOT
BRANCH   1   7
ATOM      7  C   UNL     1       8.123  -6.050  -9.011  1.00  0.00     0.010 C 
ATOM      8  C   UNL     1       8.080  -4.917  -9.728  1.00  0.00     0.025 C 
BRANCH   8   9
ATOM      9  C   UNL     1       8.156  -4.914 -11.198  1.00  0.00     0.064 C 
ATOM     10  O   UNL     1       8.482  -5.950 -11.837  1.00  0.00    -0.545 OA
ATOM     11  O   UNL     1       7.867  -3.747 -11.894  1.00  0.00    -0.545 OA
ENDBRANCH   8   9
ENDBRANCH   1   7
BRANCH   6  12
ATOM     12  O   UNL     1       7.802  -6.356  -3.335  1.00  0.00    -0.508 OA
ATOM     13  H   UNL     1       8.170  -7.153  -2.828  1.00  0.00     0.293 HD
ENDBRANCH   6  12
TORSDOF 3
ENDMDL
MODEL 7
REMARK VINA RESULT:    -4.501     15.190     16.631
REMARK INTER + INTRA:          -5.293
REMARK INTER:                  -5.156
REMARK INTRA:                  -0.137
REMARK UNBOUND:                -0.134
REMARK SMILES O=C([O-])C=Cc1ccc(O)cc1
REMARK SMILES IDX 6 1 7 2 12 3 8 4 11 5 9 6 5 7 4 8 2 9 1 10 3 11 10 12
REMARK H PARENT 10 13
REMARK Flexibility Score: inf
ROOT
ATOM      1  C   UNL     1       8.408  -5.638  -9.952  1.00  0.00    -0.025 A 
ATOM      2  C   UNL     1       8.428  -6.769 -10.786  1.00  0.00     0.012 A 
ATOM      3  C   UNL     1       8.107  -4.381 -10.516  1.00  0.00     0.012 A 
ATOM      4  C   UNL     1       8.180  -6.645 -12.157  1.00  0.00     0.047 A 
ATOM      5  C   UNL     1       7.859  -4.263 -11.887  1.00  0.00     0.047 A 
ATOM      6  C   UNL     1       7.897  -5.391 -12.711  1.00  0.00     0.115 A 
ENDROOT
BRANCH   1   7
ATOM      7  C   UNL     1       8.668  -5.821  -8.502  1.00  0.00     0.010 C 
ATOM      8  C   UNL     1       7.941  -5.243  -7.535  1.00  0.00     0.025 C 
BRANCH   8   9
ATOM      9  C   UNL     1       8.236  -5.439  -6.106  1.00  0.00     0.064 C 
ATOM     10  O   UNL     1       8.979  -4.638  -5.478  1.00  0.00    -0.545 OA
ATOM     11  O   UNL     1       7.689  -6.527  -5.438  1.00  0.00    -0.545 OA
ENDBRANCH   8   9
ENDBRANCH   1   7
BRANCH   6  12
ATOM     12  O   UNL     1       7.648  -5.256 -14.074  1.00  0.00    -0.508 OA
ATOM     13  H   UNL     1       7.020  -5.885 -14.562  1.00  0.00     0.293 HD
ENDBRANCH   6  12
TORSDOF 3
ENDMDL
MODEL 8
REMARK VINA RESULT:    -4.306     13.489     16.816
REMARK INTER + INTRA:          -5.069
REMARK INTER:                  -4.929
REMARK INTRA:                  -0.140
REMARK UNBOUND:                -0.134
REMARK SMILES O=C([O-])C=Cc1ccc(O)cc1
REMARK SMILES IDX 6 1 7 2 12 3 8 4 11 5 9 6 5 7 4 8 2 9 1 10 3 11 10 12
REMARK H PARENT 10 13
REMARK Flexibility Score: inf
ROOT
ATOM      1  C   UNL     1       9.561  -5.637  -8.752  1.00  0.00    -0.025 A 
ATOM      2  C   UNL     1       8.199  -5.297  -8.829  1.00  0.00     0.012 A 
ATOM      3  C   UNL     1      10.184  -5.667  -7.487  1.00  0.00     0.012 A 
ATOM      4  C   UNL     1       7.481  -4.970  -7.674  1.00  0.00     0.047 A 
ATOM      5  C   UNL     1       9.461  -5.340  -6.335  1.00  0.00     0.047 A 
ATOM      6  C   UNL     1       8.112  -4.989  -6.425  1.00  0.00     0.115 A 
ENDROOT
BRANCH   1   7
ATOM      7  C   UNL     1      10.277  -5.985 -10.004  1.00  0.00     0.010 C 
ATOM      8  C   UNL     1      11.318  -6.829 -10.057  1.00  0.00     0.025 C 
BRANCH   8   9
ATOM      9  C   UNL     1      12.012  -7.142 -11.317  1.00  0.00     0.064 C 
ATOM     10  O   UNL     1      11.433  -7.773 -12.242  1.00  0.00    -0.545 OA
ATOM     11  O   UNL     1      13.330  -6.737 -11.490  1.00  0.00    -0.545 OA
ENDBRANCH   8   9
ENDBRANCH   1   7
BRANCH   6  12
ATOM     12  O   UNL     1       7.407  -4.666  -5.268  1.00  0.00    -0.508 OA
ATOM     13  H   UNL     1       7.676  -3.881  -4.685  1.00  0.00     0.293 HD
ENDBRANCH   6  12
TORSDOF 3
ENDMDL
MODEL 9
REMARK VINA RESULT:    -4.258     13.905     17.168
REMARK INTER + INTRA:          -5.015
REMARK INTER:                  -4.874
REMARK INTRA:                  -0.140
REMARK UNBOUND:                -0.134
REMARK SMILES O=C([O-])C=Cc1ccc(O)cc1
REMARK SMILES IDX 6 1 7 2 12 3 8 4 11 5 9 6 5 7 4 8 2 9 1 10 3 11 10 12
REMARK H PARENT 10 13
REMARK Flexibility Score: inf
ROOT
ATOM      1  C   UNL     1      13.570   4.047  -5.034  1.00  0.00    -0.025 A 
ATOM      2  C   UNL     1      13.584   4.042  -3.628  1.00  0.00     0.012 A 
ATOM      3  C   UNL     1      12.470   3.474  -5.705  1.00  0.00     0.012 A 
ATOM      4  C   UNL     1      12.539   3.456  -2.908  1.00  0.00     0.047 A 
ATOM      5  C   UNL     1      11.425   2.890  -4.979  1.00  0.00     0.047 A 
ATOM      6  C   UNL     1      11.458   2.877  -3.582  1.00  0.00     0.115 A 
ENDROOT
BRANCH   1   7
ATOM      7  C   UNL     1      14.698   4.689  -5.753  1.00  0.00     0.010 C 
ATOM      8  C   UNL     1      14.804   4.729  -7.090  1.00  0.00     0.025 C 
BRANCH   8   9
ATOM      9  C   UNL     1      15.945   5.365  -7.769  1.00  0.00     0.064 C 
ATOM     10  O   UNL     1      15.990   5.452  -9.025  1.00  0.00    -0.545 OA
ATOM     11  O   UNL     1      16.991   5.876  -7.012  1.00  0.00    -0.545 OA
ENDBRANCH   8   9
ENDBRANCH   1   7
BRANCH   6  12
ATOM     12  O   UNL     1      10.411   2.291  -2.876  1.00  0.00    -0.508 OA
ATOM     13  H   UNL     1       9.738   1.684  -3.332  1.00  0.00     0.293 HD
ENDBRANCH   6  12
TORSDOF 3
ENDMDL
