MODEL 1
REMARK VINA RESULT:    -6.609      0.000      0.000
REMARK INTER + INTRA:         -10.068
REMARK INTER:                  -8.734
REMARK INTRA:                  -1.334
REMARK UNBOUND:                -1.334
REMARK SMILES CC[C@@H](C=C[C@@H](C)[C@H]1CC[C@@H]2[C@H]3CC=C4C[C@@H](O)CC[C@]4(C)[C@@H]3CC[C@@]21C)C(C)C
REMARK SMILES IDX 6 1 7 2 5 3 4 4 3 5 2 6 1 7 28 8 29 9 30 10 8 11 9 12 26 13
REMARK SMILES IDX 10 14 11 15 25 16 27 17 12 18 24 19 23 20 13 21 21 22 14 23
REMARK SMILES IDX 15 24 20 25 22 26 16 27 19 28 17 29 18 30
REMARK H PARENT 18 31
REMARK Flexibility Score: inf
ROOT
ATOM      1  C   UNL     1      33.612  27.999  14.690  1.00  0.00     0.012 C 
ATOM      2  C   UNL     1      34.373  27.166  15.733  1.00  0.00     0.012 C 
ENDROOT
BRANCH   1   3
ATOM      3  C   UNL     1      33.444  29.454  15.109  1.00  0.00    -0.028 C 
ATOM      4  C   UNL     1      32.955  29.849  16.302  1.00  0.00    -0.027 C 
BRANCH   4   5
ATOM      5  C   UNL     1      32.454  31.281  16.493  1.00  0.00     0.014 C 
BRANCH   5   6
ATOM      6  C   UNL     1      31.274  31.273  17.499  1.00  0.00     0.004 C 
ATOM      7  C   UNL     1      30.181  30.241  17.164  1.00  0.00     0.004 C 
ENDBRANCH   5   6
BRANCH   5   8
ATOM      8  C   UNL     1      32.186  31.924  15.083  1.00  0.00    -0.011 C 
ATOM      9  C   UNL     1      32.722  33.378  15.037  1.00  0.00     0.008 C 
ATOM     10  C   UNL     1      30.723  31.910  14.578  1.00  0.00     0.008 C 
ENDBRANCH   5   8
ENDBRANCH   4   5
ENDBRANCH   1   3
BRANCH   1  11
ATOM     11  C   UNL     1      32.281  27.289  14.221  1.00  0.00     0.002 C 
ATOM     12  C   UNL     1      31.230  27.171  15.350  1.00  0.00     0.005 C 
ATOM     13  C   UNL     1      31.506  27.916  12.972  1.00  0.00    -0.026 C 
ATOM     14  C   UNL     1      29.894  27.337  14.705  1.00  0.00     0.005 C 
ATOM     15  C   UNL     1      30.146  28.348  13.600  1.00  0.00    -0.001 C 
ATOM     16  C   UNL     1      31.257  26.839  11.879  1.00  0.00     0.007 C 
ATOM     17  C   UNL     1      32.264  29.095  12.301  1.00  0.00     0.012 C 
ATOM     18  C   UNL     1      28.884  28.448  12.684  1.00  0.00     0.000 C 
ATOM     19  C   UNL     1      30.091  27.154  10.896  1.00  0.00     0.005 C 
ATOM     20  C   UNL     1      29.242  28.424  11.202  1.00  0.00     0.003 C 
ATOM     21  C   UNL     1      28.128  29.740  13.011  1.00  0.00     0.031 C 
ATOM     22  C   UNL     1      27.980  28.648  10.227  1.00  0.00    -0.008 C 
ATOM     23  C   UNL     1      26.884  29.840  12.190  1.00  0.00    -0.027 C 
ATOM     24  C   UNL     1      26.788  29.323  10.949  1.00  0.00    -0.065 C 
ATOM     25  C   UNL     1      27.460  27.304   9.605  1.00  0.00     0.014 C 
ATOM     26  C   UNL     1      28.481  29.579   9.104  1.00  0.00     0.016 C 
ATOM     27  C   UNL     1      25.406  29.377  10.318  1.00  0.00     0.063 C 
ATOM     28  C   UNL     1      26.074  27.315   8.931  1.00  0.00     0.033 C 
ATOM     29  C   UNL     1      25.270  28.630   8.985  1.00  0.00     0.118 C 
BRANCH  29  30
ATOM     30  O   UNL     1      25.469  29.510   7.893  1.00  0.00    -0.393 OA
ATOM     31  H   UNL     1      24.842  29.264   7.168  1.00  0.00     0.210 HD
ENDBRANCH  29  30
ENDBRANCH   1  11
TORSDOF 6
ENDMDL
MODEL 2
REMARK VINA RESULT:    -6.521      3.245      8.394
REMARK INTER + INTRA:          -9.951
REMARK INTER:                  -8.509
REMARK INTRA:                  -1.442
REMARK UNBOUND:                -1.334
REMARK SMILES CC[C@@H](C=C[C@@H](C)[C@H]1CC[C@@H]2[C@H]3CC=C4C[C@@H](O)CC[C@]4(C)[C@@H]3CC[C@@]21C)C(C)C
REMARK SMILES IDX 6 1 7 2 5 3 4 4 3 5 2 6 1 7 28 8 29 9 30 10 8 11 9 12 26 13
REMARK SMILES IDX 10 14 11 15 25 16 27 17 12 18 24 19 23 20 13 21 21 22 14 23
REMARK SMILES IDX 15 24 20 25 22 26 16 27 19 28 17 29 18 30
REMARK H PARENT 18 31
REMARK Flexibility Score: inf
ROOT
ATOM      1  C   UNL     1      24.711  27.174  11.735  1.00  0.00     0.012 C 
ATOM      2  C   UNL     1      24.367  25.979  10.833  1.00  0.00     0.012 C 
ENDROOT
BRANCH   1   3
ATOM      3  C   UNL     1      23.616  28.233  11.750  1.00  0.00    -0.028 C 
ATOM      4  C   UNL     1      22.467  28.147  11.049  1.00  0.00    -0.027 C 
BRANCH   4   5
ATOM      5  C   UNL     1      21.619  29.395  10.805  1.00  0.00     0.014 C 
BRANCH   5   6
ATOM      6  C   UNL     1      20.946  29.284   9.412  1.00  0.00     0.004 C 
ATOM      7  C   UNL     1      21.489  28.128   8.552  1.00  0.00     0.004 C 
ENDBRANCH   5   6
BRANCH   5   8
ATOM      8  C   UNL     1      22.495  30.672  11.076  1.00  0.00    -0.011 C 
ATOM      9  C   UNL     1      21.733  31.673  11.983  1.00  0.00     0.008 C 
ATOM     10  C   UNL     1      23.030  31.426   9.834  1.00  0.00     0.008 C 
ENDBRANCH   5   8
ENDBRANCH   4   5
ENDBRANCH   1   3
BRANCH   1  11
ATOM     11  C   UNL     1      26.163  27.729  11.456  1.00  0.00     0.002 C 
ATOM     12  C   UNL     1      26.168  29.215  11.027  1.00  0.00     0.005 C 
ATOM     13  C   UNL     1      27.241  27.612  12.630  1.00  0.00    -0.026 C 
ATOM     14  C   UNL     1      27.402  29.820  11.612  1.00  0.00     0.005 C 
ATOM     15  C   UNL     1      27.562  29.106  12.943  1.00  0.00    -0.001 C 
ATOM     16  C   UNL     1      28.526  26.896  12.132  1.00  0.00     0.007 C 
ATOM     17  C   UNL     1      26.723  26.833  13.871  1.00  0.00     0.012 C 
ATOM     18  C   UNL     1      28.948  29.469  13.568  1.00  0.00     0.000 C 
ATOM     19  C   UNL     1      29.809  27.184  12.967  1.00  0.00     0.005 C 
ATOM     20  C   UNL     1      29.681  28.243  14.101  1.00  0.00     0.003 C 
ATOM     21  C   UNL     1      28.735  30.478  14.702  1.00  0.00     0.031 C 
ATOM     22  C   UNL     1      31.056  28.592  14.863  1.00  0.00    -0.008 C 
ATOM     23  C   UNL     1      30.047  30.890  15.287  1.00  0.00    -0.027 C 
ATOM     24  C   UNL     1      31.113  30.066  15.336  1.00  0.00    -0.065 C 
ATOM     25  C   UNL     1      32.318  28.331  13.967  1.00  0.00     0.014 C 
ATOM     26  C   UNL     1      31.095  27.667  16.097  1.00  0.00     0.016 C 
ATOM     27  C   UNL     1      32.410  30.694  15.820  1.00  0.00     0.063 C 
ATOM     28  C   UNL     1      33.662  28.926  14.430  1.00  0.00     0.033 C 
ATOM     29  C   UNL     1      33.650  29.798  15.702  1.00  0.00     0.118 C 
BRANCH  29  30
ATOM     30  O   UNL     1      33.888  29.107  16.915  1.00  0.00    -0.393 OA
ATOM     31  H   UNL     1      33.511  29.637  17.662  1.00  0.00     0.210 HD
ENDBRANCH  29  30
ENDBRANCH   1  11
TORSDOF 6
ENDMDL
MODEL 3
REMARK VINA RESULT:    -6.439      2.221      2.640
REMARK INTER + INTRA:          -9.843
REMARK INTER:                  -8.609
REMARK INTRA:                  -1.234
REMARK UNBOUND:                -1.334
REMARK SMILES CC[C@@H](C=C[C@@H](C)[C@H]1CC[C@@H]2[C@H]3CC=C4C[C@@H](O)CC[C@]4(C)[C@@H]3CC[C@@]21C)C(C)C
REMARK SMILES IDX 6 1 7 2 5 3 4 4 3 5 2 6 1 7 28 8 29 9 30 10 8 11 9 12 26 13
REMARK SMILES IDX 10 14 11 15 25 16 27 17 12 18 24 19 23 20 13 21 21 22 14 23
REMARK SMILES IDX 15 24 20 25 22 26 16 27 19 28 17 29 18 30
REMARK H PARENT 18 31
REMARK Flexibility Score: inf
ROOT
ATOM      1  C   UNL     1      33.099  27.744  14.358  1.00  0.00     0.012 C 
ATOM      2  C   UNL     1      34.275  27.239  15.209  1.00  0.00     0.012 C 
ENDROOT
BRANCH   1   3
ATOM      3  C   UNL     1      32.928  29.256  14.432  1.00  0.00    -0.028 C 
ATOM      4  C   UNL     1      31.910  29.875  15.065  1.00  0.00    -0.027 C 
BRANCH   4   5
ATOM      5  C   UNL     1      31.594  31.340  14.765  1.00  0.00     0.014 C 
BRANCH   5   6
ATOM      6  C   UNL     1      31.815  32.178  16.050  1.00  0.00     0.004 C 
ATOM      7  C   UNL     1      31.650  31.371  17.352  1.00  0.00     0.004 C 
ENDBRANCH   5   6
BRANCH   5   8
ATOM      8  C   UNL     1      30.177  31.430  14.087  1.00  0.00    -0.011 C 
ATOM      9  C   UNL     1      29.094  30.813  15.008  1.00  0.00     0.008 C 
ATOM     10  C   UNL     1      30.042  30.819  12.671  1.00  0.00     0.008 C 
ENDBRANCH   5   8
ENDBRANCH   4   5
ENDBRANCH   1   3
BRANCH   1  11
ATOM     11  C   UNL     1      31.780  26.915  14.619  1.00  0.00     0.002 C 
ATOM     12  C   UNL     1      30.914  27.504  15.759  1.00  0.00     0.005 C 
ATOM     13  C   UNL     1      30.785  26.698  13.387  1.00  0.00    -0.026 C 
ATOM     14  C   UNL     1      29.491  27.279  15.368  1.00  0.00     0.005 C 
ATOM     15  C   UNL     1      29.497  27.439  13.858  1.00  0.00    -0.001 C 
ATOM     16  C   UNL     1      30.474  25.188  13.189  1.00  0.00     0.007 C 
ATOM     17  C   UNL     1      31.338  27.242  12.041  1.00  0.00     0.012 C 
ATOM     18  C   UNL     1      28.113  27.000  13.279  1.00  0.00     0.000 C 
ATOM     19  C   UNL     1      29.158  24.882  12.415  1.00  0.00     0.005 C 
ATOM     20  C   UNL     1      28.257  26.101  12.056  1.00  0.00     0.003 C 
ATOM     21  C   UNL     1      27.306  28.249  12.910  1.00  0.00     0.031 C 
ATOM     22  C   UNL     1      26.855  25.728  11.359  1.00  0.00    -0.008 C 
ATOM     23  C   UNL     1      25.954  27.866  12.404  1.00  0.00    -0.027 C 
ATOM     24  C   UNL     1      25.725  26.718  11.734  1.00  0.00    -0.065 C 
ATOM     25  C   UNL     1      26.367  24.284  11.734  1.00  0.00     0.014 C 
ATOM     26  C   UNL     1      27.110  25.810   9.840  1.00  0.00     0.016 C 
ATOM     27  C   UNL     1      24.268  26.412  11.429  1.00  0.00     0.063 C 
ATOM     28  C   UNL     1      24.903  23.918  11.420  1.00  0.00     0.033 C 
ATOM     29  C   UNL     1      24.007  25.025  10.828  1.00  0.00     0.118 C 
BRANCH  29  30
ATOM     30  O   UNL     1      23.974  25.088   9.413  1.00  0.00    -0.393 OA
ATOM     31  H   UNL     1      23.488  24.296   9.071  1.00  0.00     0.210 HD
ENDBRANCH  29  30
ENDBRANCH   1  11
TORSDOF 6
ENDMDL
MODEL 4
REMARK VINA RESULT:    -6.364      1.815      3.437
REMARK INTER + INTRA:          -9.744
REMARK INTER:                  -8.384
REMARK INTRA:                  -1.360
REMARK UNBOUND:                -1.334
REMARK SMILES CC[C@@H](C=C[C@@H](C)[C@H]1CC[C@@H]2[C@H]3CC=C4C[C@@H](O)CC[C@]4(C)[C@@H]3CC[C@@]21C)C(C)C
REMARK SMILES IDX 6 1 7 2 5 3 4 4 3 5 2 6 1 7 28 8 29 9 30 10 8 11 9 12 26 13
REMARK SMILES IDX 10 14 11 15 25 16 27 17 12 18 24 19 23 20 13 21 21 22 14 23
REMARK SMILES IDX 15 24 20 25 22 26 16 27 19 28 17 29 18 30
REMARK H PARENT 18 31
REMARK Flexibility Score: inf
ROOT
ATOM      1  C   UNL     1      32.146  30.099  11.029  1.00  0.00     0.012 C 
ATOM      2  C   UNL     1      33.443  30.230  10.216  1.00  0.00     0.012 C 
ENDROOT
BRANCH   1   3
ATOM      3  C   UNL     1      32.404  29.798  12.500  1.00  0.00    -0.028 C 
ATOM      4  C   UNL     1      31.647  30.264  13.515  1.00  0.00    -0.027 C 
BRANCH   4   5
ATOM      5  C   UNL     1      32.185  30.252  14.945  1.00  0.00     0.014 C 
BRANCH   5   6
ATOM      6  C   UNL     1      31.955  28.847  15.560  1.00  0.00     0.004 C 
ATOM      7  C   UNL     1      30.541  28.287  15.315  1.00  0.00     0.004 C 
ENDBRANCH   5   6
BRANCH   5   8
ATOM      8  C   UNL     1      31.589  31.480  15.728  1.00  0.00    -0.011 C 
ATOM      9  C   UNL     1      32.354  32.779  15.364  1.00  0.00     0.008 C 
ATOM     10  C   UNL     1      31.517  31.354  17.269  1.00  0.00     0.008 C 
ENDBRANCH   5   8
ENDBRANCH   4   5
ENDBRANCH   1   3
BRANCH   1  11
ATOM     11  C   UNL     1      31.103  29.139  10.331  1.00  0.00     0.002 C 
ATOM     12  C   UNL     1      31.131  27.702  10.902  1.00  0.00     0.005 C 
ATOM     13  C   UNL     1      29.567  29.581  10.341  1.00  0.00    -0.026 C 
ATOM     14  C   UNL     1      29.722  27.208  10.873  1.00  0.00     0.005 C 
ATOM     15  C   UNL     1      28.895  28.446  11.173  1.00  0.00    -0.001 C 
ATOM     16  C   UNL     1      28.985  29.585   8.900  1.00  0.00     0.007 C 
ATOM     17  C   UNL     1      29.332  30.993  10.944  1.00  0.00     0.012 C 
ATOM     18  C   UNL     1      27.381  28.133  10.946  1.00  0.00     0.000 C 
ATOM     19  C   UNL     1      27.434  29.468   8.815  1.00  0.00     0.005 C 
ATOM     20  C   UNL     1      26.676  29.229  10.155  1.00  0.00     0.003 C 
ATOM     21  C   UNL     1      26.697  27.956  12.306  1.00  0.00     0.031 C 
ATOM     22  C   UNL     1      25.089  29.001  10.006  1.00  0.00    -0.008 C 
ATOM     23  C   UNL     1      25.257  27.600  12.123  1.00  0.00    -0.027 C 
ATOM     24  C   UNL     1      24.527  28.033  11.075  1.00  0.00    -0.065 C 
ATOM     25  C   UNL     1      24.697  28.433   8.596  1.00  0.00     0.014 C 
ATOM     26  C   UNL     1      24.448  30.391  10.200  1.00  0.00     0.016 C 
ATOM     27  C   UNL     1      23.127  27.451  10.962  1.00  0.00     0.063 C 
ATOM     28  C   UNL     1      23.278  27.856   8.425  1.00  0.00     0.033 C 
ATOM     29  C   UNL     1      22.376  27.812   9.675  1.00  0.00     0.118 C 
BRANCH  29  30
ATOM     30  O   UNL     1      21.557  28.951   9.873  1.00  0.00    -0.393 OA
ATOM     31  H   UNL     1      20.965  29.058   9.087  1.00  0.00     0.210 HD
ENDBRANCH  29  30
ENDBRANCH   1  11
TORSDOF 6
ENDMDL
MODEL 5
REMARK VINA RESULT:    -6.160      2.313      4.571
REMARK INTER + INTRA:          -9.474
REMARK INTER:                  -8.350
REMARK INTRA:                  -1.124
REMARK UNBOUND:                -1.334
REMARK SMILES CC[C@@H](C=C[C@@H](C)[C@H]1CC[C@@H]2[C@H]3CC=C4C[C@@H](O)CC[C@]4(C)[C@@H]3CC[C@@]21C)C(C)C
REMARK SMILES IDX 6 1 7 2 5 3 4 4 3 5 2 6 1 7 28 8 29 9 30 10 8 11 9 12 26 13
REMARK SMILES IDX 10 14 11 15 25 16 27 17 12 18 24 19 23 20 13 21 21 22 14 23
REMARK SMILES IDX 15 24 20 25 22 26 16 27 19 28 17 29 18 30
REMARK H PARENT 18 31
REMARK Flexibility Score: inf
ROOT
ATOM      1  C   UNL     1      32.085  30.835  15.304  1.00  0.00     0.012 C 
ATOM      2  C   UNL     1      32.496  32.307  15.463  1.00  0.00     0.012 C 
ENDROOT
BRANCH   1   3
ATOM      3  C   UNL     1      33.277  29.887  15.331  1.00  0.00    -0.028 C 
ATOM      4  C   UNL     1      33.330  28.714  14.668  1.00  0.00    -0.027 C 
BRANCH   4   5
ATOM      5  C   UNL     1      34.365  27.658  15.052  1.00  0.00     0.014 C 
BRANCH   5   6
ATOM      6  C   UNL     1      35.212  27.303  13.802  1.00  0.00     0.004 C 
ATOM      7  C   UNL     1      34.540  27.682  12.469  1.00  0.00     0.004 C 
ENDBRANCH   5   6
BRANCH   5   8
ATOM      8  C   UNL     1      33.640  26.469  15.784  1.00  0.00    -0.011 C 
ATOM      9  C   UNL     1      34.438  25.152  15.605  1.00  0.00     0.008 C 
ATOM     10  C   UNL     1      32.161  26.217  15.404  1.00  0.00     0.008 C 
ENDBRANCH   5   8
ENDBRANCH   4   5
ENDBRANCH   1   3
BRANCH   1  11
ATOM     11  C   UNL     1      31.099  30.623  14.088  1.00  0.00     0.002 C 
ATOM     12  C   UNL     1      31.833  30.301  12.765  1.00  0.00     0.005 C 
ATOM     13  C   UNL     1      29.966  29.505  14.239  1.00  0.00    -0.026 C 
ATOM     14  C   UNL     1      30.965  29.340  12.023  1.00  0.00     0.005 C 
ATOM     15  C   UNL     1      30.343  28.490  13.117  1.00  0.00    -0.001 C 
ATOM     16  C   UNL     1      28.560  30.101  13.952  1.00  0.00     0.007 C 
ATOM     17  C   UNL     1      29.920  28.856  15.650  1.00  0.00     0.012 C 
ATOM     18  C   UNL     1      29.225  27.586  12.505  1.00  0.00     0.000 C 
ATOM     19  C   UNL     1      27.474  29.063  13.543  1.00  0.00     0.005 C 
ATOM     20  C   UNL     1      27.951  27.594  13.343  1.00  0.00     0.003 C 
ATOM     21  C   UNL     1      29.752  26.152  12.381  1.00  0.00     0.031 C 
ATOM     22  C   UNL     1      26.820  26.579  12.811  1.00  0.00    -0.008 C 
ATOM     23  C   UNL     1      28.726  25.271  11.747  1.00  0.00    -0.027 C 
ATOM     24  C   UNL     1      27.401  25.469  11.901  1.00  0.00    -0.065 C 
ATOM     25  C   UNL     1      25.691  27.313  12.005  1.00  0.00     0.014 C 
ATOM     26  C   UNL     1      26.216  25.929  14.073  1.00  0.00     0.016 C 
ATOM     27  C   UNL     1      26.499  24.577  11.063  1.00  0.00     0.063 C 
ATOM     28  C   UNL     1      24.734  26.448  11.160  1.00  0.00     0.033 C 
ATOM     29  C   UNL     1      25.007  24.931  11.113  1.00  0.00     0.118 C 
BRANCH  29  30
ATOM     30  O   UNL     1      24.341  24.162  12.098  1.00  0.00    -0.393 OA
ATOM     31  H   UNL     1      24.448  23.202  11.880  1.00  0.00     0.210 HD
ENDBRANCH  29  30
ENDBRANCH   1  11
TORSDOF 6
ENDMDL
MODEL 6
REMARK VINA RESULT:    -6.030      3.031      7.927
REMARK INTER + INTRA:          -9.303
REMARK INTER:                  -7.742
REMARK INTRA:                  -1.560
REMARK UNBOUND:                -1.334
REMARK SMILES CC[C@@H](C=C[C@@H](C)[C@H]1CC[C@@H]2[C@H]3CC=C4C[C@@H](O)CC[C@]4(C)[C@@H]3CC[C@@]21C)C(C)C
REMARK SMILES IDX 6 1 7 2 5 3 4 4 3 5 2 6 1 7 28 8 29 9 30 10 8 11 9 12 26 13
REMARK SMILES IDX 10 14 11 15 25 16 27 17 12 18 24 19 23 20 13 21 21 22 14 23
REMARK SMILES IDX 15 24 20 25 22 26 16 27 19 28 17 29 18 30
REMARK H PARENT 18 31
REMARK Flexibility Score: inf
ROOT
ATOM      1  C   UNL     1      25.556  25.344  11.824  1.00  0.00     0.012 C 
ATOM      2  C   UNL     1      25.419  23.875  11.393  1.00  0.00     0.012 C 
ENDROOT
BRANCH   1   3
ATOM      3  C   UNL     1      24.574  26.261  11.106  1.00  0.00    -0.028 C 
ATOM      4  C   UNL     1      24.207  27.480  11.552  1.00  0.00    -0.027 C 
BRANCH   4   5
ATOM      5  C   UNL     1      22.950  28.154  11.005  1.00  0.00     0.014 C 
BRANCH   5   6
ATOM      6  C   UNL     1      22.196  27.152  10.092  1.00  0.00     0.004 C 
ATOM      7  C   UNL     1      21.645  27.785   8.800  1.00  0.00     0.004 C 
ENDBRANCH   5   6
BRANCH   5   8
ATOM      8  C   UNL     1      23.343  29.539  10.373  1.00  0.00    -0.011 C 
ATOM      9  C   UNL     1      24.868  29.785  10.509  1.00  0.00     0.008 C 
ATOM     10  C   UNL     1      22.585  30.784  10.895  1.00  0.00     0.008 C 
ENDBRANCH   5   8
ENDBRANCH   4   5
ENDBRANCH   1   3
BRANCH   1  11
ATOM     11  C   UNL     1      27.058  25.832  11.795  1.00  0.00     0.002 C 
ATOM     12  C   UNL     1      27.416  26.606  10.504  1.00  0.00     0.005 C 
ATOM     13  C   UNL     1      27.563  26.747  13.004  1.00  0.00    -0.026 C 
ATOM     14  C   UNL     1      28.384  27.670  10.903  1.00  0.00     0.005 C 
ATOM     15  C   UNL     1      27.919  28.086  12.288  1.00  0.00    -0.001 C 
ATOM     16  C   UNL     1      28.842  26.148  13.653  1.00  0.00     0.007 C 
ATOM     17  C   UNL     1      26.508  26.926  14.130  1.00  0.00     0.012 C 
ATOM     18  C   UNL     1      28.981  29.034  12.934  1.00  0.00     0.000 C 
ATOM     19  C   UNL     1      29.718  27.164  14.445  1.00  0.00     0.005 C 
ATOM     20  C   UNL     1      29.287  28.659  14.379  1.00  0.00     0.003 C 
ATOM     21  C   UNL     1      28.467  30.476  12.872  1.00  0.00     0.031 C 
ATOM     22  C   UNL     1      30.284  29.686  15.117  1.00  0.00    -0.008 C 
ATOM     23  C   UNL     1      29.484  31.417  13.433  1.00  0.00    -0.027 C 
ATOM     24  C   UNL     1      30.334  31.067  14.419  1.00  0.00    -0.065 C 
ATOM     25  C   UNL     1      31.754  29.139  15.195  1.00  0.00     0.014 C 
ATOM     26  C   UNL     1      29.721  29.863  16.542  1.00  0.00     0.016 C 
ATOM     27  C   UNL     1      31.403  32.092  14.762  1.00  0.00     0.063 C 
ATOM     28  C   UNL     1      32.871  30.135  15.565  1.00  0.00     0.033 C 
ATOM     29  C   UNL     1      32.468  31.612  15.757  1.00  0.00     0.118 C 
BRANCH  29  30
ATOM     30  O   UNL     1      32.122  31.981  17.080  1.00  0.00    -0.393 OA
ATOM     31  H   UNL     1      31.834  31.171  17.571  1.00  0.00     0.210 HD
ENDBRANCH  29  30
ENDBRANCH   1  11
TORSDOF 6
ENDMDL
MODEL 7
REMARK VINA RESULT:    -5.805      1.774      3.376
REMARK INTER + INTRA:          -9.005
REMARK INTER:                  -7.635
REMARK INTRA:                  -1.370
REMARK UNBOUND:                -1.334
REMARK SMILES CC[C@@H](C=C[C@@H](C)[C@H]1CC[C@@H]2[C@H]3CC=C4C[C@@H](O)CC[C@]4(C)[C@@H]3CC[C@@]21C)C(C)C
REMARK SMILES IDX 6 1 7 2 5 3 4 4 3 5 2 6 1 7 28 8 29 9 30 10 8 11 9 12 26 13
REMARK SMILES IDX 10 14 11 15 25 16 27 17 12 18 24 19 23 20 13 21 21 22 14 23
REMARK SMILES IDX 15 24 20 25 22 26 16 27 19 28 17 29 18 30
REMARK H PARENT 18 31
REMARK Flexibility Score: inf
ROOT
ATOM      1  C   UNL     1      32.302  29.917  11.145  1.00  0.00     0.012 C 
ATOM      2  C   UNL     1      33.692  29.273  11.259  1.00  0.00     0.012 C 
ENDROOT
BRANCH   1   3
ATOM      3  C   UNL     1      31.849  30.569  12.446  1.00  0.00    -0.028 C 
ATOM      4  C   UNL     1      32.150  30.102  13.675  1.00  0.00    -0.027 C 
BRANCH   4   5
ATOM      5  C   UNL     1      31.350  30.564  14.892  1.00  0.00     0.014 C 
BRANCH   5   6
ATOM      6  C   UNL     1      32.332  30.919  16.038  1.00  0.00     0.004 C 
ATOM      7  C   UNL     1      31.637  31.439  17.311  1.00  0.00     0.004 C 
ENDBRANCH   5   6
BRANCH   5   8
ATOM      8  C   UNL     1      30.237  29.499  15.209  1.00  0.00    -0.011 C 
ATOM      9  C   UNL     1      30.679  28.092  14.730  1.00  0.00     0.008 C 
ATOM     10  C   UNL     1      28.817  29.792  14.665  1.00  0.00     0.008 C 
ENDBRANCH   5   8
ENDBRANCH   4   5
ENDBRANCH   1   3
BRANCH   1  11
ATOM     11  C   UNL     1      31.247  28.939  10.494  1.00  0.00     0.002 C 
ATOM     12  C   UNL     1      31.226  27.543  11.161  1.00  0.00     0.005 C 
ATOM     13  C   UNL     1      29.723  29.419  10.443  1.00  0.00    -0.026 C 
ATOM     14  C   UNL     1      29.805  27.084  11.138  1.00  0.00     0.005 C 
ATOM     15  C   UNL     1      29.007  28.361  11.337  1.00  0.00    -0.001 C 
ATOM     16  C   UNL     1      29.167  29.339   8.994  1.00  0.00     0.007 C 
ATOM     17  C   UNL     1      29.515  30.874  10.944  1.00  0.00     0.012 C 
ATOM     18  C   UNL     1      27.489  28.070  11.101  1.00  0.00     0.000 C 
ATOM     19  C   UNL     1      27.616  29.255   8.887  1.00  0.00     0.005 C 
ATOM     20  C   UNL     1      26.828  29.128  10.224  1.00  0.00     0.003 C 
ATOM     21  C   UNL     1      26.776  28.004  12.456  1.00  0.00     0.031 C 
ATOM     22  C   UNL     1      25.238  28.930  10.059  1.00  0.00    -0.008 C 
ATOM     23  C   UNL     1      25.331  27.673  12.270  1.00  0.00    -0.027 C 
ATOM     24  C   UNL     1      24.632  28.051  11.181  1.00  0.00    -0.065 C 
ATOM     25  C   UNL     1      24.857  28.277   8.684  1.00  0.00     0.014 C 
ATOM     26  C   UNL     1      24.631  30.345  10.147  1.00  0.00     0.016 C 
ATOM     27  C   UNL     1      23.219  27.498  11.080  1.00  0.00     0.063 C 
ATOM     28  C   UNL     1      23.427  27.725   8.524  1.00  0.00     0.033 C 
ATOM     29  C   UNL     1      22.501  27.789   9.756  1.00  0.00     0.118 C 
BRANCH  29  30
ATOM     30  O   UNL     1      21.709  28.959   9.861  1.00  0.00    -0.393 OA
ATOM     31  H   UNL     1      20.814  28.773   9.481  1.00  0.00     0.210 HD
ENDBRANCH  29  30
ENDBRANCH   1  11
TORSDOF 6
ENDMDL
MODEL 8
REMARK VINA RESULT:    -5.804      2.568      3.873
REMARK INTER + INTRA:          -9.004
REMARK INTER:                  -8.614
REMARK INTRA:                  -0.390
REMARK UNBOUND:                -1.334
REMARK SMILES CC[C@@H](C=C[C@@H](C)[C@H]1CC[C@@H]2[C@H]3CC=C4C[C@@H](O)CC[C@]4(C)[C@@H]3CC[C@@]21C)C(C)C
REMARK SMILES IDX 6 1 7 2 5 3 4 4 3 5 2 6 1 7 28 8 29 9 30 10 8 11 9 12 26 13
REMARK SMILES IDX 10 14 11 15 25 16 27 17 12 18 24 19 23 20 13 21 21 22 14 23
REMARK SMILES IDX 15 24 20 25 22 26 16 27 19 28 17 29 18 30
REMARK H PARENT 18 31
REMARK Flexibility Score: inf
ROOT
ATOM      1  C   UNL     1      30.472  27.227  14.914  1.00  0.00     0.012 C 
ATOM      2  C   UNL     1      29.534  26.757  16.037  1.00  0.00     0.012 C 
ENDROOT
BRANCH   1   3
ATOM      3  C   UNL     1      30.839  28.701  15.035  1.00  0.00    -0.028 C 
ATOM      4  C   UNL     1      30.081  29.623  15.663  1.00  0.00    -0.027 C 
BRANCH   4   5
ATOM      5  C   UNL     1      30.309  31.112  15.404  1.00  0.00     0.014 C 
BRANCH   5   6
ATOM      6  C   UNL     1      30.627  31.321  13.901  1.00  0.00     0.004 C 
ATOM      7  C   UNL     1      29.382  31.288  12.994  1.00  0.00     0.004 C 
ENDBRANCH   5   6
BRANCH   5   8
ATOM      8  C   UNL     1      31.360  31.659  16.439  1.00  0.00    -0.011 C 
ATOM      9  C   UNL     1      32.789  31.611  15.840  1.00  0.00     0.008 C 
ATOM     10  C   UNL     1      31.376  30.988  17.834  1.00  0.00     0.008 C 
ENDBRANCH   5   8
ENDBRANCH   4   5
ENDBRANCH   1   3
BRANCH   1  11
ATOM     11  C   UNL     1      29.955  26.789  13.487  1.00  0.00     0.002 C 
ATOM     12  C   UNL     1      30.109  25.272  13.230  1.00  0.00     0.005 C 
ATOM     13  C   UNL     1      28.443  27.142  13.106  1.00  0.00    -0.026 C 
ATOM     14  C   UNL     1      28.934  24.860  12.406  1.00  0.00     0.005 C 
ATOM     15  C   UNL     1      27.803  25.732  12.924  1.00  0.00    -0.001 C 
ATOM     16  C   UNL     1      28.380  27.921  11.762  1.00  0.00     0.007 C 
ATOM     17  C   UNL     1      27.718  28.002  14.178  1.00  0.00     0.012 C 
ATOM     18  C   UNL     1      26.556  25.579  11.994  1.00  0.00     0.000 C 
ATOM     19  C   UNL     1      27.010  27.855  11.026  1.00  0.00     0.005 C 
ATOM     20  C   UNL     1      25.927  26.923  11.645  1.00  0.00     0.003 C 
ATOM     21  C   UNL     1      25.520  24.689  12.689  1.00  0.00     0.031 C 
ATOM     22  C   UNL     1      24.568  26.799  10.790  1.00  0.00    -0.008 C 
ATOM     23  C   UNL     1      24.337  24.476  11.803  1.00  0.00    -0.027 C 
ATOM     24  C   UNL     1      23.915  25.401  10.917  1.00  0.00    -0.065 C 
ATOM     25  C   UNL     1      24.796  27.080   9.262  1.00  0.00     0.014 C 
ATOM     26  C   UNL     1      23.609  27.856  11.374  1.00  0.00     0.016 C 
ATOM     27  C   UNL     1      22.794  24.961   9.988  1.00  0.00     0.063 C 
ATOM     28  C   UNL     1      23.677  26.676   8.283  1.00  0.00     0.033 C 
ATOM     29  C   UNL     1      22.447  25.955   8.873  1.00  0.00     0.118 C 
BRANCH  29  30
ATOM     30  O   UNL     1      21.378  26.798   9.266  1.00  0.00    -0.393 OA
ATOM     31  H   UNL     1      21.182  26.638  10.222  1.00  0.00     0.210 HD
ENDBRANCH  29  30
ENDBRANCH   1  11
TORSDOF 6
ENDMDL
