MODEL 1
REMARK VINA RESULT:    -3.979      0.000      0.000
REMARK INTER + INTRA:          -4.373
REMARK INTER:                  -4.328
REMARK INTRA:                  -0.045
REMARK UNBOUND:                -0.045
REMARK SMILES COc1cc2ccc(=O)oc2cc1O
REMARK SMILES IDX 3 1 13 2 12 3 11 4 5 5 4 6 6 7 7 8 8 9 9 10 10 11 2 12 1 13
REMARK SMILES IDX 14 14
REMARK H PARENT 14 15
REMARK Flexibility Score: inf
ROOT
ATOM      1  C   UNL     1      -0.056  28.610  32.498  1.00  0.00     0.161 A 
ATOM      2  C   UNL     1      -0.087  27.213  32.627  1.00  0.00     0.161 A 
ATOM      3  C   UNL     1      -0.107  26.396  31.487  1.00  0.00     0.098 A 
ATOM      4  C   UNL     1      -0.096  26.967  30.213  1.00  0.00     0.142 A 
ATOM      5  C   UNL     1      -0.065  28.370  30.073  1.00  0.00     0.022 A 
ATOM      6  C   UNL     1      -0.044  29.187  31.212  1.00  0.00     0.062 A 
ATOM      7  C   UNL     1      -0.054  28.912  28.784  1.00  0.00     0.019 A 
ATOM      8  C   UNL     1      -0.076  28.057  27.682  1.00  0.00     0.094 A 
ATOM      9  C   UNL     1      -0.107  26.675  27.896  1.00  0.00     0.336 A 
ATOM     10  O   UNL     1      -0.125  25.887  26.916  1.00  0.00    -0.246 OA
ATOM     11  O   UNL     1      -0.115  26.186  29.134  1.00  0.00    -0.423 OA
ENDROOT
BRANCH   1  12
ATOM     12  O   UNL     1      -0.036  29.388  33.666  1.00  0.00    -0.493 OA
ATOM     13  C   UNL     1      -0.076  30.811  33.689  1.00  0.00     0.278 C 
ENDBRANCH   1  12
BRANCH   2  14
ATOM     14  O   UNL     1      -0.098  26.640  33.899  1.00  0.00    -0.504 OA
ATOM     15  H   UNL     1      -0.213  27.204  34.733  1.00  0.00     0.293 HD
ENDBRANCH   2  14
TORSDOF 2
ENDMDL
MODEL 2
REMARK VINA RESULT:    -3.649      1.456      5.354
REMARK INTER + INTRA:          -4.014
REMARK INTER:                  -3.969
REMARK INTRA:                  -0.045
REMARK UNBOUND:                -0.045
REMARK SMILES COc1cc2ccc(=O)oc2cc1O
REMARK SMILES IDX 3 1 13 2 12 3 11 4 5 5 4 6 6 7 7 8 8 9 9 10 10 11 2 12 1 13
REMARK SMILES IDX 14 14
REMARK H PARENT 14 15
REMARK Flexibility Score: inf
ROOT
ATOM      1  C   UNL     1      -0.091  26.083  29.807  1.00  0.00     0.161 A 
ATOM      2  C   UNL     1      -0.055  27.362  29.230  1.00  0.00     0.161 A 
ATOM      3  C   UNL     1      -0.042  28.505  30.043  1.00  0.00     0.098 A 
ATOM      4  C   UNL     1      -0.066  28.380  31.434  1.00  0.00     0.142 A 
ATOM      5  C   UNL     1      -0.102  27.098  32.021  1.00  0.00     0.022 A 
ATOM      6  C   UNL     1      -0.114  25.956  31.210  1.00  0.00     0.062 A 
ATOM      7  C   UNL     1      -0.125  27.005  33.417  1.00  0.00     0.019 A 
ATOM      8  C   UNL     1      -0.112  28.172  34.181  1.00  0.00     0.094 A 
ATOM      9  C   UNL     1      -0.076  29.409  33.529  1.00  0.00     0.336 A 
ATOM     10  O   UNL     1      -0.063  30.473  34.200  1.00  0.00    -0.246 OA
ATOM     11  O   UNL     1      -0.055  29.469  32.200  1.00  0.00    -0.423 OA
ENDROOT
BRANCH   1  12
ATOM     12  O   UNL     1      -0.101  24.967  28.955  1.00  0.00    -0.493 OA
ATOM     13  C   UNL     1      -0.124  23.614  29.397  1.00  0.00     0.278 C 
ENDBRANCH   1  12
BRANCH   2  14
ATOM     14  O   UNL     1      -0.032  27.490  27.842  1.00  0.00    -0.504 OA
ATOM     15  H   UNL     1      -0.592  26.893  27.245  1.00  0.00     0.293 HD
ENDBRANCH   2  14
TORSDOF 2
ENDMDL
MODEL 3
REMARK VINA RESULT:    -3.176      1.310      2.606
REMARK INTER + INTRA:          -3.500
REMARK INTER:                  -3.455
REMARK INTRA:                  -0.045
REMARK UNBOUND:                -0.045
REMARK SMILES COc1cc2ccc(=O)oc2cc1O
REMARK SMILES IDX 3 1 13 2 12 3 11 4 5 5 4 6 6 7 7 8 8 9 9 10 10 11 2 12 1 13
REMARK SMILES IDX 14 14
REMARK H PARENT 14 15
REMARK Flexibility Score: inf
ROOT
ATOM      1  C   UNL     1      -0.005  27.388  33.182  1.00  0.00     0.161 A 
ATOM      2  C   UNL     1       0.004  28.757  32.874  1.00  0.00     0.161 A 
ATOM      3  C   UNL     1      -0.019  29.183  31.538  1.00  0.00     0.098 A 
ATOM      4  C   UNL     1      -0.050  28.248  30.502  1.00  0.00     0.142 A 
ATOM      5  C   UNL     1      -0.060  26.870  30.802  1.00  0.00     0.022 A 
ATOM      6  C   UNL     1      -0.038  26.443  32.137  1.00  0.00     0.062 A 
ATOM      7  C   UNL     1      -0.093  25.957  29.743  1.00  0.00     0.019 A 
ATOM      8  C   UNL     1      -0.113  26.431  28.431  1.00  0.00     0.094 A 
ATOM      9  C   UNL     1      -0.102  27.813  28.209  1.00  0.00     0.336 A 
ATOM     10  O   UNL     1      -0.122  28.261  27.033  1.00  0.00    -0.246 OA
ATOM     11  O   UNL     1      -0.071  28.659  29.236  1.00  0.00    -0.423 OA
ENDROOT
BRANCH   1  12
ATOM     12  O   UNL     1       0.018  27.007  34.533  1.00  0.00    -0.493 OA
ATOM     13  C   UNL     1      -0.121  25.668  34.997  1.00  0.00     0.278 C 
ENDBRANCH   1  12
BRANCH   2  14
ATOM     14  O   UNL     1       0.037  29.693  33.907  1.00  0.00    -0.504 OA
ATOM     15  H   UNL     1      -0.298  30.641  33.776  1.00  0.00     0.293 HD
ENDBRANCH   2  14
TORSDOF 2
ENDMDL
MODEL 4
REMARK VINA RESULT:    -2.761      1.346      5.405
REMARK INTER + INTRA:          -3.048
REMARK INTER:                  -3.003
REMARK INTRA:                  -0.045
REMARK UNBOUND:                -0.045
REMARK SMILES COc1cc2ccc(=O)oc2cc1O
REMARK SMILES IDX 3 1 13 2 12 3 11 4 5 5 4 6 6 7 7 8 8 9 9 10 10 11 2 12 1 13
REMARK SMILES IDX 14 14
REMARK H PARENT 14 15
REMARK Flexibility Score: inf
ROOT
ATOM      1  C   UNL     1      -0.069  26.935  29.312  1.00  0.00     0.161 A 
ATOM      2  C   UNL     1       0.026  28.333  29.243  1.00  0.00     0.161 A 
ATOM      3  C   UNL     1       0.071  29.099  30.417  1.00  0.00     0.098 A 
ATOM      4  C   UNL     1       0.020  28.476  31.665  1.00  0.00     0.142 A 
ATOM      5  C   UNL     1      -0.076  27.072  31.744  1.00  0.00     0.022 A 
ATOM      6  C   UNL     1      -0.120  26.305  30.571  1.00  0.00     0.062 A 
ATOM      7  C   UNL     1      -0.124  26.476  33.009  1.00  0.00     0.019 A 
ATOM      8  C   UNL     1      -0.078  27.282  34.147  1.00  0.00     0.094 A 
ATOM      9  C   UNL     1       0.017  28.669  33.992  1.00  0.00     0.336 A 
ATOM     10  O   UNL     1       0.062  29.413  35.006  1.00  0.00    -0.246 OA
ATOM     11  O   UNL     1       0.062  29.209  32.776  1.00  0.00    -0.423 OA
ENDROOT
BRANCH   1  12
ATOM     12  O   UNL     1      -0.111  26.208  28.111  1.00  0.00    -0.493 OA
ATOM     13  C   UNL     1      -0.125  24.787  28.028  1.00  0.00     0.278 C 
ENDBRANCH   1  12
BRANCH   2  14
ATOM     14  O   UNL     1       0.076  28.958  27.997  1.00  0.00    -0.504 OA
ATOM     15  H   UNL     1      -0.376  28.557  27.184  1.00  0.00     0.293 HD
ENDBRANCH   2  14
TORSDOF 2
ENDMDL
