MODEL 1
REMARK VINA RESULT:    -3.035      0.000      0.000
REMARK INTER + INTRA:         -12.569
REMARK INTER:                  -7.648
REMARK INTRA:                  -4.921
REMARK UNBOUND:                -4.921
REMARK SMILES CCCCCCCCCCCCCCCCCCCCCCCCCCCC(=O)[O-]
REMARK SMILES IDX 15 1 16 2 17 3 18 4 19 5 20 6 21 7 22 8 23 9 24 10 25 11
REMARK SMILES IDX 26 12 27 13 28 14 29 15 30 16 14 17 13 18 12 19 11 20 10 21
REMARK SMILES IDX 9 22 8 23 7 24 6 25 5 26 4 27 3 28 2 29 1 30
REMARK H PARENT
REMARK Flexibility Score: inf
ROOT
ATOM      1  C   UNL     1      60.742  29.374  59.867  1.00  0.00     0.000 C 
ENDROOT
BRANCH   1   2
ATOM      2  C   UNL     1      59.557  28.439  59.561  1.00  0.00     0.000 C 
BRANCH   2   3
ATOM      3  C   UNL     1      58.406  28.572  60.579  1.00  0.00     0.000 C 
BRANCH   3   4
ATOM      4  C   UNL     1      57.653  27.256  60.854  1.00  0.00     0.000 C 
BRANCH   4   5
ATOM      5  C   UNL     1      58.536  26.064  61.268  1.00  0.00     0.000 C 
BRANCH   5   6
ATOM      6  C   UNL     1      59.477  26.328  62.457  1.00  0.00     0.000 C 
BRANCH   6   7
ATOM      7  C   UNL     1      60.237  25.073  62.914  1.00  0.00     0.000 C 
BRANCH   7   8
ATOM      8  C   UNL     1      61.754  25.283  62.805  1.00  0.00     0.000 C 
BRANCH   8   9
ATOM      9  C   UNL     1      62.130  26.455  61.880  1.00  0.00     0.000 C 
BRANCH   9  10
ATOM     10  C   UNL     1      63.374  26.217  61.001  1.00  0.00     0.000 C 
BRANCH  10  11
ATOM     11  C   UNL     1      63.378  26.974  59.661  1.00  0.00     0.000 C 
BRANCH  11  12
ATOM     12  C   UNL     1      64.655  27.800  59.445  1.00  0.00     0.006 C 
BRANCH  12  13
ATOM     13  C   UNL     1      65.559  27.747  60.680  1.00  0.00     0.053 C 
BRANCH  13  14
ATOM     14  C   UNL     1      66.902  28.330  60.372  1.00  0.00     0.041 C 
ATOM     15  O   UNL     1      67.913  27.977  61.036  1.00  0.00    -0.550 OA
ATOM     16  O   UNL     1      67.046  29.226  59.320  1.00  0.00    -0.550 OA
ENDBRANCH  13  14
ENDBRANCH  12  13
ENDBRANCH  11  12
ENDBRANCH  10  11
ENDBRANCH   9  10
ENDBRANCH   8   9
ENDBRANCH   7   8
ENDBRANCH   6   7
ENDBRANCH   5   6
ENDBRANCH   4   5
ENDBRANCH   3   4
ENDBRANCH   2   3
ENDBRANCH   1   2
BRANCH   1  17
ATOM     17  C   UNL     1      60.430  30.345  61.026  1.00  0.00     0.000 C 
BRANCH  17  18
ATOM     18  C   UNL     1      61.524  30.380  62.108  1.00  0.00     0.000 C 
BRANCH  18  19
ATOM     19  C   UNL     1      62.935  30.173  61.533  1.00  0.00     0.000 C 
BRANCH  19  20
ATOM     20  C   UNL     1      63.704  31.493  61.365  1.00  0.00     0.000 C 
BRANCH  20  21
ATOM     21  C   UNL     1      64.504  31.554  60.052  1.00  0.00     0.000 C 
BRANCH  21  22
ATOM     22  C   UNL     1      63.601  31.705  58.817  1.00  0.00    -0.000 C 
BRANCH  22  23
ATOM     23  C   UNL     1      63.688  33.105  58.189  1.00  0.00    -0.000 C 
BRANCH  23  24
ATOM     24  C   UNL     1      62.291  33.729  58.045  1.00  0.00    -0.000 C 
BRANCH  24  25
ATOM     25  C   UNL     1      61.273  33.156  59.048  1.00  0.00    -0.000 C 
BRANCH  25  26
ATOM     26  C   UNL     1      61.158  33.935  60.375  1.00  0.00    -0.000 C 
BRANCH  26  27
ATOM     27  C   UNL     1      61.123  35.469  60.231  1.00  0.00    -0.000 C 
BRANCH  27  28
ATOM     28  C   UNL     1      62.184  36.225  61.056  1.00  0.00    -0.000 C 
BRANCH  28  29
ATOM     29  C   UNL     1      63.642  35.909  60.676  1.00  0.00    -0.003 C 
ATOM     30  C   UNL     1      64.417  35.228  61.803  1.00  0.00     0.004 C 
ENDBRANCH  28  29
ENDBRANCH  27  28
ENDBRANCH  26  27
ENDBRANCH  25  26
ENDBRANCH  24  25
ENDBRANCH  23  24
ENDBRANCH  22  23
ENDBRANCH  21  22
ENDBRANCH  20  21
ENDBRANCH  19  20
ENDBRANCH  18  19
ENDBRANCH  17  18
ENDBRANCH   1  17
TORSDOF 26
ENDMDL
MODEL 2
REMARK VINA RESULT:    -3.015      3.038      6.361
REMARK INTER + INTRA:         -12.518
REMARK INTER:                  -7.321
REMARK INTRA:                  -5.198
REMARK UNBOUND:                -4.921
REMARK SMILES CCCCCCCCCCCCCCCCCCCCCCCCCCCC(=O)[O-]
REMARK SMILES IDX 15 1 16 2 17 3 18 4 19 5 20 6 21 7 22 8 23 9 24 10 25 11
REMARK SMILES IDX 26 12 27 13 28 14 29 15 30 16 14 17 13 18 12 19 11 20 10 21
REMARK SMILES IDX 9 22 8 23 7 24 6 25 5 26 4 27 3 28 2 29 1 30
REMARK H PARENT
REMARK Flexibility Score: inf
ROOT
ATOM      1  C   UNL     1      61.780  36.521  61.035  1.00  0.00     0.000 C 
ENDROOT
BRANCH   1   2
ATOM      2  C   UNL     1      63.064  35.989  60.370  1.00  0.00     0.000 C 
BRANCH   2   3
ATOM      3  C   UNL     1      63.911  35.111  61.314  1.00  0.00     0.000 C 
BRANCH   3   4
ATOM      4  C   UNL     1      63.836  33.602  61.007  1.00  0.00     0.000 C 
BRANCH   4   5
ATOM      5  C   UNL     1      63.184  33.234  59.662  1.00  0.00     0.000 C 
BRANCH   5   6
ATOM      6  C   UNL     1      62.060  32.185  59.744  1.00  0.00     0.000 C 
BRANCH   6   7
ATOM      7  C   UNL     1      60.992  32.528  60.793  1.00  0.00     0.000 C 
BRANCH   7   8
ATOM      8  C   UNL     1      60.740  31.334  61.727  1.00  0.00     0.000 C 
BRANCH   8   9
ATOM      9  C   UNL     1      62.000  30.480  61.956  1.00  0.00     0.000 C 
BRANCH   9  10
ATOM     10  C   UNL     1      61.889  29.017  61.483  1.00  0.00     0.000 C 
BRANCH  10  11
ATOM     11  C   UNL     1      63.222  28.359  61.083  1.00  0.00     0.000 C 
BRANCH  11  12
ATOM     12  C   UNL     1      64.379  29.365  60.986  1.00  0.00     0.006 C 
BRANCH  12  13
ATOM     13  C   UNL     1      64.754  29.632  59.526  1.00  0.00     0.053 C 
BRANCH  13  14
ATOM     14  C   UNL     1      66.053  30.369  59.444  1.00  0.00     0.041 C 
ATOM     15  O   UNL     1      66.111  31.489  58.869  1.00  0.00    -0.550 OA
ATOM     16  O   UNL     1      67.190  29.844  60.046  1.00  0.00    -0.550 OA
ENDBRANCH  13  14
ENDBRANCH  12  13
ENDBRANCH  11  12
ENDBRANCH  10  11
ENDBRANCH   9  10
ENDBRANCH   8   9
ENDBRANCH   7   8
ENDBRANCH   6   7
ENDBRANCH   5   6
ENDBRANCH   4   5
ENDBRANCH   3   4
ENDBRANCH   2   3
ENDBRANCH   1   2
BRANCH   1  17
ATOM     17  C   UNL     1      60.528  36.265  60.169  1.00  0.00     0.000 C 
BRANCH  17  18
ATOM     18  C   UNL     1      60.851  35.987  58.690  1.00  0.00     0.000 C 
BRANCH  18  19
ATOM     19  C   UNL     1      59.999  34.853  58.098  1.00  0.00     0.000 C 
BRANCH  19  20
ATOM     20  C   UNL     1      60.678  34.165  56.904  1.00  0.00     0.000 C 
BRANCH  20  21
ATOM     21  C   UNL     1      59.785  34.128  55.650  1.00  0.00     0.000 C 
BRANCH  21  22
ATOM     22  C   UNL     1      58.688  35.204  55.675  1.00  0.00    -0.000 C 
BRANCH  22  23
ATOM     23  C   UNL     1      57.544  34.905  54.693  1.00  0.00    -0.000 C 
BRANCH  23  24
ATOM     24  C   UNL     1      56.507  33.968  55.329  1.00  0.00    -0.000 C 
BRANCH  24  25
ATOM     25  C   UNL     1      56.500  32.564  54.696  1.00  0.00    -0.000 C 
BRANCH  25  26
ATOM     26  C   UNL     1      57.134  31.456  55.563  1.00  0.00    -0.000 C 
BRANCH  26  27
ATOM     27  C   UNL     1      56.762  31.503  57.058  1.00  0.00    -0.000 C 
BRANCH  27  28
ATOM     28  C   UNL     1      57.928  31.838  58.010  1.00  0.00    -0.000 C 
BRANCH  28  29
ATOM     29  C   UNL     1      59.121  30.868  57.935  1.00  0.00    -0.003 C 
ATOM     30  C   UNL     1      59.001  29.699  58.912  1.00  0.00     0.004 C 
ENDBRANCH  28  29
ENDBRANCH  27  28
ENDBRANCH  26  27
ENDBRANCH  25  26
ENDBRANCH  24  25
ENDBRANCH  23  24
ENDBRANCH  22  23
ENDBRANCH  21  22
ENDBRANCH  20  21
ENDBRANCH  19  20
ENDBRANCH  18  19
ENDBRANCH  17  18
ENDBRANCH   1  17
TORSDOF 26
ENDMDL
MODEL 3
REMARK VINA RESULT:    -2.995      3.355      5.313
REMARK INTER + INTRA:         -12.468
REMARK INTER:                  -7.125
REMARK INTRA:                  -5.343
REMARK UNBOUND:                -4.921
REMARK SMILES CCCCCCCCCCCCCCCCCCCCCCCCCCCC(=O)[O-]
REMARK SMILES IDX 15 1 16 2 17 3 18 4 19 5 20 6 21 7 22 8 23 9 24 10 25 11
REMARK SMILES IDX 26 12 27 13 28 14 29 15 30 16 14 17 13 18 12 19 11 20 10 21
REMARK SMILES IDX 9 22 8 23 7 24 6 25 5 26 4 27 3 28 2 29 1 30
REMARK H PARENT
REMARK Flexibility Score: inf
ROOT
ATOM      1  C   UNL     1      61.485  29.187  58.266  1.00  0.00     0.000 C 
ENDROOT
BRANCH   1   2
ATOM      2  C   UNL     1      61.879  27.999  57.368  1.00  0.00     0.000 C 
BRANCH   2   3
ATOM      3  C   UNL     1      61.120  26.702  57.719  1.00  0.00     0.000 C 
BRANCH   3   4
ATOM      4  C   UNL     1      62.015  25.582  58.283  1.00  0.00     0.000 C 
BRANCH   4   5
ATOM      5  C   UNL     1      63.482  25.975  58.540  1.00  0.00     0.000 C 
BRANCH   5   6
ATOM      6  C   UNL     1      63.934  25.893  60.009  1.00  0.00     0.000 C 
BRANCH   6   7
ATOM      7  C   UNL     1      63.080  26.755  60.951  1.00  0.00     0.000 C 
BRANCH   7   8
ATOM      8  C   UNL     1      62.284  25.875  61.926  1.00  0.00     0.000 C 
BRANCH   8   9
ATOM      9  C   UNL     1      60.936  26.499  62.330  1.00  0.00     0.000 C 
BRANCH   9  10
ATOM     10  C   UNL     1      59.878  26.543  61.209  1.00  0.00     0.000 C 
BRANCH  10  11
ATOM     11  C   UNL     1      59.257  27.928  60.954  1.00  0.00     0.000 C 
BRANCH  11  12
ATOM     12  C   UNL     1      58.280  27.935  59.769  1.00  0.00     0.006 C 
BRANCH  12  13
ATOM     13  C   UNL     1      56.900  28.441  60.197  1.00  0.00     0.053 C 
BRANCH  13  14
ATOM     14  C   UNL     1      56.362  27.614  61.321  1.00  0.00     0.041 C 
ATOM     15  O   UNL     1      56.127  26.388  61.150  1.00  0.00    -0.550 OA
ATOM     16  O   UNL     1      56.169  28.184  62.573  1.00  0.00    -0.550 OA
ENDBRANCH  13  14
ENDBRANCH  12  13
ENDBRANCH  11  12
ENDBRANCH  10  11
ENDBRANCH   9  10
ENDBRANCH   8   9
ENDBRANCH   7   8
ENDBRANCH   6   7
ENDBRANCH   5   6
ENDBRANCH   4   5
ENDBRANCH   3   4
ENDBRANCH   2   3
ENDBRANCH   1   2
BRANCH   1  17
ATOM     17  C   UNL     1      61.686  30.543  57.555  1.00  0.00     0.000 C 
BRANCH  17  18
ATOM     18  C   UNL     1      61.078  31.732  58.320  1.00  0.00     0.000 C 
BRANCH  18  19
ATOM     19  C   UNL     1      60.276  31.295  59.558  1.00  0.00     0.000 C 
BRANCH  19  20
ATOM     20  C   UNL     1      60.694  32.050  60.830  1.00  0.00     0.000 C 
BRANCH  20  21
ATOM     21  C   UNL     1      60.934  31.113  62.027  1.00  0.00     0.000 C 
BRANCH  21  22
ATOM     22  C   UNL     1      62.029  30.070  61.750  1.00  0.00    -0.000 C 
BRANCH  22  23
ATOM     23  C   UNL     1      63.439  30.680  61.746  1.00  0.00    -0.000 C 
BRANCH  23  24
ATOM     24  C   UNL     1      64.138  30.435  60.400  1.00  0.00    -0.000 C 
BRANCH  24  25
ATOM     25  C   UNL     1      64.863  31.685  59.867  1.00  0.00    -0.000 C 
BRANCH  25  26
ATOM     26  C   UNL     1      64.006  32.967  59.825  1.00  0.00    -0.000 C 
BRANCH  26  27
ATOM     27  C   UNL     1      64.029  33.811  61.114  1.00  0.00    -0.000 C 
BRANCH  27  28
ATOM     28  C   UNL     1      63.338  35.186  61.006  1.00  0.00    -0.000 C 
BRANCH  28  29
ATOM     29  C   UNL     1      62.264  35.283  59.908  1.00  0.00    -0.003 C 
ATOM     30  C   UNL     1      60.902  35.723  60.444  1.00  0.00     0.004 C 
ENDBRANCH  28  29
ENDBRANCH  27  28
ENDBRANCH  26  27
ENDBRANCH  25  26
ENDBRANCH  24  25
ENDBRANCH  23  24
ENDBRANCH  22  23
ENDBRANCH  21  22
ENDBRANCH  20  21
ENDBRANCH  19  20
ENDBRANCH  18  19
ENDBRANCH  17  18
ENDBRANCH   1  17
TORSDOF 26
ENDMDL
MODEL 4
REMARK VINA RESULT:    -2.983      9.776     12.885
REMARK INTER + INTRA:         -12.438
REMARK INTER:                  -7.448
REMARK INTRA:                  -4.990
REMARK UNBOUND:                -4.921
REMARK SMILES CCCCCCCCCCCCCCCCCCCCCCCCCCCC(=O)[O-]
REMARK SMILES IDX 15 1 16 2 17 3 18 4 19 5 20 6 21 7 22 8 23 9 24 10 25 11
REMARK SMILES IDX 26 12 27 13 28 14 29 15 30 16 14 17 13 18 12 19 11 20 10 21
REMARK SMILES IDX 9 22 8 23 7 24 6 25 5 26 4 27 3 28 2 29 1 30
REMARK H PARENT
REMARK Flexibility Score: inf
ROOT
ATOM      1  C   UNL     1      63.339  25.924  50.134  1.00  0.00     0.000 C 
ENDROOT
BRANCH   1   2
ATOM      2  C   UNL     1      64.139  27.235  50.014  1.00  0.00     0.000 C 
BRANCH   2   3
ATOM      3  C   UNL     1      64.979  27.310  48.721  1.00  0.00     0.000 C 
BRANCH   3   4
ATOM      4  C   UNL     1      64.297  28.076  47.571  1.00  0.00     0.000 C 
BRANCH   4   5
ATOM      5  C   UNL     1      65.225  28.979  46.736  1.00  0.00     0.000 C 
BRANCH   5   6
ATOM      6  C   UNL     1      66.607  29.249  47.357  1.00  0.00     0.000 C 
BRANCH   6   7
ATOM      7  C   UNL     1      67.019  30.728  47.292  1.00  0.00     0.000 C 
BRANCH   7   8
ATOM      8  C   UNL     1      65.970  31.617  47.977  1.00  0.00     0.000 C 
BRANCH   8   9
ATOM      9  C   UNL     1      65.862  31.356  49.490  1.00  0.00     0.000 C 
BRANCH   9  10
ATOM     10  C   UNL     1      64.449  30.992  49.988  1.00  0.00     0.000 C 
BRANCH  10  11
ATOM     11  C   UNL     1      63.313  31.282  48.991  1.00  0.00     0.000 C 
BRANCH  11  12
ATOM     12  C   UNL     1      62.200  32.155  49.591  1.00  0.00     0.006 C 
BRANCH  12  13
ATOM     13  C   UNL     1      62.105  33.501  48.866  1.00  0.00     0.053 C 
BRANCH  13  14
ATOM     14  C   UNL     1      62.896  34.544  49.590  1.00  0.00     0.041 C 
ATOM     15  O   UNL     1      64.121  34.698  49.339  1.00  0.00    -0.550 OA
ATOM     16  O   UNL     1      62.269  35.380  50.505  1.00  0.00    -0.550 OA
ENDBRANCH  13  14
ENDBRANCH  12  13
ENDBRANCH  11  12
ENDBRANCH  10  11
ENDBRANCH   9  10
ENDBRANCH   8   9
ENDBRANCH   7   8
ENDBRANCH   6   7
ENDBRANCH   5   6
ENDBRANCH   4   5
ENDBRANCH   3   4
ENDBRANCH   2   3
ENDBRANCH   1   2
BRANCH   1  17
ATOM     17  C   UNL     1      61.818  26.158  50.001  1.00  0.00     0.000 C 
BRANCH  17  18
ATOM     18  C   UNL     1      60.970  25.118  50.754  1.00  0.00     0.000 C 
BRANCH  18  19
ATOM     19  C   UNL     1      60.281  25.702  51.998  1.00  0.00     0.000 C 
BRANCH  19  20
ATOM     20  C   UNL     1      58.811  26.073  51.742  1.00  0.00     0.000 C 
BRANCH  20  21
ATOM     21  C   UNL     1      58.296  25.561  50.384  1.00  0.00     0.000 C 
BRANCH  21  22
ATOM     22  C   UNL     1      56.933  26.161  50.005  1.00  0.00    -0.000 C 
BRANCH  22  23
ATOM     23  C   UNL     1      56.471  27.247  50.989  1.00  0.00    -0.000 C 
BRANCH  23  24
ATOM     24  C   UNL     1      56.311  28.599  50.277  1.00  0.00    -0.000 C 
BRANCH  24  25
ATOM     25  C   UNL     1      57.517  29.533  50.487  1.00  0.00    -0.000 C 
BRANCH  25  26
ATOM     26  C   UNL     1      58.613  29.434  49.404  1.00  0.00    -0.000 C 
BRANCH  26  27
ATOM     27  C   UNL     1      60.036  29.175  49.937  1.00  0.00    -0.000 C 
BRANCH  27  28
ATOM     28  C   UNL     1      60.240  29.492  51.432  1.00  0.00    -0.000 C 
BRANCH  28  29
ATOM     29  C   UNL     1      61.646  29.177  51.972  1.00  0.00    -0.003 C 
ATOM     30  C   UNL     1      62.235  30.316  52.804  1.00  0.00     0.004 C 
ENDBRANCH  28  29
ENDBRANCH  27  28
ENDBRANCH  26  27
ENDBRANCH  25  26
ENDBRANCH  24  25
ENDBRANCH  23  24
ENDBRANCH  22  23
ENDBRANCH  21  22
ENDBRANCH  20  21
ENDBRANCH  19  20
ENDBRANCH  18  19
ENDBRANCH  17  18
ENDBRANCH   1  17
TORSDOF 26
ENDMDL
MODEL 5
REMARK VINA RESULT:    -2.964      9.386     11.946
REMARK INTER + INTRA:         -12.390
REMARK INTER:                  -7.626
REMARK INTRA:                  -4.764
REMARK UNBOUND:                -4.921
REMARK SMILES CCCCCCCCCCCCCCCCCCCCCCCCCCCC(=O)[O-]
REMARK SMILES IDX 15 1 16 2 17 3 18 4 19 5 20 6 21 7 22 8 23 9 24 10 25 11
REMARK SMILES IDX 26 12 27 13 28 14 29 15 30 16 14 17 13 18 12 19 11 20 10 21
REMARK SMILES IDX 9 22 8 23 7 24 6 25 5 26 4 27 3 28 2 29 1 30
REMARK H PARENT
REMARK Flexibility Score: inf
ROOT
ATOM      1  C   UNL     1      58.298  26.194  49.819  1.00  0.00     0.000 C 
ENDROOT
BRANCH   1   2
ATOM      2  C   UNL     1      57.780  26.558  51.222  1.00  0.00     0.000 C 
BRANCH   2   3
ATOM      3  C   UNL     1      58.881  26.507  52.303  1.00  0.00     0.000 C 
BRANCH   3   4
ATOM      4  C   UNL     1      59.819  25.290  52.188  1.00  0.00     0.000 C 
BRANCH   4   5
ATOM      5  C   UNL     1      61.324  25.618  52.140  1.00  0.00     0.000 C 
BRANCH   5   6
ATOM      6  C   UNL     1      61.691  27.063  52.522  1.00  0.00     0.000 C 
BRANCH   6   7
ATOM      7  C   UNL     1      62.704  27.701  51.560  1.00  0.00     0.000 C 
BRANCH   7   8
ATOM      8  C   UNL     1      62.924  26.810  50.328  1.00  0.00     0.000 C 
BRANCH   8   9
ATOM      9  C   UNL     1      62.966  27.609  49.013  1.00  0.00     0.000 C 
BRANCH   9  10
ATOM     10  C   UNL     1      64.260  28.415  48.782  1.00  0.00     0.000 C 
BRANCH  10  11
ATOM     11  C   UNL     1      64.048  29.888  48.390  1.00  0.00     0.000 C 
BRANCH  11  12
ATOM     12  C   UNL     1      63.477  30.734  49.537  1.00  0.00     0.006 C 
BRANCH  12  13
ATOM     13  C   UNL     1      62.918  32.062  49.016  1.00  0.00     0.053 C 
BRANCH  13  14
ATOM     14  C   UNL     1      63.946  33.142  49.122  1.00  0.00     0.041 C 
ATOM     15  O   UNL     1      65.141  32.915  48.790  1.00  0.00    -0.550 OA
ATOM     16  O   UNL     1      63.577  34.415  49.538  1.00  0.00    -0.550 OA
ENDBRANCH  13  14
ENDBRANCH  12  13
ENDBRANCH  11  12
ENDBRANCH  10  11
ENDBRANCH   9  10
ENDBRANCH   8   9
ENDBRANCH   7   8
ENDBRANCH   6   7
ENDBRANCH   5   6
ENDBRANCH   4   5
ENDBRANCH   3   4
ENDBRANCH   2   3
ENDBRANCH   1   2
BRANCH   1  17
ATOM     17  C   UNL     1      59.398  27.165  49.335  1.00  0.00     0.000 C 
BRANCH  17  18
ATOM     18  C   UNL     1      58.919  28.622  49.213  1.00  0.00     0.000 C 
BRANCH  18  19
ATOM     19  C   UNL     1      59.952  29.633  49.736  1.00  0.00     0.000 C 
BRANCH  19  20
ATOM     20  C   UNL     1      59.750  29.970  51.222  1.00  0.00     0.000 C 
BRANCH  20  21
ATOM     21  C   UNL     1      58.265  30.092  51.609  1.00  0.00     0.000 C 
BRANCH  21  22
ATOM     22  C   UNL     1      58.063  30.757  52.980  1.00  0.00    -0.000 C 
BRANCH  22  23
ATOM     23  C   UNL     1      56.665  30.498  53.562  1.00  0.00    -0.000 C 
BRANCH  23  24
ATOM     24  C   UNL     1      56.418  28.994  53.751  1.00  0.00    -0.000 C 
BRANCH  24  25
ATOM     25  C   UNL     1      55.164  28.495  53.010  1.00  0.00    -0.000 C 
BRANCH  25  26
ATOM     26  C   UNL     1      54.628  29.449  51.922  1.00  0.00    -0.000 C 
BRANCH  26  27
ATOM     27  C   UNL     1      54.835  28.969  50.472  1.00  0.00    -0.000 C 
BRANCH  27  28
ATOM     28  C   UNL     1      53.564  28.446  49.771  1.00  0.00    -0.000 C 
BRANCH  28  29
ATOM     29  C   UNL     1      53.365  26.922  49.850  1.00  0.00    -0.003 C 
ATOM     30  C   UNL     1      54.575  26.135  49.348  1.00  0.00     0.004 C 
ENDBRANCH  28  29
ENDBRANCH  27  28
ENDBRANCH  26  27
ENDBRANCH  25  26
ENDBRANCH  24  25
ENDBRANCH  23  24
ENDBRANCH  22  23
ENDBRANCH  21  22
ENDBRANCH  20  21
ENDBRANCH  19  20
ENDBRANCH  18  19
ENDBRANCH  17  18
ENDBRANCH   1  17
TORSDOF 26
ENDMDL
MODEL 6
REMARK VINA RESULT:    -2.920      2.510      7.609
REMARK INTER + INTRA:         -12.278
REMARK INTER:                  -7.342
REMARK INTRA:                  -4.936
REMARK UNBOUND:                -4.921
REMARK SMILES CCCCCCCCCCCCCCCCCCCCCCCCCCCC(=O)[O-]
REMARK SMILES IDX 15 1 16 2 17 3 18 4 19 5 20 6 21 7 22 8 23 9 24 10 25 11
REMARK SMILES IDX 26 12 27 13 28 14 29 15 30 16 14 17 13 18 12 19 11 20 10 21
REMARK SMILES IDX 9 22 8 23 7 24 6 25 5 26 4 27 3 28 2 29 1 30
REMARK H PARENT
REMARK Flexibility Score: inf
ROOT
ATOM      1  C   UNL     1      64.200  34.466  60.318  1.00  0.00     0.000 C 
ENDROOT
BRANCH   1   2
ATOM      2  C   UNL     1      64.035  35.450  61.492  1.00  0.00     0.000 C 
BRANCH   2   3
ATOM      3  C   UNL     1      62.799  36.362  61.343  1.00  0.00     0.000 C 
BRANCH   3   4
ATOM      4  C   UNL     1      61.527  35.628  60.877  1.00  0.00     0.000 C 
BRANCH   4   5
ATOM      5  C   UNL     1      60.716  36.344  59.781  1.00  0.00     0.000 C 
BRANCH   5   6
ATOM      6  C   UNL     1      60.303  35.461  58.589  1.00  0.00     0.000 C 
BRANCH   6   7
ATOM      7  C   UNL     1      61.498  34.993  57.744  1.00  0.00     0.000 C 
BRANCH   7   8
ATOM      8  C   UNL     1      61.619  33.462  57.770  1.00  0.00     0.000 C 
BRANCH   8   9
ATOM      9  C   UNL     1      60.484  32.786  58.559  1.00  0.00     0.000 C 
BRANCH   9  10
ATOM     10  C   UNL     1      60.934  31.666  59.518  1.00  0.00     0.000 C 
BRANCH  10  11
ATOM     11  C   UNL     1      60.677  31.943  61.009  1.00  0.00     0.000 C 
BRANCH  11  12
ATOM     12  C   UNL     1      61.289  30.877  61.929  1.00  0.00     0.006 C 
BRANCH  12  13
ATOM     13  C   UNL     1      62.021  29.804  61.117  1.00  0.00     0.053 C 
BRANCH  13  14
ATOM     14  C   UNL     1      61.351  28.476  61.277  1.00  0.00     0.041 C 
ATOM     15  O   UNL     1      60.157  28.319  60.905  1.00  0.00    -0.550 OA
ATOM     16  O   UNL     1      62.059  27.397  61.791  1.00  0.00    -0.550 OA
ENDBRANCH  13  14
ENDBRANCH  12  13
ENDBRANCH  11  12
ENDBRANCH  10  11
ENDBRANCH   9  10
ENDBRANCH   8   9
ENDBRANCH   7   8
ENDBRANCH   6   7
ENDBRANCH   5   6
ENDBRANCH   4   5
ENDBRANCH   3   4
ENDBRANCH   2   3
ENDBRANCH   1   2
BRANCH   1  17
ATOM     17  C   UNL     1      64.006  32.999  60.759  1.00  0.00     0.000 C 
BRANCH  17  18
ATOM     18  C   UNL     1      64.861  32.001  59.959  1.00  0.00     0.000 C 
BRANCH  18  19
ATOM     19  C   UNL     1      64.946  32.355  58.465  1.00  0.00     0.000 C 
BRANCH  19  20
ATOM     20  C   UNL     1      64.980  31.110  57.563  1.00  0.00     0.000 C 
BRANCH  20  21
ATOM     21  C   UNL     1      64.331  29.880  58.222  1.00  0.00     0.000 C 
BRANCH  21  22
ATOM     22  C   UNL     1      65.347  28.768  58.528  1.00  0.00    -0.000 C 
BRANCH  22  23
ATOM     23  C   UNL     1      64.848  27.791  59.604  1.00  0.00    -0.000 C 
BRANCH  23  24
ATOM     24  C   UNL     1      65.335  28.214  60.998  1.00  0.00    -0.000 C 
BRANCH  24  25
ATOM     25  C   UNL     1      66.561  29.144  60.947  1.00  0.00    -0.000 C 
BRANCH  25  26
ATOM     26  C   UNL     1      67.882  28.505  61.423  1.00  0.00    -0.000 C 
BRANCH  26  27
ATOM     27  C   UNL     1      68.904  28.209  60.307  1.00  0.00    -0.000 C 
BRANCH  27  28
ATOM     28  C   UNL     1      68.634  26.923  59.500  1.00  0.00    -0.000 C 
BRANCH  28  29
ATOM     29  C   UNL     1      68.822  27.065  57.979  1.00  0.00    -0.003 C 
ATOM     30  C   UNL     1      68.928  28.520  57.524  1.00  0.00     0.004 C 
ENDBRANCH  28  29
ENDBRANCH  27  28
ENDBRANCH  26  27
ENDBRANCH  25  26
ENDBRANCH  24  25
ENDBRANCH  23  24
ENDBRANCH  22  23
ENDBRANCH  21  22
ENDBRANCH  20  21
ENDBRANCH  19  20
ENDBRANCH  18  19
ENDBRANCH  17  18
ENDBRANCH   1  17
TORSDOF 26
ENDMDL
MODEL 7
REMARK VINA RESULT:    -2.906      3.186      7.652
REMARK INTER + INTRA:         -12.244
REMARK INTER:                  -6.503
REMARK INTRA:                  -5.740
REMARK UNBOUND:                -4.921
REMARK SMILES CCCCCCCCCCCCCCCCCCCCCCCCCCCC(=O)[O-]
REMARK SMILES IDX 15 1 16 2 17 3 18 4 19 5 20 6 21 7 22 8 23 9 24 10 25 11
REMARK SMILES IDX 26 12 27 13 28 14 29 15 30 16 14 17 13 18 12 19 11 20 10 21
REMARK SMILES IDX 9 22 8 23 7 24 6 25 5 26 4 27 3 28 2 29 1 30
REMARK H PARENT
REMARK Flexibility Score: inf
ROOT
ATOM      1  C   UNL     1      61.320  31.040  61.924  1.00  0.00     0.000 C 
ENDROOT
BRANCH   1   2
ATOM      2  C   UNL     1      61.802  29.739  61.255  1.00  0.00     0.000 C 
BRANCH   2   3
ATOM      3  C   UNL     1      63.339  29.602  61.245  1.00  0.00     0.000 C 
BRANCH   3   4
ATOM      4  C   UNL     1      64.092  30.940  61.377  1.00  0.00     0.000 C 
BRANCH   4   5
ATOM      5  C   UNL     1      64.631  31.526  60.059  1.00  0.00     0.000 C 
BRANCH   5   6
ATOM      6  C   UNL     1      64.400  33.037  59.871  1.00  0.00     0.000 C 
BRANCH   6   7
ATOM      7  C   UNL     1      63.718  33.697  61.079  1.00  0.00     0.000 C 
BRANCH   7   8
ATOM      8  C   UNL     1      64.019  35.202  61.121  1.00  0.00     0.000 C 
BRANCH   8   9
ATOM      9  C   UNL     1      62.746  36.063  61.197  1.00  0.00     0.000 C 
BRANCH   9  10
ATOM     10  C   UNL     1      61.469  35.387  60.658  1.00  0.00     0.000 C 
BRANCH  10  11
ATOM     11  C   UNL     1      60.840  36.068  59.430  1.00  0.00     0.000 C 
BRANCH  11  12
ATOM     12  C   UNL     1      61.802  36.154  58.236  1.00  0.00     0.006 C 
BRANCH  12  13
ATOM     13  C   UNL     1      62.074  34.766  57.648  1.00  0.00     0.053 C 
BRANCH  13  14
ATOM     14  C   UNL     1      61.241  34.541  56.426  1.00  0.00     0.041 C 
ATOM     15  O   UNL     1      61.781  34.514  55.288  1.00  0.00    -0.550 OA
ATOM     16  O   UNL     1      59.877  34.311  56.547  1.00  0.00    -0.550 OA
ENDBRANCH  13  14
ENDBRANCH  12  13
ENDBRANCH  11  12
ENDBRANCH  10  11
ENDBRANCH   9  10
ENDBRANCH   8   9
ENDBRANCH   7   8
ENDBRANCH   6   7
ENDBRANCH   5   6
ENDBRANCH   4   5
ENDBRANCH   3   4
ENDBRANCH   2   3
ENDBRANCH   1   2
BRANCH   1  17
ATOM     17  C   UNL     1      60.395  31.861  60.999  1.00  0.00     0.000 C 
BRANCH  17  18
ATOM     18  C   UNL     1      60.886  31.926  59.542  1.00  0.00     0.000 C 
BRANCH  18  19
ATOM     19  C   UNL     1      59.875  31.332  58.547  1.00  0.00     0.000 C 
BRANCH  19  20
ATOM     20  C   UNL     1      60.550  30.757  57.292  1.00  0.00     0.000 C 
BRANCH  20  21
ATOM     21  C   UNL     1      62.069  31.004  57.266  1.00  0.00     0.000 C 
BRANCH  21  22
ATOM     22  C   UNL     1      62.882  29.719  57.494  1.00  0.00    -0.000 C 
BRANCH  22  23
ATOM     23  C   UNL     1      62.061  28.447  57.232  1.00  0.00    -0.000 C 
BRANCH  23  24
ATOM     24  C   UNL     1      62.243  27.433  58.372  1.00  0.00    -0.000 C 
BRANCH  24  25
ATOM     25  C   UNL     1      60.946  26.674  58.709  1.00  0.00    -0.000 C 
BRANCH  25  26
ATOM     26  C   UNL     1      59.724  27.569  58.998  1.00  0.00    -0.000 C 
BRANCH  26  27
ATOM     27  C   UNL     1      58.872  27.141  60.210  1.00  0.00    -0.000 C 
BRANCH  27  28
ATOM     28  C   UNL     1      58.483  28.283  61.170  1.00  0.00    -0.000 C 
BRANCH  28  29
ATOM     29  C   UNL     1      57.023  28.249  61.656  1.00  0.00    -0.003 C 
ATOM     30  C   UNL     1      56.064  27.664  60.620  1.00  0.00     0.004 C 
ENDBRANCH  28  29
ENDBRANCH  27  28
ENDBRANCH  26  27
ENDBRANCH  25  26
ENDBRANCH  24  25
ENDBRANCH  23  24
ENDBRANCH  22  23
ENDBRANCH  21  22
ENDBRANCH  20  21
ENDBRANCH  19  20
ENDBRANCH  18  19
ENDBRANCH  17  18
ENDBRANCH   1  17
TORSDOF 26
ENDMDL
MODEL 8
REMARK VINA RESULT:    -2.903     10.568     14.220
REMARK INTER + INTRA:         -12.236
REMARK INTER:                  -8.579
REMARK INTRA:                  -3.657
REMARK UNBOUND:                -4.921
REMARK SMILES CCCCCCCCCCCCCCCCCCCCCCCCCCCC(=O)[O-]
REMARK SMILES IDX 15 1 16 2 17 3 18 4 19 5 20 6 21 7 22 8 23 9 24 10 25 11
REMARK SMILES IDX 26 12 27 13 28 14 29 15 30 16 14 17 13 18 12 19 11 20 10 21
REMARK SMILES IDX 9 22 8 23 7 24 6 25 5 26 4 27 3 28 2 29 1 30
REMARK H PARENT
REMARK Flexibility Score: inf
ROOT
ATOM      1  C   UNL     1      61.021  28.754  49.793  1.00  0.00     0.000 C 
ENDROOT
BRANCH   1   2
ATOM      2  C   UNL     1      61.523  28.485  51.224  1.00  0.00     0.000 C 
BRANCH   2   3
ATOM      3  C   UNL     1      62.642  27.425  51.280  1.00  0.00     0.000 C 
BRANCH   3   4
ATOM      4  C   UNL     1      62.890  26.700  49.942  1.00  0.00     0.000 C 
BRANCH   4   5
ATOM      5  C   UNL     1      64.350  26.288  49.676  1.00  0.00     0.000 C 
BRANCH   5   6
ATOM      6  C   UNL     1      65.020  26.989  48.480  1.00  0.00     0.000 C 
BRANCH   6   7
ATOM      7  C   UNL     1      64.186  28.149  47.916  1.00  0.00     0.000 C 
BRANCH   7   8
ATOM      8  C   UNL     1      65.089  29.327  47.517  1.00  0.00     0.000 C 
BRANCH   8   9
ATOM      9  C   UNL     1      64.666  30.652  48.175  1.00  0.00     0.000 C 
BRANCH   9  10
ATOM     10  C   UNL     1      64.474  30.587  49.704  1.00  0.00     0.000 C 
BRANCH  10  11
ATOM     11  C   UNL     1      63.400  31.536  50.266  1.00  0.00     0.000 C 
BRANCH  11  12
ATOM     12  C   UNL     1      62.551  32.194  49.168  1.00  0.00     0.006 C 
BRANCH  12  13
ATOM     13  C   UNL     1      62.465  33.709  49.373  1.00  0.00     0.053 C 
BRANCH  13  14
ATOM     14  C   UNL     1      63.818  34.335  49.241  1.00  0.00     0.041 C 
ATOM     15  O   UNL     1      64.296  35.015  50.188  1.00  0.00    -0.550 OA
ATOM     16  O   UNL     1      64.572  34.124  48.094  1.00  0.00    -0.550 OA
ENDBRANCH  13  14
ENDBRANCH  12  13
ENDBRANCH  11  12
ENDBRANCH  10  11
ENDBRANCH   9  10
ENDBRANCH   8   9
ENDBRANCH   7   8
ENDBRANCH   6   7
ENDBRANCH   5   6
ENDBRANCH   4   5
ENDBRANCH   3   4
ENDBRANCH   2   3
ENDBRANCH   1   2
BRANCH   1  17
ATOM     17  C   UNL     1      59.829  29.736  49.771  1.00  0.00     0.000 C 
BRANCH  17  18
ATOM     18  C   UNL     1      58.522  29.102  49.264  1.00  0.00     0.000 C 
BRANCH  18  19
ATOM     19  C   UNL     1      57.582  28.684  50.407  1.00  0.00     0.000 C 
BRANCH  19  20
ATOM     20  C   UNL     1      57.908  27.286  50.958  1.00  0.00     0.000 C 
BRANCH  20  21
ATOM     21  C   UNL     1      58.058  26.229  49.850  1.00  0.00     0.000 C 
BRANCH  21  22
ATOM     22  C   UNL     1      59.487  25.670  49.756  1.00  0.00    -0.000 C 
BRANCH  22  23
ATOM     23  C   UNL     1      59.617  24.272  50.380  1.00  0.00    -0.000 C 
BRANCH  23  24
ATOM     24  C   UNL     1      60.797  23.504  49.764  1.00  0.00    -0.000 C 
BRANCH  24  25
ATOM     25  C   UNL     1      60.441  22.050  49.404  1.00  0.00    -0.000 C 
BRANCH  25  26
ATOM     26  C   UNL     1      60.900  20.994  50.430  1.00  0.00    -0.000 C 
BRANCH  26  27
ATOM     27  C   UNL     1      60.066  19.698  50.452  1.00  0.00    -0.000 C 
BRANCH  27  28
ATOM     28  C   UNL     1      58.863  19.681  49.488  1.00  0.00    -0.000 C 
BRANCH  28  29
ATOM     29  C   UNL     1      57.775  18.648  49.832  1.00  0.00    -0.003 C 
ATOM     30  C   UNL     1      58.325  17.231  49.987  1.00  0.00     0.004 C 
ENDBRANCH  28  29
ENDBRANCH  27  28
ENDBRANCH  26  27
ENDBRANCH  25  26
ENDBRANCH  24  25
ENDBRANCH  23  24
ENDBRANCH  22  23
ENDBRANCH  21  22
ENDBRANCH  20  21
ENDBRANCH  19  20
ENDBRANCH  18  19
ENDBRANCH  17  18
ENDBRANCH   1  17
TORSDOF 26
ENDMDL
MODEL 9
REMARK VINA RESULT:    -2.897      8.824     10.885
REMARK INTER + INTRA:         -12.220
REMARK INTER:                  -6.719
REMARK INTRA:                  -5.502
REMARK UNBOUND:                -4.921
REMARK SMILES CCCCCCCCCCCCCCCCCCCCCCCCCCCC(=O)[O-]
REMARK SMILES IDX 15 1 16 2 17 3 18 4 19 5 20 6 21 7 22 8 23 9 24 10 25 11
REMARK SMILES IDX 26 12 27 13 28 14 29 15 30 16 14 17 13 18 12 19 11 20 10 21
REMARK SMILES IDX 9 22 8 23 7 24 6 25 5 26 4 27 3 28 2 29 1 30
REMARK H PARENT
REMARK Flexibility Score: inf
ROOT
ATOM      1  C   UNL     1      53.624  30.506  51.272  1.00  0.00     0.000 C 
ENDROOT
BRANCH   1   2
ATOM      2  C   UNL     1      53.311  29.520  50.131  1.00  0.00     0.000 C 
BRANCH   2   3
ATOM      3  C   UNL     1      53.286  28.049  50.596  1.00  0.00     0.000 C 
BRANCH   3   4
ATOM      4  C   UNL     1      54.076  27.088  49.686  1.00  0.00     0.000 C 
BRANCH   4   5
ATOM      5  C   UNL     1      55.549  26.866  50.081  1.00  0.00     0.000 C 
BRANCH   5   6
ATOM      6  C   UNL     1      55.887  27.178  51.550  1.00  0.00     0.000 C 
BRANCH   6   7
ATOM      7  C   UNL     1      56.909  28.314  51.705  1.00  0.00     0.000 C 
BRANCH   7   8
ATOM      8  C   UNL     1      57.044  29.110  50.399  1.00  0.00     0.000 C 
BRANCH   8   9
ATOM      9  C   UNL     1      58.485  29.581  50.133  1.00  0.00     0.000 C 
BRANCH   9  10
ATOM     10  C   UNL     1      59.244  28.779  49.057  1.00  0.00     0.000 C 
BRANCH  10  11
ATOM     11  C   UNL     1      59.243  27.254  49.261  1.00  0.00     0.000 C 
BRANCH  11  12
ATOM     12  C   UNL     1      60.455  26.757  50.062  1.00  0.00     0.006 C 
BRANCH  12  13
ATOM     13  C   UNL     1      60.014  26.077  51.362  1.00  0.00     0.053 C 
BRANCH  13  14
ATOM     14  C   UNL     1      59.288  24.803  51.067  1.00  0.00     0.041 C 
ATOM     15  O   UNL     1      58.179  24.565  51.615  1.00  0.00    -0.550 OA
ATOM     16  O   UNL     1      59.811  23.901  50.149  1.00  0.00    -0.550 OA
ENDBRANCH  13  14
ENDBRANCH  12  13
ENDBRANCH  11  12
ENDBRANCH  10  11
ENDBRANCH   9  10
ENDBRANCH   8   9
ENDBRANCH   7   8
ENDBRANCH   6   7
ENDBRANCH   5   6
ENDBRANCH   4   5
ENDBRANCH   3   4
ENDBRANCH   2   3
ENDBRANCH   1   2
BRANCH   1  17
ATOM     17  C   UNL     1      53.634  29.812  52.652  1.00  0.00     0.000 C 
BRANCH  17  18
ATOM     18  C   UNL     1      54.459  30.565  53.711  1.00  0.00     0.000 C 
BRANCH  18  19
ATOM     19  C   UNL     1      55.514  31.495  53.090  1.00  0.00     0.000 C 
BRANCH  19  20
ATOM     20  C   UNL     1      55.334  32.961  53.517  1.00  0.00     0.000 C 
BRANCH  20  21
ATOM     21  C   UNL     1      56.290  33.374  54.649  1.00  0.00     0.000 C 
BRANCH  21  22
ATOM     22  C   UNL     1      55.546  33.866  55.901  1.00  0.00    -0.000 C 
BRANCH  22  23
ATOM     23  C   UNL     1      55.540  32.826  57.032  1.00  0.00    -0.000 C 
BRANCH  23  24
ATOM     24  C   UNL     1      56.930  32.194  57.205  1.00  0.00    -0.000 C 
BRANCH  24  25
ATOM     25  C   UNL     1      56.907  30.659  57.101  1.00  0.00    -0.000 C 
BRANCH  25  26
ATOM     26  C   UNL     1      57.570  30.082  55.833  1.00  0.00    -0.000 C 
BRANCH  26  27
ATOM     27  C   UNL     1      58.766  30.891  55.295  1.00  0.00    -0.000 C 
BRANCH  27  28
ATOM     28  C   UNL     1      59.160  30.582  53.836  1.00  0.00    -0.000 C 
BRANCH  28  29
ATOM     29  C   UNL     1      59.884  29.239  53.634  1.00  0.00    -0.003 C 
ATOM     30  C   UNL     1      61.110  29.352  52.730  1.00  0.00     0.004 C 
ENDBRANCH  28  29
ENDBRANCH  27  28
ENDBRANCH  26  27
ENDBRANCH  25  26
ENDBRANCH  24  25
ENDBRANCH  23  24
ENDBRANCH  22  23
ENDBRANCH  21  22
ENDBRANCH  20  21
ENDBRANCH  19  20
ENDBRANCH  18  19
ENDBRANCH  17  18
ENDBRANCH   1  17
TORSDOF 26
ENDMDL
