MODEL 1
REMARK VINA RESULT:    -7.589      0.000      0.000
REMARK INTER + INTRA:          -9.463
REMARK INTER:                  -9.142
REMARK INTRA:                  -0.321
REMARK UNBOUND:                -0.321
REMARK SMILES O=c1c(O)c(-c2ccc(O)c(O)c2)oc2cc(O)cc(O)c12
REMARK SMILES IDX 5 1 3 2 2 3 1 4 22 5 20 6 19 7 17 8 16 9 15 10 14 11 6 12
REMARK SMILES IDX 7 13 8 14 9 15 13 16 11 17 10 18 12 20 4 22 21 24 18 26
REMARK H PARENT 10 19 12 21 4 23 21 25 18 27
REMARK Flexibility Score: inf
ROOT
ATOM      1  C   UNL     1      57.265  48.524  23.151  1.00  0.00     0.180 A 
ATOM      2  C   UNL     1      58.385  48.640  23.991  1.00  0.00     0.208 A 
ATOM      3  C   UNL     1      59.596  49.105  23.452  1.00  0.00     0.238 A 
ATOM      4  O   UNL     1      60.580  49.258  24.221  1.00  0.00    -0.285 OA
ATOM      5  C   UNL     1      59.674  49.434  22.077  1.00  0.00     0.111 A 
ATOM      6  C   UNL     1      60.860  49.876  21.417  1.00  0.00     0.134 A 
ATOM      7  C   UNL     1      60.790  50.298  20.083  1.00  0.00     0.093 A 
ATOM      8  C   UNL     1      59.592  50.232  19.368  1.00  0.00     0.123 A 
ATOM      9  C   UNL     1      58.444  49.745  19.987  1.00  0.00     0.094 A 
ATOM     10  C   UNL     1      58.473  49.351  21.327  1.00  0.00     0.146 A 
ATOM     11  O   UNL     1      57.352  48.903  21.881  1.00  0.00    -0.452 OA
ENDROOT
BRANCH   1  12
ATOM     12  C   UNL     1      55.961  48.019  23.640  1.00  0.00     0.025 A 
ATOM     13  C   UNL     1      55.013  48.880  24.219  1.00  0.00     0.016 A 
ATOM     14  C   UNL     1      53.800  48.378  24.696  1.00  0.00     0.051 A 
ATOM     15  C   UNL     1      53.521  47.007  24.614  1.00  0.00     0.157 A 
ATOM     16  C   UNL     1      55.685  46.643  23.578  1.00  0.00     0.062 A 
ATOM     17  C   UNL     1      54.470  46.136  24.054  1.00  0.00     0.158 A 
BRANCH  15  18
ATOM     18  O   UNL     1      52.309  46.510  25.089  1.00  0.00    -0.504 OA
ATOM     19  H   UNL     1      52.252  45.620  25.570  1.00  0.00     0.293 HD
ENDBRANCH  15  18
BRANCH  17  20
ATOM     20  O   UNL     1      54.227  44.766  23.964  1.00  0.00    -0.504 OA
ATOM     21  H   UNL     1      54.300  44.153  24.768  1.00  0.00     0.293 HD
ENDBRANCH  17  20
ENDBRANCH   1  12
BRANCH   2  22
ATOM     22  O   UNL     1      58.279  48.331  25.350  1.00  0.00    -0.502 OA
ATOM     23  H   UNL     1      57.736  47.546  25.689  1.00  0.00     0.293 HD
ENDBRANCH   2  22
BRANCH   6  24
ATOM     24  O   UNL     1      62.125  49.895  22.012  1.00  0.00    -0.507 OA
ATOM     25  H   UNL     1      62.991  50.023  21.513  1.00  0.00     0.293 HD
ENDBRANCH   6  24
BRANCH   8  26
ATOM     26  O   UNL     1      59.535  50.639  18.037  1.00  0.00    -0.508 OA
ATOM     27  H   UNL     1      59.121  51.525  17.771  1.00  0.00     0.293 HD
ENDBRANCH   8  26
TORSDOF 6
ENDMDL
MODEL 2
REMARK VINA RESULT:    -7.500     11.333     15.006
REMARK INTER + INTRA:          -9.355
REMARK INTER:                  -9.328
REMARK INTRA:                  -0.027
REMARK UNBOUND:                -0.321
REMARK SMILES O=c1c(O)c(-c2ccc(O)c(O)c2)oc2cc(O)cc(O)c12
REMARK SMILES IDX 5 1 3 2 2 3 1 4 22 5 20 6 19 7 17 8 16 9 15 10 14 11 6 12
REMARK SMILES IDX 7 13 8 14 9 15 13 16 11 17 10 18 12 20 4 22 21 24 18 26
REMARK H PARENT 10 19 12 21 4 23 21 25 18 27
REMARK Flexibility Score: inf
ROOT
ATOM      1  C   UNL     1      53.264  36.611  27.814  1.00  0.00     0.180 A 
ATOM      2  C   UNL     1      53.972  35.402  27.926  1.00  0.00     0.208 A 
ATOM      3  C   UNL     1      53.449  34.248  27.320  1.00  0.00     0.238 A 
ATOM      4  O   UNL     1      54.115  33.180  27.378  1.00  0.00    -0.285 OA
ATOM      5  C   UNL     1      52.218  34.314  26.624  1.00  0.00     0.111 A 
ATOM      6  C   UNL     1      51.576  33.198  26.007  1.00  0.00     0.134 A 
ATOM      7  C   UNL     1      50.426  33.405  25.234  1.00  0.00     0.093 A 
ATOM      8  C   UNL     1      49.859  34.676  25.111  1.00  0.00     0.123 A 
ATOM      9  C   UNL     1      50.446  35.760  25.759  1.00  0.00     0.094 A 
ATOM     10  C   UNL     1      51.614  35.592  26.507  1.00  0.00     0.146 A 
ATOM     11  O   UNL     1      52.146  36.655  27.099  1.00  0.00    -0.452 OA
ENDROOT
BRANCH   1  12
ATOM     12  C   UNL     1      53.739  37.863  28.445  1.00  0.00     0.025 A 
ATOM     13  C   UNL     1      52.909  38.613  29.297  1.00  0.00     0.016 A 
ATOM     14  C   UNL     1      53.369  39.805  29.862  1.00  0.00     0.051 A 
ATOM     15  C   UNL     1      54.658  40.273  29.575  1.00  0.00     0.157 A 
ATOM     16  C   UNL     1      55.023  38.347  28.144  1.00  0.00     0.062 A 
ATOM     17  C   UNL     1      55.487  39.540  28.710  1.00  0.00     0.158 A 
BRANCH  15  18
ATOM     18  O   UNL     1      55.115  41.461  30.142  1.00  0.00    -0.504 OA
ATOM     19  H   UNL     1      56.007  41.514  30.619  1.00  0.00     0.293 HD
ENDBRANCH  15  18
BRANCH  17  20
ATOM     20  O   UNL     1      56.773  39.982  28.397  1.00  0.00    -0.504 OA
ATOM     21  H   UNL     1      57.449  39.385  27.935  1.00  0.00     0.293 HD
ENDBRANCH  17  20
ENDBRANCH   1  12
BRANCH   2  22
ATOM     22  O   UNL     1      55.197  35.364  28.598  1.00  0.00    -0.502 OA
ATOM     23  H   UNL     1      56.083  35.488  28.123  1.00  0.00     0.293 HD
ENDBRANCH   2  22
BRANCH   6  24
ATOM     24  O   UNL     1      52.006  31.875  26.144  1.00  0.00    -0.507 OA
ATOM     25  H   UNL     1      52.280  31.448  27.015  1.00  0.00     0.293 HD
ENDBRANCH   6  24
BRANCH   8  26
ATOM     26  O   UNL     1      48.707  34.870  24.352  1.00  0.00    -0.508 OA
ATOM     27  H   UNL     1      48.211  35.754  24.358  1.00  0.00     0.293 HD
ENDBRANCH   8  26
TORSDOF 6
ENDMDL
MODEL 3
REMARK VINA RESULT:    -7.385      1.587      3.181
REMARK INTER + INTRA:          -9.218
REMARK INTER:                  -9.206
REMARK INTRA:                  -0.011
REMARK UNBOUND:                -0.321
REMARK SMILES O=c1c(O)c(-c2ccc(O)c(O)c2)oc2cc(O)cc(O)c12
REMARK SMILES IDX 5 1 3 2 2 3 1 4 22 5 20 6 19 7 17 8 16 9 15 10 14 11 6 12
REMARK SMILES IDX 7 13 8 14 9 15 13 16 11 17 10 18 12 20 4 22 21 24 18 26
REMARK H PARENT 10 19 12 21 4 23 21 25 18 27
REMARK Flexibility Score: inf
ROOT
ATOM      1  C   UNL     1      56.302  48.771  22.042  1.00  0.00     0.180 A 
ATOM      2  C   UNL     1      56.586  49.062  20.697  1.00  0.00     0.208 A 
ATOM      3  C   UNL     1      57.878  49.493  20.352  1.00  0.00     0.238 A 
ATOM      4  O   UNL     1      58.142  49.701  19.138  1.00  0.00    -0.285 OA
ATOM      5  C   UNL     1      58.863  49.641  21.358  1.00  0.00     0.111 A 
ATOM      6  C   UNL     1      60.192  50.108  21.127  1.00  0.00     0.134 A 
ATOM      7  C   UNL     1      61.121  50.091  22.175  1.00  0.00     0.093 A 
ATOM      8  C   UNL     1      60.751  49.684  23.460  1.00  0.00     0.123 A 
ATOM      9  C   UNL     1      59.440  49.284  23.707  1.00  0.00     0.094 A 
ATOM     10  C   UNL     1      58.500  49.256  22.674  1.00  0.00     0.146 A 
ATOM     11  O   UNL     1      57.265  48.856  22.951  1.00  0.00    -0.452 OA
ENDROOT
BRANCH   1  12
ATOM     12  C   UNL     1      54.958  48.336  22.486  1.00  0.00     0.025 A 
ATOM     13  C   UNL     1      53.799  49.033  22.103  1.00  0.00     0.016 A 
ATOM     14  C   UNL     1      52.543  48.620  22.554  1.00  0.00     0.051 A 
ATOM     15  C   UNL     1      52.427  47.512  23.405  1.00  0.00     0.157 A 
ATOM     16  C   UNL     1      54.837  47.239  23.355  1.00  0.00     0.062 A 
ATOM     17  C   UNL     1      53.581  46.821  23.809  1.00  0.00     0.158 A 
BRANCH  15  18
ATOM     18  O   UNL     1      51.172  47.101  23.852  1.00  0.00    -0.504 OA
ATOM     19  H   UNL     1      50.939  47.085  24.837  1.00  0.00     0.293 HD
ENDBRANCH  15  18
BRANCH  17  20
ATOM     20  O   UNL     1      53.501  45.720  24.661  1.00  0.00    -0.504 OA
ATOM     21  H   UNL     1      54.030  45.667  25.523  1.00  0.00     0.293 HD
ENDBRANCH  17  20
ENDBRANCH   1  12
BRANCH   2  22
ATOM     22  O   UNL     1      55.606  48.888  19.717  1.00  0.00    -0.502 OA
ATOM     23  H   UNL     1      55.426  47.992  19.279  1.00  0.00     0.293 HD
ENDBRANCH   2  22
BRANCH   6  24
ATOM     24  O   UNL     1      60.639  50.621  19.906  1.00  0.00    -0.507 OA
ATOM     25  H   UNL     1      60.108  51.244  19.317  1.00  0.00     0.293 HD
ENDBRANCH   6  24
BRANCH   8  26
ATOM     26  O   UNL     1      61.678  49.684  24.500  1.00  0.00    -0.508 OA
ATOM     27  H   UNL     1      62.043  48.821  24.885  1.00  0.00     0.293 HD
ENDBRANCH   8  26
TORSDOF 6
ENDMDL
MODEL 4
REMARK VINA RESULT:    -7.226      2.066      6.591
REMARK INTER + INTRA:          -9.025
REMARK INTER:                  -8.832
REMARK INTRA:                  -0.193
REMARK UNBOUND:                -0.321
REMARK SMILES O=c1c(O)c(-c2ccc(O)c(O)c2)oc2cc(O)cc(O)c12
REMARK SMILES IDX 5 1 3 2 2 3 1 4 22 5 20 6 19 7 17 8 16 9 15 10 14 11 6 12
REMARK SMILES IDX 7 13 8 14 9 15 13 16 11 17 10 18 12 20 4 22 21 24 18 26
REMARK H PARENT 10 19 12 21 4 23 21 25 18 27
REMARK Flexibility Score: inf
ROOT
ATOM      1  C   UNL     1      59.684  48.959  22.745  1.00  0.00     0.180 A 
ATOM      2  C   UNL     1      60.619  49.398  23.698  1.00  0.00     0.208 A 
ATOM      3  C   UNL     1      60.198  49.601  25.022  1.00  0.00     0.238 A 
ATOM      4  O   UNL     1      61.052  49.943  25.883  1.00  0.00    -0.285 OA
ATOM      5  C   UNL     1      58.845  49.377  25.373  1.00  0.00     0.111 A 
ATOM      6  C   UNL     1      58.300  49.589  26.675  1.00  0.00     0.134 A 
ATOM      7  C   UNL     1      56.978  49.210  26.940  1.00  0.00     0.093 A 
ATOM      8  C   UNL     1      56.162  48.688  25.934  1.00  0.00     0.123 A 
ATOM      9  C   UNL     1      56.668  48.533  24.645  1.00  0.00     0.094 A 
ATOM     10  C   UNL     1      57.993  48.868  24.358  1.00  0.00     0.146 A 
ATOM     11  O   UNL     1      58.439  48.694  23.119  1.00  0.00    -0.452 OA
ENDROOT
BRANCH   1  12
ATOM     12  C   UNL     1      60.047  48.746  21.325  1.00  0.00     0.025 A 
ATOM     13  C   UNL     1      60.916  47.710  20.940  1.00  0.00     0.016 A 
ATOM     14  C   UNL     1      61.264  47.544  19.597  1.00  0.00     0.051 A 
ATOM     15  C   UNL     1      60.761  48.414  18.621  1.00  0.00     0.157 A 
ATOM     16  C   UNL     1      59.561  49.629  20.347  1.00  0.00     0.062 A 
ATOM     17  C   UNL     1      59.907  49.464  19.001  1.00  0.00     0.158 A 
BRANCH  15  18
ATOM     18  O   UNL     1      61.108  48.244  17.283  1.00  0.00    -0.504 OA
ATOM     19  H   UNL     1      60.569  47.647  16.666  1.00  0.00     0.293 HD
ENDBRANCH  15  18
BRANCH  17  20
ATOM     20  O   UNL     1      59.395  50.353  18.056  1.00  0.00    -0.504 OA
ATOM     21  H   UNL     1      59.983  50.797  17.361  1.00  0.00     0.293 HD
ENDBRANCH  17  20
ENDBRANCH   1  12
BRANCH   2  22
ATOM     22  O   UNL     1      61.955  49.592  23.335  1.00  0.00    -0.502 OA
ATOM     23  H   UNL     1      62.718  49.097  23.782  1.00  0.00     0.293 HD
ENDBRANCH   2  22
BRANCH   6  24
ATOM     24  O   UNL     1      59.000  50.189  27.727  1.00  0.00    -0.507 OA
ATOM     25  H   UNL     1      59.797  50.796  27.613  1.00  0.00     0.293 HD
ENDBRANCH   6  24
BRANCH   8  26
ATOM     26  O   UNL     1      54.844  48.328  26.202  1.00  0.00    -0.508 OA
ATOM     27  H   UNL     1      54.194  48.102  25.458  1.00  0.00     0.293 HD
ENDBRANCH   8  26
TORSDOF 6
ENDMDL
MODEL 5
REMARK VINA RESULT:    -7.214      2.064      3.683
REMARK INTER + INTRA:          -9.011
REMARK INTER:                  -8.694
REMARK INTRA:                  -0.317
REMARK UNBOUND:                -0.321
REMARK SMILES O=c1c(O)c(-c2ccc(O)c(O)c2)oc2cc(O)cc(O)c12
REMARK SMILES IDX 5 1 3 2 2 3 1 4 22 5 20 6 19 7 17 8 16 9 15 10 14 11 6 12
REMARK SMILES IDX 7 13 8 14 9 15 13 16 11 17 10 18 12 20 4 22 21 24 18 26
REMARK H PARENT 10 19 12 21 4 23 21 25 18 27
REMARK Flexibility Score: inf
ROOT
ATOM      1  C   UNL     1      54.870  49.130  22.260  1.00  0.00     0.180 A 
ATOM      2  C   UNL     1      54.463  49.408  20.944  1.00  0.00     0.208 A 
ATOM      3  C   UNL     1      55.438  49.715  19.980  1.00  0.00     0.238 A 
ATOM      4  O   UNL     1      55.071  49.909  18.791  1.00  0.00    -0.285 OA
ATOM      5  C   UNL     1      56.804  49.754  20.348  1.00  0.00     0.111 A 
ATOM      6  C   UNL     1      57.871  50.094  19.463  1.00  0.00     0.134 A 
ATOM      7  C   UNL     1      59.196  49.974  19.902  1.00  0.00     0.093 A 
ATOM      8  C   UNL     1      59.489  49.591  21.213  1.00  0.00     0.123 A 
ATOM      9  C   UNL     1      58.452  49.317  22.101  1.00  0.00     0.094 A 
ATOM     10  C   UNL     1      57.121  49.392  21.683  1.00  0.00     0.146 A 
ATOM     11  O   UNL     1      56.163  49.111  22.558  1.00  0.00    -0.452 OA
ENDROOT
BRANCH   1  12
ATOM     12  C   UNL     1      53.901  48.822  23.336  1.00  0.00     0.025 A 
ATOM     13  C   UNL     1      53.216  49.843  24.018  1.00  0.00     0.016 A 
ATOM     14  C   UNL     1      52.325  49.531  25.047  1.00  0.00     0.051 A 
ATOM     15  C   UNL     1      52.112  48.197  25.420  1.00  0.00     0.157 A 
ATOM     16  C   UNL     1      53.700  47.488  23.727  1.00  0.00     0.062 A 
ATOM     17  C   UNL     1      52.807  47.172  24.757  1.00  0.00     0.158 A 
BRANCH  15  18
ATOM     18  O   UNL     1      51.221  47.889  26.445  1.00  0.00    -0.504 OA
ATOM     19  H   UNL     1      50.487  48.531  26.721  1.00  0.00     0.293 HD
ENDBRANCH  15  18
BRANCH  17  20
ATOM     20  O   UNL     1      52.625  45.834  25.108  1.00  0.00    -0.504 OA
ATOM     21  H   UNL     1      52.998  45.448  25.967  1.00  0.00     0.293 HD
ENDBRANCH  17  20
ENDBRANCH   1  12
BRANCH   2  22
ATOM     22  O   UNL     1      53.111  49.341  20.597  1.00  0.00    -0.502 OA
ATOM     23  H   UNL     1      52.640  50.084  20.094  1.00  0.00     0.293 HD
ENDBRANCH   2  22
BRANCH   6  24
ATOM     24  O   UNL     1      57.686  50.575  18.163  1.00  0.00    -0.507 OA
ATOM     25  H   UNL     1      57.222  50.068  17.425  1.00  0.00     0.293 HD
ENDBRANCH   6  24
BRANCH   8  26
ATOM     26  O   UNL     1      60.809  49.489  21.646  1.00  0.00    -0.508 OA
ATOM     27  H   UNL     1      61.308  50.289  22.018  1.00  0.00     0.293 HD
ENDBRANCH   8  26
TORSDOF 6
ENDMDL
MODEL 6
REMARK VINA RESULT:    -7.047     15.036     16.944
REMARK INTER + INTRA:          -8.810
REMARK INTER:                  -8.491
REMARK INTRA:                  -0.319
REMARK UNBOUND:                -0.321
REMARK SMILES O=c1c(O)c(-c2ccc(O)c(O)c2)oc2cc(O)cc(O)c12
REMARK SMILES IDX 5 1 3 2 2 3 1 4 22 5 20 6 19 7 17 8 16 9 15 10 14 11 6 12
REMARK SMILES IDX 7 13 8 14 9 15 13 16 11 17 10 18 12 20 4 22 21 24 18 26
REMARK H PARENT 10 19 12 21 4 23 21 25 18 27
REMARK Flexibility Score: inf
ROOT
ATOM      1  C   UNL     1      44.089  39.767  23.366  1.00  0.00     0.180 A 
ATOM      2  C   UNL     1      45.138  40.219  22.547  1.00  0.00     0.208 A 
ATOM      3  C   UNL     1      45.491  39.465  21.416  1.00  0.00     0.238 A 
ATOM      4  O   UNL     1      46.395  39.903  20.656  1.00  0.00    -0.285 OA
ATOM      5  C   UNL     1      44.802  38.263  21.127  1.00  0.00     0.111 A 
ATOM      6  C   UNL     1      45.103  37.400  20.030  1.00  0.00     0.134 A 
ATOM      7  C   UNL     1      44.272  36.305  19.766  1.00  0.00     0.093 A 
ATOM      8  C   UNL     1      43.189  36.004  20.596  1.00  0.00     0.123 A 
ATOM      9  C   UNL     1      42.924  36.807  21.703  1.00  0.00     0.094 A 
ATOM     10  C   UNL     1      43.713  37.927  21.973  1.00  0.00     0.146 A 
ATOM     11  O   UNL     1      43.419  38.671  23.032  1.00  0.00    -0.452 OA
ENDROOT
BRANCH   1  12
ATOM     12  C   UNL     1      43.675  40.493  24.589  1.00  0.00     0.025 A 
ATOM     13  C   UNL     1      42.650  41.455  24.556  1.00  0.00     0.016 A 
ATOM     14  C   UNL     1      42.292  42.146  25.716  1.00  0.00     0.051 A 
ATOM     15  C   UNL     1      42.960  41.898  26.923  1.00  0.00     0.157 A 
ATOM     16  C   UNL     1      44.355  40.263  25.795  1.00  0.00     0.062 A 
ATOM     17  C   UNL     1      43.999  40.952  26.960  1.00  0.00     0.158 A 
BRANCH  15  18
ATOM     18  O   UNL     1      42.600  42.587  28.078  1.00  0.00    -0.504 OA
ATOM     19  H   UNL     1      42.765  43.582  28.176  1.00  0.00     0.293 HD
ENDBRANCH  15  18
BRANCH  17  20
ATOM     20  O   UNL     1      44.689  40.687  28.142  1.00  0.00    -0.504 OA
ATOM     21  H   UNL     1      45.490  40.067  28.170  1.00  0.00     0.293 HD
ENDBRANCH  17  20
ENDBRANCH   1  12
BRANCH   2  22
ATOM     22  O   UNL     1      45.790  41.420  22.838  1.00  0.00    -0.502 OA
ATOM     23  H   UNL     1      46.388  41.891  22.169  1.00  0.00     0.293 HD
ENDBRANCH   2  22
BRANCH   6  24
ATOM     24  O   UNL     1      46.213  37.558  19.194  1.00  0.00    -0.507 OA
ATOM     25  H   UNL     1      47.166  37.369  19.465  1.00  0.00     0.293 HD
ENDBRANCH   6  24
BRANCH   8  26
ATOM     26  O   UNL     1      42.376  34.904  20.334  1.00  0.00    -0.508 OA
ATOM     27  H   UNL     1      41.443  34.830  20.723  1.00  0.00     0.293 HD
ENDBRANCH   8  26
TORSDOF 6
ENDMDL
MODEL 7
REMARK VINA RESULT:    -6.930     12.543     15.384
REMARK INTER + INTRA:          -8.669
REMARK INTER:                  -8.612
REMARK INTRA:                  -0.057
REMARK UNBOUND:                -0.321
REMARK SMILES O=c1c(O)c(-c2ccc(O)c(O)c2)oc2cc(O)cc(O)c12
REMARK SMILES IDX 5 1 3 2 2 3 1 4 22 5 20 6 19 7 17 8 16 9 15 10 14 11 6 12
REMARK SMILES IDX 7 13 8 14 9 15 13 16 11 17 10 18 12 20 4 22 21 24 18 26
REMARK H PARENT 10 19 12 21 4 23 21 25 18 27
REMARK Flexibility Score: inf
ROOT
ATOM      1  C   UNL     1      51.746  34.994  27.099  1.00  0.00     0.180 A 
ATOM      2  C   UNL     1      53.075  34.543  27.025  1.00  0.00     0.208 A 
ATOM      3  C   UNL     1      54.105  35.382  27.483  1.00  0.00     0.238 A 
ATOM      4  O   UNL     1      55.288  34.951  27.464  1.00  0.00    -0.285 OA
ATOM      5  C   UNL     1      53.794  36.665  27.993  1.00  0.00     0.111 A 
ATOM      6  C   UNL     1      54.761  37.612  28.446  1.00  0.00     0.134 A 
ATOM      7  C   UNL     1      54.332  38.800  29.052  1.00  0.00     0.093 A 
ATOM      8  C   UNL     1      52.973  39.103  29.162  1.00  0.00     0.123 A 
ATOM      9  C   UNL     1      52.024  38.211  28.668  1.00  0.00     0.094 A 
ATOM     10  C   UNL     1      52.419  37.002  28.091  1.00  0.00     0.146 A 
ATOM     11  O   UNL     1      51.481  36.176  27.643  1.00  0.00    -0.452 OA
ENDROOT
BRANCH   1  12
ATOM     12  C   UNL     1      50.609  34.178  26.614  1.00  0.00     0.025 A 
ATOM     13  C   UNL     1      50.386  32.876  27.094  1.00  0.00     0.016 A 
ATOM     14  C   UNL     1      49.322  32.115  26.605  1.00  0.00     0.051 A 
ATOM     15  C   UNL     1      48.472  32.637  25.621  1.00  0.00     0.157 A 
ATOM     16  C   UNL     1      49.767  34.689  25.613  1.00  0.00     0.062 A 
ATOM     17  C   UNL     1      48.699  33.930  25.122  1.00  0.00     0.158 A 
BRANCH  15  18
ATOM     18  O   UNL     1      47.410  31.876  25.137  1.00  0.00    -0.504 OA
ATOM     19  H   UNL     1      47.303  31.682  24.148  1.00  0.00     0.293 HD
ENDBRANCH  15  18
BRANCH  17  20
ATOM     20  O   UNL     1      47.876  34.477  24.137  1.00  0.00    -0.504 OA
ATOM     21  H   UNL     1      48.032  35.404  23.759  1.00  0.00     0.293 HD
ENDBRANCH  17  20
ENDBRANCH   1  12
BRANCH   2  22
ATOM     22  O   UNL     1      53.357  33.264  26.538  1.00  0.00    -0.502 OA
ATOM     23  H   UNL     1      54.225  32.783  26.742  1.00  0.00     0.293 HD
ENDBRANCH   2  22
BRANCH   6  24
ATOM     24  O   UNL     1      56.142  37.449  28.301  1.00  0.00    -0.507 OA
ATOM     25  H   UNL     1      56.606  36.561  28.190  1.00  0.00     0.293 HD
ENDBRANCH   6  24
BRANCH   8  26
ATOM     26  O   UNL     1      52.555  40.293  29.753  1.00  0.00    -0.508 OA
ATOM     27  H   UNL     1      53.154  41.110  29.780  1.00  0.00     0.293 HD
ENDBRANCH   8  26
TORSDOF 6
ENDMDL
MODEL 8
REMARK VINA RESULT:    -6.827      2.544      6.669
REMARK INTER + INTRA:          -8.545
REMARK INTER:                  -8.350
REMARK INTRA:                  -0.195
REMARK UNBOUND:                -0.321
REMARK SMILES O=c1c(O)c(-c2ccc(O)c(O)c2)oc2cc(O)cc(O)c12
REMARK SMILES IDX 5 1 3 2 2 3 1 4 22 5 20 6 19 7 17 8 16 9 15 10 14 11 6 12
REMARK SMILES IDX 7 13 8 14 9 15 13 16 11 17 10 18 12 20 4 22 21 24 18 26
REMARK H PARENT 10 19 12 21 4 23 21 25 18 27
REMARK Flexibility Score: inf
ROOT
ATOM      1  C   UNL     1      58.867  49.339  22.718  1.00  0.00     0.180 A 
ATOM      2  C   UNL     1      57.506  49.176  23.027  1.00  0.00     0.208 A 
ATOM      3  C   UNL     1      57.063  49.476  24.326  1.00  0.00     0.238 A 
ATOM      4  O   UNL     1      55.833  49.380  24.582  1.00  0.00    -0.285 OA
ATOM      5  C   UNL     1      57.987  49.920  25.301  1.00  0.00     0.111 A 
ATOM      6  C   UNL     1      57.655  50.212  26.658  1.00  0.00     0.134 A 
ATOM      7  C   UNL     1      58.625  50.769  27.502  1.00  0.00     0.093 A 
ATOM      8  C   UNL     1      59.932  50.981  27.055  1.00  0.00     0.123 A 
ATOM      9  C   UNL     1      60.280  50.642  25.750  1.00  0.00     0.094 A 
ATOM     10  C   UNL     1      59.326  50.119  24.874  1.00  0.00     0.146 A 
ATOM     11  O   UNL     1      59.698  49.819  23.635  1.00  0.00    -0.452 OA
ENDROOT
BRANCH   1  12
ATOM     12  C   UNL     1      59.415  49.021  21.379  1.00  0.00     0.025 A 
ATOM     13  C   UNL     1      60.305  47.950  21.188  1.00  0.00     0.016 A 
ATOM     14  C   UNL     1      60.829  47.684  19.921  1.00  0.00     0.051 A 
ATOM     15  C   UNL     1      60.482  48.489  18.828  1.00  0.00     0.157 A 
ATOM     16  C   UNL     1      59.086  49.838  20.284  1.00  0.00     0.062 A 
ATOM     17  C   UNL     1      59.607  49.573  19.013  1.00  0.00     0.158 A 
BRANCH  15  18
ATOM     18  O   UNL     1      61.004  48.219  17.565  1.00  0.00    -0.504 OA
ATOM     19  H   UNL     1      60.618  48.642  16.729  1.00  0.00     0.293 HD
ENDBRANCH  15  18
BRANCH  17  20
ATOM     20  O   UNL     1      59.248  50.398  17.948  1.00  0.00    -0.504 OA
ATOM     21  H   UNL     1      59.930  50.948  17.439  1.00  0.00     0.293 HD
ENDBRANCH  17  20
ENDBRANCH   1  12
BRANCH   2  22
ATOM     22  O   UNL     1      56.606  48.759  22.043  1.00  0.00    -0.502 OA
ATOM     23  H   UNL     1      56.004  47.953  22.162  1.00  0.00     0.293 HD
ENDBRANCH   2  22
BRANCH   6  24
ATOM     24  O   UNL     1      56.406  49.953  27.230  1.00  0.00    -0.507 OA
ATOM     25  H   UNL     1      56.144  50.202  28.171  1.00  0.00     0.293 HD
ENDBRANCH   6  24
BRANCH   8  26
ATOM     26  O   UNL     1      60.895  51.520  27.905  1.00  0.00    -0.508 OA
ATOM     27  H   UNL     1      60.663  51.824  28.844  1.00  0.00     0.293 HD
ENDBRANCH   8  26
TORSDOF 6
ENDMDL
MODEL 9
REMARK VINA RESULT:    -6.633      6.327      8.001
REMARK INTER + INTRA:          -8.311
REMARK INTER:                  -7.977
REMARK INTRA:                  -0.333
REMARK UNBOUND:                -0.321
REMARK SMILES O=c1c(O)c(-c2ccc(O)c(O)c2)oc2cc(O)cc(O)c12
REMARK SMILES IDX 5 1 3 2 2 3 1 4 22 5 20 6 19 7 17 8 16 9 15 10 14 11 6 12
REMARK SMILES IDX 7 13 8 14 9 15 13 16 11 17 10 18 12 20 4 22 21 24 18 26
REMARK H PARENT 10 19 12 21 4 23 21 25 18 27
REMARK Flexibility Score: inf
ROOT
ATOM      1  C   UNL     1      55.374  49.996  30.611  1.00  0.00     0.180 A 
ATOM      2  C   UNL     1      56.159  50.864  31.389  1.00  0.00     0.208 A 
ATOM      3  C   UNL     1      57.401  51.291  30.889  1.00  0.00     0.238 A 
ATOM      4  O   UNL     1      58.075  52.111  31.566  1.00  0.00    -0.285 OA
ATOM      5  C   UNL     1      57.847  50.832  29.626  1.00  0.00     0.111 A 
ATOM      6  C   UNL     1      59.105  51.168  29.042  1.00  0.00     0.134 A 
ATOM      7  C   UNL     1      59.387  50.762  27.731  1.00  0.00     0.093 A 
ATOM      8  C   UNL     1      58.484  49.978  27.009  1.00  0.00     0.123 A 
ATOM      9  C   UNL     1      57.279  49.595  27.595  1.00  0.00     0.094 A 
ATOM     10  C   UNL     1      56.954  50.015  28.887  1.00  0.00     0.146 A 
ATOM     11  O   UNL     1      55.790  49.636  29.403  1.00  0.00    -0.452 OA
ENDROOT
BRANCH   1  12
ATOM     12  C   UNL     1      54.066  49.484  31.079  1.00  0.00     0.025 A 
ATOM     13  C   UNL     1      53.974  48.319  31.861  1.00  0.00     0.016 A 
ATOM     14  C   UNL     1      52.727  47.840  32.271  1.00  0.00     0.051 A 
ATOM     15  C   UNL     1      51.554  48.509  31.897  1.00  0.00     0.157 A 
ATOM     16  C   UNL     1      52.886  50.139  30.690  1.00  0.00     0.062 A 
ATOM     17  C   UNL     1      51.636  49.662  31.100  1.00  0.00     0.158 A 
BRANCH  15  18
ATOM     18  O   UNL     1      50.312  48.029  32.310  1.00  0.00    -0.504 OA
ATOM     19  H   UNL     1      50.102  47.038  32.319  1.00  0.00     0.293 HD
ENDBRANCH  15  18
BRANCH  17  20
ATOM     20  O   UNL     1      50.487  50.347  30.704  1.00  0.00    -0.504 OA
ATOM     21  H   UNL     1      49.815  49.944  30.061  1.00  0.00     0.293 HD
ENDBRANCH  17  20
ENDBRANCH   1  12
BRANCH   2  22
ATOM     22  O   UNL     1      55.689  51.323  32.622  1.00  0.00    -0.502 OA
ATOM     23  H   UNL     1      56.155  51.107  33.496  1.00  0.00     0.293 HD
ENDBRANCH   2  22
BRANCH   6  24
ATOM     24  O   UNL     1      60.115  51.869  29.708  1.00  0.00    -0.507 OA
ATOM     25  H   UNL     1      60.825  51.442  30.284  1.00  0.00     0.293 HD
ENDBRANCH   6  24
BRANCH   8  26
ATOM     26  O   UNL     1      58.778  49.566  25.712  1.00  0.00    -0.508 OA
ATOM     27  H   UNL     1      59.032  48.607  25.505  1.00  0.00     0.293 HD
ENDBRANCH   8  26
TORSDOF 6
ENDMDL
