MODEL 1
REMARK VINA RESULT:    -3.249      0.000      0.000
REMARK INTER + INTRA:          -8.389
REMARK INTER:                  -5.908
REMARK INTRA:                  -2.480
REMARK UNBOUND:                -2.480
REMARK SMILES CCCCCCCCCCCCCCCC(=O)[O-]
REMARK SMILES IDX 9 1 10 2 11 3 12 4 13 5 14 6 15 7 16 8 17 9 18 10 8 11 7 12
REMARK SMILES IDX 6 13 5 14 4 15 3 16 2 17 1 18
REMARK H PARENT
REMARK Flexibility Score: inf
ROOT
ATOM      1  C   UNL     1      16.974  15.848  16.597  1.00  0.00     0.000 C 
ENDROOT
BRANCH   1   2
ATOM      2  C   UNL     1      17.711  17.183  16.795  1.00  0.00     0.000 C 
BRANCH   2   3
ATOM      3  C   UNL     1      18.274  17.342  18.221  1.00  0.00     0.000 C 
BRANCH   3   4
ATOM      4  C   UNL     1      17.658  16.339  19.211  1.00  0.00     0.000 C 
BRANCH   4   5
ATOM      5  C   UNL     1      18.412  16.294  20.550  1.00  0.00     0.000 C 
BRANCH   5   6
ATOM      6  C   UNL     1      19.093  14.938  20.811  1.00  0.00     0.006 C 
BRANCH   6   7
ATOM      7  C   UNL     1      20.624  15.021  20.947  1.00  0.00     0.053 C 
BRANCH   7   8
ATOM      8  C   UNL     1      21.247  13.691  21.248  1.00  0.00     0.041 C 
ATOM      9  O   UNL     1      20.689  12.898  22.052  1.00  0.00    -0.550 OA
ATOM     10  O   UNL     1      22.461  13.341  20.671  1.00  0.00    -0.550 OA
ENDBRANCH   7   8
ENDBRANCH   6   7
ENDBRANCH   5   6
ENDBRANCH   4   5
ENDBRANCH   3   4
ENDBRANCH   2   3
ENDBRANCH   1   2
BRANCH   1  11
ATOM     11  C   UNL     1      17.318  15.177  15.256  1.00  0.00     0.000 C 
BRANCH  11  12
ATOM     12  C   UNL     1      18.032  16.126  14.275  1.00  0.00    -0.000 C 
BRANCH  12  13
ATOM     13  C   UNL     1      19.444  15.688  13.844  1.00  0.00    -0.000 C 
BRANCH  13  14
ATOM     14  C   UNL     1      20.070  14.656  14.797  1.00  0.00    -0.000 C 
BRANCH  14  15
ATOM     15  C   UNL     1      20.998  15.294  15.845  1.00  0.00    -0.000 C 
BRANCH  15  16
ATOM     16  C   UNL     1      20.849  14.750  17.280  1.00  0.00    -0.000 C 
BRANCH  16  17
ATOM     17  C   UNL     1      19.898  13.549  17.426  1.00  0.00    -0.003 C 
ATOM     18  C   UNL     1      20.617  12.269  17.847  1.00  0.00     0.004 C 
ENDBRANCH  16  17
ENDBRANCH  15  16
ENDBRANCH  14  15
ENDBRANCH  13  14
ENDBRANCH  12  13
ENDBRANCH  11  12
ENDBRANCH   1  11
TORSDOF 14
ENDMDL
MODEL 2
REMARK VINA RESULT:    -3.248     13.011     15.380
REMARK INTER + INTRA:          -8.386
REMARK INTER:                  -6.554
REMARK INTRA:                  -1.832
REMARK UNBOUND:                -2.480
REMARK SMILES CCCCCCCCCCCCCCCC(=O)[O-]
REMARK SMILES IDX 9 1 10 2 11 3 12 4 13 5 14 6 15 7 16 8 17 9 18 10 8 11 7 12
REMARK SMILES IDX 6 13 5 14 4 15 3 16 2 17 1 18
REMARK H PARENT
REMARK Flexibility Score: inf
ROOT
ATOM      1  C   UNL     1      25.104   6.143  28.163  1.00  0.00     0.000 C 
ENDROOT
BRANCH   1   2
ATOM      2  C   UNL     1      25.565   7.460  28.809  1.00  0.00     0.000 C 
BRANCH   2   3
ATOM      3  C   UNL     1      25.728   8.596  27.781  1.00  0.00     0.000 C 
BRANCH   3   4
ATOM      4  C   UNL     1      27.196   8.816  27.377  1.00  0.00     0.000 C 
BRANCH   4   5
ATOM      5  C   UNL     1      28.183   8.240  28.406  1.00  0.00     0.000 C 
BRANCH   5   6
ATOM      6  C   UNL     1      29.442   9.108  28.584  1.00  0.00     0.006 C 
BRANCH   6   7
ATOM      7  C   UNL     1      29.168  10.622  28.562  1.00  0.00     0.053 C 
BRANCH   7   8
ATOM      8  C   UNL     1      29.877  11.351  29.662  1.00  0.00     0.041 C 
ATOM      9  O   UNL     1      29.594  12.554  29.909  1.00  0.00    -0.550 OA
ATOM     10  O   UNL     1      30.875  10.718  30.391  1.00  0.00    -0.550 OA
ENDBRANCH   7   8
ENDBRANCH   6   7
ENDBRANCH   5   6
ENDBRANCH   4   5
ENDBRANCH   3   4
ENDBRANCH   2   3
ENDBRANCH   1   2
BRANCH   1  11
ATOM     11  C   UNL     1      25.264   4.936  29.104  1.00  0.00     0.000 C 
BRANCH  11  12
ATOM     12  C   UNL     1      26.451   4.031  28.725  1.00  0.00    -0.000 C 
BRANCH  12  13
ATOM     13  C   UNL     1      27.469   4.652  27.750  1.00  0.00    -0.000 C 
BRANCH  13  14
ATOM     14  C   UNL     1      27.903   3.683  26.637  1.00  0.00    -0.000 C 
BRANCH  14  15
ATOM     15  C   UNL     1      28.297   4.404  25.336  1.00  0.00    -0.000 C 
BRANCH  15  16
ATOM     16  C   UNL     1      27.786   5.853  25.202  1.00  0.00    -0.000 C 
BRANCH  16  17
ATOM     17  C   UNL     1      26.773   6.084  24.068  1.00  0.00    -0.003 C 
ATOM     18  C   UNL     1      25.404   6.535  24.575  1.00  0.00     0.004 C 
ENDBRANCH  16  17
ENDBRANCH  15  16
ENDBRANCH  14  15
ENDBRANCH  13  14
ENDBRANCH  12  13
ENDBRANCH  11  12
ENDBRANCH   1  11
TORSDOF 14
ENDMDL
MODEL 3
REMARK VINA RESULT:    -3.213      1.375      3.638
REMARK INTER + INTRA:          -8.324
REMARK INTER:                  -5.885
REMARK INTRA:                  -2.439
REMARK UNBOUND:                -2.480
REMARK SMILES CCCCCCCCCCCCCCCC(=O)[O-]
REMARK SMILES IDX 9 1 10 2 11 3 12 4 13 5 14 6 15 7 16 8 17 9 18 10 8 11 7 12
REMARK SMILES IDX 6 13 5 14 4 15 3 16 2 17 1 18
REMARK H PARENT
REMARK Flexibility Score: inf
ROOT
ATOM      1  C   UNL     1      19.215  15.292  15.350  1.00  0.00     0.000 C 
ENDROOT
BRANCH   1   2
ATOM      2  C   UNL     1      20.050  14.115  15.882  1.00  0.00     0.000 C 
BRANCH   2   3
ATOM      3  C   UNL     1      19.176  12.969  16.425  1.00  0.00     0.000 C 
BRANCH   3   4
ATOM      4  C   UNL     1      19.938  12.064  17.408  1.00  0.00     0.000 C 
BRANCH   4   5
ATOM      5  C   UNL     1      21.170  12.757  18.013  1.00  0.00     0.000 C 
BRANCH   5   6
ATOM      6  C   UNL     1      21.240  12.630  19.546  1.00  0.00     0.006 C 
BRANCH   6   7
ATOM      7  C   UNL     1      22.454  13.334  20.178  1.00  0.00     0.053 C 
BRANCH   7   8
ATOM      8  C   UNL     1      22.623  12.996  21.629  1.00  0.00     0.041 C 
ATOM      9  O   UNL     1      23.636  13.402  22.259  1.00  0.00    -0.550 OA
ATOM     10  O   UNL     1      21.685  12.203  22.277  1.00  0.00    -0.550 OA
ENDBRANCH   7   8
ENDBRANCH   6   7
ENDBRANCH   5   6
ENDBRANCH   4   5
ENDBRANCH   3   4
ENDBRANCH   2   3
ENDBRANCH   1   2
BRANCH   1  11
ATOM     11  C   UNL     1      17.702  15.023  15.425  1.00  0.00     0.000 C 
BRANCH  11  12
ATOM     12  C   UNL     1      16.945  16.075  16.258  1.00  0.00    -0.000 C 
BRANCH  12  13
ATOM     13  C   UNL     1      17.752  17.337  16.618  1.00  0.00    -0.000 C 
BRANCH  13  14
ATOM     14  C   UNL     1      17.773  17.626  18.128  1.00  0.00    -0.000 C 
BRANCH  14  15
ATOM     15  C   UNL     1      17.746  16.347  18.983  1.00  0.00    -0.000 C 
BRANCH  15  16
ATOM     16  C   UNL     1      19.112  15.662  19.191  1.00  0.00    -0.000 C 
BRANCH  16  17
ATOM     17  C   UNL     1      20.298  16.621  19.392  1.00  0.00    -0.003 C 
ATOM     18  C   UNL     1      21.358  16.492  18.299  1.00  0.00     0.004 C 
ENDBRANCH  16  17
ENDBRANCH  15  16
ENDBRANCH  14  15
ENDBRANCH  13  14
ENDBRANCH  12  13
ENDBRANCH  11  12
ENDBRANCH   1  11
TORSDOF 14
ENDMDL
MODEL 4
REMARK VINA RESULT:    -3.207      2.528      3.261
REMARK INTER + INTRA:          -8.311
REMARK INTER:                  -6.314
REMARK INTRA:                  -1.997
REMARK UNBOUND:                -2.480
REMARK SMILES CCCCCCCCCCCCCCCC(=O)[O-]
REMARK SMILES IDX 9 1 10 2 11 3 12 4 13 5 14 6 15 7 16 8 17 9 18 10 8 11 7 12
REMARK SMILES IDX 6 13 5 14 4 15 3 16 2 17 1 18
REMARK H PARENT
REMARK Flexibility Score: inf
ROOT
ATOM      1  C   UNL     1      18.112  17.910  17.200  1.00  0.00     0.000 C 
ENDROOT
BRANCH   1   2
ATOM      2  C   UNL     1      17.895  17.065  18.467  1.00  0.00     0.000 C 
BRANCH   2   3
ATOM      3  C   UNL     1      19.194  16.407  18.968  1.00  0.00     0.000 C 
BRANCH   3   4
ATOM      4  C   UNL     1      18.928  15.168  19.839  1.00  0.00     0.000 C 
BRANCH   4   5
ATOM      5  C   UNL     1      19.831  15.116  21.082  1.00  0.00     0.000 C 
BRANCH   5   6
ATOM      6  C   UNL     1      19.262  15.911  22.272  1.00  0.00     0.006 C 
BRANCH   6   7
ATOM      7  C   UNL     1      17.735  16.093  22.232  1.00  0.00     0.053 C 
BRANCH   7   8
ATOM      8  C   UNL     1      17.329  17.535  22.186  1.00  0.00     0.041 C 
ATOM      9  O   UNL     1      16.316  17.886  21.523  1.00  0.00    -0.550 OA
ATOM     10  O   UNL     1      18.085  18.497  22.844  1.00  0.00    -0.550 OA
ENDBRANCH   7   8
ENDBRANCH   6   7
ENDBRANCH   5   6
ENDBRANCH   4   5
ENDBRANCH   3   4
ENDBRANCH   2   3
ENDBRANCH   1   2
BRANCH   1  11
ATOM     11  C   UNL     1      17.763  17.143  15.913  1.00  0.00     0.000 C 
BRANCH  11  12
ATOM     12  C   UNL     1      16.959  15.856  16.179  1.00  0.00    -0.000 C 
BRANCH  12  13
ATOM     13  C   UNL     1      17.671  14.544  15.798  1.00  0.00    -0.000 C 
BRANCH  13  14
ATOM     14  C   UNL     1      19.159  14.742  15.463  1.00  0.00    -0.000 C 
BRANCH  14  15
ATOM     15  C   UNL     1      20.092  13.926  16.374  1.00  0.00    -0.000 C 
BRANCH  15  16
ATOM     16  C   UNL     1      19.521  12.582  16.871  1.00  0.00    -0.000 C 
BRANCH  16  17
ATOM     17  C   UNL     1      20.406  11.832  17.882  1.00  0.00    -0.003 C 
ATOM     18  C   UNL     1      21.424  12.740  18.569  1.00  0.00     0.004 C 
ENDBRANCH  16  17
ENDBRANCH  15  16
ENDBRANCH  14  15
ENDBRANCH  13  14
ENDBRANCH  12  13
ENDBRANCH  11  12
ENDBRANCH   1  11
TORSDOF 14
ENDMDL
MODEL 5
REMARK VINA RESULT:    -3.203      1.491      3.832
REMARK INTER + INTRA:          -8.306
REMARK INTER:                  -6.492
REMARK INTRA:                  -1.813
REMARK UNBOUND:                -2.480
REMARK SMILES CCCCCCCCCCCCCCCC(=O)[O-]
REMARK SMILES IDX 9 1 10 2 11 3 12 4 13 5 14 6 15 7 16 8 17 9 18 10 8 11 7 12
REMARK SMILES IDX 6 13 5 14 4 15 3 16 2 17 1 18
REMARK H PARENT
REMARK Flexibility Score: inf
ROOT
ATOM      1  C   UNL     1      19.199  13.071  16.402  1.00  0.00     0.000 C 
ENDROOT
BRANCH   1   2
ATOM      2  C   UNL     1      20.050  12.336  17.451  1.00  0.00     0.000 C 
BRANCH   2   3
ATOM      3  C   UNL     1      21.507  12.835  17.484  1.00  0.00     0.000 C 
BRANCH   3   4
ATOM      4  C   UNL     1      21.857  13.541  18.805  1.00  0.00     0.000 C 
BRANCH   4   5
ATOM      5  C   UNL     1      21.512  12.689  20.038  1.00  0.00     0.000 C 
BRANCH   5   6
ATOM      6  C   UNL     1      22.425  12.978  21.244  1.00  0.00     0.006 C 
BRANCH   6   7
ATOM      7  C   UNL     1      21.670  13.434  22.506  1.00  0.00     0.053 C 
BRANCH   7   8
ATOM      8  C   UNL     1      21.503  12.330  23.506  1.00  0.00     0.041 C 
ATOM      9  O   UNL     1      21.931  11.173  23.248  1.00  0.00    -0.550 OA
ATOM     10  O   UNL     1      20.845  12.566  24.706  1.00  0.00    -0.550 OA
ENDBRANCH   7   8
ENDBRANCH   6   7
ENDBRANCH   5   6
ENDBRANCH   4   5
ENDBRANCH   3   4
ENDBRANCH   2   3
ENDBRANCH   1   2
BRANCH   1  11
ATOM     11  C   UNL     1      19.954  14.238  15.742  1.00  0.00     0.000 C 
BRANCH  11  12
ATOM     12  C   UNL     1      19.017  15.345  15.224  1.00  0.00    -0.000 C 
BRANCH  12  13
ATOM     13  C   UNL     1      17.511  15.036  15.330  1.00  0.00    -0.000 C 
BRANCH  13  14
ATOM     14  C   UNL     1      16.787  15.927  16.353  1.00  0.00    -0.000 C 
BRANCH  14  15
ATOM     15  C   UNL     1      17.751  16.787  17.187  1.00  0.00    -0.000 C 
BRANCH  15  16
ATOM     16  C   UNL     1      17.782  16.472  18.697  1.00  0.00    -0.000 C 
BRANCH  16  17
ATOM     17  C   UNL     1      19.006  15.670  19.170  1.00  0.00    -0.003 C 
ATOM     18  C   UNL     1      18.934  15.291  20.649  1.00  0.00     0.004 C 
ENDBRANCH  16  17
ENDBRANCH  15  16
ENDBRANCH  14  15
ENDBRANCH  13  14
ENDBRANCH  12  13
ENDBRANCH  11  12
ENDBRANCH   1  11
TORSDOF 14
ENDMDL
MODEL 6
REMARK VINA RESULT:    -3.180      1.825      2.963
REMARK INTER + INTRA:          -8.263
REMARK INTER:                  -6.076
REMARK INTRA:                  -2.186
REMARK UNBOUND:                -2.480
REMARK SMILES CCCCCCCCCCCCCCCC(=O)[O-]
REMARK SMILES IDX 9 1 10 2 11 3 12 4 13 5 14 6 15 7 16 8 17 9 18 10 8 11 7 12
REMARK SMILES IDX 6 13 5 14 4 15 3 16 2 17 1 18
REMARK H PARENT
REMARK Flexibility Score: inf
ROOT
ATOM      1  C   UNL     1      17.822  17.350  16.611  1.00  0.00     0.000 C 
ENDROOT
BRANCH   1   2
ATOM      2  C   UNL     1      17.848  17.753  18.096  1.00  0.00     0.000 C 
BRANCH   2   3
ATOM      3  C   UNL     1      17.665  16.548  19.038  1.00  0.00     0.000 C 
BRANCH   3   4
ATOM      4  C   UNL     1      18.896  16.307  19.928  1.00  0.00     0.000 C 
BRANCH   4   5
ATOM      5  C   UNL     1      19.493  14.903  19.739  1.00  0.00     0.000 C 
BRANCH   5   6
ATOM      6  C   UNL     1      20.075  14.681  18.331  1.00  0.00     0.006 C 
BRANCH   6   7
ATOM      7  C   UNL     1      20.946  13.418  18.204  1.00  0.00     0.053 C 
BRANCH   7   8
ATOM      8  C   UNL     1      20.184  12.247  17.660  1.00  0.00     0.041 C 
ATOM      9  O   UNL     1      20.411  11.087  18.097  1.00  0.00    -0.550 OA
ATOM     10  O   UNL     1      19.252  12.428  16.647  1.00  0.00    -0.550 OA
ENDBRANCH   7   8
ENDBRANCH   6   7
ENDBRANCH   5   6
ENDBRANCH   4   5
ENDBRANCH   3   4
ENDBRANCH   2   3
ENDBRANCH   1   2
BRANCH   1  11
ATOM     11  C   UNL     1      16.974  16.092  16.356  1.00  0.00     0.000 C 
BRANCH  11  12
ATOM     12  C   UNL     1      17.580  15.166  15.285  1.00  0.00    -0.000 C 
BRANCH  12  13
ATOM     13  C   UNL     1      17.821  15.817  13.910  1.00  0.00    -0.000 C 
BRANCH  13  14
ATOM     14  C   UNL     1      19.312  15.918  13.545  1.00  0.00    -0.000 C 
BRANCH  14  15
ATOM     15  C   UNL     1      20.184  14.904  14.307  1.00  0.00    -0.000 C 
BRANCH  15  16
ATOM     16  C   UNL     1      21.405  15.499  15.037  1.00  0.00    -0.000 C 
BRANCH  16  17
ATOM     17  C   UNL     1      21.192  16.906  15.622  1.00  0.00    -0.003 C 
ATOM     18  C   UNL     1      22.286  17.312  16.609  1.00  0.00     0.004 C 
ENDBRANCH  16  17
ENDBRANCH  15  16
ENDBRANCH  14  15
ENDBRANCH  13  14
ENDBRANCH  12  13
ENDBRANCH  11  12
ENDBRANCH   1  11
TORSDOF 14
ENDMDL
MODEL 7
REMARK VINA RESULT:    -3.167      2.593      4.274
REMARK INTER + INTRA:          -8.239
REMARK INTER:                  -5.887
REMARK INTRA:                  -2.352
REMARK UNBOUND:                -2.480
REMARK SMILES CCCCCCCCCCCCCCCC(=O)[O-]
REMARK SMILES IDX 9 1 10 2 11 3 12 4 13 5 14 6 15 7 16 8 17 9 18 10 8 11 7 12
REMARK SMILES IDX 6 13 5 14 4 15 3 16 2 17 1 18
REMARK H PARENT
REMARK Flexibility Score: inf
ROOT
ATOM      1  C   UNL     1      19.598  13.666  16.151  1.00  0.00     0.000 C 
ENDROOT
BRANCH   1   2
ATOM      2  C   UNL     1      19.918  12.651  17.261  1.00  0.00     0.000 C 
BRANCH   2   3
ATOM      3  C   UNL     1      20.784  13.255  18.383  1.00  0.00     0.000 C 
BRANCH   3   4
ATOM      4  C   UNL     1      20.253  14.615  18.867  1.00  0.00     0.000 C 
BRANCH   4   5
ATOM      5  C   UNL     1      19.861  14.599  20.354  1.00  0.00     0.000 C 
BRANCH   5   6
ATOM      6  C   UNL     1      18.651  15.497  20.667  1.00  0.00     0.006 C 
BRANCH   6   7
ATOM      7  C   UNL     1      19.025  16.939  21.057  1.00  0.00     0.053 C 
BRANCH   7   8
ATOM      8  C   UNL     1      17.864  17.882  20.951  1.00  0.00     0.041 C 
ATOM      9  O   UNL     1      18.062  19.126  20.917  1.00  0.00    -0.550 OA
ATOM     10  O   UNL     1      16.565  17.393  20.928  1.00  0.00    -0.550 OA
ENDBRANCH   7   8
ENDBRANCH   6   7
ENDBRANCH   5   6
ENDBRANCH   4   5
ENDBRANCH   3   4
ENDBRANCH   2   3
ENDBRANCH   1   2
BRANCH   1  11
ATOM     11  C   UNL     1      18.086  13.893  15.978  1.00  0.00     0.000 C 
BRANCH  11  12
ATOM     12  C   UNL     1      17.756  15.202  15.236  1.00  0.00    -0.000 C 
BRANCH  12  13
ATOM     13  C   UNL     1      16.904  16.212  16.028  1.00  0.00    -0.000 C 
BRANCH  13  14
ATOM     14  C   UNL     1      17.538  16.610  17.371  1.00  0.00    -0.000 C 
BRANCH  14  15
ATOM     15  C   UNL     1      18.164  18.015  17.344  1.00  0.00    -0.000 C 
BRANCH  15  16
ATOM     16  C   UNL     1      19.693  18.062  17.543  1.00  0.00    -0.000 C 
BRANCH  16  17
ATOM     17  C   UNL     1      20.515  17.368  16.443  1.00  0.00    -0.003 C 
ATOM     18  C   UNL     1      20.278  17.966  15.057  1.00  0.00     0.004 C 
ENDBRANCH  16  17
ENDBRANCH  15  16
ENDBRANCH  14  15
ENDBRANCH  13  14
ENDBRANCH  12  13
ENDBRANCH  11  12
ENDBRANCH   1  11
TORSDOF 14
ENDMDL
MODEL 8
REMARK VINA RESULT:    -3.137      2.032      3.935
REMARK INTER + INTRA:          -8.185
REMARK INTER:                  -5.942
REMARK INTRA:                  -2.243
REMARK UNBOUND:                -2.480
REMARK SMILES CCCCCCCCCCCCCCCC(=O)[O-]
REMARK SMILES IDX 9 1 10 2 11 3 12 4 13 5 14 6 15 7 16 8 17 9 18 10 8 11 7 12
REMARK SMILES IDX 6 13 5 14 4 15 3 16 2 17 1 18
REMARK H PARENT
REMARK Flexibility Score: inf
ROOT
ATOM      1  C   UNL     1      19.125  14.877  15.278  1.00  0.00     0.000 C 
ENDROOT
BRANCH   1   2
ATOM      2  C   UNL     1      17.683  14.499  15.657  1.00  0.00     0.000 C 
BRANCH   2   3
ATOM      3  C   UNL     1      16.907  15.676  16.279  1.00  0.00     0.000 C 
BRANCH   3   4
ATOM      4  C   UNL     1      17.733  16.974  16.308  1.00  0.00     0.000 C 
BRANCH   4   5
ATOM      5  C   UNL     1      17.742  17.634  17.696  1.00  0.00     0.000 C 
BRANCH   5   6
ATOM      6  C   UNL     1      17.724  16.614  18.849  1.00  0.00     0.006 C 
BRANCH   6   7
ATOM      7  C   UNL     1      17.178  17.175  20.174  1.00  0.00     0.053 C 
BRANCH   7   8
ATOM      8  C   UNL     1      18.090  16.905  21.332  1.00  0.00     0.041 C 
ATOM      9  O   UNL     1      17.843  15.957  22.124  1.00  0.00    -0.550 OA
ATOM     10  O   UNL     1      19.192  17.719  21.560  1.00  0.00    -0.550 OA
ENDBRANCH   7   8
ENDBRANCH   6   7
ENDBRANCH   5   6
ENDBRANCH   4   5
ENDBRANCH   3   4
ENDBRANCH   2   3
ENDBRANCH   1   2
BRANCH   1  11
ATOM     11  C   UNL     1      20.166  13.932  15.902  1.00  0.00     0.000 C 
BRANCH  11  12
ATOM     12  C   UNL     1      19.587  13.062  17.033  1.00  0.00    -0.000 C 
BRANCH  12  13
ATOM     13  C   UNL     1      20.611  12.196  17.790  1.00  0.00    -0.000 C 
BRANCH  13  14
ATOM     14  C   UNL     1      21.341  12.965  18.904  1.00  0.00    -0.000 C 
BRANCH  14  15
ATOM     15  C   UNL     1      20.455  14.028  19.577  1.00  0.00    -0.000 C 
BRANCH  15  16
ATOM     16  C   UNL     1      21.096  15.423  19.728  1.00  0.00    -0.000 C 
BRANCH  16  17
ATOM     17  C   UNL     1      21.611  16.049  18.420  1.00  0.00    -0.003 C 
ATOM     18  C   UNL     1      21.358  17.554  18.341  1.00  0.00     0.004 C 
ENDBRANCH  16  17
ENDBRANCH  15  16
ENDBRANCH  14  15
ENDBRANCH  13  14
ENDBRANCH  12  13
ENDBRANCH  11  12
ENDBRANCH   1  11
TORSDOF 14
ENDMDL
MODEL 9
REMARK VINA RESULT:    -3.131      2.231      4.108
REMARK INTER + INTRA:          -8.173
REMARK INTER:                  -5.972
REMARK INTRA:                  -2.201
REMARK UNBOUND:                -2.480
REMARK SMILES CCCCCCCCCCCCCCCC(=O)[O-]
REMARK SMILES IDX 9 1 10 2 11 3 12 4 13 5 14 6 15 7 16 8 17 9 18 10 8 11 7 12
REMARK SMILES IDX 6 13 5 14 4 15 3 16 2 17 1 18
REMARK H PARENT
REMARK Flexibility Score: inf
ROOT
ATOM      1  C   UNL     1      20.055  14.572  15.532  1.00  0.00     0.000 C 
ENDROOT
BRANCH   1   2
ATOM      2  C   UNL     1      18.916  15.437  14.968  1.00  0.00     0.000 C 
BRANCH   2   3
ATOM      3  C   UNL     1      17.529  14.985  15.465  1.00  0.00     0.000 C 
BRANCH   3   4
ATOM      4  C   UNL     1      16.864  16.028  16.379  1.00  0.00     0.000 C 
BRANCH   4   5
ATOM      5  C   UNL     1      17.736  17.278  16.580  1.00  0.00     0.000 C 
BRANCH   5   6
ATOM      6  C   UNL     1      18.126  17.510  18.051  1.00  0.00     0.006 C 
BRANCH   6   7
ATOM      7  C   UNL     1      17.336  16.648  19.052  1.00  0.00     0.053 C 
BRANCH   7   8
ATOM      8  C   UNL     1      17.850  16.779  20.454  1.00  0.00     0.041 C 
ATOM      9  O   UNL     1      17.991  17.919  20.972  1.00  0.00    -0.550 OA
ATOM     10  O   UNL     1      18.207  15.649  21.177  1.00  0.00    -0.550 OA
ENDBRANCH   7   8
ENDBRANCH   6   7
ENDBRANCH   5   6
ENDBRANCH   4   5
ENDBRANCH   3   4
ENDBRANCH   2   3
ENDBRANCH   1   2
BRANCH   1  11
ATOM     11  C   UNL     1      19.562  13.208  16.046  1.00  0.00     0.000 C 
BRANCH  11  12
ATOM     12  C   UNL     1      19.862  12.985  17.540  1.00  0.00    -0.000 C 
BRANCH  12  13
ATOM     13  C   UNL     1      19.882  14.258  18.406  1.00  0.00    -0.000 C 
BRANCH  13  14
ATOM     14  C   UNL     1      20.968  14.227  19.494  1.00  0.00    -0.000 C 
BRANCH  14  15
ATOM     15  C   UNL     1      21.838  12.960  19.436  1.00  0.00    -0.000 C 
BRANCH  15  16
ATOM     16  C   UNL     1      23.307  13.184  19.023  1.00  0.00    -0.000 C 
BRANCH  16  17
ATOM     17  C   UNL     1      23.506  13.751  17.607  1.00  0.00    -0.003 C 
ATOM     18  C   UNL     1      23.377  12.688  16.517  1.00  0.00     0.004 C 
ENDBRANCH  16  17
ENDBRANCH  15  16
ENDBRANCH  14  15
ENDBRANCH  13  14
ENDBRANCH  12  13
ENDBRANCH  11  12
ENDBRANCH   1  11
TORSDOF 14
ENDMDL
