MODEL 1
REMARK VINA RESULT:    -5.209      0.000      0.000
REMARK INTER + INTRA:         -11.615
REMARK INTER:                  -9.472
REMARK INTRA:                  -2.143
REMARK UNBOUND:                -2.143
REMARK SMILES CCCCCCCCCCCCCCCC(=O)[O-]
REMARK SMILES IDX 9 1 10 2 11 3 12 4 13 5 14 6 15 7 16 8 17 9 18 10 8 11 7 12
REMARK SMILES IDX 6 13 5 14 4 15 3 16 2 17 1 18
REMARK H PARENT
REMARK Flexibility Score: inf
ROOT
ATOM      1  C   UNL     1     -29.147   0.908  22.284  1.00  0.00     0.000 C 
ENDROOT
BRANCH   1   2
ATOM      2  C   UNL     1     -29.215  -0.042  21.077  1.00  0.00     0.000 C 
BRANCH   2   3
ATOM      3  C   UNL     1     -27.939  -0.884  20.915  1.00  0.00     0.000 C 
BRANCH   3   4
ATOM      4  C   UNL     1     -28.231  -2.326  20.476  1.00  0.00     0.000 C 
BRANCH   4   5
ATOM      5  C   UNL     1     -29.170  -2.351  19.264  1.00  0.00     0.000 C 
BRANCH   5   6
ATOM      6  C   UNL     1     -28.377  -2.263  17.951  1.00  0.00     0.006 C 
BRANCH   6   7
ATOM      7  C   UNL     1     -28.919  -3.218  16.880  1.00  0.00     0.053 C 
BRANCH   7   8
ATOM      8  C   UNL     1     -28.460  -2.831  15.506  1.00  0.00     0.041 C 
ATOM      9  O   UNL     1     -27.457  -2.084  15.362  1.00  0.00    -0.550 OA
ATOM     10  O   UNL     1     -29.118  -3.324  14.387  1.00  0.00    -0.550 OA
ENDBRANCH   7   8
ENDBRANCH   6   7
ENDBRANCH   5   6
ENDBRANCH   4   5
ENDBRANCH   3   4
ENDBRANCH   2   3
ENDBRANCH   1   2
BRANCH   1  11
ATOM     11  C   UNL     1     -30.454   0.931  23.091  1.00  0.00     0.000 C 
BRANCH  11  12
ATOM     12  C   UNL     1     -31.315  -0.324  22.864  1.00  0.00    -0.000 C 
BRANCH  12  13
ATOM     13  C   UNL     1     -31.164  -1.352  23.997  1.00  0.00    -0.000 C 
BRANCH  13  14
ATOM     14  C   UNL     1     -30.325  -2.572  23.579  1.00  0.00    -0.000 C 
BRANCH  14  15
ATOM     15  C   UNL     1     -28.889  -2.527  24.133  1.00  0.00    -0.000 C 
BRANCH  15  16
ATOM     16  C   UNL     1     -28.641  -1.447  25.201  1.00  0.00    -0.000 C 
BRANCH  16  17
ATOM     17  C   UNL     1     -27.306  -0.714  25.015  1.00  0.00    -0.003 C 
ATOM     18  C   UNL     1     -26.395  -1.467  24.051  1.00  0.00     0.004 C 
ENDBRANCH  16  17
ENDBRANCH  15  16
ENDBRANCH  14  15
ENDBRANCH  13  14
ENDBRANCH  12  13
ENDBRANCH  11  12
ENDBRANCH   1  11
TORSDOF 14
ENDMDL
MODEL 2
REMARK VINA RESULT:    -5.132      1.107      2.216
REMARK INTER + INTRA:         -11.475
REMARK INTER:                  -9.708
REMARK INTRA:                  -1.767
REMARK UNBOUND:                -2.143
REMARK SMILES CCCCCCCCCCCCCCCC(=O)[O-]
REMARK SMILES IDX 9 1 10 2 11 3 12 4 13 5 14 6 15 7 16 8 17 9 18 10 8 11 7 12
REMARK SMILES IDX 6 13 5 14 4 15 3 16 2 17 1 18
REMARK H PARENT
REMARK Flexibility Score: inf
ROOT
ATOM      1  C   UNL     1     -30.126  -1.830  21.515  1.00  0.00     0.000 C 
ENDROOT
BRANCH   1   2
ATOM      2  C   UNL     1     -28.798  -2.256  20.868  1.00  0.00     0.000 C 
BRANCH   2   3
ATOM      3  C   UNL     1     -28.156  -1.130  20.042  1.00  0.00     0.000 C 
BRANCH   3   4
ATOM      4  C   UNL     1     -28.095  -1.455  18.542  1.00  0.00     0.000 C 
BRANCH   4   5
ATOM      5  C   UNL     1     -28.934  -2.697  18.214  1.00  0.00     0.000 C 
BRANCH   5   6
ATOM      6  C   UNL     1     -28.713  -3.143  16.762  1.00  0.00     0.006 C 
BRANCH   6   7
ATOM      7  C   UNL     1     -28.190  -2.004  15.877  1.00  0.00     0.053 C 
BRANCH   7   8
ATOM      8  C   UNL     1     -27.738  -2.503  14.538  1.00  0.00     0.041 C 
ATOM      9  O   UNL     1     -26.794  -1.928  13.935  1.00  0.00    -0.550 OA
ATOM     10  O   UNL     1     -28.336  -3.622  13.974  1.00  0.00    -0.550 OA
ENDBRANCH   7   8
ENDBRANCH   6   7
ENDBRANCH   5   6
ENDBRANCH   4   5
ENDBRANCH   3   4
ENDBRANCH   2   3
ENDBRANCH   1   2
BRANCH   1  11
ATOM     11  C   UNL     1     -30.228  -2.255  22.988  1.00  0.00     0.000 C 
BRANCH  11  12
ATOM     12  C   UNL     1     -30.754  -1.129  23.897  1.00  0.00    -0.000 C 
BRANCH  12  13
ATOM     13  C   UNL     1     -30.734   0.243  23.203  1.00  0.00    -0.000 C 
BRANCH  13  14
ATOM     14  C   UNL     1     -29.603   1.148  23.718  1.00  0.00    -0.000 C 
BRANCH  14  15
ATOM     15  C   UNL     1     -28.379   1.165  22.785  1.00  0.00    -0.000 C 
BRANCH  15  16
ATOM     16  C   UNL     1     -27.034   0.873  23.475  1.00  0.00    -0.000 C 
BRANCH  16  17
ATOM     17  C   UNL     1     -27.155  -0.146  24.616  1.00  0.00    -0.003 C 
ATOM     18  C   UNL     1     -26.736  -1.539  24.156  1.00  0.00     0.004 C 
ENDBRANCH  16  17
ENDBRANCH  15  16
ENDBRANCH  14  15
ENDBRANCH  13  14
ENDBRANCH  12  13
ENDBRANCH  11  12
ENDBRANCH   1  11
TORSDOF 14
ENDMDL
MODEL 3
REMARK VINA RESULT:    -5.118      1.299      2.803
REMARK INTER + INTRA:         -11.450
REMARK INTER:                  -9.559
REMARK INTRA:                  -1.891
REMARK UNBOUND:                -2.143
REMARK SMILES CCCCCCCCCCCCCCCC(=O)[O-]
REMARK SMILES IDX 9 1 10 2 11 3 12 4 13 5 14 6 15 7 16 8 17 9 18 10 8 11 7 12
REMARK SMILES IDX 6 13 5 14 4 15 3 16 2 17 1 18
REMARK H PARENT
REMARK Flexibility Score: inf
ROOT
ATOM      1  C   UNL     1     -27.298   0.391  22.515  1.00  0.00     0.000 C 
ENDROOT
BRANCH   1   2
ATOM      2  C   UNL     1     -27.337  -1.123  22.248  1.00  0.00     0.000 C 
BRANCH   2   3
ATOM      3  C   UNL     1     -27.119  -1.467  20.766  1.00  0.00     0.000 C 
BRANCH   3   4
ATOM      4  C   UNL     1     -28.300  -1.047  19.878  1.00  0.00     0.000 C 
BRANCH   4   5
ATOM      5  C   UNL     1     -29.279  -2.212  19.682  1.00  0.00     0.000 C 
BRANCH   5   6
ATOM      6  C   UNL     1     -28.992  -2.957  18.371  1.00  0.00     0.006 C 
BRANCH   6   7
ATOM      7  C   UNL     1     -28.248  -2.080  17.355  1.00  0.00     0.053 C 
BRANCH   7   8
ATOM      8  C   UNL     1     -28.133  -2.751  16.019  1.00  0.00     0.041 C 
ATOM      9  O   UNL     1     -27.554  -2.168  15.066  1.00  0.00    -0.550 OA
ATOM     10  O   UNL     1     -28.636  -4.033  15.839  1.00  0.00    -0.550 OA
ENDBRANCH   7   8
ENDBRANCH   6   7
ENDBRANCH   5   6
ENDBRANCH   4   5
ENDBRANCH   3   4
ENDBRANCH   2   3
ENDBRANCH   1   2
BRANCH   1  11
ATOM     11  C   UNL     1     -27.113   0.722  24.005  1.00  0.00     0.000 C 
BRANCH  11  12
ATOM     12  C   UNL     1     -27.505  -0.446  24.926  1.00  0.00    -0.000 C 
BRANCH  12  13
ATOM     13  C   UNL     1     -28.202   0.028  26.212  1.00  0.00    -0.000 C 
BRANCH  13  14
ATOM     14  C   UNL     1     -29.532   0.748  25.931  1.00  0.00    -0.000 C 
BRANCH  14  15
ATOM     15  C   UNL     1     -30.540  -0.134  25.173  1.00  0.00    -0.000 C 
BRANCH  15  16
ATOM     16  C   UNL     1     -30.903   0.364  23.762  1.00  0.00    -0.000 C 
BRANCH  16  17
ATOM     17  C   UNL     1     -30.940  -0.761  22.719  1.00  0.00    -0.003 C 
ATOM     18  C   UNL     1     -30.762  -2.127  23.377  1.00  0.00     0.004 C 
ENDBRANCH  16  17
ENDBRANCH  15  16
ENDBRANCH  14  15
ENDBRANCH  13  14
ENDBRANCH  12  13
ENDBRANCH  11  12
ENDBRANCH   1  11
TORSDOF 14
ENDMDL
MODEL 4
REMARK VINA RESULT:    -5.069      1.123      2.758
REMARK INTER + INTRA:         -11.361
REMARK INTER:                  -9.754
REMARK INTRA:                  -1.607
REMARK UNBOUND:                -2.143
REMARK SMILES CCCCCCCCCCCCCCCC(=O)[O-]
REMARK SMILES IDX 9 1 10 2 11 3 12 4 13 5 14 6 15 7 16 8 17 9 18 10 8 11 7 12
REMARK SMILES IDX 6 13 5 14 4 15 3 16 2 17 1 18
REMARK H PARENT
REMARK Flexibility Score: inf
ROOT
ATOM      1  C   UNL     1     -27.244  -0.749  21.463  1.00  0.00     0.000 C 
ENDROOT
BRANCH   1   2
ATOM      2  C   UNL     1     -28.343  -0.851  20.393  1.00  0.00     0.000 C 
BRANCH   2   3
ATOM      3  C   UNL     1     -28.936  -2.265  20.287  1.00  0.00     0.000 C 
BRANCH   3   4
ATOM      4  C   UNL     1     -29.040  -2.759  18.836  1.00  0.00     0.000 C 
BRANCH   4   5
ATOM      5  C   UNL     1     -28.151  -1.922  17.907  1.00  0.00     0.000 C 
BRANCH   5   6
ATOM      6  C   UNL     1     -28.301  -2.375  16.447  1.00  0.00     0.006 C 
BRANCH   6   7
ATOM      7  C   UNL     1     -28.693  -3.855  16.336  1.00  0.00     0.053 C 
BRANCH   7   8
ATOM      8  C   UNL     1     -28.776  -4.302  14.908  1.00  0.00     0.041 C 
ATOM      9  O   UNL     1     -27.817  -4.086  14.121  1.00  0.00    -0.550 OA
ATOM     10  O   UNL     1     -29.896  -4.987  14.456  1.00  0.00    -0.550 OA
ENDBRANCH   7   8
ENDBRANCH   6   7
ENDBRANCH   5   6
ENDBRANCH   4   5
ENDBRANCH   3   4
ENDBRANCH   2   3
ENDBRANCH   1   2
BRANCH   1  11
ATOM     11  C   UNL     1     -27.498   0.390  22.463  1.00  0.00     0.000 C 
BRANCH  11  12
ATOM     12  C   UNL     1     -27.228  -0.028  23.920  1.00  0.00    -0.000 C 
BRANCH  12  13
ATOM     13  C   UNL     1     -27.022  -1.544  24.068  1.00  0.00    -0.000 C 
BRANCH  13  14
ATOM     14  C   UNL     1     -28.342  -2.298  24.302  1.00  0.00    -0.000 C 
BRANCH  14  15
ATOM     15  C   UNL     1     -29.452  -1.397  24.874  1.00  0.00    -0.000 C 
BRANCH  15  16
ATOM     16  C   UNL     1     -30.864  -1.686  24.332  1.00  0.00    -0.000 C 
BRANCH  16  17
ATOM     17  C   UNL     1     -31.134  -1.020  22.976  1.00  0.00    -0.003 C 
ATOM     18  C   UNL     1     -31.164   0.500  23.106  1.00  0.00     0.004 C 
ENDBRANCH  16  17
ENDBRANCH  15  16
ENDBRANCH  14  15
ENDBRANCH  13  14
ENDBRANCH  12  13
ENDBRANCH  11  12
ENDBRANCH   1  11
TORSDOF 14
ENDMDL
MODEL 5
REMARK VINA RESULT:    -5.014      1.379      2.146
REMARK INTER + INTRA:         -11.261
REMARK INTER:                  -9.467
REMARK INTRA:                  -1.793
REMARK UNBOUND:                -2.143
REMARK SMILES CCCCCCCCCCCCCCCC(=O)[O-]
REMARK SMILES IDX 9 1 10 2 11 3 12 4 13 5 14 6 15 7 16 8 17 9 18 10 8 11 7 12
REMARK SMILES IDX 6 13 5 14 4 15 3 16 2 17 1 18
REMARK H PARENT
REMARK Flexibility Score: inf
ROOT
ATOM      1  C   UNL     1     -30.051  -1.866  22.112  1.00  0.00     0.000 C 
ENDROOT
BRANCH   1   2
ATOM      2  C   UNL     1     -29.022  -2.247  21.035  1.00  0.00     0.000 C 
BRANCH   2   3
ATOM      3  C   UNL     1     -28.702  -1.082  20.085  1.00  0.00     0.000 C 
BRANCH   3   4
ATOM      4  C   UNL     1     -28.003  -1.542  18.797  1.00  0.00     0.000 C 
BRANCH   4   5
ATOM      5  C   UNL     1     -28.877  -2.537  18.023  1.00  0.00     0.000 C 
BRANCH   5   6
ATOM      6  C   UNL     1     -28.405  -2.668  16.568  1.00  0.00     0.006 C 
BRANCH   6   7
ATOM      7  C   UNL     1     -29.536  -3.105  15.627  1.00  0.00     0.053 C 
BRANCH   7   8
ATOM      8  C   UNL     1     -29.158  -4.314  14.826  1.00  0.00     0.041 C 
ATOM      9  O   UNL     1     -29.878  -5.346  14.859  1.00  0.00    -0.550 OA
ATOM     10  O   UNL     1     -28.029  -4.287  14.017  1.00  0.00    -0.550 OA
ENDBRANCH   7   8
ENDBRANCH   6   7
ENDBRANCH   5   6
ENDBRANCH   4   5
ENDBRANCH   3   4
ENDBRANCH   2   3
ENDBRANCH   1   2
BRANCH   1  11
ATOM     11  C   UNL     1     -30.408  -0.371  22.083  1.00  0.00     0.000 C 
BRANCH  11  12
ATOM     12  C   UNL     1     -30.780   0.177  23.473  1.00  0.00    -0.000 C 
BRANCH  12  13
ATOM     13  C   UNL     1     -30.365  -0.771  24.609  1.00  0.00    -0.000 C 
BRANCH  13  14
ATOM     14  C   UNL     1     -29.631  -0.042  25.747  1.00  0.00    -0.000 C 
BRANCH  14  15
ATOM     15  C   UNL     1     -28.120   0.099  25.490  1.00  0.00    -0.000 C 
BRANCH  15  16
ATOM     16  C   UNL     1     -27.480  -1.079  24.733  1.00  0.00    -0.000 C 
BRANCH  16  17
ATOM     17  C   UNL     1     -26.706  -0.639  23.483  1.00  0.00    -0.003 C 
ATOM     18  C   UNL     1     -27.037   0.803  23.109  1.00  0.00     0.004 C 
ENDBRANCH  16  17
ENDBRANCH  15  16
ENDBRANCH  14  15
ENDBRANCH  13  14
ENDBRANCH  12  13
ENDBRANCH  11  12
ENDBRANCH   1  11
TORSDOF 14
ENDMDL
MODEL 6
REMARK VINA RESULT:    -4.867      1.529      2.488
REMARK INTER + INTRA:         -10.994
REMARK INTER:                  -9.670
REMARK INTRA:                  -1.324
REMARK UNBOUND:                -2.143
REMARK SMILES CCCCCCCCCCCCCCCC(=O)[O-]
REMARK SMILES IDX 9 1 10 2 11 3 12 4 13 5 14 6 15 7 16 8 17 9 18 10 8 11 7 12
REMARK SMILES IDX 6 13 5 14 4 15 3 16 2 17 1 18
REMARK H PARENT
REMARK Flexibility Score: inf
ROOT
ATOM      1  C   UNL     1     -30.095  -1.516  20.885  1.00  0.00     0.000 C 
ENDROOT
BRANCH   1   2
ATOM      2  C   UNL     1     -28.919  -0.688  20.342  1.00  0.00     0.000 C 
BRANCH   2   3
ATOM      3  C   UNL     1     -27.902  -1.543  19.569  1.00  0.00     0.000 C 
BRANCH   3   4
ATOM      4  C   UNL     1     -28.157  -1.545  18.055  1.00  0.00     0.000 C 
BRANCH   4   5
ATOM      5  C   UNL     1     -28.833  -2.850  17.614  1.00  0.00     0.000 C 
BRANCH   5   6
ATOM      6  C   UNL     1     -28.598  -3.113  16.119  1.00  0.00     0.006 C 
BRANCH   6   7
ATOM      7  C   UNL     1     -29.897  -3.034  15.305  1.00  0.00     0.053 C 
BRANCH   7   8
ATOM      8  C   UNL     1     -30.128  -4.280  14.504  1.00  0.00     0.041 C 
ATOM      9  O   UNL     1     -31.207  -4.437  13.875  1.00  0.00    -0.550 OA
ATOM     10  O   UNL     1     -29.138  -5.251  14.426  1.00  0.00    -0.550 OA
ENDBRANCH   7   8
ENDBRANCH   6   7
ENDBRANCH   5   6
ENDBRANCH   4   5
ENDBRANCH   3   4
ENDBRANCH   2   3
ENDBRANCH   1   2
BRANCH   1  11
ATOM     11  C   UNL     1     -29.926  -1.880  22.369  1.00  0.00     0.000 C 
BRANCH  11  12
ATOM     12  C   UNL     1     -31.127  -1.444  23.228  1.00  0.00    -0.000 C 
BRANCH  12  13
ATOM     13  C   UNL     1     -31.117   0.063  23.530  1.00  0.00    -0.000 C 
BRANCH  13  14
ATOM     14  C   UNL     1     -29.789   0.531  24.150  1.00  0.00    -0.000 C 
BRANCH  14  15
ATOM     15  C   UNL     1     -28.901   1.297  23.152  1.00  0.00    -0.000 C 
BRANCH  15  16
ATOM     16  C   UNL     1     -27.389   1.052  23.312  1.00  0.00    -0.000 C 
BRANCH  16  17
ATOM     17  C   UNL     1     -27.066  -0.094  24.281  1.00  0.00    -0.003 C 
ATOM     18  C   UNL     1     -26.400  -1.258  23.554  1.00  0.00     0.004 C 
ENDBRANCH  16  17
ENDBRANCH  15  16
ENDBRANCH  14  15
ENDBRANCH  13  14
ENDBRANCH  12  13
ENDBRANCH  11  12
ENDBRANCH   1  11
TORSDOF 14
ENDMDL
MODEL 7
REMARK VINA RESULT:    -4.859      7.571     10.788
REMARK INTER + INTRA:         -10.978
REMARK INTER:                  -9.523
REMARK INTRA:                  -1.456
REMARK UNBOUND:                -2.143
REMARK SMILES CCCCCCCCCCCCCCCC(=O)[O-]
REMARK SMILES IDX 9 1 10 2 11 3 12 4 13 5 14 6 15 7 16 8 17 9 18 10 8 11 7 12
REMARK SMILES IDX 6 13 5 14 4 15 3 16 2 17 1 18
REMARK H PARENT
REMARK Flexibility Score: inf
ROOT
ATOM      1  C   UNL     1     -28.632  -0.313  26.884  1.00  0.00     0.000 C 
ENDROOT
BRANCH   1   2
ATOM      2  C   UNL     1     -29.955   0.470  26.854  1.00  0.00     0.000 C 
BRANCH   2   3
ATOM      3  C   UNL     1     -30.141   1.364  28.091  1.00  0.00     0.000 C 
BRANCH   3   4
ATOM      4  C   UNL     1     -29.328   0.880  29.301  1.00  0.00     0.000 C 
BRANCH   4   5
ATOM      5  C   UNL     1     -29.813   1.554  30.591  1.00  0.00     0.000 C 
BRANCH   5   6
ATOM      6  C   UNL     1     -28.862   1.252  31.759  1.00  0.00     0.006 C 
BRANCH   6   7
ATOM      7  C   UNL     1     -29.448   1.683  33.111  1.00  0.00     0.053 C 
BRANCH   7   8
ATOM      8  C   UNL     1     -29.605   3.171  33.200  1.00  0.00     0.041 C 
ATOM      9  O   UNL     1     -28.591   3.917  33.166  1.00  0.00    -0.550 OA
ATOM     10  O   UNL     1     -30.871   3.734  33.286  1.00  0.00    -0.550 OA
ENDBRANCH   7   8
ENDBRANCH   6   7
ENDBRANCH   5   6
ENDBRANCH   4   5
ENDBRANCH   3   4
ENDBRANCH   2   3
ENDBRANCH   1   2
BRANCH   1  11
ATOM     11  C   UNL     1     -27.689   0.080  25.736  1.00  0.00     0.000 C 
BRANCH  11  12
ATOM     12  C   UNL     1     -27.328  -1.111  24.830  1.00  0.00    -0.000 C 
BRANCH  12  13
ATOM     13  C   UNL     1     -26.745  -0.666  23.479  1.00  0.00    -0.000 C 
BRANCH  13  14
ATOM     14  C   UNL     1     -27.395   0.625  22.953  1.00  0.00    -0.000 C 
BRANCH  14  15
ATOM     15  C   UNL     1     -28.759   0.378  22.283  1.00  0.00    -0.000 C 
BRANCH  15  16
ATOM     16  C   UNL     1     -29.946   1.102  22.946  1.00  0.00    -0.000 C 
BRANCH  16  17
ATOM     17  C   UNL     1     -31.092   0.153  23.324  1.00  0.00    -0.003 C 
ATOM     18  C   UNL     1     -30.656  -1.305  23.221  1.00  0.00     0.004 C 
ENDBRANCH  16  17
ENDBRANCH  15  16
ENDBRANCH  14  15
ENDBRANCH  13  14
ENDBRANCH  12  13
ENDBRANCH  11  12
ENDBRANCH   1  11
TORSDOF 14
ENDMDL
MODEL 8
REMARK VINA RESULT:    -4.720      3.262      7.103
REMARK INTER + INTRA:         -10.726
REMARK INTER:                  -9.425
REMARK INTRA:                  -1.301
REMARK UNBOUND:                -2.143
REMARK SMILES CCCCCCCCCCCCCCCC(=O)[O-]
REMARK SMILES IDX 9 1 10 2 11 3 12 4 13 5 14 6 15 7 16 8 17 9 18 10 8 11 7 12
REMARK SMILES IDX 6 13 5 14 4 15 3 16 2 17 1 18
REMARK H PARENT
REMARK Flexibility Score: inf
ROOT
ATOM      1  C   UNL     1     -27.235  -0.688  22.189  1.00  0.00     0.000 C 
ENDROOT
BRANCH   1   2
ATOM      2  C   UNL     1     -26.871   0.130  23.440  1.00  0.00     0.000 C 
BRANCH   2   3
ATOM      3  C   UNL     1     -27.077  -0.660  24.742  1.00  0.00     0.000 C 
BRANCH   3   4
ATOM      4  C   UNL     1     -27.761   0.171  25.838  1.00  0.00     0.000 C 
BRANCH   4   5
ATOM      5  C   UNL     1     -29.046  -0.514  26.323  1.00  0.00     0.000 C 
BRANCH   5   6
ATOM      6  C   UNL     1     -30.289   0.171  25.737  1.00  0.00     0.006 C 
BRANCH   6   7
ATOM      7  C   UNL     1     -30.839  -0.573  24.513  1.00  0.00     0.053 C 
BRANCH   7   8
ATOM      8  C   UNL     1     -30.961   0.329  23.322  1.00  0.00     0.041 C 
ATOM      9  O   UNL     1     -31.927   0.197  22.525  1.00  0.00    -0.550 OA
ATOM     10  O   UNL     1     -30.029   1.337  23.113  1.00  0.00    -0.550 OA
ENDBRANCH   7   8
ENDBRANCH   6   7
ENDBRANCH   5   6
ENDBRANCH   4   5
ENDBRANCH   3   4
ENDBRANCH   2   3
ENDBRANCH   1   2
BRANCH   1  11
ATOM     11  C   UNL     1     -28.144  -1.884  22.511  1.00  0.00     0.000 C 
BRANCH  11  12
ATOM     12  C   UNL     1     -29.092  -2.239  21.351  1.00  0.00    -0.000 C 
BRANCH  12  13
ATOM     13  C   UNL     1     -28.528  -1.821  19.984  1.00  0.00    -0.000 C 
BRANCH  13  14
ATOM     14  C   UNL     1     -29.080  -2.677  18.831  1.00  0.00    -0.000 C 
BRANCH  14  15
ATOM     15  C   UNL     1     -28.453  -2.324  17.470  1.00  0.00    -0.000 C 
BRANCH  15  16
ATOM     16  C   UNL     1     -28.779  -3.308  16.333  1.00  0.00    -0.000 C 
BRANCH  16  17
ATOM     17  C   UNL     1     -28.534  -2.716  14.938  1.00  0.00    -0.003 C 
ATOM     18  C   UNL     1     -27.043  -2.545  14.666  1.00  0.00     0.004 C 
ENDBRANCH  16  17
ENDBRANCH  15  16
ENDBRANCH  14  15
ENDBRANCH  13  14
ENDBRANCH  12  13
ENDBRANCH  11  12
ENDBRANCH   1  11
TORSDOF 14
ENDMDL
MODEL 9
REMARK VINA RESULT:    -4.717      7.447     10.424
REMARK INTER + INTRA:         -10.721
REMARK INTER:                  -9.365
REMARK INTRA:                  -1.356
REMARK UNBOUND:                -2.143
REMARK SMILES CCCCCCCCCCCCCCCC(=O)[O-]
REMARK SMILES IDX 9 1 10 2 11 3 12 4 13 5 14 6 15 7 16 8 17 9 18 10 8 11 7 12
REMARK SMILES IDX 6 13 5 14 4 15 3 16 2 17 1 18
REMARK H PARENT
REMARK Flexibility Score: inf
ROOT
ATOM      1  C   UNL     1     -29.445   0.741  26.021  1.00  0.00     0.000 C 
ENDROOT
BRANCH   1   2
ATOM      2  C   UNL     1     -29.040   0.560  27.493  1.00  0.00     0.000 C 
BRANCH   2   3
ATOM      3  C   UNL     1     -30.085   1.128  28.467  1.00  0.00     0.000 C 
BRANCH   3   4
ATOM      4  C   UNL     1     -29.545   1.279  29.897  1.00  0.00     0.000 C 
BRANCH   4   5
ATOM      5  C   UNL     1     -30.619   1.848  30.832  1.00  0.00     0.000 C 
BRANCH   5   6
ATOM      6  C   UNL     1     -29.983   2.636  31.986  1.00  0.00     0.006 C 
BRANCH   6   7
ATOM      7  C   UNL     1     -28.794   1.893  32.610  1.00  0.00     0.053 C 
BRANCH   7   8
ATOM      8  C   UNL     1     -27.599   2.785  32.763  1.00  0.00     0.041 C 
ATOM      9  O   UNL     1     -26.440   2.326  32.587  1.00  0.00    -0.550 OA
ATOM     10  O   UNL     1     -27.768   4.130  33.065  1.00  0.00    -0.550 OA
ENDBRANCH   7   8
ENDBRANCH   6   7
ENDBRANCH   5   6
ENDBRANCH   4   5
ENDBRANCH   3   4
ENDBRANCH   2   3
ENDBRANCH   1   2
BRANCH   1  11
ATOM     11  C   UNL     1     -30.551  -0.234  25.588  1.00  0.00     0.000 C 
BRANCH  11  12
ATOM     12  C   UNL     1     -30.857  -0.155  24.082  1.00  0.00    -0.000 C 
BRANCH  12  13
ATOM     13  C   UNL     1     -30.686  -1.510  23.376  1.00  0.00    -0.000 C 
BRANCH  13  14
ATOM     14  C   UNL     1     -29.469  -2.296  23.894  1.00  0.00    -0.000 C 
BRANCH  14  15
ATOM     15  C   UNL     1     -28.164  -1.923  23.167  1.00  0.00    -0.000 C 
BRANCH  15  16
ATOM     16  C   UNL     1     -27.045  -1.388  24.079  1.00  0.00    -0.000 C 
BRANCH  16  17
ATOM     17  C   UNL     1     -26.636   0.053  23.745  1.00  0.00    -0.003 C 
ATOM     18  C   UNL     1     -27.537   0.645  22.665  1.00  0.00     0.004 C 
ENDBRANCH  16  17
ENDBRANCH  15  16
ENDBRANCH  14  15
ENDBRANCH  13  14
ENDBRANCH  12  13
ENDBRANCH  11  12
ENDBRANCH   1  11
TORSDOF 14
ENDMDL
