MODEL 1
REMARK VINA RESULT:    -5.397      0.000      0.000
REMARK INTER + INTRA:          -6.845
REMARK INTER:                  -6.659
REMARK INTRA:                  -0.186
REMARK UNBOUND:                -0.186
REMARK SMILES Oc1cc(O)c2cc(O)c(-c3cc(O)c(O)c(O)c3)[o+]c2c1
REMARK SMILES IDX 10 1 20 2 21 3 22 4 2 5 3 6 4 7 6 8 7 9 8 10 11 11 12 12
REMARK SMILES IDX 13 13 19 14 15 15 17 16 14 17 16 19 18 21 9 23 1 25 5 27
REMARK H PARENT 14 18 16 20 18 22 9 24 1 26 5 28
REMARK Flexibility Score: inf
ROOT
ATOM      1  C   UNL     1     176.222 169.080 170.475  1.00  0.00     0.402 A 
ATOM      2  O   UNL     1     176.923 167.954 170.559  1.00  0.00    -0.202 OA
ATOM      3  C   UNL     1     176.717 166.904 169.770  1.00  0.00     0.368 A 
ATOM      4  C   UNL     1     177.507 165.764 169.933  1.00  0.00     0.162 A 
ATOM      5  C   UNL     1     177.315 164.649 169.117  1.00  0.00     0.128 A 
ATOM      6  C   UNL     1     176.325 164.673 168.129  1.00  0.00     0.093 A 
ATOM      7  C   UNL     1     175.519 165.803 167.944  1.00  0.00     0.136 A 
ATOM      8  C   UNL     1     175.710 166.938 168.775  1.00  0.00     0.125 A 
ATOM      9  C   UNL     1     174.942 168.109 168.672  1.00  0.00     0.078 A 
ATOM     10  C   UNL     1     175.185 169.185 169.530  1.00  0.00     0.223 A 
ENDROOT
BRANCH   1  11
ATOM     11  C   UNL     1     176.554 170.184 171.406  1.00  0.00     0.091 A 
ATOM     12  C   UNL     1     177.823 170.784 171.406  1.00  0.00     0.068 A 
ATOM     13  C   UNL     1     178.134 171.810 172.305  1.00  0.00     0.162 A 
ATOM     14  C   UNL     1     175.604 170.602 172.346  1.00  0.00     0.068 A 
ATOM     15  C   UNL     1     177.159 172.246 173.235  1.00  0.00     0.200 A 
ATOM     16  C   UNL     1     175.894 171.628 173.249  1.00  0.00     0.162 A 
BRANCH  13  17
ATOM     17  O   UNL     1     179.417 172.359 172.244  1.00  0.00    -0.504 OA
ATOM     18  H   UNL     1     180.261 171.855 172.479  1.00  0.00     0.293 HD
ENDBRANCH  13  17
BRANCH  15  19
ATOM     19  O   UNL     1     177.407 173.274 174.148  1.00  0.00    -0.502 OA
ATOM     20  H   UNL     1     176.940 173.369 175.038  1.00  0.00     0.293 HD
ENDBRANCH  15  19
BRANCH  16  21
ATOM     21  O   UNL     1     174.911 172.021 174.156  1.00  0.00    -0.504 OA
ATOM     22  H   UNL     1     173.940 172.130 173.889  1.00  0.00     0.293 HD
ENDBRANCH  16  21
ENDBRANCH   1  11
BRANCH  10  23
ATOM     23  O   UNL     1     174.389 170.330 169.461  1.00  0.00    -0.500 OA
ATOM     24  H   UNL     1     174.577 171.144 170.034  1.00  0.00     0.294 HD
ENDBRANCH  10  23
BRANCH   5  25
ATOM     25  O   UNL     1     178.114 163.522 169.295  1.00  0.00    -0.507 OA
ATOM     26  H   UNL     1     178.412 163.226 170.218  1.00  0.00     0.293 HD
ENDBRANCH   5  25
BRANCH   7  27
ATOM     27  O   UNL     1     174.554 165.749 166.934  1.00  0.00    -0.507 OA
ATOM     28  H   UNL     1     173.563 165.648 167.096  1.00  0.00     0.293 HD
ENDBRANCH   7  27
TORSDOF 7
ENDMDL
MODEL 2
REMARK VINA RESULT:    -5.388      3.622      6.917
REMARK INTER + INTRA:          -6.833
REMARK INTER:                  -6.482
REMARK INTRA:                  -0.351
REMARK UNBOUND:                -0.186
REMARK SMILES Oc1cc(O)c2cc(O)c(-c3cc(O)c(O)c(O)c3)[o+]c2c1
REMARK SMILES IDX 10 1 20 2 21 3 22 4 2 5 3 6 4 7 6 8 7 9 8 10 11 11 12 12
REMARK SMILES IDX 13 13 19 14 15 15 17 16 14 17 16 19 18 21 9 23 1 25 5 27
REMARK H PARENT 14 18 16 20 18 22 9 24 1 26 5 28
REMARK Flexibility Score: inf
ROOT
ATOM      1  C   UNL     1     174.006 169.792 172.051  1.00  0.00     0.402 A 
ATOM      2  O   UNL     1     174.519 170.728 172.845  1.00  0.00    -0.202 OA
ATOM      3  C   UNL     1     175.773 171.158 172.752  1.00  0.00     0.368 A 
ATOM      4  C   UNL     1     176.221 172.147 173.629  1.00  0.00     0.162 A 
ATOM      5  C   UNL     1     177.531 172.620 173.553  1.00  0.00     0.128 A 
ATOM      6  C   UNL     1     178.403 172.099 172.590  1.00  0.00     0.093 A 
ATOM      7  C   UNL     1     177.980 171.106 171.698  1.00  0.00     0.136 A 
ATOM      8  C   UNL     1     176.648 170.622 171.775  1.00  0.00     0.125 A 
ATOM      9  C   UNL     1     176.141 169.620 170.932  1.00  0.00     0.078 A 
ATOM     10  C   UNL     1     174.817 169.190 171.072  1.00  0.00     0.223 A 
ENDROOT
BRANCH   1  11
ATOM     11  C   UNL     1     172.590 169.405 172.248  1.00  0.00     0.091 A 
ATOM     12  C   UNL     1     172.240 168.251 172.966  1.00  0.00     0.068 A 
ATOM     13  C   UNL     1     170.899 167.882 173.126  1.00  0.00     0.162 A 
ATOM     14  C   UNL     1     171.578 170.174 171.658  1.00  0.00     0.068 A 
ATOM     15  C   UNL     1     169.880 168.679 172.550  1.00  0.00     0.200 A 
ATOM     16  C   UNL     1     170.234 169.823 171.811  1.00  0.00     0.162 A 
BRANCH  13  17
ATOM     17  O   UNL     1     170.629 166.721 173.853  1.00  0.00    -0.504 OA
ATOM     18  H   UNL     1     170.144 165.917 173.480  1.00  0.00     0.293 HD
ENDBRANCH  13  17
BRANCH  15  19
ATOM     19  O   UNL     1     168.525 168.368 172.686  1.00  0.00    -0.502 OA
ATOM     20  H   UNL     1     167.825 168.553 171.983  1.00  0.00     0.293 HD
ENDBRANCH  15  19
BRANCH  16  21
ATOM     21  O   UNL     1     169.260 170.627 171.220  1.00  0.00    -0.504 OA
ATOM     22  H   UNL     1     169.493 171.377 170.579  1.00  0.00     0.293 HD
ENDBRANCH  16  21
ENDBRANCH   1  11
BRANCH  10  23
ATOM     23  O   UNL     1     174.328 168.160 170.268  1.00  0.00    -0.500 OA
ATOM     24  H   UNL     1     174.578 167.192 170.432  1.00  0.00     0.294 HD
ENDBRANCH  10  23
BRANCH   5  25
ATOM     25  O   UNL     1     177.958 173.607 174.438  1.00  0.00    -0.507 OA
ATOM     26  H   UNL     1     178.515 174.394 174.124  1.00  0.00     0.293 HD
ENDBRANCH   5  25
BRANCH   7  27
ATOM     27  O   UNL     1     178.910 170.640 170.764  1.00  0.00    -0.507 OA
ATOM     28  H   UNL     1     179.370 171.220 170.079  1.00  0.00     0.293 HD
ENDBRANCH   7  27
TORSDOF 7
ENDMDL
MODEL 3
REMARK VINA RESULT:    -5.384      0.153      1.811
REMARK INTER + INTRA:          -6.829
REMARK INTER:                  -6.655
REMARK INTRA:                  -0.174
REMARK UNBOUND:                -0.186
REMARK SMILES Oc1cc(O)c2cc(O)c(-c3cc(O)c(O)c(O)c3)[o+]c2c1
REMARK SMILES IDX 10 1 20 2 21 3 22 4 2 5 3 6 4 7 6 8 7 9 8 10 11 11 12 12
REMARK SMILES IDX 13 13 19 14 15 15 17 16 14 17 16 19 18 21 9 23 1 25 5 27
REMARK H PARENT 14 18 16 20 18 22 9 24 1 26 5 28
REMARK Flexibility Score: inf
ROOT
ATOM      1  C   UNL     1     176.244 169.080 170.533  1.00  0.00     0.402 A 
ATOM      2  O   UNL     1     176.928 167.940 170.574  1.00  0.00    -0.202 OA
ATOM      3  C   UNL     1     176.683 166.911 169.769  1.00  0.00     0.368 A 
ATOM      4  C   UNL     1     177.458 165.755 169.887  1.00  0.00     0.162 A 
ATOM      5  C   UNL     1     177.225 164.661 169.053  1.00  0.00     0.128 A 
ATOM      6  C   UNL     1     176.210 164.722 168.092  1.00  0.00     0.093 A 
ATOM      7  C   UNL     1     175.419 165.869 167.953  1.00  0.00     0.136 A 
ATOM      8  C   UNL     1     175.652 166.983 168.802  1.00  0.00     0.125 A 
ATOM      9  C   UNL     1     174.901 168.168 168.743  1.00  0.00     0.078 A 
ATOM     10  C   UNL     1     175.186 169.222 169.617  1.00  0.00     0.223 A 
ENDROOT
BRANCH   1  11
ATOM     11  C   UNL     1     176.620 170.157 171.477  1.00  0.00     0.091 A 
ATOM     12  C   UNL     1     175.707 170.654 172.421  1.00  0.00     0.068 A 
ATOM     13  C   UNL     1     176.064 171.689 173.293  1.00  0.00     0.162 A 
ATOM     14  C   UNL     1     177.893 170.735 171.391  1.00  0.00     0.068 A 
ATOM     15  C   UNL     1     177.363 172.249 173.219  1.00  0.00     0.200 A 
ATOM     16  C   UNL     1     178.269 171.766 172.257  1.00  0.00     0.162 A 
BRANCH  13  17
ATOM     17  O   UNL     1     175.103 172.129 174.205  1.00  0.00    -0.504 OA
ATOM     18  H   UNL     1     175.019 171.785 175.151  1.00  0.00     0.293 HD
ENDBRANCH  13  17
BRANCH  15  19
ATOM     19  O   UNL     1     177.780 173.275 174.071  1.00  0.00    -0.502 OA
ATOM     20  H   UNL     1     178.271 174.103 173.766  1.00  0.00     0.293 HD
ENDBRANCH  15  19
BRANCH  16  21
ATOM     21  O   UNL     1     179.553 172.300 172.145  1.00  0.00    -0.504 OA
ATOM     22  H   UNL     1     179.744 173.146 171.621  1.00  0.00     0.293 HD
ENDBRANCH  16  21
ENDBRANCH   1  11
BRANCH  10  23
ATOM     23  O   UNL     1     174.408 170.381 169.593  1.00  0.00    -0.500 OA
ATOM     24  H   UNL     1     173.530 170.443 170.094  1.00  0.00     0.294 HD
ENDBRANCH  10  23
BRANCH   5  25
ATOM     25  O   UNL     1     178.009 163.517 169.187  1.00  0.00    -0.507 OA
ATOM     26  H   UNL     1     177.602 162.589 169.146  1.00  0.00     0.293 HD
ENDBRANCH   5  25
BRANCH   7  27
ATOM     27  O   UNL     1     174.428 165.853 166.967  1.00  0.00    -0.507 OA
ATOM     28  H   UNL     1     173.455 166.065 167.133  1.00  0.00     0.293 HD
ENDBRANCH   7  27
TORSDOF 7
ENDMDL
MODEL 4
REMARK VINA RESULT:    -5.381      3.875      5.988
REMARK INTER + INTRA:          -6.825
REMARK INTER:                  -6.718
REMARK INTRA:                  -0.108
REMARK UNBOUND:                -0.186
REMARK SMILES Oc1cc(O)c2cc(O)c(-c3cc(O)c(O)c(O)c3)[o+]c2c1
REMARK SMILES IDX 10 1 20 2 21 3 22 4 2 5 3 6 4 7 6 8 7 9 8 10 11 11 12 12
REMARK SMILES IDX 13 13 19 14 15 15 17 16 14 17 16 19 18 21 9 23 1 25 5 27
REMARK H PARENT 14 18 16 20 18 22 9 24 1 26 5 28
REMARK Flexibility Score: inf
ROOT
ATOM      1  C   UNL     1     174.103 169.957 172.889  1.00  0.00     0.402 A 
ATOM      2  O   UNL     1     172.966 170.630 172.734  1.00  0.00    -0.202 OA
ATOM      3  C   UNL     1     171.765 170.072 172.843  1.00  0.00     0.368 A 
ATOM      4  C   UNL     1     170.628 170.863 172.666  1.00  0.00     0.162 A 
ATOM      5  C   UNL     1     169.354 170.304 172.778  1.00  0.00     0.128 A 
ATOM      6  C   UNL     1     169.216 168.943 173.070  1.00  0.00     0.093 A 
ATOM      7  C   UNL     1     170.339 168.127 173.252  1.00  0.00     0.136 A 
ATOM      8  C   UNL     1     171.637 168.693 173.137  1.00  0.00     0.125 A 
ATOM      9  C   UNL     1     172.818 167.950 173.290  1.00  0.00     0.078 A 
ATOM     10  C   UNL     1     174.062 168.576 173.156  1.00  0.00     0.223 A 
ENDROOT
BRANCH   1  11
ATOM     11  C   UNL     1     175.379 170.695 172.752  1.00  0.00     0.091 A 
ATOM     12  C   UNL     1     176.369 170.284 171.845  1.00  0.00     0.068 A 
ATOM     13  C   UNL     1     177.581 170.976 171.741  1.00  0.00     0.162 A 
ATOM     14  C   UNL     1     175.633 171.793 173.585  1.00  0.00     0.068 A 
ATOM     15  C   UNL     1     177.819 172.101 172.567  1.00  0.00     0.200 A 
ATOM     16  C   UNL     1     176.836 172.498 173.492  1.00  0.00     0.162 A 
BRANCH  13  17
ATOM     17  O   UNL     1     178.516 170.508 170.815  1.00  0.00    -0.504 OA
ATOM     18  H   UNL     1     179.172 171.098 170.324  1.00  0.00     0.293 HD
ENDBRANCH  13  17
BRANCH  15  19
ATOM     19  O   UNL     1     179.004 172.837 172.499  1.00  0.00    -0.502 OA
ATOM     20  H   UNL     1     179.417 173.173 171.641  1.00  0.00     0.293 HD
ENDBRANCH  15  19
BRANCH  16  21
ATOM     21  O   UNL     1     177.037 173.594 174.330  1.00  0.00    -0.504 OA
ATOM     22  H   UNL     1     177.914 174.100 174.359  1.00  0.00     0.293 HD
ENDBRANCH  16  21
ENDBRANCH   1  11
BRANCH  10  23
ATOM     23  O   UNL     1     175.236 167.829 173.259  1.00  0.00    -0.500 OA
ATOM     24  H   UNL     1     175.778 167.575 172.442  1.00  0.00     0.294 HD
ENDBRANCH  10  23
BRANCH   5  25
ATOM     25  O   UNL     1     168.233 171.110 172.597  1.00  0.00    -0.507 OA
ATOM     26  H   UNL     1     168.271 171.951 172.031  1.00  0.00     0.293 HD
ENDBRANCH   5  25
BRANCH   7  27
ATOM     27  O   UNL     1     170.116 166.779 173.544  1.00  0.00    -0.507 OA
ATOM     28  H   UNL     1     170.064 166.046 172.852  1.00  0.00     0.293 HD
ENDBRANCH   7  27
TORSDOF 7
ENDMDL
MODEL 5
REMARK VINA RESULT:    -5.305      3.842      4.798
REMARK INTER + INTRA:          -6.731
REMARK INTER:                  -6.348
REMARK INTRA:                  -0.383
REMARK UNBOUND:                -0.186
REMARK SMILES Oc1cc(O)c2cc(O)c(-c3cc(O)c(O)c(O)c3)[o+]c2c1
REMARK SMILES IDX 10 1 20 2 21 3 22 4 2 5 3 6 4 7 6 8 7 9 8 10 11 11 12 12
REMARK SMILES IDX 13 13 19 14 15 15 17 16 14 17 16 19 18 21 9 23 1 25 5 27
REMARK H PARENT 14 18 16 20 18 22 9 24 1 26 5 28
REMARK Flexibility Score: inf
ROOT
ATOM      1  C   UNL     1     174.268 169.663 172.716  1.00  0.00     0.402 A 
ATOM      2  O   UNL     1     174.230 168.718 173.651  1.00  0.00    -0.202 OA
ATOM      3  C   UNL     1     173.203 167.889 173.811  1.00  0.00     0.368 A 
ATOM      4  C   UNL     1     173.256 166.927 174.821  1.00  0.00     0.162 A 
ATOM      5  C   UNL     1     172.194 166.042 175.010  1.00  0.00     0.128 A 
ATOM      6  C   UNL     1     171.069 166.119 174.182  1.00  0.00     0.093 A 
ATOM      7  C   UNL     1     170.990 167.074 173.162  1.00  0.00     0.136 A 
ATOM      8  C   UNL     1     172.068 167.978 172.969  1.00  0.00     0.125 A 
ATOM      9  C   UNL     1     172.071 168.976 171.982  1.00  0.00     0.078 A 
ATOM     10  C   UNL     1     173.168 169.834 171.855  1.00  0.00     0.223 A 
ENDROOT
BRANCH   1  11
ATOM     11  C   UNL     1     175.474 170.518 172.632  1.00  0.00     0.091 A 
ATOM     12  C   UNL     1     176.536 170.203 171.769  1.00  0.00     0.068 A 
ATOM     13  C   UNL     1     177.682 171.005 171.715  1.00  0.00     0.162 A 
ATOM     14  C   UNL     1     175.588 171.633 173.472  1.00  0.00     0.068 A 
ATOM     15  C   UNL     1     177.777 172.147 172.547  1.00  0.00     0.200 A 
ATOM     16  C   UNL     1     176.722 172.448 173.428  1.00  0.00     0.162 A 
BRANCH  13  17
ATOM     17  O   UNL     1     178.695 170.628 170.831  1.00  0.00    -0.504 OA
ATOM     18  H   UNL     1     178.548 170.429 169.852  1.00  0.00     0.293 HD
ENDBRANCH  13  17
BRANCH  15  19
ATOM     19  O   UNL     1     178.890 172.991 172.528  1.00  0.00    -0.502 OA
ATOM     20  H   UNL     1     179.847 172.670 172.534  1.00  0.00     0.293 HD
ENDBRANCH  15  19
BRANCH  16  21
ATOM     21  O   UNL     1     176.783 173.557 174.271  1.00  0.00    -0.504 OA
ATOM     22  H   UNL     1     176.663 174.504 173.931  1.00  0.00     0.293 HD
ENDBRANCH  16  21
ENDBRANCH   1  11
BRANCH  10  23
ATOM     23  O   UNL     1     173.151 170.858 170.907  1.00  0.00    -0.500 OA
ATOM     24  H   UNL     1     173.326 171.823 171.162  1.00  0.00     0.294 HD
ENDBRANCH  10  23
BRANCH   5  25
ATOM     25  O   UNL     1     172.267 165.089 176.024  1.00  0.00    -0.507 OA
ATOM     26  H   UNL     1     171.436 164.625 176.375  1.00  0.00     0.293 HD
ENDBRANCH   5  25
BRANCH   7  27
ATOM     27  O   UNL     1     169.834 167.085 172.376  1.00  0.00    -0.507 OA
ATOM     28  H   UNL     1     169.120 166.372 172.402  1.00  0.00     0.293 HD
ENDBRANCH   7  27
TORSDOF 7
ENDMDL
MODEL 6
REMARK VINA RESULT:    -5.301      2.948      4.318
REMARK INTER + INTRA:          -6.726
REMARK INTER:                  -6.342
REMARK INTRA:                  -0.384
REMARK UNBOUND:                -0.186
REMARK SMILES Oc1cc(O)c2cc(O)c(-c3cc(O)c(O)c(O)c3)[o+]c2c1
REMARK SMILES IDX 10 1 20 2 21 3 22 4 2 5 3 6 4 7 6 8 7 9 8 10 11 11 12 12
REMARK SMILES IDX 13 13 19 14 15 15 17 16 14 17 16 19 18 21 9 23 1 25 5 27
REMARK H PARENT 14 18 16 20 18 22 9 24 1 26 5 28
REMARK Flexibility Score: inf
ROOT
ATOM      1  C   UNL     1     175.348 170.205 171.316  1.00  0.00     0.402 A 
ATOM      2  O   UNL     1     174.749 170.677 170.227  1.00  0.00    -0.202 OA
ATOM      3  C   UNL     1     173.837 169.997 169.540  1.00  0.00     0.368 A 
ATOM      4  C   UNL     1     173.262 170.579 168.409  1.00  0.00     0.162 A 
ATOM      5  C   UNL     1     172.300 169.889 167.671  1.00  0.00     0.128 A 
ATOM      6  C   UNL     1     171.908 168.606 168.068  1.00  0.00     0.093 A 
ATOM      7  C   UNL     1     172.468 167.999 169.198  1.00  0.00     0.136 A 
ATOM      8  C   UNL     1     173.449 168.698 169.950  1.00  0.00     0.125 A 
ATOM      9  C   UNL     1     174.074 168.164 171.088  1.00  0.00     0.078 A 
ATOM     10  C   UNL     1     175.037 168.911 171.774  1.00  0.00     0.223 A 
ENDROOT
BRANCH   1  11
ATOM     11  C   UNL     1     176.341 171.065 171.999  1.00  0.00     0.091 A 
ATOM     12  C   UNL     1     175.962 171.957 173.015  1.00  0.00     0.068 A 
ATOM     13  C   UNL     1     176.906 172.782 173.638  1.00  0.00     0.162 A 
ATOM     14  C   UNL     1     177.680 171.032 171.587  1.00  0.00     0.068 A 
ATOM     15  C   UNL     1     178.262 172.723 173.234  1.00  0.00     0.200 A 
ATOM     16  C   UNL     1     178.637 171.845 172.201  1.00  0.00     0.162 A 
BRANCH  13  17
ATOM     17  O   UNL     1     176.453 173.642 174.640  1.00  0.00    -0.504 OA
ATOM     18  H   UNL     1     176.035 173.334 175.506  1.00  0.00     0.293 HD
ENDBRANCH  13  17
BRANCH  15  19
ATOM     19  O   UNL     1     179.250 173.513 173.827  1.00  0.00    -0.502 OA
ATOM     20  H   UNL     1     179.492 173.480 174.807  1.00  0.00     0.293 HD
ENDBRANCH  15  19
BRANCH  16  21
ATOM     21  O   UNL     1     179.960 171.766 171.768  1.00  0.00    -0.504 OA
ATOM     22  H   UNL     1     180.681 172.386 172.116  1.00  0.00     0.293 HD
ENDBRANCH  16  21
ENDBRANCH   1  11
BRANCH  10  23
ATOM     23  O   UNL     1     175.695 168.362 172.875  1.00  0.00    -0.500 OA
ATOM     24  H   UNL     1     175.186 167.994 173.670  1.00  0.00     0.294 HD
ENDBRANCH  10  23
BRANCH   5  25
ATOM     25  O   UNL     1     171.739 170.487 166.545  1.00  0.00    -0.507 OA
ATOM     26  H   UNL     1     170.804 170.880 166.565  1.00  0.00     0.293 HD
ENDBRANCH   5  25
BRANCH   7  27
ATOM     27  O   UNL     1     172.021 166.717 169.530  1.00  0.00    -0.507 OA
ATOM     28  H   UNL     1     172.615 165.976 169.872  1.00  0.00     0.293 HD
ENDBRANCH   7  27
TORSDOF 7
ENDMDL
MODEL 7
REMARK VINA RESULT:    -5.240      1.249      7.113
REMARK INTER + INTRA:          -6.651
REMARK INTER:                  -6.316
REMARK INTRA:                  -0.335
REMARK UNBOUND:                -0.186
REMARK SMILES Oc1cc(O)c2cc(O)c(-c3cc(O)c(O)c(O)c3)[o+]c2c1
REMARK SMILES IDX 10 1 20 2 21 3 22 4 2 5 3 6 4 7 6 8 7 9 8 10 11 11 12 12
REMARK SMILES IDX 13 13 19 14 15 15 17 16 14 17 16 19 18 21 9 23 1 25 5 27
REMARK H PARENT 14 18 16 20 18 22 9 24 1 26 5 28
REMARK Flexibility Score: inf
ROOT
ATOM      1  C   UNL     1     175.788 168.712 171.016  1.00  0.00     0.402 A 
ATOM      2  O   UNL     1     176.847 169.515 171.066  1.00  0.00    -0.202 OA
ATOM      3  C   UNL     1     176.930 170.564 171.879  1.00  0.00     0.368 A 
ATOM      4  C   UNL     1     178.086 171.348 171.861  1.00  0.00     0.162 A 
ATOM      5  C   UNL     1     178.203 172.453 172.705  1.00  0.00     0.128 A 
ATOM      6  C   UNL     1     177.156 172.777 173.575  1.00  0.00     0.093 A 
ATOM      7  C   UNL     1     175.987 172.008 173.613  1.00  0.00     0.136 A 
ATOM      8  C   UNL     1     175.864 170.884 172.753  1.00  0.00     0.125 A 
ATOM      9  C   UNL     1     174.725 170.064 172.713  1.00  0.00     0.078 A 
ATOM     10  C   UNL     1     174.675 168.977 171.835  1.00  0.00     0.223 A 
ENDROOT
BRANCH   1  11
ATOM     11  C   UNL     1     175.819 167.569 170.075  1.00  0.00     0.091 A 
ATOM     12  C   UNL     1     175.129 167.608 168.853  1.00  0.00     0.068 A 
ATOM     13  C   UNL     1     175.146 166.513 167.981  1.00  0.00     0.162 A 
ATOM     14  C   UNL     1     176.502 166.400 170.433  1.00  0.00     0.068 A 
ATOM     15  C   UNL     1     175.862 165.345 168.338  1.00  0.00     0.200 A 
ATOM     16  C   UNL     1     176.534 165.298 169.574  1.00  0.00     0.162 A 
BRANCH  13  17
ATOM     17  O   UNL     1     174.437 166.628 166.783  1.00  0.00    -0.504 OA
ATOM     18  H   UNL     1     173.450 166.436 166.688  1.00  0.00     0.293 HD
ENDBRANCH  13  17
BRANCH  15  19
ATOM     19  O   UNL     1     175.925 164.226 167.504  1.00  0.00    -0.502 OA
ATOM     20  H   UNL     1     176.570 163.459 167.629  1.00  0.00     0.293 HD
ENDBRANCH  15  19
BRANCH  16  21
ATOM     21  O   UNL     1     177.241 164.162 169.966  1.00  0.00    -0.504 OA
ATOM     22  H   UNL     1     176.778 163.296 170.217  1.00  0.00     0.293 HD
ENDBRANCH  16  21
ENDBRANCH   1  11
BRANCH  10  23
ATOM     23  O   UNL     1     173.524 168.192 171.758  1.00  0.00    -0.500 OA
ATOM     24  H   UNL     1     173.117 167.929 170.868  1.00  0.00     0.294 HD
ENDBRANCH  10  23
BRANCH   5  25
ATOM     25  O   UNL     1     179.364 173.221 172.672  1.00  0.00    -0.507 OA
ATOM     26  H   UNL     1     179.835 173.505 173.524  1.00  0.00     0.293 HD
ENDBRANCH   5  25
BRANCH   7  27
ATOM     27  O   UNL     1     174.989 172.395 174.511  1.00  0.00    -0.507 OA
ATOM     28  H   UNL     1     174.230 171.802 174.812  1.00  0.00     0.293 HD
ENDBRANCH   7  27
TORSDOF 7
ENDMDL
MODEL 8
REMARK VINA RESULT:    -5.226      3.597      6.803
REMARK INTER + INTRA:          -6.634
REMARK INTER:                  -6.286
REMARK INTRA:                  -0.348
REMARK UNBOUND:                -0.186
REMARK SMILES Oc1cc(O)c2cc(O)c(-c3cc(O)c(O)c(O)c3)[o+]c2c1
REMARK SMILES IDX 10 1 20 2 21 3 22 4 2 5 3 6 4 7 6 8 7 9 8 10 11 11 12 12
REMARK SMILES IDX 13 13 19 14 15 15 17 16 14 17 16 19 18 21 9 23 1 25 5 27
REMARK H PARENT 14 18 16 20 18 22 9 24 1 26 5 28
REMARK Flexibility Score: inf
ROOT
ATOM      1  C   UNL     1     174.982 168.695 172.639  1.00  0.00     0.402 A 
ATOM      2  O   UNL     1     176.052 169.229 173.222  1.00  0.00    -0.202 OA
ATOM      3  C   UNL     1     176.526 170.432 172.915  1.00  0.00     0.368 A 
ATOM      4  C   UNL     1     177.655 170.910 173.584  1.00  0.00     0.162 A 
ATOM      5  C   UNL     1     178.174 172.170 173.284  1.00  0.00     0.128 A 
ATOM      6  C   UNL     1     177.558 172.961 172.307  1.00  0.00     0.093 A 
ATOM      7  C   UNL     1     176.426 172.506 171.621  1.00  0.00     0.136 A 
ATOM      8  C   UNL     1     175.897 171.223 171.922  1.00  0.00     0.125 A 
ATOM      9  C   UNL     1     174.775 170.680 171.277  1.00  0.00     0.078 A 
ATOM     10  C   UNL     1     174.315 169.405 171.624  1.00  0.00     0.223 A 
ENDROOT
BRANCH   1  11
ATOM     11  C   UNL     1     174.545 167.349 173.077  1.00  0.00     0.091 A 
ATOM     12  C   UNL     1     174.856 166.201 172.331  1.00  0.00     0.068 A 
ATOM     13  C   UNL     1     174.417 164.936 172.741  1.00  0.00     0.162 A 
ATOM     14  C   UNL     1     173.756 167.221 174.227  1.00  0.00     0.068 A 
ATOM     15  C   UNL     1     173.643 164.812 173.921  1.00  0.00     0.200 A 
ATOM     16  C   UNL     1     173.314 165.966 174.655  1.00  0.00     0.162 A 
BRANCH  13  17
ATOM     17  O   UNL     1     174.767 163.841 171.948  1.00  0.00    -0.504 OA
ATOM     18  H   UNL     1     174.490 163.728 170.984  1.00  0.00     0.293 HD
ENDBRANCH  13  17
BRANCH  15  19
ATOM     19  O   UNL     1     173.189 163.575 174.386  1.00  0.00    -0.502 OA
ATOM     20  H   UNL     1     173.660 163.024 175.089  1.00  0.00     0.293 HD
ENDBRANCH  15  19
BRANCH  16  21
ATOM     21  O   UNL     1     172.544 165.887 175.815  1.00  0.00    -0.504 OA
ATOM     22  H   UNL     1     172.267 165.001 176.221  1.00  0.00     0.293 HD
ENDBRANCH  16  21
ENDBRANCH   1  11
BRANCH  10  23
ATOM     23  O   UNL     1     173.231 168.844 170.949  1.00  0.00    -0.500 OA
ATOM     24  H   UNL     1     173.135 167.842 170.835  1.00  0.00     0.294 HD
ENDBRANCH  10  23
BRANCH   5  25
ATOM     25  O   UNL     1     179.300 172.628 173.963  1.00  0.00    -0.507 OA
ATOM     26  H   UNL     1     180.158 172.089 173.988  1.00  0.00     0.293 HD
ENDBRANCH   5  25
BRANCH   7  27
ATOM     27  O   UNL     1     175.868 173.356 170.662  1.00  0.00    -0.507 OA
ATOM     28  H   UNL     1     176.331 173.638 169.811  1.00  0.00     0.293 HD
ENDBRANCH   7  27
TORSDOF 7
ENDMDL
MODEL 9
REMARK VINA RESULT:    -5.211      3.439      4.922
REMARK INTER + INTRA:          -6.616
REMARK INTER:                  -6.531
REMARK INTRA:                  -0.085
REMARK UNBOUND:                -0.186
REMARK SMILES Oc1cc(O)c2cc(O)c(-c3cc(O)c(O)c(O)c3)[o+]c2c1
REMARK SMILES IDX 10 1 20 2 21 3 22 4 2 5 3 6 4 7 6 8 7 9 8 10 11 11 12 12
REMARK SMILES IDX 13 13 19 14 15 15 17 16 14 17 16 19 18 21 9 23 1 25 5 27
REMARK H PARENT 14 18 16 20 18 22 9 24 1 26 5 28
REMARK Flexibility Score: inf
ROOT
ATOM      1  C   UNL     1     173.941 170.302 169.736  1.00  0.00     0.402 A 
ATOM      2  O   UNL     1     174.302 170.685 168.514  1.00  0.00    -0.202 OA
ATOM      3  C   UNL     1     173.500 170.608 167.457  1.00  0.00     0.368 A 
ATOM      4  C   UNL     1     173.968 171.037 166.214  1.00  0.00     0.162 A 
ATOM      5  C   UNL     1     173.148 170.970 165.088  1.00  0.00     0.128 A 
ATOM      6  C   UNL     1     171.846 170.470 165.205  1.00  0.00     0.093 A 
ATOM      7  C   UNL     1     171.351 170.032 166.439  1.00  0.00     0.136 A 
ATOM      8  C   UNL     1     172.185 170.097 167.587  1.00  0.00     0.125 A 
ATOM      9  C   UNL     1     171.780 169.669 168.861  1.00  0.00     0.078 A 
ATOM     10  C   UNL     1     172.660 169.759 169.944  1.00  0.00     0.223 A 
ENDROOT
BRANCH   1  11
ATOM     11  C   UNL     1     174.923 170.449 170.835  1.00  0.00     0.091 A 
ATOM     12  C   UNL     1     175.550 171.677 171.097  1.00  0.00     0.068 A 
ATOM     13  C   UNL     1     176.493 171.799 172.124  1.00  0.00     0.162 A 
ATOM     14  C   UNL     1     175.278 169.327 171.595  1.00  0.00     0.068 A 
ATOM     15  C   UNL     1     176.828 170.666 172.905  1.00  0.00     0.200 A 
ATOM     16  C   UNL     1     176.215 169.430 172.627  1.00  0.00     0.162 A 
BRANCH  13  17
ATOM     17  O   UNL     1     177.073 173.053 172.325  1.00  0.00    -0.504 OA
ATOM     18  H   UNL     1     177.831 173.423 171.769  1.00  0.00     0.293 HD
ENDBRANCH  13  17
BRANCH  15  19
ATOM     19  O   UNL     1     177.752 170.730 173.951  1.00  0.00    -0.502 OA
ATOM     20  H   UNL     1     178.365 169.972 174.215  1.00  0.00     0.293 HD
ENDBRANCH  15  19
BRANCH  16  21
ATOM     21  O   UNL     1     176.526 168.290 173.366  1.00  0.00    -0.504 OA
ATOM     22  H   UNL     1     176.733 168.327 174.357  1.00  0.00     0.293 HD
ENDBRANCH  16  21
ENDBRANCH   1  11
BRANCH  10  23
ATOM     23  O   UNL     1     172.275 169.288 171.200  1.00  0.00    -0.500 OA
ATOM     24  H   UNL     1     172.302 169.880 172.021  1.00  0.00     0.294 HD
ENDBRANCH  10  23
BRANCH   5  25
ATOM     25  O   UNL     1     173.634 171.404 163.857  1.00  0.00    -0.507 OA
ATOM     26  H   UNL     1     174.624 171.380 163.641  1.00  0.00     0.293 HD
ENDBRANCH   5  25
BRANCH   7  27
ATOM     27  O   UNL     1     170.040 169.548 166.474  1.00  0.00    -0.507 OA
ATOM     28  H   UNL     1     169.571 169.117 165.691  1.00  0.00     0.293 HD
ENDBRANCH   7  27
TORSDOF 7
ENDMDL
