MODEL 1
REMARK VINA RESULT:    -3.785      0.000      0.000
REMARK INTER + INTRA:          -3.896
REMARK INTER:                  -3.896
REMARK INTRA:                   0.000
REMARK UNBOUND:                 0.000
REMARK SMILES CC1(C)[C@H]2CC[C@](C)(C2)[C@@H]1O
REMARK SMILES IDX 1 1 2 2 4 3 5 4 6 5 7 6 9 7 10 8 8 9 3 10 11 11
REMARK H PARENT 11 12
REMARK Flexibility Score: inf
ROOT
ATOM      1  C   UNL     1     131.598 142.826 141.278  1.00  0.00     0.014 C 
ATOM      2  C   UNL     1     132.190 142.859 139.845  1.00  0.00    -0.006 C 
ATOM      3  C   UNL     1     132.308 141.400 139.284  1.00  0.00    -0.002 C 
ATOM      4  C   UNL     1     132.626 141.399 137.773  1.00  0.00     0.005 C 
ATOM      5  C   UNL     1     134.064 141.939 137.725  1.00  0.00     0.010 C 
ATOM      6  C   UNL     1     134.424 142.091 139.223  1.00  0.00    -0.006 C 
ATOM      7  C   UNL     1     133.650 140.940 139.832  1.00  0.00     0.013 C 
ATOM      8  C   UNL     1     133.681 143.341 139.785  1.00  0.00     0.126 C 
ATOM      9  C   UNL     1     135.935 142.053 139.484  1.00  0.00     0.014 C 
ATOM     10  C   UNL     1     131.273 143.773 138.994  1.00  0.00     0.014 C 
ENDROOT
BRANCH   8  11
ATOM     11  O   UNL     1     134.180 143.778 141.030  1.00  0.00    -0.392 OA
ATOM     12  H   UNL     1     134.012 143.077 141.709  1.00  0.00     0.211 HD
ENDBRANCH   8  11
TORSDOF 1
ENDMDL
MODEL 2
REMARK VINA RESULT:    -3.755     13.010     15.669
REMARK INTER + INTRA:          -3.865
REMARK INTER:                  -3.865
REMARK INTRA:                   0.000
REMARK UNBOUND:                 0.000
REMARK SMILES CC1(C)[C@H]2CC[C@](C)(C2)[C@@H]1O
REMARK SMILES IDX 1 1 2 2 4 3 5 4 6 5 7 6 9 7 10 8 8 9 3 10 11 11
REMARK H PARENT 11 12
REMARK Flexibility Score: inf
ROOT
ATOM      1  C   UNL     1     149.997 138.792 141.215  1.00  0.00     0.014 C 
ATOM      2  C   UNL     1     149.353 138.777 139.804  1.00  0.00    -0.006 C 
ATOM      3  C   UNL     1     149.206 140.244 139.271  1.00  0.00    -0.002 C 
ATOM      4  C   UNL     1     148.834 140.266 137.772  1.00  0.00     0.005 C 
ATOM      5  C   UNL     1     147.398 139.718 137.768  1.00  0.00     0.010 C 
ATOM      6  C   UNL     1     147.094 139.541 139.276  1.00  0.00    -0.006 C 
ATOM      7  C   UNL     1     147.883 140.687 139.874  1.00  0.00     0.013 C 
ATOM      8  C   UNL     1     147.864 138.287 139.791  1.00  0.00     0.126 C 
ATOM      9  C   UNL     1     145.593 139.566 139.593  1.00  0.00     0.014 C 
ATOM     10  C   UNL     1     150.243 137.882 138.906  1.00  0.00     0.014 C 
ENDROOT
BRANCH   8  11
ATOM     11  O   UNL     1     147.413 137.828 141.046  1.00  0.00    -0.392 OA
ATOM     12  H   UNL     1     146.653 138.391 141.342  1.00  0.00     0.211 HD
ENDBRANCH   8  11
TORSDOF 1
ENDMDL
MODEL 3
REMARK VINA RESULT:    -3.752      9.709     11.178
REMARK INTER + INTRA:          -3.862
REMARK INTER:                  -3.862
REMARK INTRA:                   0.000
REMARK UNBOUND:                 0.000
REMARK SMILES CC1(C)[C@H]2CC[C@](C)(C2)[C@@H]1O
REMARK SMILES IDX 1 1 2 2 4 3 5 4 6 5 7 6 9 7 10 8 8 9 3 10 11 11
REMARK H PARENT 11 12
REMARK Flexibility Score: inf
ROOT
ATOM      1  C   UNL     1     138.828 131.608 141.271  1.00  0.00     0.014 C 
ATOM      2  C   UNL     1     138.800 132.186 139.832  1.00  0.00    -0.006 C 
ATOM      3  C   UNL     1     140.260 132.281 139.268  1.00  0.00    -0.002 C 
ATOM      4  C   UNL     1     140.262 132.584 137.754  1.00  0.00     0.005 C 
ATOM      5  C   UNL     1     139.740 134.028 137.692  1.00  0.00     0.010 C 
ATOM      6  C   UNL     1     139.594 134.404 139.186  1.00  0.00    -0.006 C 
ATOM      7  C   UNL     1     140.737 133.622 139.802  1.00  0.00     0.013 C 
ATOM      8  C   UNL     1     138.336 133.682 139.757  1.00  0.00     0.126 C 
ATOM      9  C   UNL     1     139.651 135.917 139.433  1.00  0.00     0.014 C 
ATOM     10  C   UNL     1     137.874 131.272 138.991  1.00  0.00     0.014 C 
ENDROOT
BRANCH   8  11
ATOM     11  O   UNL     1     137.907 134.199 140.998  1.00  0.00    -0.392 OA
ATOM     12  H   UNL     1     136.920 134.131 141.052  1.00  0.00     0.211 HD
ENDBRANCH   8  11
TORSDOF 1
ENDMDL
MODEL 4
REMARK VINA RESULT:    -3.726      9.615     11.125
REMARK INTER + INTRA:          -3.834
REMARK INTER:                  -3.834
REMARK INTRA:                   0.000
REMARK UNBOUND:                 0.000
REMARK SMILES CC1(C)[C@H]2CC[C@](C)(C2)[C@@H]1O
REMARK SMILES IDX 1 1 2 2 4 3 5 4 6 5 7 6 9 7 10 8 8 9 3 10 11 11
REMARK H PARENT 11 12
REMARK Flexibility Score: inf
ROOT
ATOM      1  C   UNL     1     142.812 149.990 141.261  1.00  0.00     0.014 C 
ATOM      2  C   UNL     1     142.832 149.440 139.811  1.00  0.00    -0.006 C 
ATOM      3  C   UNL     1     141.369 149.368 139.250  1.00  0.00    -0.002 C 
ATOM      4  C   UNL     1     141.360 149.095 137.730  1.00  0.00     0.005 C 
ATOM      5  C   UNL     1     141.870 147.648 137.639  1.00  0.00     0.010 C 
ATOM      6  C   UNL     1     142.018 147.242 139.125  1.00  0.00    -0.006 C 
ATOM      7  C   UNL     1     140.883 148.020 139.759  1.00  0.00     0.013 C 
ATOM      8  C   UNL     1     143.284 147.943 139.706  1.00  0.00     0.126 C 
ATOM      9  C   UNL     1     141.949 145.724 139.343  1.00  0.00     0.014 C 
ATOM     10  C   UNL     1     143.763 150.363 138.985  1.00  0.00     0.014 C 
ENDROOT
BRANCH   8  11
ATOM     11  O   UNL     1     143.712 147.398 140.935  1.00  0.00    -0.392 OA
ATOM     12  H   UNL     1     143.346 147.945 141.675  1.00  0.00     0.211 HD
ENDBRANCH   8  11
TORSDOF 1
ENDMDL
MODEL 5
REMARK VINA RESULT:    -3.472     10.233     11.632
REMARK INTER + INTRA:          -3.573
REMARK INTER:                  -3.573
REMARK INTRA:                   0.000
REMARK UNBOUND:                 0.000
REMARK SMILES CC1(C)[C@H]2CC[C@](C)(C2)[C@@H]1O
REMARK SMILES IDX 1 1 2 2 4 3 5 4 6 5 7 6 9 7 10 8 8 9 3 10 11 11
REMARK H PARENT 11 12
REMARK Flexibility Score: inf
ROOT
ATOM      1  C   UNL     1     139.897 135.510 139.628  1.00  0.00     0.014 C 
ATOM      2  C   UNL     1     140.047 134.189 138.828  1.00  0.00    -0.006 C 
ATOM      3  C   UNL     1     138.649 133.493 138.687  1.00  0.00    -0.002 C 
ATOM      4  C   UNL     1     138.698 132.331 137.670  1.00  0.00     0.005 C 
ATOM      5  C   UNL     1     139.569 131.286 138.387  1.00  0.00     0.010 C 
ATOM      6  C   UNL     1     139.831 131.943 139.763  1.00  0.00    -0.006 C 
ATOM      7  C   UNL     1     138.538 132.702 139.980  1.00  0.00     0.013 C 
ATOM      8  C   UNL     1     140.874 133.086 139.575  1.00  0.00     0.126 C 
ATOM      9  C   UNL     1     140.164 130.924 140.861  1.00  0.00     0.014 C 
ATOM     10  C   UNL     1     140.696 134.550 137.469  1.00  0.00     0.014 C 
ENDROOT
BRANCH   8  11
ATOM     11  O   UNL     1     141.441 133.534 140.787  1.00  0.00    -0.392 OA
ATOM     12  H   UNL     1     141.346 134.518 140.844  1.00  0.00     0.211 HD
ENDBRANCH   8  11
TORSDOF 1
ENDMDL
MODEL 6
REMARK VINA RESULT:    -3.449      5.310      7.682
REMARK INTER + INTRA:          -3.549
REMARK INTER:                  -3.549
REMARK INTRA:                   0.000
REMARK UNBOUND:                 0.000
REMARK SMILES CC1(C)[C@H]2CC[C@](C)(C2)[C@@H]1O
REMARK SMILES IDX 1 1 2 2 4 3 5 4 6 5 7 6 9 7 10 8 8 9 3 10 11 11
REMARK H PARENT 11 12
REMARK Flexibility Score: inf
ROOT
ATOM      1  C   UNL     1     137.774 141.753 140.909  1.00  0.00     0.014 C 
ATOM      2  C   UNL     1     139.167 141.141 141.210  1.00  0.00    -0.006 C 
ATOM      3  C   UNL     1     139.433 141.159 142.755  1.00  0.00    -0.002 C 
ATOM      4  C   UNL     1     140.673 140.314 143.124  1.00  0.00     0.005 C 
ATOM      5  C   UNL     1     141.832 141.131 142.533  1.00  0.00     0.010 C 
ATOM      6  C   UNL     1     141.120 142.389 141.981  1.00  0.00    -0.006 C 
ATOM      7  C   UNL     1     139.993 142.554 142.980  1.00  0.00     0.013 C 
ATOM      8  C   UNL     1     140.366 141.997 140.674  1.00  0.00     0.126 C 
ATOM      9  C   UNL     1     142.050 143.603 141.863  1.00  0.00     0.014 C 
ATOM     10  C   UNL     1     139.181 139.717 140.599  1.00  0.00     0.014 C 
ENDROOT
BRANCH   8  11
ATOM     11  O   UNL     1     139.962 143.109 139.904  1.00  0.00    -0.392 OA
ATOM     12  H   UNL     1     138.972 143.138 139.875  1.00  0.00     0.211 HD
ENDBRANCH   8  11
TORSDOF 1
ENDMDL
MODEL 7
REMARK VINA RESULT:    -3.441     13.094     15.165
REMARK INTER + INTRA:          -3.541
REMARK INTER:                  -3.541
REMARK INTRA:                   0.000
REMARK UNBOUND:                 0.000
REMARK SMILES CC1(C)[C@H]2CC[C@](C)(C2)[C@@H]1O
REMARK SMILES IDX 1 1 2 2 4 3 5 4 6 5 7 6 9 7 10 8 8 9 3 10 11 11
REMARK H PARENT 11 12
REMARK Flexibility Score: inf
ROOT
ATOM      1  C   UNL     1     146.968 137.466 137.925  1.00  0.00     0.014 C 
ATOM      2  C   UNL     1     147.023 138.946 138.385  1.00  0.00    -0.006 C 
ATOM      3  C   UNL     1     148.148 139.705 137.599  1.00  0.00    -0.002 C 
ATOM      4  C   UNL     1     148.058 141.231 137.816  1.00  0.00     0.005 C 
ATOM      5  C   UNL     1     148.456 141.391 139.292  1.00  0.00     0.010 C 
ATOM      6  C   UNL     1     148.816 139.945 139.709  1.00  0.00    -0.006 C 
ATOM      7  C   UNL     1     149.392 139.399 138.419  1.00  0.00     0.013 C 
ATOM      8  C   UNL     1     147.495 139.133 139.868  1.00  0.00     0.126 C 
ATOM      9  C   UNL     1     149.772 139.887 140.909  1.00  0.00     0.014 C 
ATOM     10  C   UNL     1     145.611 139.544 138.169  1.00  0.00     0.014 C 
ENDROOT
BRANCH   8  11
ATOM     11  O   UNL     1     147.665 137.915 140.561  1.00  0.00    -0.392 OA
ATOM     12  H   UNL     1     147.020 137.878 141.311  1.00  0.00     0.211 HD
ENDBRANCH   8  11
TORSDOF 1
ENDMDL
MODEL 8
REMARK VINA RESULT:    -3.404      9.479     10.858
REMARK INTER + INTRA:          -3.504
REMARK INTER:                  -3.504
REMARK INTRA:                   0.000
REMARK UNBOUND:                 0.000
REMARK SMILES CC1(C)[C@H]2CC[C@](C)(C2)[C@@H]1O
REMARK SMILES IDX 1 1 2 2 4 3 5 4 6 5 7 6 9 7 10 8 8 9 3 10 11 11
REMARK H PARENT 11 12
REMARK Flexibility Score: inf
ROOT
ATOM      1  C   UNL     1     144.084 146.729 137.821  1.00  0.00     0.014 C 
ATOM      2  C   UNL     1     142.623 146.880 138.321  1.00  0.00    -0.006 C 
ATOM      3  C   UNL     1     141.915 148.045 137.547  1.00  0.00    -0.002 C 
ATOM      4  C   UNL     1     140.392 148.052 137.806  1.00  0.00     0.005 C 
ATOM      5  C   UNL     1     140.298 148.468 139.282  1.00  0.00     0.010 C 
ATOM      6  C   UNL     1     141.774 148.740 139.657  1.00  0.00    -0.006 C 
ATOM      7  C   UNL     1     142.319 149.272 138.348  1.00  0.00     0.013 C 
ATOM      8  C   UNL     1     142.507 147.372 139.805  1.00  0.00     0.126 C 
ATOM      9  C   UNL     1     141.925 149.698 140.847  1.00  0.00     0.014 C 
ATOM     10  C   UNL     1     141.933 145.507 138.133  1.00  0.00     0.014 C 
ENDROOT
BRANCH   8  11
ATOM     11  O   UNL     1     143.752 147.470 140.463  1.00  0.00    -0.392 OA
ATOM     12  H   UNL     1     144.014 148.423 140.516  1.00  0.00     0.211 HD
ENDBRANCH   8  11
TORSDOF 1
ENDMDL
MODEL 9
REMARK VINA RESULT:    -3.390      9.614     11.075
REMARK INTER + INTRA:          -3.489
REMARK INTER:                  -3.489
REMARK INTRA:                   0.000
REMARK UNBOUND:                 0.000
REMARK SMILES CC1(C)[C@H]2CC[C@](C)(C2)[C@@H]1O
REMARK SMILES IDX 1 1 2 2 4 3 5 4 6 5 7 6 9 7 10 8 8 9 3 10 11 11
REMARK H PARENT 11 12
REMARK Flexibility Score: inf
ROOT
ATOM      1  C   UNL     1     137.564 134.518 137.811  1.00  0.00     0.014 C 
ATOM      2  C   UNL     1     139.035 134.495 138.303  1.00  0.00    -0.006 C 
ATOM      3  C   UNL     1     139.821 133.350 137.575  1.00  0.00    -0.002 C 
ATOM      4  C   UNL     1     141.342 133.465 137.820  1.00  0.00     0.005 C 
ATOM      5  C   UNL     1     141.475 133.123 139.312  1.00  0.00     0.010 C 
ATOM      6  C   UNL     1     140.024 132.763 139.713  1.00  0.00    -0.006 C 
ATOM      7  C   UNL     1     139.511 132.135 138.434  1.00  0.00     0.013 C 
ATOM      8  C   UNL     1     139.196 134.081 139.807  1.00  0.00     0.126 C 
ATOM      9  C   UNL     1     139.950 131.852 140.946  1.00  0.00     0.014 C 
ATOM     10  C   UNL     1     139.624 135.905 138.047  1.00  0.00     0.014 C 
ENDROOT
BRANCH   8  11
ATOM     11  O   UNL     1     137.966 133.923 140.480  1.00  0.00    -0.392 OA
ATOM     12  H   UNL     1     137.862 132.975 140.745  1.00  0.00     0.211 HD
ENDBRANCH   8  11
TORSDOF 1
ENDMDL
