MODEL 1
REMARK VINA RESULT:    -4.143      0.000      0.000
REMARK INTER + INTRA:          -7.381
REMARK INTER:                  -6.565
REMARK INTRA:                  -0.816
REMARK UNBOUND:                -0.816
REMARK SMILES CCCCCCCCCCCC(=O)[O-]
REMARK SMILES IDX 7 1 8 2 9 3 10 4 11 5 12 6 13 7 14 8 6 9 5 10 4 11 3 12 2 13
REMARK SMILES IDX 1 14
REMARK H PARENT
REMARK Flexibility Score: inf
ROOT
ATOM      1  C   UNL     1      45.624  -3.130  84.980  1.00  0.00     0.000 C 
ENDROOT
BRANCH   1   2
ATOM      2  C   UNL     1      46.117  -4.073  83.872  1.00  0.00     0.000 C 
BRANCH   2   3
ATOM      3  C   UNL     1      45.058  -5.132  83.541  1.00  0.00     0.000 C 
BRANCH   3   4
ATOM      4  C   UNL     1      43.967  -5.176  84.618  1.00  0.00     0.006 C 
BRANCH   4   5
ATOM      5  C   UNL     1      42.624  -5.605  84.022  1.00  0.00     0.053 C 
BRANCH   5   6
ATOM      6  C   UNL     1      42.441  -7.084  84.151  1.00  0.00     0.041 C 
ATOM      7  O   UNL     1      42.214  -7.786  83.131  1.00  0.00    -0.550 OA
ATOM      8  O   UNL     1      42.471  -7.683  85.404  1.00  0.00    -0.550 OA
ENDBRANCH   5   6
ENDBRANCH   4   5
ENDBRANCH   3   4
ENDBRANCH   2   3
ENDBRANCH   1   2
BRANCH   1   9
ATOM      9  C   UNL     1      46.365  -1.784  84.983  1.00  0.00     0.000 C 
BRANCH   9  10
ATOM     10  C   UNL     1      47.818  -1.909  84.492  1.00  0.00    -0.000 C 
BRANCH  10  11
ATOM     11  C   UNL     1      48.209  -0.793  83.509  1.00  0.00    -0.000 C 
BRANCH  11  12
ATOM     12  C   UNL     1      47.439  -0.883  82.179  1.00  0.00    -0.000 C 
BRANCH  12  13
ATOM     13  C   UNL     1      47.846  -2.109  81.346  1.00  0.00    -0.003 C 
ATOM     14  C   UNL     1      49.290  -2.037  80.848  1.00  0.00     0.004 C 
ENDBRANCH  12  13
ENDBRANCH  11  12
ENDBRANCH  10  11
ENDBRANCH   9  10
ENDBRANCH   1   9
TORSDOF 10
ENDMDL
MODEL 2
REMARK VINA RESULT:    -4.060     11.264     13.039
REMARK INTER + INTRA:          -7.249
REMARK INTER:                  -5.961
REMARK INTRA:                  -1.288
REMARK UNBOUND:                -0.816
REMARK SMILES CCCCCCCCCCCC(=O)[O-]
REMARK SMILES IDX 7 1 8 2 9 3 10 4 11 5 12 6 13 7 14 8 6 9 5 10 4 11 3 12 2 13
REMARK SMILES IDX 1 14
REMARK H PARENT
REMARK Flexibility Score: inf
ROOT
ATOM      1  C   UNL     1      51.217  -0.364  72.211  1.00  0.00     0.000 C 
ENDROOT
BRANCH   1   2
ATOM      2  C   UNL     1      52.515  -1.186  72.248  1.00  0.00     0.000 C 
BRANCH   2   3
ATOM      3  C   UNL     1      52.217  -2.670  72.498  1.00  0.00     0.000 C 
BRANCH   3   4
ATOM      4  C   UNL     1      52.530  -3.058  73.948  1.00  0.00     0.006 C 
BRANCH   4   5
ATOM      5  C   UNL     1      52.552  -4.580  74.117  1.00  0.00     0.053 C 
BRANCH   5   6
ATOM      6  C   UNL     1      53.954  -5.095  74.049  1.00  0.00     0.041 C 
ATOM      7  O   UNL     1      54.913  -4.301  73.859  1.00  0.00    -0.550 OA
ATOM      8  O   UNL     1      54.200  -6.459  74.145  1.00  0.00    -0.550 OA
ENDBRANCH   5   6
ENDBRANCH   4   5
ENDBRANCH   3   4
ENDBRANCH   2   3
ENDBRANCH   1   2
BRANCH   1   9
ATOM      9  C   UNL     1      50.056  -1.123  71.548  1.00  0.00     0.000 C 
BRANCH   9  10
ATOM     10  C   UNL     1      48.749  -1.024  72.353  1.00  0.00    -0.000 C 
BRANCH  10  11
ATOM     11  C   UNL     1      48.936  -1.394  73.834  1.00  0.00    -0.000 C 
BRANCH  11  12
ATOM     12  C   UNL     1      48.775  -2.903  74.089  1.00  0.00    -0.000 C 
BRANCH  12  13
ATOM     13  C   UNL     1      48.275  -3.659  72.849  1.00  0.00    -0.003 C 
ATOM     14  C   UNL     1      49.107  -4.902  72.534  1.00  0.00     0.004 C 
ENDBRANCH  12  13
ENDBRANCH  11  12
ENDBRANCH  10  11
ENDBRANCH   9  10
ENDBRANCH   1   9
TORSDOF 10
ENDMDL
MODEL 3
REMARK VINA RESULT:    -4.037     10.450     12.722
REMARK INTER + INTRA:          -7.213
REMARK INTER:                  -5.718
REMARK INTRA:                  -1.496
REMARK UNBOUND:                -0.816
REMARK SMILES CCCCCCCCCCCC(=O)[O-]
REMARK SMILES IDX 7 1 8 2 9 3 10 4 11 5 12 6 13 7 14 8 6 9 5 10 4 11 3 12 2 13
REMARK SMILES IDX 1 14
REMARK H PARENT
REMARK Flexibility Score: inf
ROOT
ATOM      1  C   UNL     1      48.635  -0.513  72.256  1.00  0.00     0.000 C 
ENDROOT
BRANCH   1   2
ATOM      2  C   UNL     1      49.913  -1.153  71.692  1.00  0.00     0.000 C 
BRANCH   2   3
ATOM      3  C   UNL     1      51.159  -0.385  72.151  1.00  0.00     0.000 C 
BRANCH   3   4
ATOM      4  C   UNL     1      52.312  -1.344  72.467  1.00  0.00     0.006 C 
BRANCH   4   5
ATOM      5  C   UNL     1      51.825  -2.795  72.506  1.00  0.00     0.053 C 
BRANCH   5   6
ATOM      6  C   UNL     1      52.940  -3.713  72.895  1.00  0.00     0.041 C 
ATOM      7  O   UNL     1      52.704  -4.743  73.579  1.00  0.00    -0.550 OA
ATOM      8  O   UNL     1      54.249  -3.406  72.544  1.00  0.00    -0.550 OA
ENDBRANCH   5   6
ENDBRANCH   4   5
ENDBRANCH   3   4
ENDBRANCH   2   3
ENDBRANCH   1   2
BRANCH   1   9
ATOM      9  C   UNL     1      48.833   0.053  73.671  1.00  0.00     0.000 C 
BRANCH   9  10
ATOM     10  C   UNL     1      48.406  -0.937  74.769  1.00  0.00    -0.000 C 
BRANCH  10  11
ATOM     11  C   UNL     1      49.555  -1.853  75.220  1.00  0.00    -0.000 C 
BRANCH  11  12
ATOM     12  C   UNL     1      49.181  -3.345  75.155  1.00  0.00    -0.000 C 
BRANCH  12  13
ATOM     13  C   UNL     1      48.305  -3.678  73.937  1.00  0.00    -0.003 C 
ATOM     14  C   UNL     1      48.855  -4.838  73.108  1.00  0.00     0.004 C 
ENDBRANCH  12  13
ENDBRANCH  11  12
ENDBRANCH  10  11
ENDBRANCH   9  10
ENDBRANCH   1   9
TORSDOF 10
ENDMDL
MODEL 4
REMARK VINA RESULT:    -3.987     10.331     13.031
REMARK INTER + INTRA:          -7.133
REMARK INTER:                  -6.012
REMARK INTRA:                  -1.121
REMARK UNBOUND:                -0.816
REMARK SMILES CCCCCCCCCCCC(=O)[O-]
REMARK SMILES IDX 7 1 8 2 9 3 10 4 11 5 12 6 13 7 14 8 6 9 5 10 4 11 3 12 2 13
REMARK SMILES IDX 1 14
REMARK H PARENT
REMARK Flexibility Score: inf
ROOT
ATOM      1  C   UNL     1      50.253  -1.431  71.903  1.00  0.00     0.000 C 
ENDROOT
BRANCH   1   2
ATOM      2  C   UNL     1      51.329  -0.402  72.282  1.00  0.00     0.000 C 
BRANCH   2   3
ATOM      3  C   UNL     1      52.728  -0.909  71.912  1.00  0.00     0.000 C 
BRANCH   3   4
ATOM      4  C   UNL     1      53.281  -1.840  72.998  1.00  0.00     0.006 C 
BRANCH   4   5
ATOM      5  C   UNL     1      53.898  -3.098  72.381  1.00  0.00     0.053 C 
BRANCH   5   6
ATOM      6  C   UNL     1      54.206  -4.106  73.443  1.00  0.00     0.041 C 
ATOM      7  O   UNL     1      55.385  -4.243  73.864  1.00  0.00    -0.550 OA
ATOM      8  O   UNL     1      53.200  -4.929  73.933  1.00  0.00    -0.550 OA
ENDBRANCH   5   6
ENDBRANCH   4   5
ENDBRANCH   3   4
ENDBRANCH   2   3
ENDBRANCH   1   2
BRANCH   1   9
ATOM      9  C   UNL     1      48.830  -0.940  72.216  1.00  0.00     0.000 C 
BRANCH   9  10
ATOM     10  C   UNL     1      48.820   0.286  73.147  1.00  0.00    -0.000 C 
BRANCH  10  11
ATOM     11  C   UNL     1      48.135   0.001  74.493  1.00  0.00    -0.000 C 
BRANCH  11  12
ATOM     12  C   UNL     1      48.381  -1.436  74.988  1.00  0.00    -0.000 C 
BRANCH  12  13
ATOM     13  C   UNL     1      49.663  -1.557  75.826  1.00  0.00    -0.003 C 
ATOM     14  C   UNL     1      50.570  -2.697  75.364  1.00  0.00     0.004 C 
ENDBRANCH  12  13
ENDBRANCH  11  12
ENDBRANCH  10  11
ENDBRANCH   9  10
ENDBRANCH   1   9
TORSDOF 10
ENDMDL
MODEL 5
REMARK VINA RESULT:    -3.969      9.688     11.294
REMARK INTER + INTRA:          -7.105
REMARK INTER:                  -5.528
REMARK INTRA:                  -1.576
REMARK UNBOUND:                -0.816
REMARK SMILES CCCCCCCCCCCC(=O)[O-]
REMARK SMILES IDX 7 1 8 2 9 3 10 4 11 5 12 6 13 7 14 8 6 9 5 10 4 11 3 12 2 13
REMARK SMILES IDX 1 14
REMARK H PARENT
REMARK Flexibility Score: inf
ROOT
ATOM      1  C   UNL     1      51.746  -3.247  73.903  1.00  0.00     0.000 C 
ENDROOT
BRANCH   1   2
ATOM      2  C   UNL     1      50.431  -3.996  74.168  1.00  0.00     0.000 C 
BRANCH   2   3
ATOM      3  C   UNL     1      49.795  -4.470  72.855  1.00  0.00     0.000 C 
BRANCH   3   4
ATOM      4  C   UNL     1      48.287  -4.193  72.841  1.00  0.00     0.006 C 
BRANCH   4   5
ATOM      5  C   UNL     1      47.723  -4.153  74.263  1.00  0.00     0.053 C 
BRANCH   5   6
ATOM      6  C   UNL     1      46.649  -5.180  74.431  1.00  0.00     0.041 C 
ATOM      7  O   UNL     1      46.115  -5.360  75.557  1.00  0.00    -0.550 OA
ATOM      8  O   UNL     1      46.272  -5.975  73.357  1.00  0.00    -0.550 OA
ENDBRANCH   5   6
ENDBRANCH   4   5
ENDBRANCH   3   4
ENDBRANCH   2   3
ENDBRANCH   1   2
BRANCH   1   9
ATOM      9  C   UNL     1      51.872  -2.774  72.446  1.00  0.00     0.000 C 
BRANCH   9  10
ATOM     10  C   UNL     1      52.386  -1.327  72.338  1.00  0.00    -0.000 C 
BRANCH  10  11
ATOM     11  C   UNL     1      51.246  -0.301  72.238  1.00  0.00    -0.000 C 
BRANCH  11  12
ATOM     12  C   UNL     1      49.923  -0.931  71.767  1.00  0.00    -0.000 C 
BRANCH  12  13
ATOM     13  C   UNL     1      48.713  -0.420  72.564  1.00  0.00    -0.003 C 
ATOM     14  C   UNL     1      48.895  -0.557  74.075  1.00  0.00     0.004 C 
ENDBRANCH  12  13
ENDBRANCH  11  12
ENDBRANCH  10  11
ENDBRANCH   9  10
ENDBRANCH   1   9
TORSDOF 10
ENDMDL
MODEL 6
REMARK VINA RESULT:    -3.907      9.677     12.099
REMARK INTER + INTRA:          -7.006
REMARK INTER:                  -5.527
REMARK INTRA:                  -1.480
REMARK UNBOUND:                -0.816
REMARK SMILES CCCCCCCCCCCC(=O)[O-]
REMARK SMILES IDX 7 1 8 2 9 3 10 4 11 5 12 6 13 7 14 8 6 9 5 10 4 11 3 12 2 13
REMARK SMILES IDX 1 14
REMARK H PARENT
REMARK Flexibility Score: inf
ROOT
ATOM      1  C   UNL     1      51.154  -0.473  72.499  1.00  0.00     0.000 C 
ENDROOT
BRANCH   1   2
ATOM      2  C   UNL     1      49.959  -0.892  71.629  1.00  0.00     0.000 C 
BRANCH   2   3
ATOM      3  C   UNL     1      48.640  -0.740  72.398  1.00  0.00     0.000 C 
BRANCH   3   4
ATOM      4  C   UNL     1      48.887  -0.205  73.814  1.00  0.00     0.006 C 
BRANCH   4   5
ATOM      5  C   UNL     1      48.493  -1.242  74.869  1.00  0.00     0.053 C 
BRANCH   5   6
ATOM      6  C   UNL     1      49.468  -1.234  76.004  1.00  0.00     0.041 C 
ATOM      7  O   UNL     1      50.371  -2.109  76.069  1.00  0.00    -0.550 OA
ATOM      8  O   UNL     1      49.351  -0.290  77.016  1.00  0.00    -0.550 OA
ENDBRANCH   5   6
ENDBRANCH   4   5
ENDBRANCH   3   4
ENDBRANCH   2   3
ENDBRANCH   1   2
BRANCH   1   9
ATOM      9  C   UNL     1      52.415  -1.303  72.208  1.00  0.00     0.000 C 
BRANCH   9  10
ATOM     10  C   UNL     1      52.603  -2.461  73.204  1.00  0.00    -0.000 C 
BRANCH  10  11
ATOM     11  C   UNL     1      52.052  -3.794  72.673  1.00  0.00    -0.000 C 
BRANCH  11  12
ATOM     12  C   UNL     1      50.722  -4.189  73.338  1.00  0.00    -0.000 C 
BRANCH  12  13
ATOM     13  C   UNL     1      49.603  -4.435  72.314  1.00  0.00    -0.003 C 
ATOM     14  C   UNL     1      48.209  -4.422  72.941  1.00  0.00     0.004 C 
ENDBRANCH  12  13
ENDBRANCH  11  12
ENDBRANCH  10  11
ENDBRANCH   9  10
ENDBRANCH   1   9
TORSDOF 10
ENDMDL
MODEL 7
REMARK VINA RESULT:    -3.855     10.387     13.008
REMARK INTER + INTRA:          -6.924
REMARK INTER:                  -6.262
REMARK INTRA:                  -0.661
REMARK UNBOUND:                -0.816
REMARK SMILES CCCCCCCCCCCC(=O)[O-]
REMARK SMILES IDX 7 1 8 2 9 3 10 4 11 5 12 6 13 7 14 8 6 9 5 10 4 11 3 12 2 13
REMARK SMILES IDX 1 14
REMARK H PARENT
REMARK Flexibility Score: inf
ROOT
ATOM      1  C   UNL     1      48.921  -2.897  73.287  1.00  0.00     0.000 C 
ENDROOT
BRANCH   1   2
ATOM      2  C   UNL     1      48.624  -1.790  72.263  1.00  0.00     0.000 C 
BRANCH   2   3
ATOM      3  C   UNL     1      49.921  -1.144  71.761  1.00  0.00     0.000 C 
BRANCH   3   4
ATOM      4  C   UNL     1      50.985  -1.115  72.865  1.00  0.00     0.006 C 
BRANCH   4   5
ATOM      5  C   UNL     1      52.386  -1.321  72.283  1.00  0.00     0.053 C 
BRANCH   5   6
ATOM      6  C   UNL     1      53.035  -2.525  72.889  1.00  0.00     0.041 C 
ATOM      7  O   UNL     1      54.095  -2.404  73.557  1.00  0.00    -0.550 OA
ATOM      8  O   UNL     1      52.497  -3.787  72.674  1.00  0.00    -0.550 OA
ENDBRANCH   5   6
ENDBRANCH   4   5
ENDBRANCH   3   4
ENDBRANCH   2   3
ENDBRANCH   1   2
BRANCH   1   9
ATOM      9  C   UNL     1      48.924  -4.299  72.656  1.00  0.00     0.000 C 
BRANCH   9  10
ATOM     10  C   UNL     1      47.544  -4.979  72.722  1.00  0.00    -0.000 C 
BRANCH  10  11
ATOM     11  C   UNL     1      47.237  -5.559  74.112  1.00  0.00    -0.000 C 
BRANCH  11  12
ATOM     12  C   UNL     1      46.108  -4.799  74.832  1.00  0.00    -0.000 C 
BRANCH  12  13
ATOM     13  C   UNL     1      44.937  -5.716  75.219  1.00  0.00    -0.003 C 
ATOM     14  C   UNL     1      43.766  -5.631  74.241  1.00  0.00     0.004 C 
ENDBRANCH  12  13
ENDBRANCH  11  12
ENDBRANCH  10  11
ENDBRANCH   9  10
ENDBRANCH   1   9
TORSDOF 10
ENDMDL
MODEL 8
REMARK VINA RESULT:    -3.843     11.220     13.794
REMARK INTER + INTRA:          -6.906
REMARK INTER:                  -6.373
REMARK INTRA:                  -0.533
REMARK UNBOUND:                -0.816
REMARK SMILES CCCCCCCCCCCC(=O)[O-]
REMARK SMILES IDX 7 1 8 2 9 3 10 4 11 5 12 6 13 7 14 8 6 9 5 10 4 11 3 12 2 13
REMARK SMILES IDX 1 14
REMARK H PARENT
REMARK Flexibility Score: inf
ROOT
ATOM      1  C   UNL     1      52.831  -1.287  72.243  1.00  0.00     0.000 C 
ENDROOT
BRANCH   1   2
ATOM      2  C   UNL     1      53.065  -2.438  73.232  1.00  0.00     0.000 C 
BRANCH   2   3
ATOM      3  C   UNL     1      54.195  -3.356  72.749  1.00  0.00     0.000 C 
BRANCH   3   4
ATOM      4  C   UNL     1      54.458  -4.483  73.755  1.00  0.00     0.006 C 
BRANCH   4   5
ATOM      5  C   UNL     1      55.851  -5.084  73.555  1.00  0.00     0.053 C 
BRANCH   5   6
ATOM      6  C   UNL     1      55.794  -6.578  73.628  1.00  0.00     0.041 C 
ATOM      7  O   UNL     1      56.272  -7.276  72.696  1.00  0.00    -0.550 OA
ATOM      8  O   UNL     1      55.168  -7.199  74.701  1.00  0.00    -0.550 OA
ENDBRANCH   5   6
ENDBRANCH   4   5
ENDBRANCH   3   4
ENDBRANCH   2   3
ENDBRANCH   1   2
BRANCH   1   9
ATOM      9  C   UNL     1      51.338  -1.014  71.996  1.00  0.00     0.000 C 
BRANCH   9  10
ATOM     10  C   UNL     1      50.478  -2.284  72.122  1.00  0.00    -0.000 C 
BRANCH  10  11
ATOM     11  C   UNL     1      49.028  -1.978  72.532  1.00  0.00    -0.000 C 
BRANCH  11  12
ATOM     12  C   UNL     1      48.572  -0.577  72.087  1.00  0.00    -0.000 C 
BRANCH  12  13
ATOM     13  C   UNL     1      48.286   0.353  73.277  1.00  0.00    -0.003 C 
ATOM     14  C   UNL     1      48.423  -0.351  74.627  1.00  0.00     0.004 C 
ENDBRANCH  12  13
ENDBRANCH  11  12
ENDBRANCH  10  11
ENDBRANCH   9  10
ENDBRANCH   1   9
TORSDOF 10
ENDMDL
MODEL 9
REMARK VINA RESULT:    -3.835     10.610     12.696
REMARK INTER + INTRA:          -6.893
REMARK INTER:                  -5.511
REMARK INTRA:                  -1.381
REMARK UNBOUND:                -0.816
REMARK SMILES CCCCCCCCCCCC(=O)[O-]
REMARK SMILES IDX 7 1 8 2 9 3 10 4 11 5 12 6 13 7 14 8 6 9 5 10 4 11 3 12 2 13
REMARK SMILES IDX 1 14
REMARK H PARENT
REMARK Flexibility Score: inf
ROOT
ATOM      1  C   UNL     1      52.164  -1.792  72.858  1.00  0.00     0.000 C 
ENDROOT
BRANCH   1   2
ATOM      2  C   UNL     1      51.216  -0.709  72.319  1.00  0.00     0.000 C 
BRANCH   2   3
ATOM      3  C   UNL     1      50.038  -1.337  71.564  1.00  0.00     0.000 C 
BRANCH   3   4
ATOM      4  C   UNL     1      48.702  -0.771  72.059  1.00  0.00     0.006 C 
BRANCH   4   5
ATOM      5  C   UNL     1      48.714  -0.584  73.578  1.00  0.00     0.053 C 
BRANCH   5   6
ATOM      6  C   UNL     1      48.229   0.784  73.942  1.00  0.00     0.041 C 
ATOM      7  O   UNL     1      47.078   0.940  74.426  1.00  0.00    -0.550 OA
ATOM      8  O   UNL     1      49.030   1.893  73.700  1.00  0.00    -0.550 OA
ENDBRANCH   5   6
ENDBRANCH   4   5
ENDBRANCH   3   4
ENDBRANCH   2   3
ENDBRANCH   1   2
BRANCH   1   9
ATOM      9  C   UNL     1      51.858  -3.183  72.281  1.00  0.00     0.000 C 
BRANCH   9  10
ATOM     10  C   UNL     1      51.765  -4.267  73.370  1.00  0.00    -0.000 C 
BRANCH  10  11
ATOM     11  C   UNL     1      50.313  -4.635  73.716  1.00  0.00    -0.000 C 
BRANCH  11  12
ATOM     12  C   UNL     1      49.398  -4.653  72.479  1.00  0.00    -0.000 C 
BRANCH  12  13
ATOM     13  C   UNL     1      47.907  -4.598  72.850  1.00  0.00    -0.003 C 
ATOM     14  C   UNL     1      47.669  -4.137  74.288  1.00  0.00     0.004 C 
ENDBRANCH  12  13
ENDBRANCH  11  12
ENDBRANCH  10  11
ENDBRANCH   9  10
ENDBRANCH   1   9
TORSDOF 10
ENDMDL
