MODEL 1
REMARK VINA RESULT:    42.653      0.000      0.000
REMARK INTER + INTRA:          59.114
REMARK INTER:                  56.367
REMARK INTRA:                   2.747
REMARK UNBOUND:                 2.747
REMARK SMILES CC[C@H](C=C[C@H](C)[C@@H]1CC[C@@H]2[C@@H]3CC=C4C[C@@H](O)CC[C@]4(C)[C@@H]3CC[C@@]21C)C(C)C
REMARK SMILES IDX 6 1 7 2 5 3 4 4 3 5 2 6 1 7 28 8 29 9 30 10 8 11 9 12 26 13
REMARK SMILES IDX 10 14 11 15 25 16 27 17 12 18 24 19 23 20 13 21 21 22 14 23
REMARK SMILES IDX 15 24 20 25 22 26 16 27 19 28 17 29 18 30
REMARK H PARENT 18 31
REMARK Flexibility Score: inf
ROOT
ATOM      1  C   UNL     1      -1.112  59.440  -5.897  1.00  0.00     0.012 C 
ATOM      2  C   UNL     1      -2.221  60.470  -6.176  1.00  0.00     0.012 C 
ENDROOT
BRANCH   1   3
ATOM      3  C   UNL     1       0.191  59.964  -6.477  1.00  0.00    -0.028 C 
ATOM      4  C   UNL     1       0.902  59.293  -7.403  1.00  0.00    -0.027 C 
BRANCH   4   5
ATOM      5  C   UNL     1       2.293  59.726  -7.837  1.00  0.00     0.014 C 
BRANCH   5   6
ATOM      6  C   UNL     1       2.494  61.254  -7.645  1.00  0.00     0.004 C 
ATOM      7  C   UNL     1       1.949  61.760  -6.311  1.00  0.00     0.004 C 
ENDBRANCH   5   6
BRANCH   5   8
ATOM      8  C   UNL     1       3.390  58.879  -7.112  1.00  0.00    -0.011 C 
ATOM      9  C   UNL     1       3.259  58.933  -5.580  1.00  0.00     0.008 C 
ATOM     10  C   UNL     1       4.806  59.349  -7.502  1.00  0.00     0.008 C 
ENDBRANCH   5   8
ENDBRANCH   4   5
ENDBRANCH   1   3
BRANCH   1  11
ATOM     11  C   UNL     1      -1.014  59.069  -4.369  1.00  0.00     0.002 C 
ATOM     12  C   UNL     1      -2.239  59.468  -3.524  1.00  0.00     0.005 C 
ATOM     13  C   UNL     1       0.198  59.642  -3.563  1.00  0.00    -0.026 C 
ATOM     14  C   UNL     1      -1.741  59.692  -2.095  1.00  0.00     0.005 C 
ATOM     15  C   UNL     1      -0.244  59.348  -2.113  1.00  0.00    -0.001 C 
ATOM     16  C   UNL     1       0.374  61.192  -3.791  1.00  0.00     0.007 C 
ATOM     17  C   UNL     1       1.509  58.877  -3.887  1.00  0.00     0.012 C 
ATOM     18  C   UNL     1       0.644  60.000  -1.000  1.00  0.00     0.000 C 
ATOM     19  C   UNL     1       0.615  62.045  -2.532  1.00  0.00     0.005 C 
ATOM     20  C   UNL     1       1.386  61.302  -1.428  1.00  0.00     0.003 C 
ATOM     21  C   UNL     1      -0.104  60.175   0.320  1.00  0.00     0.031 C 
ATOM     22  C   UNL     1       1.885  62.238  -0.225  1.00  0.00    -0.008 C 
ATOM     23  C   UNL     1       0.846  60.612   1.384  1.00  0.00    -0.027 C 
ATOM     24  C   UNL     1       1.772  61.561   1.149  1.00  0.00    -0.065 C 
ATOM     25  C   UNL     1       1.073  63.568  -0.086  1.00  0.00     0.014 C 
ATOM     26  C   UNL     1       3.373  62.581  -0.518  1.00  0.00     0.016 C 
ATOM     27  C   UNL     1       2.291  62.329   2.342  1.00  0.00     0.063 C 
ATOM     28  C   UNL     1       1.472  64.425   1.142  1.00  0.00     0.033 C 
ATOM     29  C   UNL     1       1.473  63.629   2.465  1.00  0.00     0.118 C 
BRANCH  29  30
ATOM     30  O   UNL     1       2.007  64.434   3.482  1.00  0.00    -0.393 OA
ATOM     31  H   UNL     1       2.715  63.902   3.930  1.00  0.00     0.210 HD
ENDBRANCH  29  30
ENDBRANCH   1  11
TORSDOF 6
ENDMDL
MODEL 2
REMARK VINA RESULT:    43.869      3.239      8.308
REMARK INTER + INTRA:          60.721
REMARK INTER:                  60.347
REMARK INTRA:                   0.374
REMARK UNBOUND:                 2.747
REMARK SMILES CC[C@H](C=C[C@H](C)[C@@H]1CC[C@@H]2[C@@H]3CC=C4C[C@@H](O)CC[C@]4(C)[C@@H]3CC[C@@]21C)C(C)C
REMARK SMILES IDX 6 1 7 2 5 3 4 4 3 5 2 6 1 7 28 8 29 9 30 10 8 11 9 12 26 13
REMARK SMILES IDX 10 14 11 15 25 16 27 17 12 18 24 19 23 20 13 21 21 22 14 23
REMARK SMILES IDX 15 24 20 25 22 26 16 27 19 28 17 29 18 30
REMARK H PARENT 18 31
REMARK Flexibility Score: inf
ROOT
ATOM      1  C   UNL     1       1.559  62.294   1.051  1.00  0.00     0.012 C 
ATOM      2  C   UNL     1       0.234  61.740   1.606  1.00  0.00     0.012 C 
ENDROOT
BRANCH   1   3
ATOM      3  C   UNL     1       2.670  61.967   2.033  1.00  0.00    -0.028 C 
ATOM      4  C   UNL     1       3.247  62.894   2.820  1.00  0.00    -0.027 C 
BRANCH   4   5
ATOM      5  C   UNL     1       4.482  62.601   3.657  1.00  0.00     0.014 C 
BRANCH   5   6
ATOM      6  C   UNL     1       4.226  61.435   4.651  1.00  0.00     0.004 C 
ATOM      7  C   UNL     1       2.880  61.548   5.361  1.00  0.00     0.004 C 
ENDBRANCH   5   6
BRANCH   5   8
ATOM      8  C   UNL     1       5.727  62.352   2.744  1.00  0.00    -0.011 C 
ATOM      9  C   UNL     1       6.631  61.225   3.275  1.00  0.00     0.008 C 
ATOM     10  C   UNL     1       6.573  63.632   2.593  1.00  0.00     0.008 C 
ENDBRANCH   5   8
ENDBRANCH   4   5
ENDBRANCH   1   3
BRANCH   1  11
ATOM     11  C   UNL     1       1.847  61.791  -0.414  1.00  0.00     0.002 C 
ATOM     12  C   UNL     1       2.049  62.907  -1.456  1.00  0.00     0.005 C 
ATOM     13  C   UNL     1       0.787  60.850  -1.076  1.00  0.00    -0.026 C 
ATOM     14  C   UNL     1       1.626  62.335  -2.810  1.00  0.00     0.005 C 
ATOM     15  C   UNL     1       1.252  60.868  -2.548  1.00  0.00    -0.001 C 
ATOM     16  C   UNL     1      -0.674  61.426  -0.942  1.00  0.00     0.007 C 
ATOM     17  C   UNL     1       0.873  59.408  -0.507  1.00  0.00     0.012 C 
ATOM     18  C   UNL     1       0.269  60.197  -3.566  1.00  0.00     0.000 C 
ATOM     19  C   UNL     1      -1.542  61.390  -2.215  1.00  0.00     0.005 C 
ATOM     20  C   UNL     1      -1.228  60.199  -3.134  1.00  0.00     0.003 C 
ATOM     21  C   UNL     1       0.455  60.716  -4.990  1.00  0.00     0.031 C 
ATOM     22  C   UNL     1      -2.287  59.982  -4.319  1.00  0.00    -0.008 C 
ATOM     23  C   UNL     1      -0.365  59.902  -5.935  1.00  0.00    -0.027 C 
ATOM     24  C   UNL     1      -1.632  59.552  -5.640  1.00  0.00    -0.065 C 
ATOM     25  C   UNL     1      -3.103  61.268  -4.676  1.00  0.00     0.014 C 
ATOM     26  C   UNL     1      -3.270  58.875  -3.840  1.00  0.00     0.016 C 
ATOM     27  C   UNL     1      -2.550  59.244  -6.799  1.00  0.00     0.063 C 
ATOM     28  C   UNL     1      -4.046  61.099  -5.894  1.00  0.00     0.033 C 
ATOM     29  C   UNL     1      -3.336  60.525  -7.138  1.00  0.00     0.118 C 
BRANCH  29  30
ATOM     30  O   UNL     1      -4.294  60.249  -8.124  1.00  0.00    -0.393 OA
ATOM     31  H   UNL     1      -4.848  59.498  -7.787  1.00  0.00     0.210 HD
ENDBRANCH  29  30
ENDBRANCH   1  11
TORSDOF 6
ENDMDL
MODEL 3
REMARK VINA RESULT:    44.214      3.331      8.391
REMARK INTER + INTRA:          61.177
REMARK INTER:                  60.855
REMARK INTRA:                   0.322
REMARK UNBOUND:                 2.747
REMARK SMILES CC[C@H](C=C[C@H](C)[C@@H]1CC[C@@H]2[C@@H]3CC=C4C[C@@H](O)CC[C@]4(C)[C@@H]3CC[C@@]21C)C(C)C
REMARK SMILES IDX 6 1 7 2 5 3 4 4 3 5 2 6 1 7 28 8 29 9 30 10 8 11 9 12 26 13
REMARK SMILES IDX 10 14 11 15 25 16 27 17 12 18 24 19 23 20 13 21 21 22 14 23
REMARK SMILES IDX 15 24 20 25 22 26 16 27 19 28 17 29 18 30
REMARK H PARENT 18 31
REMARK Flexibility Score: inf
ROOT
ATOM      1  C   UNL     1       1.969  62.225   0.322  1.00  0.00     0.012 C 
ATOM      2  C   UNL     1       0.625  61.926   1.010  1.00  0.00     0.012 C 
ENDROOT
BRANCH   1   3
ATOM      3  C   UNL     1       3.093  61.795   1.250  1.00  0.00    -0.028 C 
ATOM      4  C   UNL     1       3.586  62.588   2.219  1.00  0.00    -0.027 C 
BRANCH   4   5
ATOM      5  C   UNL     1       4.832  62.230   3.013  1.00  0.00     0.014 C 
BRANCH   5   6
ATOM      6  C   UNL     1       5.870  63.384   2.987  1.00  0.00     0.004 C 
ATOM      7  C   UNL     1       7.092  63.062   2.131  1.00  0.00     0.004 C 
ENDBRANCH   5   6
BRANCH   5   8
ATOM      8  C   UNL     1       4.457  61.789   4.466  1.00  0.00    -0.011 C 
ATOM      9  C   UNL     1       3.117  62.383   4.934  1.00  0.00     0.008 C 
ATOM     10  C   UNL     1       5.553  62.193   5.472  1.00  0.00     0.008 C 
ENDBRANCH   5   8
ENDBRANCH   4   5
ENDBRANCH   1   3
BRANCH   1  11
ATOM     11  C   UNL     1       2.060  61.582  -1.113  1.00  0.00     0.002 C 
ATOM     12  C   UNL     1       2.240  62.589  -2.265  1.00  0.00     0.005 C 
ATOM     13  C   UNL     1       0.862  60.691  -1.582  1.00  0.00    -0.026 C 
ATOM     14  C   UNL     1       1.631  61.950  -3.515  1.00  0.00     0.005 C 
ATOM     15  C   UNL     1       1.169  60.549  -3.088  1.00  0.00    -0.001 C 
ATOM     16  C   UNL     1      -0.525  61.405  -1.356  1.00  0.00     0.007 C 
ATOM     17  C   UNL     1       0.890  59.297  -0.898  1.00  0.00     0.012 C 
ATOM     18  C   UNL     1       0.032  59.890  -3.941  1.00  0.00     0.000 C 
ATOM     19  C   UNL     1      -1.523  61.346  -2.529  1.00  0.00     0.005 C 
ATOM     20  C   UNL     1      -1.406  60.062  -3.365  1.00  0.00     0.003 C 
ATOM     21  C   UNL     1       0.108  60.274  -5.416  1.00  0.00     0.031 C 
ATOM     22  C   UNL     1      -2.599  59.847  -4.416  1.00  0.00    -0.008 C 
ATOM     23  C   UNL     1      -0.871  59.465  -6.200  1.00  0.00    -0.027 C 
ATOM     24  C   UNL     1      -2.123  59.255  -5.752  1.00  0.00    -0.065 C 
ATOM     25  C   UNL     1      -3.340  61.169  -4.803  1.00  0.00     0.014 C 
ATOM     26  C   UNL     1      -3.611  58.875  -3.746  1.00  0.00     0.016 C 
ATOM     27  C   UNL     1      -3.181  58.940  -6.783  1.00  0.00     0.063 C 
ATOM     28  C   UNL     1      -4.417  60.989  -5.903  1.00  0.00     0.033 C 
ATOM     29  C   UNL     1      -3.891  60.255  -7.155  1.00  0.00     0.118 C 
BRANCH  29  30
ATOM     30  O   UNL     1      -4.968  59.989  -8.014  1.00  0.00    -0.393 OA
ATOM     31  H   UNL     1      -4.929  59.022  -8.236  1.00  0.00     0.210 HD
ENDBRANCH  29  30
ENDBRANCH   1  11
TORSDOF 6
ENDMDL
