MODEL 1
REMARK VINA RESULT:    -4.963      0.000      0.000
REMARK INTER + INTRA:         -10.147
REMARK INTER:                  -9.025
REMARK INTRA:                  -1.122
REMARK UNBOUND:                -1.122
REMARK SMILES CCCCCCCCCCCCCCCC(=O)[O-]
REMARK SMILES IDX 9 1 10 2 11 3 12 4 13 5 14 6 15 7 16 8 17 9 18 10 8 11 7 12
REMARK SMILES IDX 6 13 5 14 4 15 3 16 2 17 1 18
REMARK H PARENT
REMARK Flexibility Score: inf
ROOT
ATOM      1  C   UNL     1       6.920  -9.734 -23.613  1.00  0.00     0.000 C 
ENDROOT
BRANCH   1   2
ATOM      2  C   UNL     1       6.171  -9.072 -22.450  1.00  0.00     0.000 C 
BRANCH   2   3
ATOM      3  C   UNL     1       6.022  -7.562 -22.680  1.00  0.00     0.000 C 
BRANCH   3   4
ATOM      4  C   UNL     1       5.005  -6.909 -21.726  1.00  0.00     0.000 C 
BRANCH   4   5
ATOM      5  C   UNL     1       4.356  -7.866 -20.706  1.00  0.00     0.000 C 
BRANCH   5   6
ATOM      6  C   UNL     1       3.393  -7.200 -19.707  1.00  0.00     0.006 C 
BRANCH   6   7
ATOM      7  C   UNL     1       4.020  -6.000 -18.986  1.00  0.00     0.053 C 
BRANCH   7   8
ATOM      8  C   UNL     1       3.134  -4.801 -19.101  1.00  0.00     0.041 C 
ATOM      9  O   UNL     1       3.267  -4.004 -20.067  1.00  0.00    -0.550 OA
ATOM     10  O   UNL     1       2.126  -4.589 -18.168  1.00  0.00    -0.550 OA
ENDBRANCH   7   8
ENDBRANCH   6   7
ENDBRANCH   5   6
ENDBRANCH   4   5
ENDBRANCH   3   4
ENDBRANCH   2   3
ENDBRANCH   1   2
BRANCH   1  11
ATOM     11  C   UNL     1       6.322 -11.106 -23.944  1.00  0.00     0.000 C 
BRANCH  11  12
ATOM     12  C   UNL     1       5.115 -11.412 -23.047  1.00  0.00    -0.000 C 
BRANCH  12  13
ATOM     13  C   UNL     1       3.870 -11.722 -23.887  1.00  0.00    -0.000 C 
BRANCH  13  14
ATOM     14  C   UNL     1       2.785 -12.393 -23.037  1.00  0.00    -0.000 C 
BRANCH  14  15
ATOM     15  C   UNL     1       3.408 -13.214 -21.897  1.00  0.00    -0.000 C 
BRANCH  15  16
ATOM     16  C   UNL     1       3.297 -14.729 -22.130  1.00  0.00    -0.000 C 
BRANCH  16  17
ATOM     17  C   UNL     1       4.654 -15.442 -22.042  1.00  0.00    -0.003 C 
ATOM     18  C   UNL     1       5.767 -14.464 -21.677  1.00  0.00     0.004 C 
ENDBRANCH  16  17
ENDBRANCH  15  16
ENDBRANCH  14  15
ENDBRANCH  13  14
ENDBRANCH  12  13
ENDBRANCH  11  12
ENDBRANCH   1  11
TORSDOF 14
ENDMDL
MODEL 2
REMARK VINA RESULT:    -4.939      1.649      2.797
REMARK INTER + INTRA:         -10.104
REMARK INTER:                  -8.132
REMARK INTRA:                  -1.972
REMARK UNBOUND:                -1.122
REMARK SMILES CCCCCCCCCCCCCCCC(=O)[O-]
REMARK SMILES IDX 9 1 10 2 11 3 12 4 13 5 14 6 15 7 16 8 17 9 18 10 8 11 7 12
REMARK SMILES IDX 6 13 5 14 4 15 3 16 2 17 1 18
REMARK H PARENT
REMARK Flexibility Score: inf
ROOT
ATOM      1  C   UNL     1       7.008  -9.384 -23.284  1.00  0.00     0.000 C 
ENDROOT
BRANCH   1   2
ATOM      2  C   UNL     1       5.939  -8.991 -22.257  1.00  0.00     0.000 C 
BRANCH   2   3
ATOM      3  C   UNL     1       5.593  -7.500 -22.366  1.00  0.00     0.000 C 
BRANCH   3   4
ATOM      4  C   UNL     1       5.140  -6.892 -21.026  1.00  0.00     0.000 C 
BRANCH   4   5
ATOM      5  C   UNL     1       4.052  -5.805 -21.136  1.00  0.00     0.000 C 
BRANCH   5   6
ATOM      6  C   UNL     1       3.055  -5.758 -19.964  1.00  0.00     0.006 C 
BRANCH   6   7
ATOM      7  C   UNL     1       3.746  -5.702 -18.596  1.00  0.00     0.053 C 
BRANCH   7   8
ATOM      8  C   UNL     1       4.281  -4.330 -18.337  1.00  0.00     0.041 C 
ATOM      9  O   UNL     1       3.597  -3.316 -18.632  1.00  0.00    -0.550 OA
ATOM     10  O   UNL     1       5.518  -4.171 -17.723  1.00  0.00    -0.550 OA
ENDBRANCH   7   8
ENDBRANCH   6   7
ENDBRANCH   5   6
ENDBRANCH   4   5
ENDBRANCH   3   4
ENDBRANCH   2   3
ENDBRANCH   1   2
BRANCH   1  11
ATOM     11  C   UNL     1       6.706 -10.756 -23.898  1.00  0.00     0.000 C 
BRANCH  11  12
ATOM     12  C   UNL     1       5.302 -11.235 -23.510  1.00  0.00    -0.000 C 
BRANCH  12  13
ATOM     13  C   UNL     1       5.363 -12.575 -22.767  1.00  0.00    -0.000 C 
BRANCH  13  14
ATOM     14  C   UNL     1       4.225 -12.693 -21.748  1.00  0.00    -0.000 C 
BRANCH  14  15
ATOM     15  C   UNL     1       3.246 -11.517 -21.877  1.00  0.00    -0.000 C 
BRANCH  15  16
ATOM     16  C   UNL     1       3.131 -10.697 -20.583  1.00  0.00    -0.000 C 
BRANCH  16  17
ATOM     17  C   UNL     1       2.435  -9.345 -20.798  1.00  0.00    -0.003 C 
ATOM     18  C   UNL     1       2.192  -9.081 -22.281  1.00  0.00     0.004 C 
ENDBRANCH  16  17
ENDBRANCH  15  16
ENDBRANCH  14  15
ENDBRANCH  13  14
ENDBRANCH  12  13
ENDBRANCH  11  12
ENDBRANCH   1  11
TORSDOF 14
ENDMDL
MODEL 3
REMARK VINA RESULT:    -4.865      3.315      8.036
REMARK INTER + INTRA:          -9.969
REMARK INTER:                  -8.626
REMARK INTRA:                  -1.343
REMARK UNBOUND:                -1.122
REMARK SMILES CCCCCCCCCCCCCCCC(=O)[O-]
REMARK SMILES IDX 9 1 10 2 11 3 12 4 13 5 14 6 15 7 16 8 17 9 18 10 8 11 7 12
REMARK SMILES IDX 6 13 5 14 4 15 3 16 2 17 1 18
REMARK H PARENT
REMARK Flexibility Score: inf
ROOT
ATOM      1  C   UNL     1       4.225  -7.106 -21.607  1.00  0.00     0.000 C 
ENDROOT
BRANCH   1   2
ATOM      2  C   UNL     1       5.574  -7.405 -22.273  1.00  0.00     0.000 C 
BRANCH   2   3
ATOM      3  C   UNL     1       5.903  -8.902 -22.201  1.00  0.00     0.000 C 
BRANCH   3   4
ATOM      4  C   UNL     1       6.935  -9.339 -23.257  1.00  0.00     0.000 C 
BRANCH   4   5
ATOM      5  C   UNL     1       6.709 -10.745 -23.849  1.00  0.00     0.000 C 
BRANCH   5   6
ATOM      6  C   UNL     1       5.310 -11.339 -23.608  1.00  0.00     0.006 C 
BRANCH   6   7
ATOM      7  C   UNL     1       5.334 -12.561 -22.681  1.00  0.00     0.053 C 
BRANCH   7   8
ATOM      8  C   UNL     1       4.096 -12.604 -21.843  1.00  0.00     0.041 C 
ATOM      9  O   UNL     1       3.695 -11.569 -21.249  1.00  0.00    -0.550 OA
ATOM     10  O   UNL     1       3.356 -13.777 -21.757  1.00  0.00    -0.550 OA
ENDBRANCH   7   8
ENDBRANCH   6   7
ENDBRANCH   5   6
ENDBRANCH   4   5
ENDBRANCH   3   4
ENDBRANCH   2   3
ENDBRANCH   1   2
BRANCH   1  11
ATOM     11  C   UNL     1       4.376  -6.993 -20.085  1.00  0.00     0.000 C 
BRANCH  11  12
ATOM     12  C   UNL     1       3.069  -6.518 -19.437  1.00  0.00    -0.000 C 
BRANCH  12  13
ATOM     13  C   UNL     1       3.295  -5.245 -18.612  1.00  0.00    -0.000 C 
BRANCH  13  14
ATOM     14  C   UNL     1       4.790  -4.966 -18.428  1.00  0.00    -0.000 C 
BRANCH  14  15
ATOM     15  C   UNL     1       5.142  -3.537 -18.870  1.00  0.00    -0.000 C 
BRANCH  15  16
ATOM     16  C   UNL     1       3.930  -2.774 -19.427  1.00  0.00    -0.000 C 
BRANCH  16  17
ATOM     17  C   UNL     1       4.153  -2.277 -20.863  1.00  0.00    -0.003 C 
ATOM     18  C   UNL     1       4.416  -3.441 -21.814  1.00  0.00     0.004 C 
ENDBRANCH  16  17
ENDBRANCH  15  16
ENDBRANCH  14  15
ENDBRANCH  13  14
ENDBRANCH  12  13
ENDBRANCH  11  12
ENDBRANCH   1  11
TORSDOF 14
ENDMDL
MODEL 4
REMARK VINA RESULT:    -4.828      4.041      8.340
REMARK INTER + INTRA:          -9.902
REMARK INTER:                  -8.806
REMARK INTRA:                  -1.096
REMARK UNBOUND:                -1.122
REMARK SMILES CCCCCCCCCCCCCCCC(=O)[O-]
REMARK SMILES IDX 9 1 10 2 11 3 12 4 13 5 14 6 15 7 16 8 17 9 18 10 8 11 7 12
REMARK SMILES IDX 6 13 5 14 4 15 3 16 2 17 1 18
REMARK H PARENT
REMARK Flexibility Score: inf
ROOT
ATOM      1  C   UNL     1       5.496  -6.762 -22.612  1.00  0.00     0.000 C 
ENDROOT
BRANCH   1   2
ATOM      2  C   UNL     1       5.644  -8.236 -22.213  1.00  0.00     0.000 C 
BRANCH   2   3
ATOM      3  C   UNL     1       6.873  -8.866 -22.882  1.00  0.00     0.000 C 
BRANCH   3   4
ATOM      4  C   UNL     1       6.556 -10.201 -23.580  1.00  0.00     0.000 C 
BRANCH   4   5
ATOM      5  C   UNL     1       5.208 -10.839 -23.191  1.00  0.00     0.000 C 
BRANCH   5   6
ATOM      6  C   UNL     1       5.200 -12.378 -23.154  1.00  0.00     0.006 C 
BRANCH   6   7
ATOM      7  C   UNL     1       4.823 -12.938 -21.777  1.00  0.00     0.053 C 
BRANCH   7   8
ATOM      8  C   UNL     1       5.235 -14.372 -21.666  1.00  0.00     0.041 C 
ATOM      9  O   UNL     1       6.409 -14.671 -21.324  1.00  0.00    -0.550 OA
ATOM     10  O   UNL     1       4.306 -15.381 -21.894  1.00  0.00    -0.550 OA
ENDBRANCH   7   8
ENDBRANCH   6   7
ENDBRANCH   5   6
ENDBRANCH   4   5
ENDBRANCH   3   4
ENDBRANCH   2   3
ENDBRANCH   1   2
BRANCH   1  11
ATOM     11  C   UNL     1       5.205  -5.886 -21.389  1.00  0.00     0.000 C 
BRANCH  11  12
ATOM     12  C   UNL     1       3.964  -6.384 -20.637  1.00  0.00    -0.000 C 
BRANCH  12  13
ATOM     13  C   UNL     1       4.176  -6.318 -19.120  1.00  0.00    -0.000 C 
BRANCH  13  14
ATOM     14  C   UNL     1       3.030  -5.565 -18.436  1.00  0.00    -0.000 C 
BRANCH  14  15
ATOM     15  C   UNL     1       3.347  -4.066 -18.321  1.00  0.00    -0.000 C 
BRANCH  15  16
ATOM     16  C   UNL     1       4.841  -3.793 -18.088  1.00  0.00    -0.000 C 
BRANCH  16  17
ATOM     17  C   UNL     1       5.455  -2.896 -19.173  1.00  0.00    -0.003 C 
ATOM     18  C   UNL     1       4.371  -2.228 -20.013  1.00  0.00     0.004 C 
ENDBRANCH  16  17
ENDBRANCH  15  16
ENDBRANCH  14  15
ENDBRANCH  13  14
ENDBRANCH  12  13
ENDBRANCH  11  12
ENDBRANCH   1  11
TORSDOF 14
ENDMDL
MODEL 5
REMARK VINA RESULT:    -4.745      4.081      6.639
REMARK INTER + INTRA:          -9.751
REMARK INTER:                  -7.788
REMARK INTRA:                  -1.963
REMARK UNBOUND:                -1.122
REMARK SMILES CCCCCCCCCCCCCCCC(=O)[O-]
REMARK SMILES IDX 9 1 10 2 11 3 12 4 13 5 14 6 15 7 16 8 17 9 18 10 8 11 7 12
REMARK SMILES IDX 6 13 5 14 4 15 3 16 2 17 1 18
REMARK H PARENT
REMARK Flexibility Score: inf
ROOT
ATOM      1  C   UNL     1       5.543  -6.790 -22.480  1.00  0.00     0.000 C 
ENDROOT
BRANCH   1   2
ATOM      2  C   UNL     1       5.661  -8.265 -22.078  1.00  0.00     0.000 C 
BRANCH   2   3
ATOM      3  C   UNL     1       6.672  -8.998 -22.969  1.00  0.00     0.000 C 
BRANCH   3   4
ATOM      4  C   UNL     1       6.212 -10.417 -23.354  1.00  0.00     0.000 C 
BRANCH   4   5
ATOM      5  C   UNL     1       4.961 -10.924 -22.609  1.00  0.00     0.000 C 
BRANCH   5   6
ATOM      6  C   UNL     1       4.411 -12.275 -23.100  1.00  0.00     0.006 C 
BRANCH   6   7
ATOM      7  C   UNL     1       3.879 -13.151 -21.959  1.00  0.00     0.053 C 
BRANCH   7   8
ATOM      8  C   UNL     1       4.737 -14.364 -21.789  1.00  0.00     0.041 C 
ATOM      9  O   UNL     1       5.973 -14.244 -21.585  1.00  0.00    -0.550 OA
ATOM     10  O   UNL     1       4.163 -15.629 -21.808  1.00  0.00    -0.550 OA
ENDBRANCH   7   8
ENDBRANCH   6   7
ENDBRANCH   5   6
ENDBRANCH   4   5
ENDBRANCH   3   4
ENDBRANCH   2   3
ENDBRANCH   1   2
BRANCH   1  11
ATOM     11  C   UNL     1       5.007  -5.943 -21.320  1.00  0.00     0.000 C 
BRANCH  11  12
ATOM     12  C   UNL     1       4.407  -6.830 -20.223  1.00  0.00    -0.000 C 
BRANCH  12  13
ATOM     13  C   UNL     1       3.035  -6.306 -19.780  1.00  0.00    -0.000 C 
BRANCH  13  14
ATOM     14  C   UNL     1       1.913  -7.242 -20.242  1.00  0.00    -0.000 C 
BRANCH  14  15
ATOM     15  C   UNL     1       2.443  -8.664 -20.479  1.00  0.00    -0.000 C 
BRANCH  15  16
ATOM     16  C   UNL     1       1.649  -9.422 -21.554  1.00  0.00    -0.000 C 
BRANCH  16  17
ATOM     17  C   UNL     1       1.957  -8.927 -22.975  1.00  0.00    -0.003 C 
ATOM     18  C   UNL     1       1.616  -9.992 -24.014  1.00  0.00     0.004 C 
ENDBRANCH  16  17
ENDBRANCH  15  16
ENDBRANCH  14  15
ENDBRANCH  13  14
ENDBRANCH  12  13
ENDBRANCH  11  12
ENDBRANCH   1  11
TORSDOF 14
ENDMDL
MODEL 6
REMARK VINA RESULT:    -4.707      1.458      3.330
REMARK INTER + INTRA:          -9.682
REMARK INTER:                  -8.576
REMARK INTRA:                  -1.106
REMARK UNBOUND:                -1.122
REMARK SMILES CCCCCCCCCCCCCCCC(=O)[O-]
REMARK SMILES IDX 9 1 10 2 11 3 12 4 13 5 14 6 15 7 16 8 17 9 18 10 8 11 7 12
REMARK SMILES IDX 6 13 5 14 4 15 3 16 2 17 1 18
REMARK H PARENT
REMARK Flexibility Score: inf
ROOT
ATOM      1  C   UNL     1       4.479  -7.651 -21.638  1.00  0.00     0.000 C 
ENDROOT
BRANCH   1   2
ATOM      2  C   UNL     1       4.419  -7.277 -20.152  1.00  0.00     0.000 C 
BRANCH   2   3
ATOM      3  C   UNL     1       3.122  -6.525 -19.825  1.00  0.00     0.000 C 
BRANCH   3   4
ATOM      4  C   UNL     1       3.130  -5.902 -18.417  1.00  0.00     0.000 C 
BRANCH   4   5
ATOM      5  C   UNL     1       3.348  -4.376 -18.378  1.00  0.00     0.000 C 
BRANCH   5   6
ATOM      6  C   UNL     1       4.802  -3.918 -18.595  1.00  0.00     0.006 C 
BRANCH   6   7
ATOM      7  C   UNL     1       4.910  -2.703 -19.525  1.00  0.00     0.053 C 
BRANCH   7   8
ATOM      8  C   UNL     1       4.226  -2.979 -20.826  1.00  0.00     0.041 C 
ATOM      9  O   UNL     1       4.650  -3.890 -21.585  1.00  0.00    -0.550 OA
ATOM     10  O   UNL     1       3.089  -2.262 -21.179  1.00  0.00    -0.550 OA
ENDBRANCH   7   8
ENDBRANCH   6   7
ENDBRANCH   5   6
ENDBRANCH   4   5
ENDBRANCH   3   4
ENDBRANCH   2   3
ENDBRANCH   1   2
BRANCH   1  11
ATOM     11  C   UNL     1       5.833  -7.272 -22.249  1.00  0.00     0.000 C 
BRANCH  11  12
ATOM     12  C   UNL     1       6.508  -8.491 -22.890  1.00  0.00    -0.000 C 
BRANCH  12  13
ATOM     13  C   UNL     1       5.754  -9.782 -22.548  1.00  0.00    -0.000 C 
BRANCH  13  14
ATOM     14  C   UNL     1       6.126 -10.910 -23.516  1.00  0.00    -0.000 C 
BRANCH  14  15
ATOM     15  C   UNL     1       5.021 -11.977 -23.569  1.00  0.00    -0.000 C 
BRANCH  15  16
ATOM     16  C   UNL     1       4.321 -12.172 -22.215  1.00  0.00    -0.000 C 
BRANCH  16  17
ATOM     17  C   UNL     1       4.338 -13.633 -21.744  1.00  0.00    -0.003 C 
ATOM     18  C   UNL     1       5.747 -14.216 -21.808  1.00  0.00     0.004 C 
ENDBRANCH  16  17
ENDBRANCH  15  16
ENDBRANCH  14  15
ENDBRANCH  13  14
ENDBRANCH  12  13
ENDBRANCH  11  12
ENDBRANCH   1  11
TORSDOF 14
ENDMDL
MODEL 7
REMARK VINA RESULT:    -4.659      1.620      2.984
REMARK INTER + INTRA:          -9.594
REMARK INTER:                  -8.058
REMARK INTRA:                  -1.535
REMARK UNBOUND:                -1.122
REMARK SMILES CCCCCCCCCCCCCCCC(=O)[O-]
REMARK SMILES IDX 9 1 10 2 11 3 12 4 13 5 14 6 15 7 16 8 17 9 18 10 8 11 7 12
REMARK SMILES IDX 6 13 5 14 4 15 3 16 2 17 1 18
REMARK H PARENT
REMARK Flexibility Score: inf
ROOT
ATOM      1  C   UNL     1       6.126  -8.039 -22.595  1.00  0.00     0.000 C 
ENDROOT
BRANCH   1   2
ATOM      2  C   UNL     1       5.174  -7.247 -21.691  1.00  0.00     0.000 C 
BRANCH   2   3
ATOM      3  C   UNL     1       4.344  -8.188 -20.808  1.00  0.00     0.000 C 
BRANCH   3   4
ATOM      4  C   UNL     1       3.553  -7.443 -19.717  1.00  0.00     0.000 C 
BRANCH   4   5
ATOM      5  C   UNL     1       2.546  -6.397 -20.237  1.00  0.00     0.000 C 
BRANCH   5   6
ATOM      6  C   UNL     1       2.585  -5.038 -19.517  1.00  0.00     0.006 C 
BRANCH   6   7
ATOM      7  C   UNL     1       3.507  -5.040 -18.291  1.00  0.00     0.053 C 
BRANCH   7   8
ATOM      8  C   UNL     1       4.736  -4.232 -18.561  1.00  0.00     0.041 C 
ATOM      9  O   UNL     1       5.460  -3.841 -17.609  1.00  0.00    -0.550 OA
ATOM     10  O   UNL     1       5.109  -3.951 -19.870  1.00  0.00    -0.550 OA
ENDBRANCH   7   8
ENDBRANCH   6   7
ENDBRANCH   5   6
ENDBRANCH   4   5
ENDBRANCH   3   4
ENDBRANCH   2   3
ENDBRANCH   1   2
BRANCH   1  11
ATOM     11  C   UNL     1       5.885  -9.547 -22.463  1.00  0.00     0.000 C 
BRANCH  11  12
ATOM     12  C   UNL     1       6.538 -10.313 -23.621  1.00  0.00    -0.000 C 
BRANCH  12  13
ATOM     13  C   UNL     1       5.811 -11.636 -23.885  1.00  0.00    -0.000 C 
BRANCH  13  14
ATOM     14  C   UNL     1       5.104 -12.139 -22.621  1.00  0.00    -0.000 C 
BRANCH  14  15
ATOM     15  C   UNL     1       3.615 -12.403 -22.891  1.00  0.00    -0.000 C 
BRANCH  15  16
ATOM     16  C   UNL     1       3.178 -11.950 -24.293  1.00  0.00    -0.000 C 
BRANCH  16  17
ATOM     17  C   UNL     1       2.046 -10.914 -24.255  1.00  0.00    -0.003 C 
ATOM     18  C   UNL     1       2.171 -10.007 -23.034  1.00  0.00     0.004 C 
ENDBRANCH  16  17
ENDBRANCH  15  16
ENDBRANCH  14  15
ENDBRANCH  13  14
ENDBRANCH  12  13
ENDBRANCH  11  12
ENDBRANCH   1  11
TORSDOF 14
ENDMDL
MODEL 8
REMARK VINA RESULT:    -4.655      4.163      6.583
REMARK INTER + INTRA:          -9.587
REMARK INTER:                  -7.604
REMARK INTRA:                  -1.983
REMARK UNBOUND:                -1.122
REMARK SMILES CCCCCCCCCCCCCCCC(=O)[O-]
REMARK SMILES IDX 9 1 10 2 11 3 12 4 13 5 14 6 15 7 16 8 17 9 18 10 8 11 7 12
REMARK SMILES IDX 6 13 5 14 4 15 3 16 2 17 1 18
REMARK H PARENT
REMARK Flexibility Score: inf
ROOT
ATOM      1  C   UNL     1       5.974  -8.713 -22.175  1.00  0.00     0.000 C 
ENDROOT
BRANCH   1   2
ATOM      2  C   UNL     1       6.871  -9.380 -23.225  1.00  0.00     0.000 C 
BRANCH   2   3
ATOM      3  C   UNL     1       6.334 -10.766 -23.606  1.00  0.00     0.000 C 
BRANCH   3   4
ATOM      4  C   UNL     1       5.092 -11.171 -22.791  1.00  0.00     0.000 C 
BRANCH   4   5
ATOM      5  C   UNL     1       3.867 -11.589 -23.629  1.00  0.00     0.000 C 
BRANCH   5   6
ATOM      6  C   UNL     1       3.150 -12.863 -23.149  1.00  0.00     0.006 C 
BRANCH   6   7
ATOM      7  C   UNL     1       3.886 -13.562 -21.998  1.00  0.00     0.053 C 
BRANCH   7   8
ATOM      8  C   UNL     1       3.321 -14.927 -21.770  1.00  0.00     0.041 C 
ATOM      9  O   UNL     1       2.202 -15.066 -21.210  1.00  0.00    -0.550 OA
ATOM     10  O   UNL     1       4.009 -16.048 -22.221  1.00  0.00    -0.550 OA
ENDBRANCH   7   8
ENDBRANCH   6   7
ENDBRANCH   5   6
ENDBRANCH   4   5
ENDBRANCH   3   4
ENDBRANCH   2   3
ENDBRANCH   1   2
BRANCH   1  11
ATOM     11  C   UNL     1       5.823  -7.213 -22.452  1.00  0.00     0.000 C 
BRANCH  11  12
ATOM     12  C   UNL     1       4.541  -6.662 -21.815  1.00  0.00    -0.000 C 
BRANCH  12  13
ATOM     13  C   UNL     1       4.294  -7.292 -20.440  1.00  0.00    -0.000 C 
BRANCH  13  14
ATOM     14  C   UNL     1       2.851  -7.793 -20.313  1.00  0.00    -0.000 C 
BRANCH  14  15
ATOM     15  C   UNL     1       2.293  -8.217 -21.681  1.00  0.00    -0.000 C 
BRANCH  15  16
ATOM     16  C   UNL     1       1.535  -9.552 -21.623  1.00  0.00    -0.000 C 
BRANCH  16  17
ATOM     17  C   UNL     1       2.007 -10.451 -20.471  1.00  0.00    -0.003 C 
ATOM     18  C   UNL     1       1.036 -11.606 -20.241  1.00  0.00     0.004 C 
ENDBRANCH  16  17
ENDBRANCH  15  16
ENDBRANCH  14  15
ENDBRANCH  13  14
ENDBRANCH  12  13
ENDBRANCH  11  12
ENDBRANCH   1  11
TORSDOF 14
ENDMDL
MODEL 9
REMARK VINA RESULT:    -4.629      3.389      7.862
REMARK INTER + INTRA:          -9.540
REMARK INTER:                  -8.028
REMARK INTRA:                  -1.511
REMARK UNBOUND:                -1.122
REMARK SMILES CCCCCCCCCCCCCCCC(=O)[O-]
REMARK SMILES IDX 9 1 10 2 11 3 12 4 13 5 14 6 15 7 16 8 17 9 18 10 8 11 7 12
REMARK SMILES IDX 6 13 5 14 4 15 3 16 2 17 1 18
REMARK H PARENT
REMARK Flexibility Score: inf
ROOT
ATOM      1  C   UNL     1       5.300  -5.603 -21.902  1.00  0.00     0.000 C 
ENDROOT
BRANCH   1   2
ATOM      2  C   UNL     1       5.133  -7.114 -21.704  1.00  0.00     0.000 C 
BRANCH   2   3
ATOM      3  C   UNL     1       6.168  -7.894 -22.526  1.00  0.00     0.000 C 
BRANCH   3   4
ATOM      4  C   UNL     1       5.949  -9.417 -22.473  1.00  0.00     0.000 C 
BRANCH   4   5
ATOM      5  C   UNL     1       6.606 -10.213 -23.618  1.00  0.00     0.000 C 
BRANCH   5   6
ATOM      6  C   UNL     1       5.995 -11.601 -23.884  1.00  0.00     0.006 C 
BRANCH   6   7
ATOM      7  C   UNL     1       5.086 -12.079 -22.745  1.00  0.00     0.053 C 
BRANCH   7   8
ATOM      8  C   UNL     1       3.670 -12.184 -23.216  1.00  0.00     0.041 C 
ATOM      9  O   UNL     1       3.198 -11.324 -24.004  1.00  0.00    -0.550 OA
ATOM     10  O   UNL     1       2.886 -13.262 -22.822  1.00  0.00    -0.550 OA
ENDBRANCH   7   8
ENDBRANCH   6   7
ENDBRANCH   5   6
ENDBRANCH   4   5
ENDBRANCH   3   4
ENDBRANCH   2   3
ENDBRANCH   1   2
BRANCH   1  11
ATOM     11  C   UNL     1       4.133  -5.020 -22.707  1.00  0.00     0.000 C 
BRANCH  11  12
ATOM     12  C   UNL     1       3.444  -3.887 -21.937  1.00  0.00    -0.000 C 
BRANCH  12  13
ATOM     13  C   UNL     1       4.472  -2.997 -21.229  1.00  0.00    -0.000 C 
BRANCH  13  14
ATOM     14  C   UNL     1       4.103  -2.794 -19.755  1.00  0.00    -0.000 C 
BRANCH  14  15
ATOM     15  C   UNL     1       5.173  -3.397 -18.832  1.00  0.00    -0.000 C 
BRANCH  15  16
ATOM     16  C   UNL     1       4.800  -4.800 -18.331  1.00  0.00    -0.000 C 
BRANCH  16  17
ATOM     17  C   UNL     1       3.281  -5.022 -18.268  1.00  0.00    -0.003 C 
ATOM     18  C   UNL     1       2.873  -6.263 -19.057  1.00  0.00     0.004 C 
ENDBRANCH  16  17
ENDBRANCH  15  16
ENDBRANCH  14  15
ENDBRANCH  13  14
ENDBRANCH  12  13
ENDBRANCH  11  12
ENDBRANCH   1  11
TORSDOF 14
ENDMDL
