MODEL 1
REMARK VINA RESULT:    -4.806      0.000      0.000
REMARK INTER + INTRA:         -13.169
REMARK INTER:                 -10.426
REMARK INTRA:                  -2.742
REMARK UNBOUND:                -2.742
REMARK SMILES CCCCCCCCCCCCCCCCCCCCCC(=O)[O-]
REMARK SMILES IDX 12 1 11 2 10 3 9 4 8 5 7 6 6 7 5 8 4 9 3 10 2 11 1 12 13 13
REMARK SMILES IDX 14 14 15 15 16 16 17 17 18 18 19 19 20 20 21 21 22 22 23 23
REMARK SMILES IDX 24 24
REMARK H PARENT
REMARK Flexibility Score: inf
ROOT
ATOM      1  C   UNL     1      -7.984  -7.209 -13.988  1.00  0.00     0.000 C 
ENDROOT
BRANCH   1   2
ATOM      2  C   UNL     1      -9.349  -7.919 -13.949  1.00  0.00     0.000 C 
BRANCH   2   3
ATOM      3  C   UNL     1     -10.423  -7.177 -14.761  1.00  0.00     0.000 C 
BRANCH   3   4
ATOM      4  C   UNL     1     -11.312  -6.280 -13.881  1.00  0.00    -0.000 C 
BRANCH   4   5
ATOM      5  C   UNL     1     -11.879  -5.077 -14.649  1.00  0.00    -0.000 C 
BRANCH   5   6
ATOM      6  C   UNL     1     -11.228  -4.894 -16.032  1.00  0.00    -0.000 C 
BRANCH   6   7
ATOM      7  C   UNL     1     -10.347  -3.638 -16.107  1.00  0.00    -0.000 C 
BRANCH   7   8
ATOM      8  C   UNL     1      -8.899  -3.903 -15.659  1.00  0.00    -0.000 C 
BRANCH   8   9
ATOM      9  C   UNL     1      -8.682  -3.574 -14.167  1.00  0.00    -0.000 C 
BRANCH   9  10
ATOM     10  C   UNL     1      -7.505  -2.617 -13.914  1.00  0.00    -0.000 C 
BRANCH  10  11
ATOM     11  C   UNL     1      -6.167  -3.167 -14.425  1.00  0.00    -0.003 C 
ATOM     12  C   UNL     1      -5.005  -2.278 -13.990  1.00  0.00     0.004 C 
ENDBRANCH  10  11
ENDBRANCH   9  10
ENDBRANCH   8   9
ENDBRANCH   7   8
ENDBRANCH   6   7
ENDBRANCH   5   6
ENDBRANCH   4   5
ENDBRANCH   3   4
ENDBRANCH   2   3
ENDBRANCH   1   2
BRANCH   1  13
ATOM     13  C   UNL     1      -7.213  -7.347 -12.665  1.00  0.00     0.000 C 
BRANCH  13  14
ATOM     14  C   UNL     1      -6.551  -6.028 -12.231  1.00  0.00     0.000 C 
BRANCH  14  15
ATOM     15  C   UNL     1      -7.257  -5.384 -11.028  1.00  0.00     0.000 C 
BRANCH  15  16
ATOM     16  C   UNL     1      -6.298  -5.088  -9.862  1.00  0.00     0.000 C 
BRANCH  16  17
ATOM     17  C   UNL     1      -5.518  -3.773 -10.047  1.00  0.00     0.000 C 
BRANCH  17  18
ATOM     18  C   UNL     1      -6.366  -2.570 -10.500  1.00  0.00     0.000 C 
BRANCH  18  19
ATOM     19  C   UNL     1      -5.842  -1.229  -9.960  1.00  0.00     0.000 C 
BRANCH  19  20
ATOM     20  C   UNL     1      -6.726  -0.041 -10.375  1.00  0.00     0.006 C 
BRANCH  20  21
ATOM     21  C   UNL     1      -5.909   1.205 -10.738  1.00  0.00     0.053 C 
BRANCH  21  22
ATOM     22  C   UNL     1      -6.708   2.444 -10.484  1.00  0.00     0.041 C 
ATOM     23  O   UNL     1      -6.900   3.276 -11.408  1.00  0.00    -0.550 OA
ATOM     24  O   UNL     1      -7.282   2.656  -9.236  1.00  0.00    -0.550 OA
ENDBRANCH  21  22
ENDBRANCH  20  21
ENDBRANCH  19  20
ENDBRANCH  18  19
ENDBRANCH  17  18
ENDBRANCH  16  17
ENDBRANCH  15  16
ENDBRANCH  14  15
ENDBRANCH  13  14
ENDBRANCH   1  13
TORSDOF 20
ENDMDL
MODEL 2
REMARK VINA RESULT:    -4.678      1.301      4.091
REMARK INTER + INTRA:         -12.891
REMARK INTER:                 -10.345
REMARK INTRA:                  -2.546
REMARK UNBOUND:                -2.742
REMARK SMILES CCCCCCCCCCCCCCCCCCCCCC(=O)[O-]
REMARK SMILES IDX 12 1 11 2 10 3 9 4 8 5 7 6 6 7 5 8 4 9 3 10 2 11 1 12 13 13
REMARK SMILES IDX 14 14 15 15 16 16 17 17 18 18 19 19 20 20 21 21 22 22 23 23
REMARK SMILES IDX 24 24
REMARK H PARENT
REMARK Flexibility Score: inf
ROOT
ATOM      1  C   UNL     1     -10.813  -4.010 -15.398  1.00  0.00     0.000 C 
ENDROOT
BRANCH   1   2
ATOM      2  C   UNL     1     -11.312  -5.466 -15.401  1.00  0.00     0.000 C 
BRANCH   2   3
ATOM      3  C   UNL     1     -11.138  -6.153 -14.036  1.00  0.00     0.000 C 
BRANCH   3   4
ATOM      4  C   UNL     1     -10.283  -7.429 -14.124  1.00  0.00    -0.000 C 
BRANCH   4   5
ATOM      5  C   UNL     1      -9.190  -7.333 -15.200  1.00  0.00    -0.000 C 
BRANCH   5   6
ATOM      6  C   UNL     1      -7.814  -6.962 -14.617  1.00  0.00    -0.000 C 
BRANCH   6   7
ATOM      7  C   UNL     1      -7.704  -7.283 -13.119  1.00  0.00    -0.000 C 
BRANCH   7   8
ATOM      8  C   UNL     1      -6.876  -6.239 -12.350  1.00  0.00    -0.000 C 
BRANCH   8   9
ATOM      9  C   UNL     1      -6.527  -6.712 -10.922  1.00  0.00    -0.000 C 
BRANCH   9  10
ATOM     10  C   UNL     1      -7.165  -5.852  -9.817  1.00  0.00    -0.000 C 
BRANCH  10  11
ATOM     11  C   UNL     1      -6.630  -6.184  -8.418  1.00  0.00    -0.003 C 
ATOM     12  C   UNL     1      -7.755  -6.646  -7.496  1.00  0.00     0.004 C 
ENDBRANCH  10  11
ENDBRANCH   9  10
ENDBRANCH   8   9
ENDBRANCH   7   8
ENDBRANCH   6   7
ENDBRANCH   5   6
ENDBRANCH   4   5
ENDBRANCH   3   4
ENDBRANCH   2   3
ENDBRANCH   1   2
BRANCH   1  13
ATOM     13  C   UNL     1      -9.477  -3.847 -16.142  1.00  0.00     0.000 C 
BRANCH  13  14
ATOM     14  C   UNL     1      -8.316  -3.500 -15.193  1.00  0.00     0.000 C 
BRANCH  14  15
ATOM     15  C   UNL     1      -8.754  -3.454 -13.721  1.00  0.00     0.000 C 
BRANCH  15  16
ATOM     16  C   UNL     1      -8.174  -2.247 -12.963  1.00  0.00     0.000 C 
BRANCH  16  17
ATOM     17  C   UNL     1      -7.407  -2.651 -11.691  1.00  0.00     0.000 C 
BRANCH  17  18
ATOM     18  C   UNL     1      -6.168  -1.793 -11.376  1.00  0.00     0.000 C 
BRANCH  18  19
ATOM     19  C   UNL     1      -5.594  -2.058  -9.974  1.00  0.00     0.000 C 
BRANCH  19  20
ATOM     20  C   UNL     1      -5.688  -0.828  -9.057  1.00  0.00     0.006 C 
BRANCH  20  21
ATOM     21  C   UNL     1      -6.053   0.452  -9.820  1.00  0.00     0.053 C 
BRANCH  21  22
ATOM     22  C   UNL     1      -7.149   1.185  -9.112  1.00  0.00     0.041 C 
ATOM     23  O   UNL     1      -7.930   0.570  -8.341  1.00  0.00    -0.550 OA
ATOM     24  O   UNL     1      -7.277   2.560  -9.269  1.00  0.00    -0.550 OA
ENDBRANCH  21  22
ENDBRANCH  20  21
ENDBRANCH  19  20
ENDBRANCH  18  19
ENDBRANCH  17  18
ENDBRANCH  16  17
ENDBRANCH  15  16
ENDBRANCH  14  15
ENDBRANCH  13  14
ENDBRANCH   1  13
TORSDOF 20
ENDMDL
MODEL 3
REMARK VINA RESULT:    -4.676      3.469      7.973
REMARK INTER + INTRA:         -12.885
REMARK INTER:                  -9.756
REMARK INTRA:                  -3.128
REMARK UNBOUND:                -2.742
REMARK SMILES CCCCCCCCCCCCCCCCCCCCCC(=O)[O-]
REMARK SMILES IDX 12 1 11 2 10 3 9 4 8 5 7 6 6 7 5 8 4 9 3 10 2 11 1 12 13 13
REMARK SMILES IDX 14 14 15 15 16 16 17 17 18 18 19 19 20 20 21 21 22 22 23 23
REMARK SMILES IDX 24 24
REMARK H PARENT
REMARK Flexibility Score: inf
ROOT
ATOM      1  C   UNL     1      -2.503  -1.707 -12.451  1.00  0.00     0.000 C 
ENDROOT
BRANCH   1   2
ATOM      2  C   UNL     1      -3.259  -0.445 -11.996  1.00  0.00     0.000 C 
BRANCH   2   3
ATOM      3  C   UNL     1      -2.648   0.187 -10.735  1.00  0.00     0.000 C 
BRANCH   3   4
ATOM      4  C   UNL     1      -3.276   1.551 -10.398  1.00  0.00    -0.000 C 
BRANCH   4   5
ATOM      5  C   UNL     1      -4.634   1.761 -11.084  1.00  0.00    -0.000 C 
BRANCH   5   6
ATOM      6  C   UNL     1      -5.737   2.193 -10.101  1.00  0.00    -0.000 C 
BRANCH   6   7
ATOM      7  C   UNL     1      -6.715   1.054  -9.775  1.00  0.00    -0.000 C 
BRANCH   7   8
ATOM      8  C   UNL     1      -6.787  -0.001 -10.893  1.00  0.00    -0.000 C 
BRANCH   8   9
ATOM      9  C   UNL     1      -6.731  -1.440 -10.338  1.00  0.00    -0.000 C 
BRANCH   9  10
ATOM     10  C   UNL     1      -5.528  -1.696  -9.414  1.00  0.00    -0.000 C 
BRANCH  10  11
ATOM     11  C   UNL     1      -4.837  -3.037  -9.690  1.00  0.00    -0.003 C 
ATOM     12  C   UNL     1      -5.795  -4.023 -10.354  1.00  0.00     0.004 C 
ENDBRANCH  10  11
ENDBRANCH   9  10
ENDBRANCH   8   9
ENDBRANCH   7   8
ENDBRANCH   6   7
ENDBRANCH   5   6
ENDBRANCH   4   5
ENDBRANCH   3   4
ENDBRANCH   2   3
ENDBRANCH   1   2
BRANCH   1  13
ATOM     13  C   UNL     1      -3.366  -2.620 -13.337  1.00  0.00     0.000 C 
BRANCH  13  14
ATOM     14  C   UNL     1      -4.827  -2.145 -13.422  1.00  0.00     0.000 C 
BRANCH  14  15
ATOM     15  C   UNL     1      -5.519  -2.603 -14.715  1.00  0.00     0.000 C 
BRANCH  15  16
ATOM     16  C   UNL     1      -6.491  -3.773 -14.490  1.00  0.00     0.000 C 
BRANCH  16  17
ATOM     17  C   UNL     1      -7.677  -3.400 -13.580  1.00  0.00     0.000 C 
BRANCH  17  18
ATOM     18  C   UNL     1      -9.069  -3.653 -14.188  1.00  0.00     0.000 C 
BRANCH  18  19
ATOM     19  C   UNL     1      -9.030  -3.863 -15.711  1.00  0.00     0.000 C 
BRANCH  19  20
ATOM     20  C   UNL     1     -10.399  -3.637 -16.372  1.00  0.00     0.006 C 
BRANCH  20  21
ATOM     21  C   UNL     1     -11.392  -4.769 -16.076  1.00  0.00     0.053 C 
BRANCH  21  22
ATOM     22  C   UNL     1     -12.522  -4.264 -15.235  1.00  0.00     0.041 C 
ATOM     23  O   UNL     1     -13.452  -3.595 -15.757  1.00  0.00    -0.550 OA
ATOM     24  O   UNL     1     -12.572  -4.575 -13.882  1.00  0.00    -0.550 OA
ENDBRANCH  21  22
ENDBRANCH  20  21
ENDBRANCH  19  20
ENDBRANCH  18  19
ENDBRANCH  17  18
ENDBRANCH  16  17
ENDBRANCH  15  16
ENDBRANCH  14  15
ENDBRANCH  13  14
ENDBRANCH   1  13
TORSDOF 20
ENDMDL
MODEL 4
REMARK VINA RESULT:    -4.660      3.785      8.495
REMARK INTER + INTRA:         -12.851
REMARK INTER:                  -9.987
REMARK INTRA:                  -2.864
REMARK UNBOUND:                -2.742
REMARK SMILES CCCCCCCCCCCCCCCCCCCCCC(=O)[O-]
REMARK SMILES IDX 12 1 11 2 10 3 9 4 8 5 7 6 6 7 5 8 4 9 3 10 2 11 1 12 13 13
REMARK SMILES IDX 14 14 15 15 16 16 17 17 18 18 19 19 20 20 21 21 22 22 23 23
REMARK SMILES IDX 24 24
REMARK H PARENT
REMARK Flexibility Score: inf
ROOT
ATOM      1  C   UNL     1      -5.886  -1.644  -9.581  1.00  0.00     0.000 C 
ENDROOT
BRANCH   1   2
ATOM      2  C   UNL     1      -6.843  -0.554 -10.099  1.00  0.00     0.000 C 
BRANCH   2   3
ATOM      3  C   UNL     1      -7.115   0.539  -9.053  1.00  0.00     0.000 C 
BRANCH   3   4
ATOM      4  C   UNL     1      -6.537   1.904  -9.466  1.00  0.00    -0.000 C 
BRANCH   4   5
ATOM      5  C   UNL     1      -6.218   1.980 -10.967  1.00  0.00    -0.000 C 
BRANCH   5   6
ATOM      6  C   UNL     1      -4.708   2.073 -11.250  1.00  0.00    -0.000 C 
BRANCH   6   7
ATOM      7  C   UNL     1      -3.862   1.967  -9.972  1.00  0.00    -0.000 C 
BRANCH   7   8
ATOM      8  C   UNL     1      -3.030   0.675  -9.918  1.00  0.00    -0.000 C 
BRANCH   8   9
ATOM      9  C   UNL     1      -2.913   0.117  -8.483  1.00  0.00    -0.000 C 
BRANCH   9  10
ATOM     10  C   UNL     1      -3.785   0.866  -7.461  1.00  0.00    -0.000 C 
BRANCH  10  11
ATOM     11  C   UNL     1      -2.967   1.506  -6.332  1.00  0.00    -0.003 C 
ATOM     12  C   UNL     1      -2.770   3.000  -6.574  1.00  0.00     0.004 C 
ENDBRANCH  10  11
ENDBRANCH   9  10
ENDBRANCH   8   9
ENDBRANCH   7   8
ENDBRANCH   6   7
ENDBRANCH   5   6
ENDBRANCH   4   5
ENDBRANCH   3   4
ENDBRANCH   2   3
ENDBRANCH   1   2
BRANCH   1  13
ATOM     13  C   UNL     1      -5.059  -2.282 -10.709  1.00  0.00     0.000 C 
BRANCH  13  14
ATOM     14  C   UNL     1      -5.211  -1.533 -12.044  1.00  0.00     0.000 C 
BRANCH  14  15
ATOM     15  C   UNL     1      -4.174  -1.976 -13.088  1.00  0.00     0.000 C 
BRANCH  15  16
ATOM     16  C   UNL     1      -4.810  -2.360 -14.435  1.00  0.00     0.000 C 
BRANCH  16  17
ATOM     17  C   UNL     1      -6.342  -2.496 -14.357  1.00  0.00     0.000 C 
BRANCH  17  18
ATOM     18  C   UNL     1      -6.874  -3.938 -14.450  1.00  0.00     0.000 C 
BRANCH  18  19
ATOM     19  C   UNL     1      -8.410  -4.011 -14.455  1.00  0.00     0.000 C 
BRANCH  19  20
ATOM     20  C   UNL     1      -8.975  -4.432 -15.821  1.00  0.00     0.006 C 
BRANCH  20  21
ATOM     21  C   UNL     1     -10.289  -3.719 -16.163  1.00  0.00     0.053 C 
BRANCH  21  22
ATOM     22  C   UNL     1     -11.458  -4.589 -15.824  1.00  0.00     0.041 C 
ATOM     23  O   UNL     1     -11.295  -5.821 -15.621  1.00  0.00    -0.550 OA
ATOM     24  O   UNL     1     -12.723  -4.030 -15.684  1.00  0.00    -0.550 OA
ENDBRANCH  21  22
ENDBRANCH  20  21
ENDBRANCH  19  20
ENDBRANCH  18  19
ENDBRANCH  17  18
ENDBRANCH  16  17
ENDBRANCH  15  16
ENDBRANCH  14  15
ENDBRANCH  13  14
ENDBRANCH   1  13
TORSDOF 20
ENDMDL
MODEL 5
REMARK VINA RESULT:    -4.647      3.535      5.845
REMARK INTER + INTRA:         -12.822
REMARK INTER:                  -9.580
REMARK INTRA:                  -3.242
REMARK UNBOUND:                -2.742
REMARK SMILES CCCCCCCCCCCCCCCCCCCCCC(=O)[O-]
REMARK SMILES IDX 12 1 11 2 10 3 9 4 8 5 7 6 6 7 5 8 4 9 3 10 2 11 1 12 13 13
REMARK SMILES IDX 14 14 15 15 16 16 17 17 18 18 19 19 20 20 21 21 22 22 23 23
REMARK SMILES IDX 24 24
REMARK H PARENT
REMARK Flexibility Score: inf
ROOT
ATOM      1  C   UNL     1      -7.022  -5.383 -10.486  1.00  0.00     0.000 C 
ENDROOT
BRANCH   1   2
ATOM      2  C   UNL     1      -6.331  -6.296 -11.515  1.00  0.00     0.000 C 
BRANCH   2   3
ATOM      3  C   UNL     1      -7.068  -6.328 -12.864  1.00  0.00     0.000 C 
BRANCH   3   4
ATOM      4  C   UNL     1      -6.125  -6.080 -14.055  1.00  0.00    -0.000 C 
BRANCH   4   5
ATOM      5  C   UNL     1      -4.686  -5.770 -13.614  1.00  0.00    -0.000 C 
BRANCH   5   6
ATOM      6  C   UNL     1      -4.123  -4.498 -14.273  1.00  0.00    -0.000 C 
BRANCH   6   7
ATOM      7  C   UNL     1      -5.200  -3.696 -15.019  1.00  0.00    -0.000 C 
BRANCH   7   8
ATOM      8  C   UNL     1      -4.772  -2.244 -15.292  1.00  0.00    -0.000 C 
BRANCH   8   9
ATOM      9  C   UNL     1      -3.411  -2.166 -16.017  1.00  0.00    -0.000 C 
BRANCH   9  10
ATOM     10  C   UNL     1      -3.502  -1.562 -17.430  1.00  0.00    -0.000 C 
BRANCH  10  11
ATOM     11  C   UNL     1      -3.140  -2.564 -18.533  1.00  0.00    -0.003 C 
ATOM     12  C   UNL     1      -2.200  -1.938 -19.559  1.00  0.00     0.004 C 
ENDBRANCH  10  11
ENDBRANCH   9  10
ENDBRANCH   8   9
ENDBRANCH   7   8
ENDBRANCH   6   7
ENDBRANCH   5   6
ENDBRANCH   4   5
ENDBRANCH   3   4
ENDBRANCH   2   3
ENDBRANCH   1   2
BRANCH   1  13
ATOM     13  C   UNL     1      -6.024  -4.736  -9.512  1.00  0.00     0.000 C 
BRANCH  13  14
ATOM     14  C   UNL     1      -4.755  -4.233 -10.222  1.00  0.00     0.000 C 
BRANCH  14  15
ATOM     15  C   UNL     1      -4.980  -2.900 -10.954  1.00  0.00     0.000 C 
BRANCH  15  16
ATOM     16  C   UNL     1      -6.013  -2.002 -10.254  1.00  0.00     0.000 C 
BRANCH  16  17
ATOM     17  C   UNL     1      -7.231  -1.686 -11.142  1.00  0.00     0.000 C 
BRANCH  17  18
ATOM     18  C   UNL     1      -7.221  -2.362 -12.526  1.00  0.00     0.000 C 
BRANCH  18  19
ATOM     19  C   UNL     1      -8.632  -2.582 -13.097  1.00  0.00     0.000 C 
BRANCH  19  20
ATOM     20  C   UNL     1      -8.614  -3.324 -14.443  1.00  0.00     0.006 C 
BRANCH  20  21
ATOM     21  C   UNL     1      -9.769  -4.324 -14.582  1.00  0.00     0.053 C 
BRANCH  21  22
ATOM     22  C   UNL     1     -10.601  -3.995 -15.781  1.00  0.00     0.041 C 
ATOM     23  O   UNL     1     -11.812  -4.337 -15.827  1.00  0.00    -0.550 OA
ATOM     24  O   UNL     1     -10.051  -3.267 -16.830  1.00  0.00    -0.550 OA
ENDBRANCH  21  22
ENDBRANCH  20  21
ENDBRANCH  19  20
ENDBRANCH  18  19
ENDBRANCH  17  18
ENDBRANCH  16  17
ENDBRANCH  15  16
ENDBRANCH  14  15
ENDBRANCH  13  14
ENDBRANCH   1  13
TORSDOF 20
ENDMDL
MODEL 6
REMARK VINA RESULT:    -4.606      3.282      7.807
REMARK INTER + INTRA:         -12.734
REMARK INTER:                  -9.479
REMARK INTRA:                  -3.255
REMARK UNBOUND:                -2.742
REMARK SMILES CCCCCCCCCCCCCCCCCCCCCC(=O)[O-]
REMARK SMILES IDX 12 1 11 2 10 3 9 4 8 5 7 6 6 7 5 8 4 9 3 10 2 11 1 12 13 13
REMARK SMILES IDX 14 14 15 15 16 16 17 17 18 18 19 19 20 20 21 21 22 22 23 23
REMARK SMILES IDX 24 24
REMARK H PARENT
REMARK Flexibility Score: inf
ROOT
ATOM      1  C   UNL     1      -3.122  -0.050 -10.758  1.00  0.00     0.000 C 
ENDROOT
BRANCH   1   2
ATOM      2  C   UNL     1      -3.426   1.446 -10.952  1.00  0.00     0.000 C 
BRANCH   2   3
ATOM      3  C   UNL     1      -3.967   2.109  -9.675  1.00  0.00     0.000 C 
BRANCH   3   4
ATOM      4  C   UNL     1      -5.505   2.152  -9.641  1.00  0.00    -0.000 C 
BRANCH   4   5
ATOM      5  C   UNL     1      -6.085   1.504  -8.374  1.00  0.00    -0.000 C 
BRANCH   5   6
ATOM      6  C   UNL     1      -7.051   0.347  -8.687  1.00  0.00    -0.000 C 
BRANCH   6   7
ATOM      7  C   UNL     1      -6.418  -0.719  -9.593  1.00  0.00    -0.000 C 
BRANCH   7   8
ATOM      8  C   UNL     1      -7.039  -0.743 -11.001  1.00  0.00    -0.000 C 
BRANCH   8   9
ATOM      9  C   UNL     1      -7.002  -2.154 -11.628  1.00  0.00    -0.000 C 
BRANCH   9  10
ATOM     10  C   UNL     1      -6.545  -3.249 -10.649  1.00  0.00    -0.000 C 
BRANCH  10  11
ATOM     11  C   UNL     1      -7.003  -4.652 -11.066  1.00  0.00    -0.003 C 
ATOM     12  C   UNL     1      -6.860  -5.643  -9.914  1.00  0.00     0.004 C 
ENDBRANCH  10  11
ENDBRANCH   9  10
ENDBRANCH   8   9
ENDBRANCH   7   8
ENDBRANCH   6   7
ENDBRANCH   5   6
ENDBRANCH   4   5
ENDBRANCH   3   4
ENDBRANCH   2   3
ENDBRANCH   1   2
BRANCH   1  13
ATOM     13  C   UNL     1      -3.208  -0.842 -12.073  1.00  0.00     0.000 C 
BRANCH  13  14
ATOM     14  C   UNL     1      -3.101  -2.361 -11.851  1.00  0.00     0.000 C 
BRANCH  14  15
ATOM     15  C   UNL     1      -3.724  -3.168 -13.001  1.00  0.00     0.000 C 
BRANCH  15  16
ATOM     16  C   UNL     1      -4.408  -2.278 -14.053  1.00  0.00     0.000 C 
BRANCH  16  17
ATOM     17  C   UNL     1      -5.187  -3.088 -15.106  1.00  0.00     0.000 C 
BRANCH  17  18
ATOM     18  C   UNL     1      -5.612  -4.499 -14.661  1.00  0.00     0.000 C 
BRANCH  18  19
ATOM     19  C   UNL     1      -7.120  -4.752 -14.827  1.00  0.00     0.000 C 
BRANCH  19  20
ATOM     20  C   UNL     1      -7.946  -3.457 -14.759  1.00  0.00     0.006 C 
BRANCH  20  21
ATOM     21  C   UNL     1      -9.425  -3.715 -14.445  1.00  0.00     0.053 C 
BRANCH  21  22
ATOM     22  C   UNL     1     -10.173  -4.049 -15.697  1.00  0.00     0.041 C 
ATOM     23  O   UNL     1     -10.209  -3.230 -16.652  1.00  0.00    -0.550 OA
ATOM     24  O   UNL     1     -10.790  -5.287 -15.827  1.00  0.00    -0.550 OA
ENDBRANCH  21  22
ENDBRANCH  20  21
ENDBRANCH  19  20
ENDBRANCH  18  19
ENDBRANCH  17  18
ENDBRANCH  16  17
ENDBRANCH  15  16
ENDBRANCH  14  15
ENDBRANCH  13  14
ENDBRANCH   1  13
TORSDOF 20
ENDMDL
MODEL 7
REMARK VINA RESULT:    -4.599      1.347      3.668
REMARK INTER + INTRA:         -12.719
REMARK INTER:                 -10.395
REMARK INTRA:                  -2.324
REMARK UNBOUND:                -2.742
REMARK SMILES CCCCCCCCCCCCCCCCCCCCCC(=O)[O-]
REMARK SMILES IDX 12 1 11 2 10 3 9 4 8 5 7 6 6 7 5 8 4 9 3 10 2 11 1 12 13 13
REMARK SMILES IDX 14 14 15 15 16 16 17 17 18 18 19 19 20 20 21 21 22 22 23 23
REMARK SMILES IDX 24 24
REMARK H PARENT
REMARK Flexibility Score: inf
ROOT
ATOM      1  C   UNL     1      -6.151  -3.322 -14.529  1.00  0.00     0.000 C 
ENDROOT
BRANCH   1   2
ATOM      2  C   UNL     1      -7.445  -2.607 -14.100  1.00  0.00     0.000 C 
BRANCH   2   3
ATOM      3  C   UNL     1      -8.694  -3.481 -14.296  1.00  0.00     0.000 C 
BRANCH   3   4
ATOM      4  C   UNL     1      -8.914  -3.873 -15.768  1.00  0.00    -0.000 C 
BRANCH   4   5
ATOM      5  C   UNL     1     -10.368  -3.672 -16.221  1.00  0.00    -0.000 C 
BRANCH   5   6
ATOM      6  C   UNL     1     -11.197  -4.967 -16.149  1.00  0.00    -0.000 C 
BRANCH   6   7
ATOM      7  C   UNL     1     -11.917  -5.131 -14.802  1.00  0.00    -0.000 C 
BRANCH   7   8
ATOM      8  C   UNL     1     -11.235  -6.164 -13.889  1.00  0.00    -0.000 C 
BRANCH   8   9
ATOM      9  C   UNL     1     -10.724  -7.389 -14.677  1.00  0.00    -0.000 C 
BRANCH   9  10
ATOM     10  C   UNL     1      -9.508  -8.073 -14.028  1.00  0.00    -0.000 C 
BRANCH  10  11
ATOM     11  C   UNL     1      -8.172  -7.587 -14.603  1.00  0.00    -0.003 C 
ATOM     12  C   UNL     1      -8.277  -7.341 -16.106  1.00  0.00     0.004 C 
ENDBRANCH  10  11
ENDBRANCH   9  10
ENDBRANCH   8   9
ENDBRANCH   7   8
ENDBRANCH   6   7
ENDBRANCH   5   6
ENDBRANCH   4   5
ENDBRANCH   3   4
ENDBRANCH   2   3
ENDBRANCH   1   2
BRANCH   1  13
ATOM     13  C   UNL     1      -4.932  -2.384 -14.519  1.00  0.00     0.000 C 
BRANCH  13  14
ATOM     14  C   UNL     1      -4.518  -1.975 -13.095  1.00  0.00     0.000 C 
BRANCH  14  15
ATOM     15  C   UNL     1      -4.669  -3.125 -12.086  1.00  0.00     0.000 C 
BRANCH  15  16
ATOM     16  C   UNL     1      -5.118  -2.643 -10.696  1.00  0.00     0.000 C 
BRANCH  16  17
ATOM     17  C   UNL     1      -6.582  -2.167 -10.671  1.00  0.00     0.000 C 
BRANCH  17  18
ATOM     18  C   UNL     1      -6.781  -0.694 -10.266  1.00  0.00     0.000 C 
BRANCH  18  19
ATOM     19  C   UNL     1      -5.457   0.077 -10.134  1.00  0.00     0.000 C 
BRANCH  19  20
ATOM     20  C   UNL     1      -5.593   1.555 -10.532  1.00  0.00     0.006 C 
BRANCH  20  21
ATOM     21  C   UNL     1      -6.295   2.395  -9.457  1.00  0.00     0.053 C 
BRANCH  21  22
ATOM     22  C   UNL     1      -7.343   3.264 -10.077  1.00  0.00     0.041 C 
ATOM     23  O   UNL     1      -7.250   3.608 -11.285  1.00  0.00    -0.550 OA
ATOM     24  O   UNL     1      -8.449   3.655  -9.333  1.00  0.00    -0.550 OA
ENDBRANCH  21  22
ENDBRANCH  20  21
ENDBRANCH  19  20
ENDBRANCH  18  19
ENDBRANCH  17  18
ENDBRANCH  16  17
ENDBRANCH  15  16
ENDBRANCH  14  15
ENDBRANCH  13  14
ENDBRANCH   1  13
TORSDOF 20
ENDMDL
MODEL 8
REMARK VINA RESULT:    -4.598      1.302      3.856
REMARK INTER + INTRA:         -12.716
REMARK INTER:                  -9.945
REMARK INTRA:                  -2.771
REMARK UNBOUND:                -2.742
REMARK SMILES CCCCCCCCCCCCCCCCCCCCCC(=O)[O-]
REMARK SMILES IDX 12 1 11 2 10 3 9 4 8 5 7 6 6 7 5 8 4 9 3 10 2 11 1 12 13 13
REMARK SMILES IDX 14 14 15 15 16 16 17 17 18 18 19 19 20 20 21 21 22 22 23 23
REMARK SMILES IDX 24 24
REMARK H PARENT
REMARK Flexibility Score: inf
ROOT
ATOM      1  C   UNL     1      -5.384  -5.625 -13.730  1.00  0.00     0.000 C 
ENDROOT
BRANCH   1   2
ATOM      2  C   UNL     1      -4.341  -4.547 -13.384  1.00  0.00     0.000 C 
BRANCH   2   3
ATOM      3  C   UNL     1      -4.773  -3.142 -13.832  1.00  0.00     0.000 C 
BRANCH   3   4
ATOM      4  C   UNL     1      -6.104  -3.155 -14.605  1.00  0.00    -0.000 C 
BRANCH   4   5
ATOM      5  C   UNL     1      -7.219  -2.394 -13.871  1.00  0.00    -0.000 C 
BRANCH   5   6
ATOM      6  C   UNL     1      -8.556  -3.158 -13.867  1.00  0.00    -0.000 C 
BRANCH   6   7
ATOM      7  C   UNL     1      -8.689  -4.116 -15.061  1.00  0.00    -0.000 C 
BRANCH   7   8
ATOM      8  C   UNL     1      -9.810  -3.702 -16.029  1.00  0.00    -0.000 C 
BRANCH   8   9
ATOM      9  C   UNL     1     -10.898  -4.789 -16.159  1.00  0.00    -0.000 C 
BRANCH   9  10
ATOM     10  C   UNL     1     -11.367  -5.353 -14.807  1.00  0.00    -0.000 C 
BRANCH  10  11
ATOM     11  C   UNL     1     -12.578  -4.606 -14.235  1.00  0.00    -0.003 C 
ATOM     12  C   UNL     1     -13.358  -3.897 -15.339  1.00  0.00     0.004 C 
ENDBRANCH  10  11
ENDBRANCH   9  10
ENDBRANCH   8   9
ENDBRANCH   7   8
ENDBRANCH   6   7
ENDBRANCH   5   6
ENDBRANCH   4   5
ENDBRANCH   3   4
ENDBRANCH   2   3
ENDBRANCH   1   2
BRANCH   1  13
ATOM     13  C   UNL     1      -5.875  -6.387 -12.487  1.00  0.00     0.000 C 
BRANCH  13  14
ATOM     14  C   UNL     1      -7.174  -5.796 -11.913  1.00  0.00     0.000 C 
BRANCH  14  15
ATOM     15  C   UNL     1      -6.967  -5.146 -10.536  1.00  0.00     0.000 C 
BRANCH  15  16
ATOM     16  C   UNL     1      -6.662  -3.641 -10.626  1.00  0.00     0.000 C 
BRANCH  16  17
ATOM     17  C   UNL     1      -5.319  -3.263  -9.975  1.00  0.00     0.000 C 
BRANCH  17  18
ATOM     18  C   UNL     1      -5.270  -1.854  -9.353  1.00  0.00     0.000 C 
BRANCH  18  19
ATOM     19  C   UNL     1      -6.247  -0.870 -10.019  1.00  0.00     0.000 C 
BRANCH  19  20
ATOM     20  C   UNL     1      -5.531   0.339 -10.642  1.00  0.00     0.006 C 
BRANCH  20  21
ATOM     21  C   UNL     1      -6.464   1.540 -10.841  1.00  0.00     0.053 C 
BRANCH  21  22
ATOM     22  C   UNL     1      -6.634   2.287  -9.555  1.00  0.00     0.041 C 
ATOM     23  O   UNL     1      -5.803   2.139  -8.621  1.00  0.00    -0.550 OA
ATOM     24  O   UNL     1      -7.685   3.183  -9.406  1.00  0.00    -0.550 OA
ENDBRANCH  21  22
ENDBRANCH  20  21
ENDBRANCH  19  20
ENDBRANCH  18  19
ENDBRANCH  17  18
ENDBRANCH  16  17
ENDBRANCH  15  16
ENDBRANCH  14  15
ENDBRANCH  13  14
ENDBRANCH   1  13
TORSDOF 20
ENDMDL
MODEL 9
REMARK VINA RESULT:    -4.577      1.201      3.739
REMARK INTER + INTRA:         -12.670
REMARK INTER:                  -9.639
REMARK INTRA:                  -3.031
REMARK UNBOUND:                -2.742
REMARK SMILES CCCCCCCCCCCCCCCCCCCCCC(=O)[O-]
REMARK SMILES IDX 12 1 11 2 10 3 9 4 8 5 7 6 6 7 5 8 4 9 3 10 2 11 1 12 13 13
REMARK SMILES IDX 14 14 15 15 16 16 17 17 18 18 19 19 20 20 21 21 22 22 23 23
REMARK SMILES IDX 24 24
REMARK H PARENT
REMARK Flexibility Score: inf
ROOT
ATOM      1  C   UNL     1      -8.470  -3.403 -14.055  1.00  0.00     0.000 C 
ENDROOT
BRANCH   1   2
ATOM      2  C   UNL     1      -8.882  -4.663 -14.838  1.00  0.00     0.000 C 
BRANCH   2   3
ATOM      3  C   UNL     1     -10.279  -5.170 -14.447  1.00  0.00     0.000 C 
BRANCH   3   4
ATOM      4  C   UNL     1     -10.414  -6.696 -14.596  1.00  0.00    -0.000 C 
BRANCH   4   5
ATOM      5  C   UNL     1      -9.061  -7.389 -14.816  1.00  0.00    -0.000 C 
BRANCH   5   6
ATOM      6  C   UNL     1      -8.795  -8.511 -13.796  1.00  0.00    -0.000 C 
BRANCH   6   7
ATOM      7  C   UNL     1      -7.651  -8.169 -12.829  1.00  0.00    -0.000 C 
BRANCH   7   8
ATOM      8  C   UNL     1      -6.708  -7.089 -13.388  1.00  0.00    -0.000 C 
BRANCH   8   9
ATOM      9  C   UNL     1      -6.129  -6.191 -12.274  1.00  0.00    -0.000 C 
BRANCH   9  10
ATOM     10  C   UNL     1      -7.194  -5.653 -11.303  1.00  0.00    -0.000 C 
BRANCH  10  11
ATOM     11  C   UNL     1      -6.598  -5.143  -9.985  1.00  0.00    -0.003 C 
ATOM     12  C   UNL     1      -6.942  -6.077  -8.828  1.00  0.00     0.004 C 
ENDBRANCH  10  11
ENDBRANCH   9  10
ENDBRANCH   8   9
ENDBRANCH   7   8
ENDBRANCH   6   7
ENDBRANCH   5   6
ENDBRANCH   4   5
ENDBRANCH   3   4
ENDBRANCH   2   3
ENDBRANCH   1   2
BRANCH   1  13
ATOM     13  C   UNL     1      -6.967  -3.101 -14.179  1.00  0.00     0.000 C 
BRANCH  13  14
ATOM     14  C   UNL     1      -6.408  -2.387 -12.936  1.00  0.00     0.000 C 
BRANCH  14  15
ATOM     15  C   UNL     1      -7.493  -2.091 -11.890  1.00  0.00     0.000 C 
BRANCH  15  16
ATOM     16  C   UNL     1      -7.187  -0.841 -11.049  1.00  0.00     0.000 C 
BRANCH  16  17
ATOM     17  C   UNL     1      -6.279  -1.139  -9.841  1.00  0.00     0.000 C 
BRANCH  17  18
ATOM     18  C   UNL     1      -4.866  -0.532  -9.922  1.00  0.00     0.000 C 
BRANCH  18  19
ATOM     19  C   UNL     1      -4.692   0.428 -11.111  1.00  0.00     0.000 C 
BRANCH  19  20
ATOM     20  C   UNL     1      -4.792   1.905 -10.695  1.00  0.00     0.006 C 
BRANCH  20  21
ATOM     21  C   UNL     1      -6.052   2.589 -11.239  1.00  0.00     0.053 C 
BRANCH  21  22
ATOM     22  C   UNL     1      -6.961   2.977 -10.116  1.00  0.00     0.041 C 
ATOM     23  O   UNL     1      -6.938   2.338  -9.031  1.00  0.00    -0.550 OA
ATOM     24  O   UNL     1      -7.801   4.076 -10.250  1.00  0.00    -0.550 OA
ENDBRANCH  21  22
ENDBRANCH  20  21
ENDBRANCH  19  20
ENDBRANCH  18  19
ENDBRANCH  17  18
ENDBRANCH  16  17
ENDBRANCH  15  16
ENDBRANCH  14  15
ENDBRANCH  13  14
ENDBRANCH   1  13
TORSDOF 20
ENDMDL
