MODEL 1
REMARK VINA RESULT:    -4.683      0.000      0.000
REMARK INTER + INTRA:         -15.007
REMARK INTER:                 -11.801
REMARK INTRA:                  -3.205
REMARK UNBOUND:                -3.205
REMARK SMILES CCCCCCCCCCCCCCCCCCCCCCCCCCCC(=O)[O-]
REMARK SMILES IDX 15 1 16 2 17 3 18 4 19 5 20 6 21 7 22 8 23 9 24 10 25 11
REMARK SMILES IDX 26 12 27 13 28 14 29 15 30 16 14 17 13 18 12 19 11 20 10 21
REMARK SMILES IDX 9 22 8 23 7 24 6 25 5 26 4 27 3 28 2 29 1 30
REMARK H PARENT
REMARK Flexibility Score: inf
ROOT
ATOM      1  C   UNL     1      62.586  28.564  24.555  1.00  0.00     0.000 C 
ENDROOT
BRANCH   1   2
ATOM      2  C   UNL     1      63.051  30.022  24.722  1.00  0.00     0.000 C 
BRANCH   2   3
ATOM      3  C   UNL     1      64.029  30.466  23.625  1.00  0.00     0.000 C 
BRANCH   3   4
ATOM      4  C   UNL     1      64.489  31.913  23.860  1.00  0.00     0.000 C 
BRANCH   4   5
ATOM      5  C   UNL     1      64.968  32.611  22.575  1.00  0.00     0.000 C 
BRANCH   5   6
ATOM      6  C   UNL     1      64.071  33.764  22.081  1.00  0.00     0.000 C 
BRANCH   6   7
ATOM      7  C   UNL     1      64.233  34.125  20.591  1.00  0.00     0.000 C 
BRANCH   7   8
ATOM      8  C   UNL     1      62.992  33.852  19.718  1.00  0.00     0.000 C 
BRANCH   8   9
ATOM      9  C   UNL     1      63.150  34.215  18.228  1.00  0.00     0.000 C 
BRANCH   9  10
ATOM     10  C   UNL     1      61.837  34.260  17.429  1.00  0.00     0.000 C 
BRANCH  10  11
ATOM     11  C   UNL     1      61.704  33.095  16.432  1.00  0.00     0.000 C 
BRANCH  11  12
ATOM     12  C   UNL     1      61.261  33.558  15.036  1.00  0.00     0.006 C 
BRANCH  12  13
ATOM     13  C   UNL     1      62.205  33.078  13.926  1.00  0.00     0.053 C 
BRANCH  13  14
ATOM     14  C   UNL     1      61.519  32.083  13.043  1.00  0.00     0.041 C 
ATOM     15  O   UNL     1      60.262  32.008  13.030  1.00  0.00    -0.550 OA
ATOM     16  O   UNL     1      62.267  31.254  12.214  1.00  0.00    -0.550 OA
ENDBRANCH  13  14
ENDBRANCH  12  13
ENDBRANCH  11  12
ENDBRANCH  10  11
ENDBRANCH   9  10
ENDBRANCH   8   9
ENDBRANCH   7   8
ENDBRANCH   6   7
ENDBRANCH   5   6
ENDBRANCH   4   5
ENDBRANCH   3   4
ENDBRANCH   2   3
ENDBRANCH   1   2
BRANCH   1  17
ATOM     17  C   UNL     1      61.140  28.285  25.002  1.00  0.00     0.000 C 
BRANCH  17  18
ATOM     18  C   UNL     1      61.069  27.377  26.242  1.00  0.00     0.000 C 
BRANCH  18  19
ATOM     19  C   UNL     1      62.452  27.064  26.842  1.00  0.00     0.000 C 
BRANCH  19  20
ATOM     20  C   UNL     1      62.671  27.550  28.289  1.00  0.00     0.000 C 
BRANCH  20  21
ATOM     21  C   UNL     1      61.848  28.784  28.703  1.00  0.00     0.000 C 
BRANCH  21  22
ATOM     22  C   UNL     1      62.595  30.129  28.604  1.00  0.00    -0.000 C 
BRANCH  22  23
ATOM     23  C   UNL     1      64.123  30.009  28.785  1.00  0.00    -0.000 C 
BRANCH  23  24
ATOM     24  C   UNL     1      64.910  30.629  27.616  1.00  0.00    -0.000 C 
BRANCH  24  25
ATOM     25  C   UNL     1      66.310  30.014  27.445  1.00  0.00    -0.000 C 
BRANCH  25  26
ATOM     26  C   UNL     1      66.733  29.755  25.986  1.00  0.00    -0.000 C 
BRANCH  26  27
ATOM     27  C   UNL     1      66.293  28.375  25.467  1.00  0.00    -0.000 C 
BRANCH  27  28
ATOM     28  C   UNL     1      66.643  28.176  23.978  1.00  0.00    -0.000 C 
BRANCH  28  29
ATOM     29  C   UNL     1      65.750  27.146  23.269  1.00  0.00    -0.003 C 
ATOM     30  C   UNL     1      65.310  26.006  24.186  1.00  0.00     0.004 C 
ENDBRANCH  28  29
ENDBRANCH  27  28
ENDBRANCH  26  27
ENDBRANCH  25  26
ENDBRANCH  24  25
ENDBRANCH  23  24
ENDBRANCH  22  23
ENDBRANCH  21  22
ENDBRANCH  20  21
ENDBRANCH  19  20
ENDBRANCH  18  19
ENDBRANCH  17  18
ENDBRANCH   1  17
TORSDOF 26
ENDMDL
MODEL 2
REMARK VINA RESULT:    -4.611      6.375     10.876
REMARK INTER + INTRA:         -14.826
REMARK INTER:                 -11.270
REMARK INTRA:                  -3.556
REMARK UNBOUND:                -3.205
REMARK SMILES CCCCCCCCCCCCCCCCCCCCCCCCCCCC(=O)[O-]
REMARK SMILES IDX 15 1 16 2 17 3 18 4 19 5 20 6 21 7 22 8 23 9 24 10 25 11
REMARK SMILES IDX 26 12 27 13 28 14 29 15 30 16 14 17 13 18 12 19 11 20 10 21
REMARK SMILES IDX 9 22 8 23 7 24 6 25 5 26 4 27 3 28 2 29 1 30
REMARK H PARENT
REMARK Flexibility Score: inf
ROOT
ATOM      1  C   UNL     1      62.478  29.884  12.889  1.00  0.00     0.000 C 
ENDROOT
BRANCH   1   2
ATOM      2  C   UNL     1      61.673  28.574  12.953  1.00  0.00     0.000 C 
BRANCH   2   3
ATOM      3  C   UNL     1      60.403  28.610  12.091  1.00  0.00     0.000 C 
BRANCH   3   4
ATOM      4  C   UNL     1      60.392  29.854  11.189  1.00  0.00     0.000 C 
BRANCH   4   5
ATOM      5  C   UNL     1      60.249  29.516   9.695  1.00  0.00     0.000 C 
BRANCH   5   6
ATOM      6  C   UNL     1      61.555  29.101   8.988  1.00  0.00     0.000 C 
BRANCH   6   7
ATOM      7  C   UNL     1      62.753  30.044   9.224  1.00  0.00     0.000 C 
BRANCH   7   8
ATOM      8  C   UNL     1      64.135  29.364   9.171  1.00  0.00     0.000 C 
BRANCH   8   9
ATOM      9  C   UNL     1      65.335  30.331   9.115  1.00  0.00     0.000 C 
BRANCH   9  10
ATOM     10  C   UNL     1      64.964  31.823   9.054  1.00  0.00     0.000 C 
BRANCH  10  11
ATOM     11  C   UNL     1      65.551  32.632  10.223  1.00  0.00     0.000 C 
BRANCH  11  12
ATOM     12  C   UNL     1      65.122  32.087  11.595  1.00  0.00     0.006 C 
BRANCH  12  13
ATOM     13  C   UNL     1      64.487  33.162  12.487  1.00  0.00     0.053 C 
BRANCH  13  14
ATOM     14  C   UNL     1      65.478  33.673  13.485  1.00  0.00     0.041 C 
ATOM     15  O   UNL     1      65.934  32.907  14.373  1.00  0.00    -0.550 OA
ATOM     16  O   UNL     1      65.919  34.991  13.418  1.00  0.00    -0.550 OA
ENDBRANCH  13  14
ENDBRANCH  12  13
ENDBRANCH  11  12
ENDBRANCH  10  11
ENDBRANCH   9  10
ENDBRANCH   8   9
ENDBRANCH   7   8
ENDBRANCH   6   7
ENDBRANCH   5   6
ENDBRANCH   4   5
ENDBRANCH   3   4
ENDBRANCH   2   3
ENDBRANCH   1   2
BRANCH   1  17
ATOM     17  C   UNL     1      63.285  30.216  14.156  1.00  0.00     0.000 C 
BRANCH  17  18
ATOM     18  C   UNL     1      62.444  30.939  15.222  1.00  0.00     0.000 C 
BRANCH  18  19
ATOM     19  C   UNL     1      60.943  30.979  14.882  1.00  0.00     0.000 C 
BRANCH  19  20
ATOM     20  C   UNL     1      60.375  32.377  14.560  1.00  0.00     0.000 C 
BRANCH  20  21
ATOM     21  C   UNL     1      61.375  33.541  14.683  1.00  0.00     0.000 C 
BRANCH  21  22
ATOM     22  C   UNL     1      61.166  34.454  15.907  1.00  0.00    -0.000 C 
BRANCH  22  23
ATOM     23  C   UNL     1      61.733  33.876  17.221  1.00  0.00    -0.000 C 
BRANCH  23  24
ATOM     24  C   UNL     1      62.944  34.668  17.744  1.00  0.00    -0.000 C 
BRANCH  24  25
ATOM     25  C   UNL     1      64.180  34.539  16.835  1.00  0.00    -0.000 C 
BRANCH  25  26
ATOM     26  C   UNL     1      65.167  35.719  16.907  1.00  0.00    -0.000 C 
BRANCH  26  27
ATOM     27  C   UNL     1      66.423  35.405  17.739  1.00  0.00    -0.000 C 
BRANCH  27  28
ATOM     28  C   UNL     1      66.172  35.564  19.252  1.00  0.00    -0.000 C 
BRANCH  28  29
ATOM     29  C   UNL     1      65.899  34.234  19.973  1.00  0.00    -0.003 C 
ATOM     30  C   UNL     1      64.820  34.350  21.049  1.00  0.00     0.004 C 
ENDBRANCH  28  29
ENDBRANCH  27  28
ENDBRANCH  26  27
ENDBRANCH  25  26
ENDBRANCH  24  25
ENDBRANCH  23  24
ENDBRANCH  22  23
ENDBRANCH  21  22
ENDBRANCH  20  21
ENDBRANCH  19  20
ENDBRANCH  18  19
ENDBRANCH  17  18
ENDBRANCH   1  17
TORSDOF 26
ENDMDL
MODEL 3
REMARK VINA RESULT:    -4.602      1.099      3.150
REMARK INTER + INTRA:         -14.802
REMARK INTER:                 -12.340
REMARK INTRA:                  -2.461
REMARK UNBOUND:                -3.205
REMARK SMILES CCCCCCCCCCCCCCCCCCCCCCCCCCCC(=O)[O-]
REMARK SMILES IDX 15 1 16 2 17 3 18 4 19 5 20 6 21 7 22 8 23 9 24 10 25 11
REMARK SMILES IDX 26 12 27 13 28 14 29 15 30 16 14 17 13 18 12 19 11 20 10 21
REMARK SMILES IDX 9 22 8 23 7 24 6 25 5 26 4 27 3 28 2 29 1 30
REMARK H PARENT
REMARK Flexibility Score: inf
ROOT
ATOM      1  C   UNL     1      65.230  30.326  23.914  1.00  0.00     0.000 C 
ENDROOT
BRANCH   1   2
ATOM      2  C   UNL     1      64.519  31.684  23.779  1.00  0.00     0.000 C 
BRANCH   2   3
ATOM      3  C   UNL     1      65.197  32.614  22.762  1.00  0.00     0.000 C 
BRANCH   3   4
ATOM      4  C   UNL     1      64.162  33.529  22.088  1.00  0.00     0.000 C 
BRANCH   4   5
ATOM      5  C   UNL     1      64.735  34.306  20.889  1.00  0.00     0.000 C 
BRANCH   5   6
ATOM      6  C   UNL     1      63.946  34.154  19.572  1.00  0.00     0.000 C 
BRANCH   6   7
ATOM      7  C   UNL     1      62.429  33.941  19.741  1.00  0.00     0.000 C 
BRANCH   7   8
ATOM      8  C   UNL     1      61.577  34.341  18.521  1.00  0.00     0.000 C 
BRANCH   8   9
ATOM      9  C   UNL     1      62.252  34.118  17.152  1.00  0.00     0.000 C 
BRANCH   9  10
ATOM     10  C   UNL     1      61.561  33.082  16.249  1.00  0.00     0.000 C 
BRANCH  10  11
ATOM     11  C   UNL     1      61.107  33.672  14.903  1.00  0.00     0.000 C 
BRANCH  11  12
ATOM     12  C   UNL     1      60.525  32.610  13.956  1.00  0.00     0.006 C 
BRANCH  12  13
ATOM     13  C   UNL     1      61.419  32.351  12.736  1.00  0.00     0.053 C 
BRANCH  13  14
ATOM     14  C   UNL     1      61.264  30.941  12.259  1.00  0.00     0.041 C 
ATOM     15  O   UNL     1      60.376  30.652  11.415  1.00  0.00    -0.550 OA
ATOM     16  O   UNL     1      62.120  29.950  12.726  1.00  0.00    -0.550 OA
ENDBRANCH  13  14
ENDBRANCH  12  13
ENDBRANCH  11  12
ENDBRANCH  10  11
ENDBRANCH   9  10
ENDBRANCH   8   9
ENDBRANCH   7   8
ENDBRANCH   6   7
ENDBRANCH   5   6
ENDBRANCH   4   5
ENDBRANCH   3   4
ENDBRANCH   2   3
ENDBRANCH   1   2
BRANCH   1  17
ATOM     17  C   UNL     1      66.620  30.380  24.572  1.00  0.00     0.000 C 
BRANCH  17  18
ATOM     18  C   UNL     1      66.775  29.361  25.713  1.00  0.00     0.000 C 
BRANCH  18  19
ATOM     19  C   UNL     1      65.449  29.055  26.435  1.00  0.00     0.000 C 
BRANCH  19  20
ATOM     20  C   UNL     1      64.996  30.113  27.461  1.00  0.00     0.000 C 
BRANCH  20  21
ATOM     21  C   UNL     1      63.475  30.345  27.544  1.00  0.00     0.000 C 
BRANCH  21  22
ATOM     22  C   UNL     1      62.765  29.604  28.694  1.00  0.00    -0.000 C 
BRANCH  22  23
ATOM     23  C   UNL     1      61.457  28.903  28.271  1.00  0.00    -0.000 C 
BRANCH  23  24
ATOM     24  C   UNL     1      61.696  27.498  27.692  1.00  0.00    -0.000 C 
BRANCH  24  25
ATOM     25  C   UNL     1      61.047  27.303  26.309  1.00  0.00    -0.000 C 
BRANCH  25  26
ATOM     26  C   UNL     1      61.666  28.143  25.176  1.00  0.00    -0.000 C 
BRANCH  26  27
ATOM     27  C   UNL     1      62.959  27.531  24.610  1.00  0.00    -0.000 C 
BRANCH  27  28
ATOM     28  C   UNL     1      63.108  27.786  23.096  1.00  0.00    -0.000 C 
BRANCH  28  29
ATOM     29  C   UNL     1      64.285  27.030  22.458  1.00  0.00    -0.003 C 
ATOM     30  C   UNL     1      65.136  26.280  23.480  1.00  0.00     0.004 C 
ENDBRANCH  28  29
ENDBRANCH  27  28
ENDBRANCH  26  27
ENDBRANCH  25  26
ENDBRANCH  24  25
ENDBRANCH  23  24
ENDBRANCH  22  23
ENDBRANCH  21  22
ENDBRANCH  20  21
ENDBRANCH  19  20
ENDBRANCH  18  19
ENDBRANCH  17  18
ENDBRANCH   1  17
TORSDOF 26
ENDMDL
MODEL 4
REMARK VINA RESULT:    -4.524      1.716      3.792
REMARK INTER + INTRA:         -14.606
REMARK INTER:                 -11.656
REMARK INTRA:                  -2.950
REMARK UNBOUND:                -3.205
REMARK SMILES CCCCCCCCCCCCCCCCCCCCCCCCCCCC(=O)[O-]
REMARK SMILES IDX 15 1 16 2 17 3 18 4 19 5 20 6 21 7 22 8 23 9 24 10 25 11
REMARK SMILES IDX 26 12 27 13 28 14 29 15 30 16 14 17 13 18 12 19 11 20 10 21
REMARK SMILES IDX 9 22 8 23 7 24 6 25 5 26 4 27 3 28 2 29 1 30
REMARK H PARENT
REMARK Flexibility Score: inf
ROOT
ATOM      1  C   UNL     1      64.955  31.704  23.540  1.00  0.00     0.000 C 
ENDROOT
BRANCH   1   2
ATOM      2  C   UNL     1      64.453  32.923  22.747  1.00  0.00     0.000 C 
BRANCH   2   3
ATOM      3  C   UNL     1      65.512  33.489  21.788  1.00  0.00     0.000 C 
BRANCH   3   4
ATOM      4  C   UNL     1      64.883  34.505  20.822  1.00  0.00     0.000 C 
BRANCH   4   5
ATOM      5  C   UNL     1      65.681  34.671  19.517  1.00  0.00     0.000 C 
BRANCH   5   6
ATOM      6  C   UNL     1      65.070  33.979  18.282  1.00  0.00     0.000 C 
BRANCH   6   7
ATOM      7  C   UNL     1      63.529  33.974  18.233  1.00  0.00     0.000 C 
BRANCH   7   8
ATOM      8  C   UNL     1      62.920  34.391  16.880  1.00  0.00     0.000 C 
BRANCH   8   9
ATOM      9  C   UNL     1      63.402  33.570  15.667  1.00  0.00     0.000 C 
BRANCH   9  10
ATOM     10  C   UNL     1      62.281  33.020  14.769  1.00  0.00     0.000 C 
BRANCH  10  11
ATOM     11  C   UNL     1      62.604  31.630  14.194  1.00  0.00     0.000 C 
BRANCH  11  12
ATOM     12  C   UNL     1      61.499  30.600  14.477  1.00  0.00     0.006 C 
BRANCH  12  13
ATOM     13  C   UNL     1      61.621  29.345  13.603  1.00  0.00     0.053 C 
BRANCH  13  14
ATOM     14  C   UNL     1      60.416  29.190  12.730  1.00  0.00     0.041 C 
ATOM     15  O   UNL     1      60.230  29.975  11.763  1.00  0.00    -0.550 OA
ATOM     16  O   UNL     1      59.511  28.162  12.968  1.00  0.00    -0.550 OA
ENDBRANCH  13  14
ENDBRANCH  12  13
ENDBRANCH  11  12
ENDBRANCH  10  11
ENDBRANCH   9  10
ENDBRANCH   8   9
ENDBRANCH   7   8
ENDBRANCH   6   7
ENDBRANCH   5   6
ENDBRANCH   4   5
ENDBRANCH   3   4
ENDBRANCH   2   3
ENDBRANCH   1   2
BRANCH   1  17
ATOM     17  C   UNL     1      66.352  31.195  23.140  1.00  0.00     0.000 C 
BRANCH  17  18
ATOM     18  C   UNL     1      66.502  29.675  23.319  1.00  0.00     0.000 C 
BRANCH  18  19
ATOM     19  C   UNL     1      67.081  29.283  24.691  1.00  0.00     0.000 C 
BRANCH  19  20
ATOM     20  C   UNL     1      66.050  28.791  25.728  1.00  0.00     0.000 C 
BRANCH  20  21
ATOM     21  C   UNL     1      65.754  29.767  26.881  1.00  0.00     0.000 C 
BRANCH  21  22
ATOM     22  C   UNL     1      64.359  30.421  26.840  1.00  0.00    -0.000 C 
BRANCH  22  23
ATOM     23  C   UNL     1      63.271  29.616  27.582  1.00  0.00    -0.000 C 
BRANCH  23  24
ATOM     24  C   UNL     1      62.178  29.084  26.638  1.00  0.00    -0.000 C 
BRANCH  24  25
ATOM     25  C   UNL     1      62.446  29.424  25.161  1.00  0.00    -0.000 C 
BRANCH  25  26
ATOM     26  C   UNL     1      62.744  28.213  24.258  1.00  0.00    -0.000 C 
BRANCH  26  27
ATOM     27  C   UNL     1      62.777  26.881  25.029  1.00  0.00    -0.000 C 
BRANCH  27  28
ATOM     28  C   UNL     1      63.894  25.945  24.523  1.00  0.00    -0.000 C 
BRANCH  28  29
ATOM     29  C   UNL     1      64.527  26.402  23.199  1.00  0.00    -0.003 C 
ATOM     30  C   UNL     1      65.940  25.858  22.994  1.00  0.00     0.004 C 
ENDBRANCH  28  29
ENDBRANCH  27  28
ENDBRANCH  26  27
ENDBRANCH  25  26
ENDBRANCH  24  25
ENDBRANCH  23  24
ENDBRANCH  22  23
ENDBRANCH  21  22
ENDBRANCH  20  21
ENDBRANCH  19  20
ENDBRANCH  18  19
ENDBRANCH  17  18
ENDBRANCH   1  17
TORSDOF 26
ENDMDL
MODEL 5
REMARK VINA RESULT:    -4.515      4.447     12.378
REMARK INTER + INTRA:         -14.582
REMARK INTER:                 -11.934
REMARK INTRA:                  -2.648
REMARK UNBOUND:                -3.205
REMARK SMILES CCCCCCCCCCCCCCCCCCCCCCCCCCCC(=O)[O-]
REMARK SMILES IDX 15 1 16 2 17 3 18 4 19 5 20 6 21 7 22 8 23 9 24 10 25 11
REMARK SMILES IDX 26 12 27 13 28 14 29 15 30 16 14 17 13 18 12 19 11 20 10 21
REMARK SMILES IDX 9 22 8 23 7 24 6 25 5 26 4 27 3 28 2 29 1 30
REMARK H PARENT
REMARK Flexibility Score: inf
ROOT
ATOM      1  C   UNL     1      61.873  33.578  16.909  1.00  0.00     0.000 C 
ENDROOT
BRANCH   1   2
ATOM      2  C   UNL     1      62.803  34.576  17.621  1.00  0.00     0.000 C 
BRANCH   2   3
ATOM      3  C   UNL     1      64.282  34.378  17.259  1.00  0.00     0.000 C 
BRANCH   3   4
ATOM      4  C   UNL     1      65.185  35.203  18.190  1.00  0.00     0.000 C 
BRANCH   4   5
ATOM      5  C   UNL     1      65.863  34.354  19.281  1.00  0.00     0.000 C 
BRANCH   5   6
ATOM      6  C   UNL     1      65.385  34.633  20.720  1.00  0.00     0.000 C 
BRANCH   6   7
ATOM      7  C   UNL     1      64.122  33.859  21.150  1.00  0.00     0.000 C 
BRANCH   7   8
ATOM      8  C   UNL     1      64.102  33.417  22.626  1.00  0.00     0.000 C 
BRANCH   8   9
ATOM      9  C   UNL     1      65.024  32.228  22.963  1.00  0.00     0.000 C 
BRANCH   9  10
ATOM     10  C   UNL     1      64.455  31.239  23.995  1.00  0.00     0.000 C 
BRANCH  10  11
ATOM     11  C   UNL     1      64.449  29.786  23.489  1.00  0.00     0.000 C 
BRANCH  11  12
ATOM     12  C   UNL     1      63.735  28.826  24.453  1.00  0.00     0.006 C 
BRANCH  12  13
ATOM     13  C   UNL     1      62.423  29.404  25.001  1.00  0.00     0.053 C 
BRANCH  13  14
ATOM     14  C   UNL     1      62.416  29.372  26.497  1.00  0.00     0.041 C 
ATOM     15  O   UNL     1      61.739  28.505  27.109  1.00  0.00    -0.550 OA
ATOM     16  O   UNL     1      63.180  30.284  27.217  1.00  0.00    -0.550 OA
ENDBRANCH  13  14
ENDBRANCH  12  13
ENDBRANCH  11  12
ENDBRANCH  10  11
ENDBRANCH   9  10
ENDBRANCH   8   9
ENDBRANCH   7   8
ENDBRANCH   6   7
ENDBRANCH   5   6
ENDBRANCH   4   5
ENDBRANCH   3   4
ENDBRANCH   2   3
ENDBRANCH   1   2
BRANCH   1  17
ATOM     17  C   UNL     1      61.220  34.102  15.618  1.00  0.00     0.000 C 
BRANCH  17  18
ATOM     18  C   UNL     1      61.345  33.113  14.446  1.00  0.00     0.000 C 
BRANCH  18  19
ATOM     19  C   UNL     1      62.614  32.244  14.523  1.00  0.00     0.000 C 
BRANCH  19  20
ATOM     20  C   UNL     1      63.894  32.890  13.954  1.00  0.00     0.000 C 
BRANCH  20  21
ATOM     21  C   UNL     1      64.088  32.746  12.433  1.00  0.00     0.000 C 
BRANCH  21  22
ATOM     22  C   UNL     1      63.330  31.569  11.788  1.00  0.00    -0.000 C 
BRANCH  22  23
ATOM     23  C   UNL     1      64.178  30.290  11.632  1.00  0.00    -0.000 C 
BRANCH  23  24
ATOM     24  C   UNL     1      64.093  29.689  10.218  1.00  0.00    -0.000 C 
BRANCH  24  25
ATOM     25  C   UNL     1      62.817  30.110   9.465  1.00  0.00    -0.000 C 
BRANCH  25  26
ATOM     26  C   UNL     1      61.833  28.965   9.162  1.00  0.00    -0.000 C 
BRANCH  26  27
ATOM     27  C   UNL     1      61.112  28.443  10.416  1.00  0.00    -0.000 C 
BRANCH  27  28
ATOM     28  C   UNL     1      60.311  29.552  11.129  1.00  0.00    -0.000 C 
BRANCH  28  29
ATOM     29  C   UNL     1      60.015  29.244  12.606  1.00  0.00    -0.003 C 
ATOM     30  C   UNL     1      61.266  28.873  13.400  1.00  0.00     0.004 C 
ENDBRANCH  28  29
ENDBRANCH  27  28
ENDBRANCH  26  27
ENDBRANCH  25  26
ENDBRANCH  24  25
ENDBRANCH  23  24
ENDBRANCH  22  23
ENDBRANCH  21  22
ENDBRANCH  20  21
ENDBRANCH  19  20
ENDBRANCH  18  19
ENDBRANCH  17  18
ENDBRANCH   1  17
TORSDOF 26
ENDMDL
MODEL 6
REMARK VINA RESULT:    -4.485      4.310     12.617
REMARK INTER + INTRA:         -14.506
REMARK INTER:                 -12.008
REMARK INTRA:                  -2.499
REMARK UNBOUND:                -3.205
REMARK SMILES CCCCCCCCCCCCCCCCCCCCCCCCCCCC(=O)[O-]
REMARK SMILES IDX 15 1 16 2 17 3 18 4 19 5 20 6 21 7 22 8 23 9 24 10 25 11
REMARK SMILES IDX 26 12 27 13 28 14 29 15 30 16 14 17 13 18 12 19 11 20 10 21
REMARK SMILES IDX 9 22 8 23 7 24 6 25 5 26 4 27 3 28 2 29 1 30
REMARK H PARENT
REMARK Flexibility Score: inf
ROOT
ATOM      1  C   UNL     1      64.084  33.410  16.272  1.00  0.00     0.000 C 
ENDROOT
BRANCH   1   2
ATOM      2  C   UNL     1      63.343  34.427  17.157  1.00  0.00     0.000 C 
BRANCH   2   3
ATOM      3  C   UNL     1      63.574  34.194  18.658  1.00  0.00     0.000 C 
BRANCH   3   4
ATOM      4  C   UNL     1      65.055  34.391  19.017  1.00  0.00     0.000 C 
BRANCH   4   5
ATOM      5  C   UNL     1      65.276  34.729  20.502  1.00  0.00     0.000 C 
BRANCH   5   6
ATOM      6  C   UNL     1      64.440  33.897  21.495  1.00  0.00     0.000 C 
BRANCH   6   7
ATOM      7  C   UNL     1      65.252  32.942  22.392  1.00  0.00     0.000 C 
BRANCH   7   8
ATOM      8  C   UNL     1      64.439  32.241  23.499  1.00  0.00     0.000 C 
BRANCH   8   9
ATOM      9  C   UNL     1      64.849  30.782  23.784  1.00  0.00     0.000 C 
BRANCH   9  10
ATOM     10  C   UNL     1      64.701  30.343  25.251  1.00  0.00     0.000 C 
BRANCH  10  11
ATOM     11  C   UNL     1      63.233  30.167  25.677  1.00  0.00     0.000 C 
BRANCH  11  12
ATOM     12  C   UNL     1      62.416  29.348  24.664  1.00  0.00     0.006 C 
BRANCH  12  13
ATOM     13  C   UNL     1      62.442  27.843  24.962  1.00  0.00     0.053 C 
BRANCH  13  14
ATOM     14  C   UNL     1      61.242  27.443  25.762  1.00  0.00     0.041 C 
ATOM     15  O   UNL     1      60.087  27.570  25.277  1.00  0.00    -0.550 OA
ATOM     16  O   UNL     1      61.400  26.903  27.033  1.00  0.00    -0.550 OA
ENDBRANCH  13  14
ENDBRANCH  12  13
ENDBRANCH  11  12
ENDBRANCH  10  11
ENDBRANCH   9  10
ENDBRANCH   8   9
ENDBRANCH   7   8
ENDBRANCH   6   7
ENDBRANCH   5   6
ENDBRANCH   4   5
ENDBRANCH   3   4
ENDBRANCH   2   3
ENDBRANCH   1   2
BRANCH   1  17
ATOM     17  C   UNL     1      64.285  33.842  14.809  1.00  0.00     0.000 C 
BRANCH  17  18
ATOM     18  C   UNL     1      64.870  32.720  13.935  1.00  0.00     0.000 C 
BRANCH  18  19
ATOM     19  C   UNL     1      64.279  32.691  12.513  1.00  0.00     0.000 C 
BRANCH  19  20
ATOM     20  C   UNL     1      64.728  31.506  11.634  1.00  0.00     0.000 C 
BRANCH  20  21
ATOM     21  C   UNL     1      64.751  31.777  10.119  1.00  0.00     0.000 C 
BRANCH  21  22
ATOM     22  C   UNL     1      64.191  30.638   9.244  1.00  0.00    -0.000 C 
BRANCH  22  23
ATOM     23  C   UNL     1      63.769  29.387  10.043  1.00  0.00    -0.000 C 
BRANCH  23  24
ATOM     24  C   UNL     1      62.264  29.089   9.930  1.00  0.00    -0.000 C 
BRANCH  24  25
ATOM     25  C   UNL     1      61.401  30.035  10.786  1.00  0.00    -0.000 C 
BRANCH  25  26
ATOM     26  C   UNL     1      60.992  29.475  12.161  1.00  0.00    -0.000 C 
BRANCH  26  27
ATOM     27  C   UNL     1      62.033  29.755  13.259  1.00  0.00    -0.000 C 
BRANCH  27  28
ATOM     28  C   UNL     1      61.485  30.692  14.354  1.00  0.00    -0.000 C 
BRANCH  28  29
ATOM     29  C   UNL     1      60.434  31.690  13.840  1.00  0.00    -0.003 C 
ATOM     30  C   UNL     1      60.807  33.145  14.119  1.00  0.00     0.004 C 
ENDBRANCH  28  29
ENDBRANCH  27  28
ENDBRANCH  26  27
ENDBRANCH  25  26
ENDBRANCH  24  25
ENDBRANCH  23  24
ENDBRANCH  22  23
ENDBRANCH  21  22
ENDBRANCH  20  21
ENDBRANCH  19  20
ENDBRANCH  18  19
ENDBRANCH  17  18
ENDBRANCH   1  17
TORSDOF 26
ENDMDL
MODEL 7
REMARK VINA RESULT:    -4.473      1.262      4.233
REMARK INTER + INTRA:         -14.477
REMARK INTER:                 -11.729
REMARK INTRA:                  -2.748
REMARK UNBOUND:                -3.205
REMARK SMILES CCCCCCCCCCCCCCCCCCCCCCCCCCCC(=O)[O-]
REMARK SMILES IDX 15 1 16 2 17 3 18 4 19 5 20 6 21 7 22 8 23 9 24 10 25 11
REMARK SMILES IDX 26 12 27 13 28 14 29 15 30 16 14 17 13 18 12 19 11 20 10 21
REMARK SMILES IDX 9 22 8 23 7 24 6 25 5 26 4 27 3 28 2 29 1 30
REMARK H PARENT
REMARK Flexibility Score: inf
ROOT
ATOM      1  C   UNL     1      64.863  31.010  23.869  1.00  0.00     0.000 C 
ENDROOT
BRANCH   1   2
ATOM      2  C   UNL     1      64.473  32.420  23.392  1.00  0.00     0.000 C 
BRANCH   2   3
ATOM      3  C   UNL     1      65.433  32.978  22.331  1.00  0.00     0.000 C 
BRANCH   3   4
ATOM      4  C   UNL     1      64.703  33.955  21.396  1.00  0.00     0.000 C 
BRANCH   4   5
ATOM      5  C   UNL     1      65.650  34.687  20.429  1.00  0.00     0.000 C 
BRANCH   5   6
ATOM      6  C   UNL     1      65.332  34.499  18.932  1.00  0.00     0.000 C 
BRANCH   6   7
ATOM      7  C   UNL     1      63.892  34.040  18.623  1.00  0.00     0.000 C 
BRANCH   7   8
ATOM      8  C   UNL     1      63.323  34.544  17.282  1.00  0.00     0.000 C 
BRANCH   8   9
ATOM      9  C   UNL     1      61.831  34.232  17.049  1.00  0.00     0.000 C 
BRANCH   9  10
ATOM     10  C   UNL     1      61.555  33.106  16.038  1.00  0.00     0.000 C 
BRANCH  10  11
ATOM     11  C   UNL     1      60.995  33.627  14.702  1.00  0.00     0.000 C 
BRANCH  11  12
ATOM     12  C   UNL     1      61.572  32.883  13.488  1.00  0.00     0.006 C 
BRANCH  12  13
ATOM     13  C   UNL     1      62.385  31.643  13.885  1.00  0.00     0.053 C 
BRANCH  13  14
ATOM     14  C   UNL     1      61.838  30.418  13.221  1.00  0.00     0.041 C 
ATOM     15  O   UNL     1      61.481  29.429  13.914  1.00  0.00    -0.550 OA
ATOM     16  O   UNL     1      61.698  30.379  11.838  1.00  0.00    -0.550 OA
ENDBRANCH  13  14
ENDBRANCH  12  13
ENDBRANCH  11  12
ENDBRANCH  10  11
ENDBRANCH   9  10
ENDBRANCH   8   9
ENDBRANCH   7   8
ENDBRANCH   6   7
ENDBRANCH   5   6
ENDBRANCH   4   5
ENDBRANCH   3   4
ENDBRANCH   2   3
ENDBRANCH   1   2
BRANCH   1  17
ATOM     17  C   UNL     1      66.182  30.467  23.291  1.00  0.00     0.000 C 
BRANCH  17  18
ATOM     18  C   UNL     1      67.031  29.732  24.342  1.00  0.00     0.000 C 
BRANCH  18  19
ATOM     19  C   UNL     1      66.207  28.771  25.220  1.00  0.00     0.000 C 
BRANCH  19  20
ATOM     20  C   UNL     1      65.766  27.463  24.532  1.00  0.00     0.000 C 
BRANCH  20  21
ATOM     21  C   UNL     1      64.782  26.592  25.337  1.00  0.00     0.000 C 
BRANCH  21  22
ATOM     22  C   UNL     1      63.336  26.580  24.803  1.00  0.00    -0.000 C 
BRANCH  22  23
ATOM     23  C   UNL     1      62.839  27.956  24.314  1.00  0.00    -0.000 C 
BRANCH  23  24
ATOM     24  C   UNL     1      61.523  28.386  24.986  1.00  0.00    -0.000 C 
BRANCH  24  25
ATOM     25  C   UNL     1      60.813  27.225  25.707  1.00  0.00    -0.000 C 
BRANCH  25  26
ATOM     26  C   UNL     1      60.999  27.199  27.236  1.00  0.00    -0.000 C 
BRANCH  26  27
ATOM     27  C   UNL     1      61.311  28.585  27.828  1.00  0.00    -0.000 C 
BRANCH  27  28
ATOM     28  C   UNL     1      62.592  28.574  28.688  1.00  0.00    -0.000 C 
BRANCH  28  29
ATOM     29  C   UNL     1      63.825  29.133  27.960  1.00  0.00    -0.003 C 
ATOM     30  C   UNL     1      63.550  30.458  27.252  1.00  0.00     0.004 C 
ENDBRANCH  28  29
ENDBRANCH  27  28
ENDBRANCH  26  27
ENDBRANCH  25  26
ENDBRANCH  24  25
ENDBRANCH  23  24
ENDBRANCH  22  23
ENDBRANCH  21  22
ENDBRANCH  20  21
ENDBRANCH  19  20
ENDBRANCH  18  19
ENDBRANCH  17  18
ENDBRANCH   1  17
TORSDOF 26
ENDMDL
MODEL 8
REMARK VINA RESULT:    -4.453      3.364     10.341
REMARK INTER + INTRA:         -14.426
REMARK INTER:                 -12.005
REMARK INTRA:                  -2.421
REMARK UNBOUND:                -3.205
REMARK SMILES CCCCCCCCCCCCCCCCCCCCCCCCCCCC(=O)[O-]
REMARK SMILES IDX 15 1 16 2 17 3 18 4 19 5 20 6 21 7 22 8 23 9 24 10 25 11
REMARK SMILES IDX 26 12 27 13 28 14 29 15 30 16 14 17 13 18 12 19 11 20 10 21
REMARK SMILES IDX 9 22 8 23 7 24 6 25 5 26 4 27 3 28 2 29 1 30
REMARK H PARENT
REMARK Flexibility Score: inf
ROOT
ATOM      1  C   UNL     1      64.516  32.095  23.522  1.00  0.00     0.000 C 
ENDROOT
BRANCH   1   2
ATOM      2  C   UNL     1      64.759  30.576  23.519  1.00  0.00     0.000 C 
BRANCH   2   3
ATOM      3  C   UNL     1      66.239  30.208  23.698  1.00  0.00     0.000 C 
BRANCH   3   4
ATOM      4  C   UNL     1      66.602  30.125  25.189  1.00  0.00     0.000 C 
BRANCH   4   5
ATOM      5  C   UNL     1      65.584  29.317  26.014  1.00  0.00     0.000 C 
BRANCH   5   6
ATOM      6  C   UNL     1      65.162  29.964  27.349  1.00  0.00     0.000 C 
BRANCH   6   7
ATOM      7  C   UNL     1      63.660  30.289  27.470  1.00  0.00     0.000 C 
BRANCH   7   8
ATOM      8  C   UNL     1      62.758  29.592  26.432  1.00  0.00     0.000 C 
BRANCH   8   9
ATOM      9  C   UNL     1      61.744  28.590  27.019  1.00  0.00     0.000 C 
BRANCH   9  10
ATOM     10  C   UNL     1      61.890  27.146  26.509  1.00  0.00     0.000 C 
BRANCH  10  11
ATOM     11  C   UNL     1      63.347  26.771  26.188  1.00  0.00     0.000 C 
BRANCH  11  12
ATOM     12  C   UNL     1      63.532  26.300  24.737  1.00  0.00     0.006 C 
BRANCH  12  13
ATOM     13  C   UNL     1      65.003  26.044  24.381  1.00  0.00     0.053 C 
BRANCH  13  14
ATOM     14  C   UNL     1      65.287  26.472  22.975  1.00  0.00     0.041 C 
ATOM     15  O   UNL     1      64.518  27.280  22.391  1.00  0.00    -0.550 OA
ATOM     16  O   UNL     1      66.416  25.997  22.317  1.00  0.00    -0.550 OA
ENDBRANCH  13  14
ENDBRANCH  12  13
ENDBRANCH  11  12
ENDBRANCH  10  11
ENDBRANCH   9  10
ENDBRANCH   8   9
ENDBRANCH   7   8
ENDBRANCH   6   7
ENDBRANCH   5   6
ENDBRANCH   4   5
ENDBRANCH   3   4
ENDBRANCH   2   3
ENDBRANCH   1   2
BRANCH   1  17
ATOM     17  C   UNL     1      65.211  32.869  22.388  1.00  0.00     0.000 C 
BRANCH  17  18
ATOM     18  C   UNL     1      64.257  33.826  21.652  1.00  0.00     0.000 C 
BRANCH  18  19
ATOM     19  C   UNL     1      64.911  34.519  20.442  1.00  0.00     0.000 C 
BRANCH  19  20
ATOM     20  C   UNL     1      64.308  34.157  19.069  1.00  0.00     0.000 C 
BRANCH  20  21
ATOM     21  C   UNL     1      62.790  33.896  19.060  1.00  0.00     0.000 C 
BRANCH  21  22
ATOM     22  C   UNL     1      62.025  34.538  17.887  1.00  0.00    -0.000 C 
BRANCH  22  23
ATOM     23  C   UNL     1      62.344  33.908  16.514  1.00  0.00    -0.000 C 
BRANCH  23  24
ATOM     24  C   UNL     1      61.151  33.966  15.543  1.00  0.00    -0.000 C 
BRANCH  24  25
ATOM     25  C   UNL     1      60.750  32.581  15.006  1.00  0.00    -0.000 C 
BRANCH  25  26
ATOM     26  C   UNL     1      61.573  31.404  15.561  1.00  0.00    -0.000 C 
BRANCH  26  27
ATOM     27  C   UNL     1      62.339  30.636  14.469  1.00  0.00    -0.000 C 
BRANCH  27  28
ATOM     28  C   UNL     1      61.576  29.382  13.997  1.00  0.00    -0.000 C 
BRANCH  28  29
ATOM     29  C   UNL     1      60.661  29.638  12.789  1.00  0.00    -0.003 C 
ATOM     30  C   UNL     1      59.647  28.517  12.561  1.00  0.00     0.004 C 
ENDBRANCH  28  29
ENDBRANCH  27  28
ENDBRANCH  26  27
ENDBRANCH  25  26
ENDBRANCH  24  25
ENDBRANCH  23  24
ENDBRANCH  22  23
ENDBRANCH  21  22
ENDBRANCH  20  21
ENDBRANCH  19  20
ENDBRANCH  18  19
ENDBRANCH  17  18
ENDBRANCH   1  17
TORSDOF 26
ENDMDL
MODEL 9
REMARK VINA RESULT:    -4.425      4.590     12.395
REMARK INTER + INTRA:         -14.356
REMARK INTER:                 -12.241
REMARK INTRA:                  -2.115
REMARK UNBOUND:                -3.205
REMARK SMILES CCCCCCCCCCCCCCCCCCCCCCCCCCCC(=O)[O-]
REMARK SMILES IDX 15 1 16 2 17 3 18 4 19 5 20 6 21 7 22 8 23 9 24 10 25 11
REMARK SMILES IDX 26 12 27 13 28 14 29 15 30 16 14 17 13 18 12 19 11 20 10 21
REMARK SMILES IDX 9 22 8 23 7 24 6 25 5 26 4 27 3 28 2 29 1 30
REMARK H PARENT
REMARK Flexibility Score: inf
ROOT
ATOM      1  C   UNL     1      61.873  34.166  18.314  1.00  0.00     0.000 C 
ENDROOT
BRANCH   1   2
ATOM      2  C   UNL     1      62.538  33.862  19.668  1.00  0.00     0.000 C 
BRANCH   2   3
ATOM      3  C   UNL     1      64.034  34.208  19.689  1.00  0.00     0.000 C 
BRANCH   3   4
ATOM      4  C   UNL     1      64.581  34.173  21.125  1.00  0.00     0.000 C 
BRANCH   4   5
ATOM      5  C   UNL     1      66.066  33.778  21.196  1.00  0.00     0.000 C 
BRANCH   5   6
ATOM      6  C   UNL     1      66.415  32.729  22.271  1.00  0.00     0.000 C 
BRANCH   6   7
ATOM      7  C   UNL     1      65.213  32.194  23.076  1.00  0.00     0.000 C 
BRANCH   7   8
ATOM      8  C   UNL     1      65.444  30.835  23.764  1.00  0.00     0.000 C 
BRANCH   8   9
ATOM      9  C   UNL     1      64.203  29.924  23.843  1.00  0.00     0.000 C 
BRANCH   9  10
ATOM     10  C   UNL     1      63.293  30.171  25.059  1.00  0.00     0.000 C 
BRANCH  10  11
ATOM     11  C   UNL     1      63.984  29.849  26.396  1.00  0.00     0.000 C 
BRANCH  11  12
ATOM     12  C   UNL     1      63.032  29.966  27.597  1.00  0.00     0.006 C 
BRANCH  12  13
ATOM     13  C   UNL     1      61.858  28.981  27.520  1.00  0.00     0.053 C 
BRANCH  13  14
ATOM     14  C   UNL     1      62.332  27.578  27.739  1.00  0.00     0.041 C 
ATOM     15  O   UNL     1      62.566  27.164  28.905  1.00  0.00    -0.550 OA
ATOM     16  O   UNL     1      62.489  26.719  26.657  1.00  0.00    -0.550 OA
ENDBRANCH  13  14
ENDBRANCH  12  13
ENDBRANCH  11  12
ENDBRANCH  10  11
ENDBRANCH   9  10
ENDBRANCH   8   9
ENDBRANCH   7   8
ENDBRANCH   6   7
ENDBRANCH   5   6
ENDBRANCH   4   5
ENDBRANCH   3   4
ENDBRANCH   2   3
ENDBRANCH   1   2
BRANCH   1  17
ATOM     17  C   UNL     1      62.839  34.584  17.192  1.00  0.00     0.000 C 
BRANCH  17  18
ATOM     18  C   UNL     1      63.255  33.404  16.298  1.00  0.00     0.000 C 
BRANCH  18  19
ATOM     19  C   UNL     1      62.058  32.573  15.798  1.00  0.00     0.000 C 
BRANCH  19  20
ATOM     20  C   UNL     1      61.250  33.205  14.646  1.00  0.00     0.000 C 
BRANCH  20  21
ATOM     21  C   UNL     1      61.583  32.676  13.238  1.00  0.00     0.000 C 
BRANCH  21  22
ATOM     22  C   UNL     1      60.676  31.533  12.740  1.00  0.00    -0.000 C 
BRANCH  22  23
ATOM     23  C   UNL     1      60.867  30.206  13.504  1.00  0.00    -0.000 C 
BRANCH  23  24
ATOM     24  C   UNL     1      60.556  28.972  12.639  1.00  0.00    -0.000 C 
BRANCH  24  25
ATOM     25  C   UNL     1      60.118  29.339  11.209  1.00  0.00    -0.000 C 
BRANCH  25  26
ATOM     26  C   UNL     1      61.015  28.778  10.090  1.00  0.00    -0.000 C 
BRANCH  26  27
ATOM     27  C   UNL     1      62.146  29.740   9.686  1.00  0.00    -0.000 C 
BRANCH  27  28
ATOM     28  C   UNL     1      63.488  29.370  10.350  1.00  0.00    -0.000 C 
BRANCH  28  29
ATOM     29  C   UNL     1      63.941  30.375  11.422  1.00  0.00    -0.003 C 
ATOM     30  C   UNL     1      64.548  31.645  10.830  1.00  0.00     0.004 C 
ENDBRANCH  28  29
ENDBRANCH  27  28
ENDBRANCH  26  27
ENDBRANCH  25  26
ENDBRANCH  24  25
ENDBRANCH  23  24
ENDBRANCH  22  23
ENDBRANCH  21  22
ENDBRANCH  20  21
ENDBRANCH  19  20
ENDBRANCH  18  19
ENDBRANCH  17  18
ENDBRANCH   1  17
TORSDOF 26
ENDMDL
