MODEL 1
REMARK VINA RESULT:    -4.471      0.000      0.000
REMARK INTER + INTRA:          -9.674
REMARK INTER:                  -7.608
REMARK INTRA:                  -2.066
REMARK UNBOUND:                -2.066
REMARK SMILES CCCCCCCCCCCCCC(=O)[O-]
REMARK SMILES IDX 8 1 9 2 10 3 11 4 12 5 13 6 14 7 15 8 16 9 7 10 6 11 5 12
REMARK SMILES IDX 4 13 3 14 2 15 1 16
REMARK H PARENT
REMARK Flexibility Score: inf
ROOT
ATOM      1  C   UNL     1      63.106  29.749  24.241  1.00  0.00     0.000 C 
ENDROOT
BRANCH   1   2
ATOM      2  C   UNL     1      63.987  30.195  25.424  1.00  0.00     0.000 C 
BRANCH   2   3
ATOM      3  C   UNL     1      64.819  29.048  26.018  1.00  0.00     0.000 C 
BRANCH   3   4
ATOM      4  C   UNL     1      65.348  28.073  24.950  1.00  0.00     0.000 C 
BRANCH   4   5
ATOM      5  C   UNL     1      64.804  26.632  25.045  1.00  0.00     0.006 C 
BRANCH   5   6
ATOM      6  C   UNL     1      65.207  25.718  23.878  1.00  0.00     0.053 C 
BRANCH   6   7
ATOM      7  C   UNL     1      64.909  26.339  22.548  1.00  0.00     0.041 C 
ATOM      8  O   UNL     1      65.838  26.551  21.725  1.00  0.00    -0.550 OA
ATOM      9  O   UNL     1      63.609  26.716  22.230  1.00  0.00    -0.550 OA
ENDBRANCH   6   7
ENDBRANCH   5   6
ENDBRANCH   4   5
ENDBRANCH   3   4
ENDBRANCH   2   3
ENDBRANCH   1   2
BRANCH   1  10
ATOM     10  C   UNL     1      61.657  29.375  24.605  1.00  0.00     0.000 C 
BRANCH  10  11
ATOM     11  C   UNL     1      61.454  27.864  24.794  1.00  0.00    -0.000 C 
BRANCH  11  12
ATOM     12  C   UNL     1      60.805  27.563  26.154  1.00  0.00    -0.000 C 
BRANCH  12  13
ATOM     13  C   UNL     1      61.761  26.847  27.123  1.00  0.00    -0.000 C 
BRANCH  13  14
ATOM     14  C   UNL     1      62.268  27.771  28.243  1.00  0.00    -0.000 C 
BRANCH  14  15
ATOM     15  C   UNL     1      61.500  29.101  28.303  1.00  0.00    -0.003 C 
ATOM     16  C   UNL     1      62.392  30.285  28.677  1.00  0.00     0.004 C 
ENDBRANCH  14  15
ENDBRANCH  13  14
ENDBRANCH  12  13
ENDBRANCH  11  12
ENDBRANCH  10  11
ENDBRANCH   1  10
TORSDOF 12
ENDMDL
MODEL 2
REMARK VINA RESULT:    -4.425      0.974      2.811
REMARK INTER + INTRA:          -9.595
REMARK INTER:                  -7.915
REMARK INTRA:                  -1.681
REMARK UNBOUND:                -2.066
REMARK SMILES CCCCCCCCCCCCCC(=O)[O-]
REMARK SMILES IDX 8 1 9 2 10 3 11 4 12 5 13 6 14 7 15 8 16 9 7 10 6 11 5 12
REMARK SMILES IDX 4 13 3 14 2 15 1 16
REMARK H PARENT
REMARK Flexibility Score: inf
ROOT
ATOM      1  C   UNL     1      63.048  30.507  28.048  1.00  0.00     0.000 C 
ENDROOT
BRANCH   1   2
ATOM      2  C   UNL     1      64.426  29.884  27.752  1.00  0.00     0.000 C 
BRANCH   2   3
ATOM      3  C   UNL     1      64.847  30.033  26.281  1.00  0.00     0.000 C 
BRANCH   3   4
ATOM      4  C   UNL     1      65.858  28.960  25.834  1.00  0.00     0.000 C 
BRANCH   4   5
ATOM      5  C   UNL     1      65.415  28.095  24.635  1.00  0.00     0.006 C 
BRANCH   5   6
ATOM      6  C   UNL     1      64.864  26.711  25.013  1.00  0.00     0.053 C 
BRANCH   6   7
ATOM      7  C   UNL     1      64.570  25.875  23.805  1.00  0.00     0.041 C 
ATOM      8  O   UNL     1      63.416  25.403  23.628  1.00  0.00    -0.550 OA
ATOM      9  O   UNL     1      65.578  25.590  22.893  1.00  0.00    -0.550 OA
ENDBRANCH   6   7
ENDBRANCH   5   6
ENDBRANCH   4   5
ENDBRANCH   3   4
ENDBRANCH   2   3
ENDBRANCH   1   2
BRANCH   1  10
ATOM     10  C   UNL     1      62.161  29.708  29.019  1.00  0.00     0.000 C 
BRANCH  10  11
ATOM     11  C   UNL     1      61.221  28.724  28.306  1.00  0.00    -0.000 C 
BRANCH  11  12
ATOM     12  C   UNL     1      61.898  27.358  28.114  1.00  0.00    -0.000 C 
BRANCH  12  13
ATOM     13  C   UNL     1      61.843  26.868  26.658  1.00  0.00    -0.000 C 
BRANCH  13  14
ATOM     14  C   UNL     1      60.683  27.496  25.866  1.00  0.00    -0.000 C 
BRANCH  14  15
ATOM     15  C   UNL     1      61.136  28.064  24.511  1.00  0.00    -0.003 C 
ATOM     16  C   UNL     1      61.894  29.385  24.644  1.00  0.00     0.004 C 
ENDBRANCH  14  15
ENDBRANCH  13  14
ENDBRANCH  12  13
ENDBRANCH  11  12
ENDBRANCH  10  11
ENDBRANCH   1  10
TORSDOF 12
ENDMDL
MODEL 3
REMARK VINA RESULT:    -4.319      1.284      2.674
REMARK INTER + INTRA:          -9.414
REMARK INTER:                  -7.362
REMARK INTRA:                  -2.052
REMARK UNBOUND:                -2.066
REMARK SMILES CCCCCCCCCCCCCC(=O)[O-]
REMARK SMILES IDX 8 1 9 2 10 3 11 4 12 5 13 6 14 7 15 8 16 9 7 10 6 11 5 12
REMARK SMILES IDX 4 13 3 14 2 15 1 16
REMARK H PARENT
REMARK Flexibility Score: inf
ROOT
ATOM      1  C   UNL     1      60.714  27.438  25.264  1.00  0.00     0.000 C 
ENDROOT
BRANCH   1   2
ATOM      2  C   UNL     1      61.539  28.270  24.264  1.00  0.00     0.000 C 
BRANCH   2   3
ATOM      3  C   UNL     1      62.189  29.507  24.905  1.00  0.00     0.000 C 
BRANCH   3   4
ATOM      4  C   UNL     1      63.728  29.466  24.864  1.00  0.00     0.000 C 
BRANCH   4   5
ATOM      5  C   UNL     1      64.368  28.185  25.440  1.00  0.00     0.006 C 
BRANCH   5   6
ATOM      6  C   UNL     1      65.405  27.520  24.522  1.00  0.00     0.053 C 
BRANCH   6   7
ATOM      7  C   UNL     1      64.950  26.177  24.039  1.00  0.00     0.041 C 
ATOM      8  O   UNL     1      65.641  25.536  23.204  1.00  0.00    -0.550 OA
ATOM      9  O   UNL     1      63.745  25.649  24.485  1.00  0.00    -0.550 OA
ENDBRANCH   6   7
ENDBRANCH   5   6
ENDBRANCH   4   5
ENDBRANCH   3   4
ENDBRANCH   2   3
ENDBRANCH   1   2
BRANCH   1  10
ATOM     10  C   UNL     1      60.765  27.924  26.724  1.00  0.00     0.000 C 
BRANCH  10  11
ATOM     11  C   UNL     1      61.739  27.117  27.595  1.00  0.00    -0.000 C 
BRANCH  11  12
ATOM     12  C   UNL     1      62.399  28.012  28.655  1.00  0.00    -0.000 C 
BRANCH  12  13
ATOM     13  C   UNL     1      61.790  29.423  28.703  1.00  0.00    -0.000 C 
BRANCH  13  14
ATOM     14  C   UNL     1      62.836  30.526  28.467  1.00  0.00    -0.000 C 
BRANCH  14  15
ATOM     15  C   UNL     1      64.274  30.030  28.682  1.00  0.00    -0.003 C 
ATOM     16  C   UNL     1      65.308  30.857  27.918  1.00  0.00     0.004 C 
ENDBRANCH  14  15
ENDBRANCH  13  14
ENDBRANCH  12  13
ENDBRANCH  11  12
ENDBRANCH  10  11
ENDBRANCH   1  10
TORSDOF 12
ENDMDL
MODEL 4
REMARK VINA RESULT:    -4.288      2.846      5.699
REMARK INTER + INTRA:          -9.362
REMARK INTER:                  -7.780
REMARK INTRA:                  -1.582
REMARK UNBOUND:                -2.066
REMARK SMILES CCCCCCCCCCCCCC(=O)[O-]
REMARK SMILES IDX 8 1 9 2 10 3 11 4 12 5 13 6 14 7 15 8 16 9 7 10 6 11 5 12
REMARK SMILES IDX 4 13 3 14 2 15 1 16
REMARK H PARENT
REMARK Flexibility Score: inf
ROOT
ATOM      1  C   UNL     1      62.520  29.747  24.896  1.00  0.00     0.000 C 
ENDROOT
BRANCH   1   2
ATOM      2  C   UNL     1      61.763  28.495  24.411  1.00  0.00     0.000 C 
BRANCH   2   3
ATOM      3  C   UNL     1      60.814  27.919  25.474  1.00  0.00     0.000 C 
BRANCH   3   4
ATOM      4  C   UNL     1      61.543  27.078  26.538  1.00  0.00     0.000 C 
BRANCH   4   5
ATOM      5  C   UNL     1      61.215  27.439  28.002  1.00  0.00     0.006 C 
BRANCH   5   6
ATOM      6  C   UNL     1      61.116  28.947  28.282  1.00  0.00     0.053 C 
BRANCH   6   7
ATOM      7  C   UNL     1      62.425  29.522  28.730  1.00  0.00     0.041 C 
ATOM      8  O   UNL     1      63.348  28.763  29.125  1.00  0.00    -0.550 OA
ATOM      9  O   UNL     1      62.613  30.899  28.742  1.00  0.00    -0.550 OA
ENDBRANCH   6   7
ENDBRANCH   5   6
ENDBRANCH   4   5
ENDBRANCH   3   4
ENDBRANCH   2   3
ENDBRANCH   1   2
BRANCH   1  10
ATOM     10  C   UNL     1      63.974  29.506  25.338  1.00  0.00     0.000 C 
BRANCH  10  11
ATOM     11  C   UNL     1      64.988  29.682  24.197  1.00  0.00    -0.000 C 
BRANCH  11  12
ATOM     12  C   UNL     1      65.980  28.509  24.158  1.00  0.00    -0.000 C 
BRANCH  12  13
ATOM     13  C   UNL     1      66.050  27.837  22.777  1.00  0.00    -0.000 C 
BRANCH  13  14
ATOM     14  C   UNL     1      65.688  26.343  22.828  1.00  0.00    -0.000 C 
BRANCH  14  15
ATOM     15  C   UNL     1      64.770  25.999  24.012  1.00  0.00    -0.003 C 
ATOM     16  C   UNL     1      63.414  25.449  23.572  1.00  0.00     0.004 C 
ENDBRANCH  14  15
ENDBRANCH  13  14
ENDBRANCH  12  13
ENDBRANCH  11  12
ENDBRANCH  10  11
ENDBRANCH   1  10
TORSDOF 12
ENDMDL
MODEL 5
REMARK VINA RESULT:    -4.280     11.893     14.301
REMARK INTER + INTRA:          -9.348
REMARK INTER:                  -7.671
REMARK INTRA:                  -1.677
REMARK UNBOUND:                -2.066
REMARK SMILES CCCCCCCCCCCCCC(=O)[O-]
REMARK SMILES IDX 8 1 9 2 10 3 11 4 12 5 13 6 14 7 15 8 16 9 7 10 6 11 5 12
REMARK SMILES IDX 4 13 3 14 2 15 1 16
REMARK H PARENT
REMARK Flexibility Score: inf
ROOT
ATOM      1  C   UNL     1      63.831  30.558  10.134  1.00  0.00     0.000 C 
ENDROOT
BRANCH   1   2
ATOM      2  C   UNL     1      64.478  30.888  11.493  1.00  0.00     0.000 C 
BRANCH   2   3
ATOM      3  C   UNL     1      64.709  32.394  11.697  1.00  0.00     0.000 C 
BRANCH   3   4
ATOM      4  C   UNL     1      64.018  32.942  12.960  1.00  0.00     0.000 C 
BRANCH   4   5
ATOM      5  C   UNL     1      62.500  32.678  13.047  1.00  0.00     0.006 C 
BRANCH   5   6
ATOM      6  C   UNL     1      61.831  33.204  14.327  1.00  0.00     0.053 C 
BRANCH   6   7
ATOM      7  C   UNL     1      60.738  32.297  14.802  1.00  0.00     0.041 C 
ATOM      8  O   UNL     1      59.726  32.093  14.081  1.00  0.00    -0.550 OA
ATOM      9  O   UNL     1      60.820  31.704  16.056  1.00  0.00    -0.550 OA
ENDBRANCH   6   7
ENDBRANCH   5   6
ENDBRANCH   4   5
ENDBRANCH   3   4
ENDBRANCH   2   3
ENDBRANCH   1   2
BRANCH   1  10
ATOM     10  C   UNL     1      63.684  29.057   9.823  1.00  0.00     0.000 C 
BRANCH  10  11
ATOM     11  C   UNL     1      62.511  28.749   8.880  1.00  0.00    -0.000 C 
BRANCH  11  12
ATOM     12  C   UNL     1      61.288  28.256   9.668  1.00  0.00    -0.000 C 
BRANCH  12  13
ATOM     13  C   UNL     1      60.278  29.378   9.961  1.00  0.00    -0.000 C 
BRANCH  13  14
ATOM     14  C   UNL     1      60.402  29.927  11.393  1.00  0.00    -0.000 C 
BRANCH  14  15
ATOM     15  C   UNL     1      60.603  28.814  12.434  1.00  0.00    -0.003 C 
ATOM     16  C   UNL     1      61.854  29.020  13.289  1.00  0.00     0.004 C 
ENDBRANCH  14  15
ENDBRANCH  13  14
ENDBRANCH  12  13
ENDBRANCH  11  12
ENDBRANCH  10  11
ENDBRANCH   1  10
TORSDOF 12
ENDMDL
MODEL 6
REMARK VINA RESULT:    -4.227      2.881      5.126
REMARK INTER + INTRA:          -9.259
REMARK INTER:                  -7.561
REMARK INTRA:                  -1.697
REMARK UNBOUND:                -2.066
REMARK SMILES CCCCCCCCCCCCCC(=O)[O-]
REMARK SMILES IDX 8 1 9 2 10 3 11 4 12 5 13 6 14 7 15 8 16 9 7 10 6 11 5 12
REMARK SMILES IDX 4 13 3 14 2 15 1 16
REMARK H PARENT
REMARK Flexibility Score: inf
ROOT
ATOM      1  C   UNL     1      62.246  28.924  23.976  1.00  0.00     0.000 C 
ENDROOT
BRANCH   1   2
ATOM      2  C   UNL     1      63.352  29.954  24.272  1.00  0.00     0.000 C 
BRANCH   2   3
ATOM      3  C   UNL     1      63.304  30.488  25.713  1.00  0.00     0.000 C 
BRANCH   3   4
ATOM      4  C   UNL     1      64.326  29.805  26.641  1.00  0.00     0.000 C 
BRANCH   4   5
ATOM      5  C   UNL     1      64.087  30.013  28.151  1.00  0.00     0.006 C 
BRANCH   5   6
ATOM      6  C   UNL     1      62.622  30.274  28.537  1.00  0.00     0.053 C 
BRANCH   6   7
ATOM      7  C   UNL     1      61.902  29.011  28.897  1.00  0.00     0.041 C 
ATOM      8  O   UNL     1      62.550  27.955  29.122  1.00  0.00    -0.550 OA
ATOM      9  O   UNL     1      60.514  28.992  28.951  1.00  0.00    -0.550 OA
ENDBRANCH   6   7
ENDBRANCH   5   6
ENDBRANCH   4   5
ENDBRANCH   3   4
ENDBRANCH   2   3
ENDBRANCH   1   2
BRANCH   1  10
ATOM     10  C   UNL     1      61.385  28.517  25.186  1.00  0.00     0.000 C 
BRANCH  10  11
ATOM     11  C   UNL     1      61.711  27.110  25.712  1.00  0.00    -0.000 C 
BRANCH  11  12
ATOM     12  C   UNL     1      62.673  26.378  24.764  1.00  0.00    -0.000 C 
BRANCH  12  13
ATOM     13  C   UNL     1      64.107  26.307  25.312  1.00  0.00    -0.000 C 
BRANCH  13  14
ATOM     14  C   UNL     1      65.156  26.112  24.203  1.00  0.00    -0.000 C 
BRANCH  14  15
ATOM     15  C   UNL     1      65.848  27.427  23.810  1.00  0.00    -0.003 C 
ATOM     16  C   UNL     1      66.288  27.451  22.346  1.00  0.00     0.004 C 
ENDBRANCH  14  15
ENDBRANCH  13  14
ENDBRANCH  12  13
ENDBRANCH  11  12
ENDBRANCH  10  11
ENDBRANCH   1  10
TORSDOF 12
ENDMDL
MODEL 7
REMARK VINA RESULT:    -4.195      2.640      5.412
REMARK INTER + INTRA:          -9.204
REMARK INTER:                  -7.669
REMARK INTRA:                  -1.536
REMARK UNBOUND:                -2.066
REMARK SMILES CCCCCCCCCCCCCC(=O)[O-]
REMARK SMILES IDX 8 1 9 2 10 3 11 4 12 5 13 6 14 7 15 8 16 9 7 10 6 11 5 12
REMARK SMILES IDX 4 13 3 14 2 15 1 16
REMARK H PARENT
REMARK Flexibility Score: inf
ROOT
ATOM      1  C   UNL     1      61.137  26.970  25.583  1.00  0.00     0.000 C 
ENDROOT
BRANCH   1   2
ATOM      2  C   UNL     1      62.221  27.043  26.675  1.00  0.00     0.000 C 
BRANCH   2   3
ATOM      3  C   UNL     1      61.638  27.110  28.096  1.00  0.00     0.000 C 
BRANCH   3   4
ATOM      4  C   UNL     1      62.209  28.275  28.925  1.00  0.00     0.000 C 
BRANCH   4   5
ATOM      5  C   UNL     1      62.007  29.679  28.316  1.00  0.00     0.006 C 
BRANCH   5   6
ATOM      6  C   UNL     1      63.097  30.698  28.681  1.00  0.00     0.053 C 
BRANCH   6   7
ATOM      7  C   UNL     1      64.443  30.291  28.164  1.00  0.00     0.041 C 
ATOM      8  O   UNL     1      64.673  30.293  26.926  1.00  0.00    -0.550 OA
ATOM      9  O   UNL     1      65.432  29.876  29.047  1.00  0.00    -0.550 OA
ENDBRANCH   6   7
ENDBRANCH   5   6
ENDBRANCH   4   5
ENDBRANCH   3   4
ENDBRANCH   2   3
ENDBRANCH   1   2
BRANCH   1  10
ATOM     10  C   UNL     1      60.953  28.254  24.753  1.00  0.00     0.000 C 
BRANCH  10  11
ATOM     11  C   UNL     1      62.247  29.069  24.608  1.00  0.00    -0.000 C 
BRANCH  11  12
ATOM     12  C   UNL     1      63.118  28.518  23.469  1.00  0.00    -0.000 C 
BRANCH  12  13
ATOM     13  C   UNL     1      64.622  28.701  23.731  1.00  0.00    -0.000 C 
BRANCH  13  14
ATOM     14  C   UNL     1      65.235  27.525  24.510  1.00  0.00    -0.000 C 
BRANCH  14  15
ATOM     15  C   UNL     1      64.749  26.161  23.995  1.00  0.00    -0.003 C 
ATOM     16  C   UNL     1      65.565  25.649  22.808  1.00  0.00     0.004 C 
ENDBRANCH  14  15
ENDBRANCH  13  14
ENDBRANCH  12  13
ENDBRANCH  11  12
ENDBRANCH  10  11
ENDBRANCH   1  10
TORSDOF 12
ENDMDL
MODEL 8
REMARK VINA RESULT:    -4.192      1.347      2.291
REMARK INTER + INTRA:          -9.198
REMARK INTER:                  -7.599
REMARK INTRA:                  -1.599
REMARK UNBOUND:                -2.066
REMARK SMILES CCCCCCCCCCCCCC(=O)[O-]
REMARK SMILES IDX 8 1 9 2 10 3 11 4 12 5 13 6 14 7 15 8 16 9 7 10 6 11 5 12
REMARK SMILES IDX 4 13 3 14 2 15 1 16
REMARK H PARENT
REMARK Flexibility Score: inf
ROOT
ATOM      1  C   UNL     1      60.743  28.229  24.977  1.00  0.00     0.000 C 
ENDROOT
BRANCH   1   2
ATOM      2  C   UNL     1      62.179  28.261  24.421  1.00  0.00     0.000 C 
BRANCH   2   3
ATOM      3  C   UNL     1      62.732  26.862  24.104  1.00  0.00     0.000 C 
BRANCH   3   4
ATOM      4  C   UNL     1      63.862  26.433  25.058  1.00  0.00     0.000 C 
BRANCH   4   5
ATOM      5  C   UNL     1      65.280  26.450  24.449  1.00  0.00     0.006 C 
BRANCH   5   6
ATOM      6  C   UNL     1      65.410  25.710  23.109  1.00  0.00     0.053 C 
BRANCH   6   7
ATOM      7  C   UNL     1      66.079  26.551  22.065  1.00  0.00     0.041 C 
ATOM      8  O   UNL     1      66.452  26.034  20.979  1.00  0.00    -0.550 OA
ATOM      9  O   UNL     1      66.321  27.898  22.305  1.00  0.00    -0.550 OA
ENDBRANCH   6   7
ENDBRANCH   5   6
ENDBRANCH   4   5
ENDBRANCH   3   4
ENDBRANCH   2   3
ENDBRANCH   1   2
BRANCH   1  10
ATOM     10  C   UNL     1      60.368  26.956  25.757  1.00  0.00     0.000 C 
BRANCH  10  11
ATOM     11  C   UNL     1      60.400  27.152  27.281  1.00  0.00    -0.000 C 
BRANCH  11  12
ATOM     12  C   UNL     1      61.790  26.822  27.848  1.00  0.00    -0.000 C 
BRANCH  12  13
ATOM     13  C   UNL     1      62.361  27.956  28.715  1.00  0.00    -0.000 C 
BRANCH  13  14
ATOM     14  C   UNL     1      61.811  29.337  28.321  1.00  0.00    -0.000 C 
BRANCH  14  15
ATOM     15  C   UNL     1      62.914  30.297  27.849  1.00  0.00    -0.003 C 
ATOM     16  C   UNL     1      64.118  29.570  27.249  1.00  0.00     0.004 C 
ENDBRANCH  14  15
ENDBRANCH  13  14
ENDBRANCH  12  13
ENDBRANCH  11  12
ENDBRANCH  10  11
ENDBRANCH   1  10
TORSDOF 12
ENDMDL
MODEL 9
REMARK VINA RESULT:    -4.147      1.235      3.474
REMARK INTER + INTRA:          -9.122
REMARK INTER:                  -7.333
REMARK INTRA:                  -1.789
REMARK UNBOUND:                -2.066
REMARK SMILES CCCCCCCCCCCCCC(=O)[O-]
REMARK SMILES IDX 8 1 9 2 10 3 11 4 12 5 13 6 14 7 15 8 16 9 7 10 6 11 5 12
REMARK SMILES IDX 4 13 3 14 2 15 1 16
REMARK H PARENT
REMARK Flexibility Score: inf
ROOT
ATOM      1  C   UNL     1      61.546  26.927  27.545  1.00  0.00     0.000 C 
ENDROOT
BRANCH   1   2
ATOM      2  C   UNL     1      60.980  27.632  26.297  1.00  0.00     0.000 C 
BRANCH   2   3
ATOM      3  C   UNL     1      61.701  27.228  25.001  1.00  0.00     0.000 C 
BRANCH   3   4
ATOM      4  C   UNL     1      62.951  26.365  25.253  1.00  0.00     0.000 C 
BRANCH   4   5
ATOM      5  C   UNL     1      63.738  25.961  23.989  1.00  0.00     0.006 C 
BRANCH   5   6
ATOM      6  C   UNL     1      65.263  26.107  24.111  1.00  0.00     0.053 C 
BRANCH   6   7
ATOM      7  C   UNL     1      65.898  26.483  22.807  1.00  0.00     0.041 C 
ATOM      8  O   UNL     1      66.044  25.619  21.902  1.00  0.00    -0.550 OA
ATOM      9  O   UNL     1      66.359  27.778  22.604  1.00  0.00    -0.550 OA
ENDBRANCH   6   7
ENDBRANCH   5   6
ENDBRANCH   4   5
ENDBRANCH   3   4
ENDBRANCH   2   3
ENDBRANCH   1   2
BRANCH   1  10
ATOM     10  C   UNL     1      62.246  27.850  28.560  1.00  0.00     0.000 C 
BRANCH  10  11
ATOM     11  C   UNL     1      61.558  29.216  28.707  1.00  0.00    -0.000 C 
BRANCH  11  12
ATOM     12  C   UNL     1      62.572  30.360  28.558  1.00  0.00    -0.000 C 
BRANCH  12  13
ATOM     13  C   UNL     1      63.775  29.976  27.682  1.00  0.00    -0.000 C 
BRANCH  13  14
ATOM     14  C   UNL     1      63.595  30.396  26.213  1.00  0.00    -0.000 C 
BRANCH  14  15
ATOM     15  C   UNL     1      64.560  29.661  25.268  1.00  0.00    -0.003 C 
ATOM     16  C   UNL     1      65.902  29.337  25.925  1.00  0.00     0.004 C 
ENDBRANCH  14  15
ENDBRANCH  13  14
ENDBRANCH  12  13
ENDBRANCH  11  12
ENDBRANCH  10  11
ENDBRANCH   1  10
TORSDOF 12
ENDMDL
