MODEL 1
REMARK VINA RESULT:    -5.381      0.000      0.000
REMARK INTER + INTRA:         -14.469
REMARK INTER:                 -12.302
REMARK INTRA:                  -2.166
REMARK UNBOUND:                -2.166
REMARK SMILES CCCCCCCCCCCCCCCCCCCCCCCC(=O)[O-]
REMARK SMILES IDX 13 1 14 2 15 3 16 4 17 5 18 6 19 7 20 8 21 9 22 10 23 11
REMARK SMILES IDX 24 12 25 13 26 14 12 15 11 16 10 17 9 18 8 19 7 20 6 21 5 22
REMARK SMILES IDX 4 23 3 24 2 25 1 26
REMARK H PARENT
REMARK Flexibility Score: inf
ROOT
ATOM      1  C   UNL     1     -20.142 -26.308  39.222  1.00  0.00     0.000 C 
ENDROOT
BRANCH   1   2
ATOM      2  C   UNL     1     -18.982 -25.303  39.348  1.00  0.00     0.000 C 
BRANCH   2   3
ATOM      3  C   UNL     1     -17.643 -25.866  38.826  1.00  0.00     0.000 C 
BRANCH   3   4
ATOM      4  C   UNL     1     -17.795 -26.963  37.754  1.00  0.00     0.000 C 
BRANCH   4   5
ATOM      5  C   UNL     1     -16.649 -27.047  36.729  1.00  0.00     0.000 C 
BRANCH   5   6
ATOM      6  C   UNL     1     -16.148 -25.691  36.197  1.00  0.00     0.000 C 
BRANCH   6   7
ATOM      7  C   UNL     1     -15.030 -25.836  35.153  1.00  0.00     0.000 C 
BRANCH   7   8
ATOM      8  C   UNL     1     -15.067 -27.224  34.496  1.00  0.00     0.000 C 
BRANCH   8   9
ATOM      9  C   UNL     1     -13.717 -27.961  34.578  1.00  0.00     0.000 C 
BRANCH   9  10
ATOM     10  C   UNL     1     -13.820 -29.474  34.840  1.00  0.00     0.006 C 
BRANCH  10  11
ATOM     11  C   UNL     1     -15.269 -29.982  34.845  1.00  0.00     0.053 C 
BRANCH  11  12
ATOM     12  C   UNL     1     -15.498 -30.920  35.991  1.00  0.00     0.041 C 
ATOM     13  O   UNL     1     -14.992 -32.075  35.975  1.00  0.00    -0.550 OA
ATOM     14  O   UNL     1     -16.239 -30.507  37.092  1.00  0.00    -0.550 OA
ENDBRANCH  11  12
ENDBRANCH  10  11
ENDBRANCH   9  10
ENDBRANCH   8   9
ENDBRANCH   7   8
ENDBRANCH   6   7
ENDBRANCH   5   6
ENDBRANCH   4   5
ENDBRANCH   3   4
ENDBRANCH   2   3
ENDBRANCH   1   2
BRANCH   1  15
ATOM     15  C   UNL     1     -21.261 -26.032  40.245  1.00  0.00     0.000 C 
BRANCH  15  16
ATOM     16  C   UNL     1     -21.737 -24.568  40.243  1.00  0.00     0.000 C 
BRANCH  16  17
ATOM     17  C   UNL     1     -22.625 -24.250  41.458  1.00  0.00     0.000 C 
BRANCH  17  18
ATOM     18  C   UNL     1     -24.007 -23.709  41.060  1.00  0.00    -0.000 C 
BRANCH  18  19
ATOM     19  C   UNL     1     -25.144 -24.689  41.401  1.00  0.00    -0.000 C 
BRANCH  19  20
ATOM     20  C   UNL     1     -24.645 -25.941  42.144  1.00  0.00    -0.000 C 
BRANCH  20  21
ATOM     21  C   UNL     1     -24.914 -27.242  41.369  1.00  0.00    -0.000 C 
BRANCH  21  22
ATOM     22  C   UNL     1     -24.146 -28.450  41.952  1.00  0.00    -0.000 C 
BRANCH  22  23
ATOM     23  C   UNL     1     -23.163 -29.092  40.956  1.00  0.00    -0.000 C 
BRANCH  23  24
ATOM     24  C   UNL     1     -23.809 -29.541  39.633  1.00  0.00    -0.000 C 
BRANCH  24  25
ATOM     25  C   UNL     1     -23.251 -28.800  38.397  1.00  0.00    -0.003 C 
ATOM     26  C   UNL     1     -24.137 -28.957  37.162  1.00  0.00     0.004 C 
ENDBRANCH  24  25
ENDBRANCH  23  24
ENDBRANCH  22  23
ENDBRANCH  21  22
ENDBRANCH  20  21
ENDBRANCH  19  20
ENDBRANCH  18  19
ENDBRANCH  17  18
ENDBRANCH  16  17
ENDBRANCH  15  16
ENDBRANCH   1  15
TORSDOF 22
ENDMDL
MODEL 2
REMARK VINA RESULT:    -5.356      1.255      3.489
REMARK INTER + INTRA:         -14.411
REMARK INTER:                 -12.411
REMARK INTRA:                  -2.000
REMARK UNBOUND:                -2.166
REMARK SMILES CCCCCCCCCCCCCCCCCCCCCCCC(=O)[O-]
REMARK SMILES IDX 13 1 14 2 15 3 16 4 17 5 18 6 19 7 20 8 21 9 22 10 23 11
REMARK SMILES IDX 24 12 25 13 26 14 12 15 11 16 10 17 9 18 8 19 7 20 6 21 5 22
REMARK SMILES IDX 4 23 3 24 2 25 1 26
REMARK H PARENT
REMARK Flexibility Score: inf
ROOT
ATOM      1  C   UNL     1     -21.916 -28.099  38.148  1.00  0.00     0.000 C 
ENDROOT
BRANCH   1   2
ATOM      2  C   UNL     1     -20.691 -27.259  37.744  1.00  0.00     0.000 C 
BRANCH   2   3
ATOM      3  C   UNL     1     -20.165 -26.374  38.895  1.00  0.00     0.000 C 
BRANCH   3   4
ATOM      4  C   UNL     1     -18.636 -26.181  38.894  1.00  0.00     0.000 C 
BRANCH   4   5
ATOM      5  C   UNL     1     -17.882 -26.906  37.764  1.00  0.00     0.000 C 
BRANCH   5   6
ATOM      6  C   UNL     1     -16.767 -26.085  37.091  1.00  0.00     0.000 C 
BRANCH   6   7
ATOM      7  C   UNL     1     -16.529 -26.489  35.628  1.00  0.00     0.000 C 
BRANCH   7   8
ATOM      8  C   UNL     1     -15.093 -26.993  35.423  1.00  0.00     0.000 C 
BRANCH   8   9
ATOM      9  C   UNL     1     -15.032 -28.354  34.705  1.00  0.00     0.000 C 
BRANCH   9  10
ATOM     10  C   UNL     1     -14.497 -29.515  35.562  1.00  0.00     0.006 C 
BRANCH  10  11
ATOM     11  C   UNL     1     -15.455 -30.713  35.610  1.00  0.00     0.053 C 
BRANCH  11  12
ATOM     12  C   UNL     1     -14.702 -31.985  35.857  1.00  0.00     0.041 C 
ATOM     13  O   UNL     1     -14.807 -32.579  36.963  1.00  0.00    -0.550 OA
ATOM     14  O   UNL     1     -13.912 -32.533  34.852  1.00  0.00    -0.550 OA
ENDBRANCH  11  12
ENDBRANCH  10  11
ENDBRANCH   9  10
ENDBRANCH   8   9
ENDBRANCH   7   8
ENDBRANCH   6   7
ENDBRANCH   5   6
ENDBRANCH   4   5
ENDBRANCH   3   4
ENDBRANCH   2   3
ENDBRANCH   1   2
BRANCH   1  15
ATOM     15  C   UNL     1     -22.280 -27.912  39.633  1.00  0.00     0.000 C 
BRANCH  15  16
ATOM     16  C   UNL     1     -23.182 -29.033  40.183  1.00  0.00     0.000 C 
BRANCH  16  17
ATOM     17  C   UNL     1     -24.402 -29.285  39.282  1.00  0.00     0.000 C 
BRANCH  17  18
ATOM     18  C   UNL     1     -25.602 -28.395  39.641  1.00  0.00    -0.000 C 
BRANCH  18  19
ATOM     19  C   UNL     1     -25.525 -27.854  41.080  1.00  0.00    -0.000 C 
BRANCH  19  20
ATOM     20  C   UNL     1     -26.378 -26.590  41.284  1.00  0.00    -0.000 C 
BRANCH  20  21
ATOM     21  C   UNL     1     -25.530 -25.335  41.558  1.00  0.00    -0.000 C 
BRANCH  21  22
ATOM     22  C   UNL     1     -24.024 -25.655  41.696  1.00  0.00    -0.000 C 
BRANCH  22  23
ATOM     23  C   UNL     1     -23.110 -24.459  41.374  1.00  0.00    -0.000 C 
BRANCH  23  24
ATOM     24  C   UNL     1     -23.821 -23.298  40.655  1.00  0.00    -0.000 C 
BRANCH  24  25
ATOM     25  C   UNL     1     -22.851 -22.354  39.909  1.00  0.00    -0.003 C 
ATOM     26  C   UNL     1     -21.956 -23.091  38.913  1.00  0.00     0.004 C 
ENDBRANCH  24  25
ENDBRANCH  23  24
ENDBRANCH  22  23
ENDBRANCH  21  22
ENDBRANCH  20  21
ENDBRANCH  19  20
ENDBRANCH  18  19
ENDBRANCH  17  18
ENDBRANCH  16  17
ENDBRANCH  15  16
ENDBRANCH   1  15
TORSDOF 22
ENDMDL
MODEL 3
REMARK VINA RESULT:    -5.311      5.465      9.952
REMARK INTER + INTRA:         -14.307
REMARK INTER:                 -11.723
REMARK INTRA:                  -2.585
REMARK UNBOUND:                -2.166
REMARK SMILES CCCCCCCCCCCCCCCCCCCCCCCC(=O)[O-]
REMARK SMILES IDX 13 1 14 2 15 3 16 4 17 5 18 6 19 7 20 8 21 9 22 10 23 11
REMARK SMILES IDX 24 12 25 13 26 14 12 15 11 16 10 17 9 18 8 19 7 20 6 21 5 22
REMARK SMILES IDX 4 23 3 24 2 25 1 26
REMARK H PARENT
REMARK Flexibility Score: inf
ROOT
ATOM      1  C   UNL     1     -20.731 -26.301  39.558  1.00  0.00     0.000 C 
ENDROOT
BRANCH   1   2
ATOM      2  C   UNL     1     -20.997 -26.768  38.114  1.00  0.00     0.000 C 
BRANCH   2   3
ATOM      3  C   UNL     1     -21.888 -28.027  38.046  1.00  0.00     0.000 C 
BRANCH   3   4
ATOM      4  C   UNL     1     -22.491 -28.446  39.402  1.00  0.00     0.000 C 
BRANCH   4   5
ATOM      5  C   UNL     1     -23.818 -29.224  39.320  1.00  0.00     0.000 C 
BRANCH   5   6
ATOM      6  C   UNL     1     -24.949 -28.679  40.211  1.00  0.00     0.000 C 
BRANCH   6   7
ATOM      7  C   UNL     1     -24.439 -28.120  41.548  1.00  0.00     0.000 C 
BRANCH   7   8
ATOM      8  C   UNL     1     -24.571 -26.591  41.593  1.00  0.00     0.000 C 
BRANCH   8   9
ATOM      9  C   UNL     1     -25.556 -26.106  42.672  1.00  0.00     0.000 C 
BRANCH   9  10
ATOM     10  C   UNL     1     -26.823 -25.418  42.132  1.00  0.00     0.006 C 
BRANCH  10  11
ATOM     11  C   UNL     1     -28.092 -25.820  42.897  1.00  0.00     0.053 C 
BRANCH  11  12
ATOM     12  C   UNL     1     -29.316 -25.319  42.191  1.00  0.00     0.041 C 
ATOM     13  O   UNL     1     -29.768 -24.171  42.445  1.00  0.00    -0.550 OA
ATOM     14  O   UNL     1     -29.936 -26.107  41.228  1.00  0.00    -0.550 OA
ENDBRANCH  11  12
ENDBRANCH  10  11
ENDBRANCH   9  10
ENDBRANCH   8   9
ENDBRANCH   7   8
ENDBRANCH   6   7
ENDBRANCH   5   6
ENDBRANCH   4   5
ENDBRANCH   3   4
ENDBRANCH   2   3
ENDBRANCH   1   2
BRANCH   1  15
ATOM     15  C   UNL     1     -19.619 -25.238  39.626  1.00  0.00     0.000 C 
BRANCH  15  16
ATOM     16  C   UNL     1     -18.242 -25.771  39.192  1.00  0.00     0.000 C 
BRANCH  16  17
ATOM     17  C   UNL     1     -17.400 -24.690  38.493  1.00  0.00     0.000 C 
BRANCH  17  18
ATOM     18  C   UNL     1     -17.718 -23.272  38.991  1.00  0.00    -0.000 C 
BRANCH  18  19
ATOM     19  C   UNL     1     -17.470 -22.199  37.915  1.00  0.00    -0.000 C 
BRANCH  19  20
ATOM     20  C   UNL     1     -18.711 -21.332  37.645  1.00  0.00    -0.000 C 
BRANCH  20  21
ATOM     21  C   UNL     1     -19.871 -21.632  38.610  1.00  0.00    -0.000 C 
BRANCH  21  22
ATOM     22  C   UNL     1     -21.229 -21.760  37.884  1.00  0.00    -0.000 C 
BRANCH  22  23
ATOM     23  C   UNL     1     -22.150 -22.835  38.491  1.00  0.00    -0.000 C 
BRANCH  23  24
ATOM     24  C   UNL     1     -23.305 -22.270  39.339  1.00  0.00    -0.000 C 
BRANCH  24  25
ATOM     25  C   UNL     1     -23.613 -23.117  40.594  1.00  0.00    -0.003 C 
ATOM     26  C   UNL     1     -22.352 -23.551  41.341  1.00  0.00     0.004 C 
ENDBRANCH  24  25
ENDBRANCH  23  24
ENDBRANCH  22  23
ENDBRANCH  21  22
ENDBRANCH  20  21
ENDBRANCH  19  20
ENDBRANCH  18  19
ENDBRANCH  17  18
ENDBRANCH  16  17
ENDBRANCH  15  16
ENDBRANCH   1  15
TORSDOF 22
ENDMDL
MODEL 4
REMARK VINA RESULT:    -5.223      4.897      7.207
REMARK INTER + INTRA:         -14.108
REMARK INTER:                 -11.232
REMARK INTRA:                  -2.876
REMARK UNBOUND:                -2.166
REMARK SMILES CCCCCCCCCCCCCCCCCCCCCCCC(=O)[O-]
REMARK SMILES IDX 13 1 14 2 15 3 16 4 17 5 18 6 19 7 20 8 21 9 22 10 23 11
REMARK SMILES IDX 24 12 25 13 26 14 12 15 11 16 10 17 9 18 8 19 7 20 6 21 5 22
REMARK SMILES IDX 4 23 3 24 2 25 1 26
REMARK H PARENT
REMARK Flexibility Score: inf
ROOT
ATOM      1  C   UNL     1     -24.486 -22.559  40.751  1.00  0.00     0.000 C 
ENDROOT
BRANCH   1   2
ATOM      2  C   UNL     1     -23.006 -22.311  41.097  1.00  0.00     0.000 C 
BRANCH   2   3
ATOM      3  C   UNL     1     -22.261 -23.603  41.499  1.00  0.00     0.000 C 
BRANCH   3   4
ATOM      4  C   UNL     1     -21.979 -24.559  40.324  1.00  0.00     0.000 C 
BRANCH   4   5
ATOM      5  C   UNL     1     -20.493 -24.883  40.081  1.00  0.00     0.000 C 
BRANCH   5   6
ATOM      6  C   UNL     1     -20.221 -26.257  39.442  1.00  0.00     0.000 C 
BRANCH   6   7
ATOM      7  C   UNL     1     -21.253 -26.630  38.366  1.00  0.00     0.000 C 
BRANCH   7   8
ATOM      8  C   UNL     1     -21.839 -28.026  38.625  1.00  0.00     0.000 C 
BRANCH   8   9
ATOM      9  C   UNL     1     -22.615 -28.113  39.952  1.00  0.00     0.000 C 
BRANCH   9  10
ATOM     10  C   UNL     1     -23.273 -29.476  40.230  1.00  0.00     0.006 C 
BRANCH  10  11
ATOM     11  C   UNL     1     -24.801 -29.444  40.076  1.00  0.00     0.053 C 
BRANCH  11  12
ATOM     12  C   UNL     1     -25.222 -30.148  38.822  1.00  0.00     0.041 C 
ATOM     13  O   UNL     1     -25.959 -31.168  38.884  1.00  0.00    -0.550 OA
ATOM     14  O   UNL     1     -24.830 -29.655  37.582  1.00  0.00    -0.550 OA
ENDBRANCH  11  12
ENDBRANCH  10  11
ENDBRANCH   9  10
ENDBRANCH   8   9
ENDBRANCH   7   8
ENDBRANCH   6   7
ENDBRANCH   5   6
ENDBRANCH   4   5
ENDBRANCH   3   4
ENDBRANCH   2   3
ENDBRANCH   1   2
BRANCH   1  15
ATOM     15  C   UNL     1     -25.033 -21.509  39.765  1.00  0.00     0.000 C 
BRANCH  15  16
ATOM     16  C   UNL     1     -24.903 -20.065  40.283  1.00  0.00     0.000 C 
BRANCH  16  17
ATOM     17  C   UNL     1     -26.214 -19.276  40.125  1.00  0.00     0.000 C 
BRANCH  17  18
ATOM     18  C   UNL     1     -27.438 -20.047  40.641  1.00  0.00    -0.000 C 
BRANCH  18  19
ATOM     19  C   UNL     1     -27.495 -20.104  42.178  1.00  0.00    -0.000 C 
BRANCH  19  20
ATOM     20  C   UNL     1     -28.466 -21.178  42.697  1.00  0.00    -0.000 C 
BRANCH  20  21
ATOM     21  C   UNL     1     -28.432 -22.468  41.859  1.00  0.00    -0.000 C 
BRANCH  21  22
ATOM     22  C   UNL     1     -28.391 -23.743  42.732  1.00  0.00    -0.000 C 
BRANCH  22  23
ATOM     23  C   UNL     1     -27.034 -24.469  42.694  1.00  0.00    -0.000 C 
BRANCH  23  24
ATOM     24  C   UNL     1     -26.901 -25.498  41.556  1.00  0.00    -0.000 C 
BRANCH  24  25
ATOM     25  C   UNL     1     -25.474 -26.072  41.415  1.00  0.00    -0.003 C 
ATOM     26  C   UNL     1     -24.836 -26.413  42.762  1.00  0.00     0.004 C 
ENDBRANCH  24  25
ENDBRANCH  23  24
ENDBRANCH  22  23
ENDBRANCH  21  22
ENDBRANCH  20  21
ENDBRANCH  19  20
ENDBRANCH  18  19
ENDBRANCH  17  18
ENDBRANCH  16  17
ENDBRANCH  15  16
ENDBRANCH   1  15
TORSDOF 22
ENDMDL
MODEL 5
REMARK VINA RESULT:    -5.196      5.035      8.297
REMARK INTER + INTRA:         -14.046
REMARK INTER:                 -11.158
REMARK INTRA:                  -2.888
REMARK UNBOUND:                -2.166
REMARK SMILES CCCCCCCCCCCCCCCCCCCCCCCC(=O)[O-]
REMARK SMILES IDX 13 1 14 2 15 3 16 4 17 5 18 6 19 7 20 8 21 9 22 10 23 11
REMARK SMILES IDX 24 12 25 13 26 14 12 15 11 16 10 17 9 18 8 19 7 20 6 21 5 22
REMARK SMILES IDX 4 23 3 24 2 25 1 26
REMARK H PARENT
REMARK Flexibility Score: inf
ROOT
ATOM      1  C   UNL     1     -20.436 -26.323  38.883  1.00  0.00     0.000 C 
ENDROOT
BRANCH   1   2
ATOM      2  C   UNL     1     -21.185 -26.144  40.217  1.00  0.00     0.000 C 
BRANCH   2   3
ATOM      3  C   UNL     1     -22.172 -24.957  40.195  1.00  0.00     0.000 C 
BRANCH   3   4
ATOM      4  C   UNL     1     -22.088 -24.045  41.434  1.00  0.00     0.000 C 
BRANCH   4   5
ATOM      5  C   UNL     1     -22.852 -22.712  41.324  1.00  0.00     0.000 C 
BRANCH   5   6
ATOM      6  C   UNL     1     -24.188 -22.787  40.562  1.00  0.00     0.000 C 
BRANCH   6   7
ATOM      7  C   UNL     1     -25.093 -21.573  40.824  1.00  0.00     0.000 C 
BRANCH   7   8
ATOM      8  C   UNL     1     -24.316 -20.260  40.647  1.00  0.00     0.000 C 
BRANCH   8   9
ATOM      9  C   UNL     1     -24.107 -19.881  39.170  1.00  0.00     0.000 C 
BRANCH   9  10
ATOM     10  C   UNL     1     -22.713 -19.323  38.834  1.00  0.00     0.006 C 
BRANCH  10  11
ATOM     11  C   UNL     1     -21.579 -20.291  39.200  1.00  0.00     0.053 C 
BRANCH  11  12
ATOM     12  C   UNL     1     -21.273 -21.205  38.052  1.00  0.00     0.041 C 
ATOM     13  O   UNL     1     -22.071 -22.132  37.750  1.00  0.00    -0.550 OA
ATOM     14  O   UNL     1     -20.123 -21.011  37.295  1.00  0.00    -0.550 OA
ENDBRANCH  11  12
ENDBRANCH  10  11
ENDBRANCH   9  10
ENDBRANCH   8   9
ENDBRANCH   7   8
ENDBRANCH   6   7
ENDBRANCH   5   6
ENDBRANCH   4   5
ENDBRANCH   3   4
ENDBRANCH   2   3
ENDBRANCH   1   2
BRANCH   1  15
ATOM     15  C   UNL     1     -21.102 -27.382  37.984  1.00  0.00     0.000 C 
BRANCH  15  16
ATOM     16  C   UNL     1     -22.245 -28.140  38.682  1.00  0.00     0.000 C 
BRANCH  16  17
ATOM     17  C   UNL     1     -23.150 -28.872  37.677  1.00  0.00     0.000 C 
BRANCH  17  18
ATOM     18  C   UNL     1     -24.626 -28.881  38.102  1.00  0.00    -0.000 C 
BRANCH  18  19
ATOM     19  C   UNL     1     -24.973 -30.081  39.002  1.00  0.00    -0.000 C 
BRANCH  19  20
ATOM     20  C   UNL     1     -25.166 -29.680  40.475  1.00  0.00    -0.000 C 
BRANCH  20  21
ATOM     21  C   UNL     1     -25.439 -28.176  40.654  1.00  0.00    -0.000 C 
BRANCH  21  22
ATOM     22  C   UNL     1     -24.475 -27.513  41.664  1.00  0.00    -0.000 C 
BRANCH  22  23
ATOM     23  C   UNL     1     -24.996 -26.177  42.224  1.00  0.00    -0.000 C 
BRANCH  23  24
ATOM     24  C   UNL     1     -26.326 -25.710  41.606  1.00  0.00    -0.000 C 
BRANCH  24  25
ATOM     25  C   UNL     1     -27.405 -25.373  42.659  1.00  0.00    -0.003 C 
ATOM     26  C   UNL     1     -28.671 -26.215  42.501  1.00  0.00     0.004 C 
ENDBRANCH  24  25
ENDBRANCH  23  24
ENDBRANCH  22  23
ENDBRANCH  21  22
ENDBRANCH  20  21
ENDBRANCH  19  20
ENDBRANCH  18  19
ENDBRANCH  17  18
ENDBRANCH  16  17
ENDBRANCH  15  16
ENDBRANCH   1  15
TORSDOF 22
ENDMDL
MODEL 6
REMARK VINA RESULT:    -5.190      5.938      9.140
REMARK INTER + INTRA:         -14.030
REMARK INTER:                 -11.537
REMARK INTRA:                  -2.493
REMARK UNBOUND:                -2.166
REMARK SMILES CCCCCCCCCCCCCCCCCCCCCCCC(=O)[O-]
REMARK SMILES IDX 13 1 14 2 15 3 16 4 17 5 18 6 19 7 20 8 21 9 22 10 23 11
REMARK SMILES IDX 24 12 25 13 26 14 12 15 11 16 10 17 9 18 8 19 7 20 6 21 5 22
REMARK SMILES IDX 4 23 3 24 2 25 1 26
REMARK H PARENT
REMARK Flexibility Score: inf
ROOT
ATOM      1  C   UNL     1     -21.473 -27.300  38.503  1.00  0.00     0.000 C 
ENDROOT
BRANCH   1   2
ATOM      2  C   UNL     1     -21.588 -26.917  39.990  1.00  0.00     0.000 C 
BRANCH   2   3
ATOM      3  C   UNL     1     -20.949 -25.548  40.307  1.00  0.00     0.000 C 
BRANCH   3   4
ATOM      4  C   UNL     1     -21.392 -24.412  39.363  1.00  0.00     0.000 C 
BRANCH   4   5
ATOM      5  C   UNL     1     -21.336 -22.996  39.965  1.00  0.00     0.000 C 
BRANCH   5   6
ATOM      6  C   UNL     1     -22.395 -22.703  41.044  1.00  0.00     0.000 C 
BRANCH   6   7
ATOM      7  C   UNL     1     -23.757 -23.342  40.732  1.00  0.00     0.000 C 
BRANCH   7   8
ATOM      8  C   UNL     1     -24.826 -22.268  40.486  1.00  0.00     0.000 C 
BRANCH   8   9
ATOM      9  C   UNL     1     -24.382 -21.204  39.465  1.00  0.00     0.000 C 
BRANCH   9  10
ATOM     10  C   UNL     1     -24.428 -19.754  39.979  1.00  0.00     0.006 C 
BRANCH  10  11
ATOM     11  C   UNL     1     -24.392 -19.662  41.511  1.00  0.00     0.053 C 
BRANCH  11  12
ATOM     12  C   UNL     1     -23.054 -19.178  41.982  1.00  0.00     0.041 C 
ATOM     13  O   UNL     1     -22.069 -19.175  41.197  1.00  0.00    -0.550 OA
ATOM     14  O   UNL     1     -22.905 -18.696  43.278  1.00  0.00    -0.550 OA
ENDBRANCH  11  12
ENDBRANCH  10  11
ENDBRANCH   9  10
ENDBRANCH   8   9
ENDBRANCH   7   8
ENDBRANCH   6   7
ENDBRANCH   5   6
ENDBRANCH   4   5
ENDBRANCH   3   4
ENDBRANCH   2   3
ENDBRANCH   1   2
BRANCH   1  15
ATOM     15  C   UNL     1     -22.454 -28.424  38.118  1.00  0.00     0.000 C 
BRANCH  15  16
ATOM     16  C   UNL     1     -23.179 -29.039  39.329  1.00  0.00     0.000 C 
BRANCH  16  17
ATOM     17  C   UNL     1     -24.666 -29.300  39.039  1.00  0.00     0.000 C 
BRANCH  17  18
ATOM     18  C   UNL     1     -25.559 -29.096  40.272  1.00  0.00    -0.000 C 
BRANCH  18  19
ATOM     19  C   UNL     1     -25.655 -27.618  40.693  1.00  0.00    -0.000 C 
BRANCH  19  20
ATOM     20  C   UNL     1     -24.799 -27.298  41.931  1.00  0.00    -0.000 C 
BRANCH  20  21
ATOM     21  C   UNL     1     -25.299 -26.062  42.699  1.00  0.00    -0.000 C 
BRANCH  21  22
ATOM     22  C   UNL     1     -26.401 -25.294  41.936  1.00  0.00    -0.000 C 
BRANCH  22  23
ATOM     23  C   UNL     1     -27.683 -25.080  42.761  1.00  0.00    -0.000 C 
BRANCH  23  24
ATOM     24  C   UNL     1     -28.724 -26.204  42.613  1.00  0.00    -0.000 C 
BRANCH  24  25
ATOM     25  C   UNL     1     -30.181 -25.714  42.770  1.00  0.00    -0.003 C 
ATOM     26  C   UNL     1     -30.278 -24.205  42.995  1.00  0.00     0.004 C 
ENDBRANCH  24  25
ENDBRANCH  23  24
ENDBRANCH  22  23
ENDBRANCH  21  22
ENDBRANCH  20  21
ENDBRANCH  19  20
ENDBRANCH  18  19
ENDBRANCH  17  18
ENDBRANCH  16  17
ENDBRANCH  15  16
ENDBRANCH   1  15
TORSDOF 22
ENDMDL
MODEL 7
REMARK VINA RESULT:    -5.175      6.463     10.855
REMARK INTER + INTRA:         -13.998
REMARK INTER:                 -11.308
REMARK INTRA:                  -2.689
REMARK UNBOUND:                -2.166
REMARK SMILES CCCCCCCCCCCCCCCCCCCCCCCC(=O)[O-]
REMARK SMILES IDX 13 1 14 2 15 3 16 4 17 5 18 6 19 7 20 8 21 9 22 10 23 11
REMARK SMILES IDX 24 12 25 13 26 14 12 15 11 16 10 17 9 18 8 19 7 20 6 21 5 22
REMARK SMILES IDX 4 23 3 24 2 25 1 26
REMARK H PARENT
REMARK Flexibility Score: inf
ROOT
ATOM      1  C   UNL     1     -22.436 -28.135  39.082  1.00  0.00     0.000 C 
ENDROOT
BRANCH   1   2
ATOM      2  C   UNL     1     -23.295 -29.146  39.865  1.00  0.00     0.000 C 
BRANCH   2   3
ATOM      3  C   UNL     1     -24.805 -28.995  39.581  1.00  0.00     0.000 C 
BRANCH   3   4
ATOM      4  C   UNL     1     -25.558 -28.136  40.615  1.00  0.00     0.000 C 
BRANCH   4   5
ATOM      5  C   UNL     1     -24.731 -27.707  41.842  1.00  0.00     0.000 C 
BRANCH   5   6
ATOM      6  C   UNL     1     -25.018 -26.285  42.358  1.00  0.00     0.000 C 
BRANCH   6   7
ATOM      7  C   UNL     1     -25.948 -25.490  41.428  1.00  0.00     0.000 C 
BRANCH   7   8
ATOM      8  C   UNL     1     -27.131 -24.898  42.208  1.00  0.00     0.000 C 
BRANCH   8   9
ATOM      9  C   UNL     1     -27.960 -25.968  42.942  1.00  0.00     0.000 C 
BRANCH   9  10
ATOM     10  C   UNL     1     -29.478 -25.719  42.950  1.00  0.00     0.006 C 
BRANCH  10  11
ATOM     11  C   UNL     1     -30.174 -26.236  41.683  1.00  0.00     0.053 C 
BRANCH  11  12
ATOM     12  C   UNL     1     -31.021 -25.162  41.069  1.00  0.00     0.041 C 
ATOM     13  O   UNL     1     -31.720 -25.411  40.050  1.00  0.00    -0.550 OA
ATOM     14  O   UNL     1     -31.066 -23.897  41.643  1.00  0.00    -0.550 OA
ENDBRANCH  11  12
ENDBRANCH  10  11
ENDBRANCH   9  10
ENDBRANCH   8   9
ENDBRANCH   7   8
ENDBRANCH   6   7
ENDBRANCH   5   6
ENDBRANCH   4   5
ENDBRANCH   3   4
ENDBRANCH   2   3
ENDBRANCH   1   2
BRANCH   1  15
ATOM     15  C   UNL     1     -21.533 -27.302  40.012  1.00  0.00     0.000 C 
BRANCH  15  16
ATOM     16  C   UNL     1     -20.683 -26.262  39.261  1.00  0.00     0.000 C 
BRANCH  16  17
ATOM     17  C   UNL     1     -20.720 -24.885  39.945  1.00  0.00     0.000 C 
BRANCH  17  18
ATOM     18  C   UNL     1     -21.894 -24.738  40.924  1.00  0.00    -0.000 C 
BRANCH  18  19
ATOM     19  C   UNL     1     -22.260 -23.266  41.190  1.00  0.00    -0.000 C 
BRANCH  19  20
ATOM     20  C   UNL     1     -23.656 -22.898  40.660  1.00  0.00    -0.000 C 
BRANCH  20  21
ATOM     21  C   UNL     1     -23.655 -21.611  39.816  1.00  0.00    -0.000 C 
BRANCH  21  22
ATOM     22  C   UNL     1     -25.074 -21.031  39.617  1.00  0.00    -0.000 C 
BRANCH  22  23
ATOM     23  C   UNL     1     -26.158 -21.769  40.423  1.00  0.00    -0.000 C 
BRANCH  23  24
ATOM     24  C   UNL     1     -27.111 -20.840  41.197  1.00  0.00    -0.000 C 
BRANCH  24  25
ATOM     25  C   UNL     1     -28.286 -21.588  41.865  1.00  0.00    -0.003 C 
ATOM     26  C   UNL     1     -29.467 -20.672  42.183  1.00  0.00     0.004 C 
ENDBRANCH  24  25
ENDBRANCH  23  24
ENDBRANCH  22  23
ENDBRANCH  21  22
ENDBRANCH  20  21
ENDBRANCH  19  20
ENDBRANCH  18  19
ENDBRANCH  17  18
ENDBRANCH  16  17
ENDBRANCH  15  16
ENDBRANCH   1  15
TORSDOF 22
ENDMDL
MODEL 8
REMARK VINA RESULT:    -5.166      6.463      9.542
REMARK INTER + INTRA:         -13.977
REMARK INTER:                 -11.184
REMARK INTRA:                  -2.793
REMARK UNBOUND:                -2.166
REMARK SMILES CCCCCCCCCCCCCCCCCCCCCCCC(=O)[O-]
REMARK SMILES IDX 13 1 14 2 15 3 16 4 17 5 18 6 19 7 20 8 21 9 22 10 23 11
REMARK SMILES IDX 24 12 25 13 26 14 12 15 11 16 10 17 9 18 8 19 7 20 6 21 5 22
REMARK SMILES IDX 4 23 3 24 2 25 1 26
REMARK H PARENT
REMARK Flexibility Score: inf
ROOT
ATOM      1  C   UNL     1     -21.254 -27.185  38.621  1.00  0.00     0.000 C 
ENDROOT
BRANCH   1   2
ATOM      2  C   UNL     1     -21.117 -26.374  39.923  1.00  0.00     0.000 C 
BRANCH   2   3
ATOM      3  C   UNL     1     -20.156 -25.173  39.782  1.00  0.00     0.000 C 
BRANCH   3   4
ATOM      4  C   UNL     1     -20.844 -23.799  39.904  1.00  0.00     0.000 C 
BRANCH   4   5
ATOM      5  C   UNL     1     -22.207 -23.806  40.620  1.00  0.00     0.000 C 
BRANCH   5   6
ATOM      6  C   UNL     1     -22.479 -22.585  41.517  1.00  0.00     0.000 C 
BRANCH   6   7
ATOM      7  C   UNL     1     -22.472 -21.260  40.740  1.00  0.00     0.000 C 
BRANCH   7   8
ATOM      8  C   UNL     1     -23.889 -20.679  40.628  1.00  0.00     0.000 C 
BRANCH   8   9
ATOM      9  C   UNL     1     -24.741 -21.382  39.555  1.00  0.00     0.000 C 
BRANCH   9  10
ATOM     10  C   UNL     1     -26.262 -21.292  39.772  1.00  0.00     0.006 C 
BRANCH  10  11
ATOM     11  C   UNL     1     -26.653 -21.288  41.257  1.00  0.00     0.053 C 
BRANCH  11  12
ATOM     12  C   UNL     1     -27.486 -20.085  41.582  1.00  0.00     0.041 C 
ATOM     13  O   UNL     1     -27.276 -19.437  42.642  1.00  0.00    -0.550 OA
ATOM     14  O   UNL     1     -28.471 -19.660  40.698  1.00  0.00    -0.550 OA
ENDBRANCH  11  12
ENDBRANCH  10  11
ENDBRANCH   9  10
ENDBRANCH   8   9
ENDBRANCH   7   8
ENDBRANCH   6   7
ENDBRANCH   5   6
ENDBRANCH   4   5
ENDBRANCH   3   4
ENDBRANCH   2   3
ENDBRANCH   1   2
BRANCH   1  15
ATOM     15  C   UNL     1     -22.255 -28.347  38.767  1.00  0.00     0.000 C 
BRANCH  15  16
ATOM     16  C   UNL     1     -23.191 -28.499  37.553  1.00  0.00     0.000 C 
BRANCH  16  17
ATOM     17  C   UNL     1     -24.461 -29.292  37.901  1.00  0.00     0.000 C 
BRANCH  17  18
ATOM     18  C   UNL     1     -24.536 -29.675  39.387  1.00  0.00    -0.000 C 
BRANCH  18  19
ATOM     19  C   UNL     1     -25.860 -29.241  40.041  1.00  0.00    -0.000 C 
BRANCH  19  20
ATOM     20  C   UNL     1     -25.813 -27.799  40.574  1.00  0.00    -0.000 C 
BRANCH  20  21
ATOM     21  C   UNL     1     -24.659 -27.565  41.564  1.00  0.00    -0.000 C 
BRANCH  21  22
ATOM     22  C   UNL     1     -24.804 -26.238  42.343  1.00  0.00    -0.000 C 
BRANCH  22  23
ATOM     23  C   UNL     1     -25.387 -25.090  41.497  1.00  0.00    -0.000 C 
BRANCH  23  24
ATOM     24  C   UNL     1     -26.790 -24.633  41.936  1.00  0.00    -0.000 C 
BRANCH  24  25
ATOM     25  C   UNL     1     -27.387 -25.494  43.071  1.00  0.00    -0.003 C 
ATOM     26  C   UNL     1     -28.674 -26.209  42.658  1.00  0.00     0.004 C 
ENDBRANCH  24  25
ENDBRANCH  23  24
ENDBRANCH  22  23
ENDBRANCH  21  22
ENDBRANCH  20  21
ENDBRANCH  19  20
ENDBRANCH  18  19
ENDBRANCH  17  18
ENDBRANCH  16  17
ENDBRANCH  15  16
ENDBRANCH   1  15
TORSDOF 22
ENDMDL
MODEL 9
REMARK VINA RESULT:    -5.141      4.958      7.901
REMARK INTER + INTRA:         -13.919
REMARK INTER:                 -11.144
REMARK INTRA:                  -2.775
REMARK UNBOUND:                -2.166
REMARK SMILES CCCCCCCCCCCCCCCCCCCCCCCC(=O)[O-]
REMARK SMILES IDX 13 1 14 2 15 3 16 4 17 5 18 6 19 7 20 8 21 9 22 10 23 11
REMARK SMILES IDX 24 12 25 13 26 14 12 15 11 16 10 17 9 18 8 19 7 20 6 21 5 22
REMARK SMILES IDX 4 23 3 24 2 25 1 26
REMARK H PARENT
REMARK Flexibility Score: inf
ROOT
ATOM      1  C   UNL     1     -25.766 -26.041  42.552  1.00  0.00     0.000 C 
ENDROOT
BRANCH   1   2
ATOM      2  C   UNL     1     -24.316 -26.036  42.032  1.00  0.00     0.000 C 
BRANCH   2   3
ATOM      3  C   UNL     1     -23.938 -24.716  41.327  1.00  0.00     0.000 C 
BRANCH   3   4
ATOM      4  C   UNL     1     -22.438 -24.369  41.401  1.00  0.00     0.000 C 
BRANCH   4   5
ATOM      5  C   UNL     1     -21.794 -23.939  40.070  1.00  0.00     0.000 C 
BRANCH   5   6
ATOM      6  C   UNL     1     -20.530 -24.723  39.673  1.00  0.00     0.000 C 
BRANCH   6   7
ATOM      7  C   UNL     1     -20.708 -26.245  39.795  1.00  0.00     0.000 C 
BRANCH   7   8
ATOM      8  C   UNL     1     -21.035 -26.872  38.432  1.00  0.00     0.000 C 
BRANCH   8   9
ATOM      9  C   UNL     1     -22.031 -28.042  38.534  1.00  0.00     0.000 C 
BRANCH   9  10
ATOM     10  C   UNL     1     -22.675 -28.226  39.920  1.00  0.00     0.006 C 
BRANCH  10  11
ATOM     11  C   UNL     1     -23.460 -29.539  40.044  1.00  0.00     0.053 C 
BRANCH  11  12
ATOM     12  C   UNL     1     -24.833 -29.393  39.460  1.00  0.00     0.041 C 
ATOM     13  O   UNL     1     -25.738 -28.804  40.110  1.00  0.00    -0.550 OA
ATOM     14  O   UNL     1     -25.101 -29.875  38.184  1.00  0.00    -0.550 OA
ENDBRANCH  11  12
ENDBRANCH  10  11
ENDBRANCH   9  10
ENDBRANCH   8   9
ENDBRANCH   7   8
ENDBRANCH   6   7
ENDBRANCH   5   6
ENDBRANCH   4   5
ENDBRANCH   3   4
ENDBRANCH   2   3
ENDBRANCH   1   2
BRANCH   1  15
ATOM     15  C   UNL     1     -26.637 -24.986  41.844  1.00  0.00     0.000 C 
BRANCH  15  16
ATOM     16  C   UNL     1     -28.036 -24.836  42.470  1.00  0.00     0.000 C 
BRANCH  16  17
ATOM     17  C   UNL     1     -28.251 -23.437  43.070  1.00  0.00     0.000 C 
BRANCH  17  18
ATOM     18  C   UNL     1     -29.450 -22.701  42.452  1.00  0.00    -0.000 C 
BRANCH  18  19
ATOM     19  C   UNL     1     -29.083 -21.293  41.950  1.00  0.00    -0.000 C 
BRANCH  19  20
ATOM     20  C   UNL     1     -28.106 -21.323  40.763  1.00  0.00    -0.000 C 
BRANCH  20  21
ATOM     21  C   UNL     1     -26.679 -20.899  41.152  1.00  0.00    -0.000 C 
BRANCH  21  22
ATOM     22  C   UNL     1     -25.616 -21.396  40.146  1.00  0.00    -0.000 C 
BRANCH  22  23
ATOM     23  C   UNL     1     -24.600 -20.312  39.741  1.00  0.00    -0.000 C 
BRANCH  23  24
ATOM     24  C   UNL     1     -23.133 -20.692  40.008  1.00  0.00    -0.000 C 
BRANCH  24  25
ATOM     25  C   UNL     1     -22.739 -20.600  41.500  1.00  0.00    -0.003 C 
ATOM     26  C   UNL     1     -23.272 -19.338  42.177  1.00  0.00     0.004 C 
ENDBRANCH  24  25
ENDBRANCH  23  24
ENDBRANCH  22  23
ENDBRANCH  21  22
ENDBRANCH  20  21
ENDBRANCH  19  20
ENDBRANCH  18  19
ENDBRANCH  17  18
ENDBRANCH  16  17
ENDBRANCH  15  16
ENDBRANCH   1  15
TORSDOF 22
ENDMDL
