MODEL 1
REMARK VINA RESULT:    -8.268      0.000      0.000
REMARK INTER + INTRA:          -9.985
REMARK INTER:                  -9.718
REMARK INTRA:                  -0.266
REMARK UNBOUND:                -0.266
REMARK SMILES O=c1cc(-c2ccc(O)c(O)c2)oc2cc(O)cc(O)c12
REMARK SMILES IDX 4 1 3 2 2 3 1 4 21 5 19 6 18 7 16 8 15 9 14 10 13 11 5 12
REMARK SMILES IDX 6 13 7 14 8 15 12 16 10 17 9 18 11 20 20 22 17 24
REMARK H PARENT 9 19 11 21 20 23 17 25
REMARK Flexibility Score: inf
ROOT
ATOM      1  C   UNL     1      16.631  22.402  41.146  1.00  0.00     0.138 A 
ATOM      2  C   UNL     1      16.664  21.009  40.995  1.00  0.00     0.100 A 
ATOM      3  C   UNL     1      17.809  20.397  40.483  1.00  0.00     0.197 A 
ATOM      4  O   UNL     1      17.788  19.151  40.308  1.00  0.00    -0.289 OA
ATOM      5  C   UNL     1      18.940  21.182  40.154  1.00  0.00     0.107 A 
ATOM      6  C   UNL     1      20.175  20.665  39.657  1.00  0.00     0.134 A 
ATOM      7  C   UNL     1      21.189  21.551  39.273  1.00  0.00     0.093 A 
ATOM      8  C   UNL     1      21.037  22.931  39.423  1.00  0.00     0.123 A 
ATOM      9  C   UNL     1      19.856  23.443  39.954  1.00  0.00     0.094 A 
ATOM     10  C   UNL     1      18.811  22.588  40.314  1.00  0.00     0.146 A 
ATOM     11  O   UNL     1      17.695  23.120  40.800  1.00  0.00    -0.456 OA
ENDROOT
BRANCH   1  12
ATOM     12  C   UNL     1      15.441  23.105  41.688  1.00  0.00     0.021 A 
ATOM     13  C   UNL     1      14.720  24.039  40.919  1.00  0.00     0.016 A 
ATOM     14  C   UNL     1      13.609  24.694  41.460  1.00  0.00     0.051 A 
ATOM     15  C   UNL     1      13.205  24.435  42.775  1.00  0.00     0.157 A 
ATOM     16  C   UNL     1      15.037  22.862  43.013  1.00  0.00     0.062 A 
ATOM     17  C   UNL     1      13.924  23.515  43.555  1.00  0.00     0.158 A 
BRANCH  15  18
ATOM     18  O   UNL     1      12.096  25.089  43.309  1.00  0.00    -0.504 OA
ATOM     19  H   UNL     1      12.164  25.651  44.149  1.00  0.00     0.293 HD
ENDBRANCH  15  18
BRANCH  17  20
ATOM     20  O   UNL     1      13.551  23.238  44.870  1.00  0.00    -0.504 OA
ATOM     21  H   UNL     1      12.676  23.565  45.261  1.00  0.00     0.293 HD
ENDBRANCH  17  20
ENDBRANCH   1  12
BRANCH   6  22
ATOM     22  O   UNL     1      20.462  19.302  39.541  1.00  0.00    -0.507 OA
ATOM     23  H   UNL     1      21.125  18.798  40.110  1.00  0.00     0.293 HD
ENDBRANCH   6  22
BRANCH   8  24
ATOM     24  O   UNL     1      22.058  23.803  39.053  1.00  0.00    -0.508 OA
ATOM     25  H   UNL     1      22.520  24.397  39.732  1.00  0.00     0.293 HD
ENDBRANCH   8  24
TORSDOF 5
ENDMDL
MODEL 2
REMARK VINA RESULT:    -8.099      1.525      7.130
REMARK INTER + INTRA:          -9.786
REMARK INTER:                  -9.472
REMARK INTRA:                  -0.314
REMARK UNBOUND:                -0.266
REMARK SMILES O=c1cc(-c2ccc(O)c(O)c2)oc2cc(O)cc(O)c12
REMARK SMILES IDX 4 1 3 2 2 3 1 4 21 5 19 6 18 7 16 8 15 9 14 10 13 11 5 12
REMARK SMILES IDX 6 13 7 14 8 15 12 16 10 17 9 18 11 20 20 22 17 24
REMARK H PARENT 9 19 11 21 20 23 17 25
REMARK Flexibility Score: inf
ROOT
ATOM      1  C   UNL     1      17.257  22.700  40.388  1.00  0.00     0.138 A 
ATOM      2  C   UNL     1      16.838  23.716  39.518  1.00  0.00     0.100 A 
ATOM      3  C   UNL     1      15.705  24.469  39.830  1.00  0.00     0.197 A 
ATOM      4  O   UNL     1      15.322  25.335  39.002  1.00  0.00    -0.289 OA
ATOM      5  C   UNL     1      15.011  24.227  41.039  1.00  0.00     0.107 A 
ATOM      6  C   UNL     1      13.863  24.954  41.480  1.00  0.00     0.134 A 
ATOM      7  C   UNL     1      13.202  24.557  42.648  1.00  0.00     0.093 A 
ATOM      8  C   UNL     1      13.678  23.498  43.423  1.00  0.00     0.123 A 
ATOM      9  C   UNL     1      14.825  22.814  43.029  1.00  0.00     0.094 A 
ATOM     10  C   UNL     1      15.488  23.163  41.850  1.00  0.00     0.146 A 
ATOM     11  O   UNL     1      16.569  22.472  41.502  1.00  0.00    -0.456 OA
ENDROOT
BRANCH   1  12
ATOM     12  C   UNL     1      18.456  21.871  40.108  1.00  0.00     0.021 A 
ATOM     13  C   UNL     1      19.415  22.256  39.150  1.00  0.00     0.016 A 
ATOM     14  C   UNL     1      20.530  21.449  38.901  1.00  0.00     0.051 A 
ATOM     15  C   UNL     1      20.701  20.245  39.593  1.00  0.00     0.157 A 
ATOM     16  C   UNL     1      18.629  20.652  40.788  1.00  0.00     0.062 A 
ATOM     17  C   UNL     1      19.745  19.844  40.541  1.00  0.00     0.158 A 
BRANCH  15  18
ATOM     18  O   UNL     1      21.815  19.445  39.342  1.00  0.00    -0.504 OA
ATOM     19  H   UNL     1      21.728  18.535  38.905  1.00  0.00     0.293 HD
ENDBRANCH  15  18
BRANCH  17  20
ATOM     20  O   UNL     1      19.885  18.648  41.244  1.00  0.00    -0.504 OA
ATOM     21  H   UNL     1      19.088  18.142  41.609  1.00  0.00     0.293 HD
ENDBRANCH  17  20
ENDBRANCH   1  12
BRANCH   6  22
ATOM     22  O   UNL     1      13.349  26.077  40.825  1.00  0.00    -0.507 OA
ATOM     23  H   UNL     1      13.901  26.830  40.445  1.00  0.00     0.293 HD
ENDBRANCH   6  22
BRANCH   8  24
ATOM     24  O   UNL     1      13.022  23.121  44.593  1.00  0.00    -0.508 OA
ATOM     25  H   UNL     1      12.027  23.269  44.714  1.00  0.00     0.293 HD
ENDBRANCH   8  24
TORSDOF 5
ENDMDL
MODEL 3
REMARK VINA RESULT:    -7.733      1.342      2.543
REMARK INTER + INTRA:          -9.356
REMARK INTER:                  -9.043
REMARK INTRA:                  -0.313
REMARK UNBOUND:                -0.266
REMARK SMILES O=c1cc(-c2ccc(O)c(O)c2)oc2cc(O)cc(O)c12
REMARK SMILES IDX 4 1 3 2 2 3 1 4 21 5 19 6 18 7 16 8 15 9 14 10 13 11 5 12
REMARK SMILES IDX 6 13 7 14 8 15 12 16 10 17 9 18 11 20 20 22 17 24
REMARK H PARENT 9 19 11 21 20 23 17 25
REMARK Flexibility Score: inf
ROOT
ATOM      1  C   UNL     1      16.467  23.200  40.773  1.00  0.00     0.138 A 
ATOM      2  C   UNL     1      16.893  24.084  39.773  1.00  0.00     0.100 A 
ATOM      3  C   UNL     1      18.032  23.784  39.024  1.00  0.00     0.197 A 
ATOM      4  O   UNL     1      18.420  24.624  38.173  1.00  0.00    -0.289 OA
ATOM      5  C   UNL     1      18.726  22.572  39.255  1.00  0.00     0.107 A 
ATOM      6  C   UNL     1      19.880  22.144  38.530  1.00  0.00     0.134 A 
ATOM      7  C   UNL     1      20.540  20.971  38.917  1.00  0.00     0.093 A 
ATOM      8  C   UNL     1      20.057  20.181  39.961  1.00  0.00     0.123 A 
ATOM      9  C   UNL     1      18.904  20.563  40.642  1.00  0.00     0.094 A 
ATOM     10  C   UNL     1      18.242  21.746  40.304  1.00  0.00     0.146 A 
ATOM     11  O   UNL     1      17.155  22.083  40.991  1.00  0.00    -0.456 OA
ENDROOT
BRANCH   1  12
ATOM     12  C   UNL     1      15.262  23.467  41.597  1.00  0.00     0.021 A 
ATOM     13  C   UNL     1      14.279  24.392  41.194  1.00  0.00     0.016 A 
ATOM     14  C   UNL     1      13.159  24.630  41.995  1.00  0.00     0.051 A 
ATOM     15  C   UNL     1      13.004  23.957  43.213  1.00  0.00     0.157 A 
ATOM     16  C   UNL     1      15.105  22.806  42.829  1.00  0.00     0.062 A 
ATOM     17  C   UNL     1      13.983  23.042  43.632  1.00  0.00     0.158 A 
BRANCH  15  18
ATOM     18  O   UNL     1      11.885  24.197  44.009  1.00  0.00    -0.504 OA
ATOM     19  H   UNL     1      11.063  23.607  43.961  1.00  0.00     0.293 HD
ENDBRANCH  15  18
BRANCH  17  20
ATOM     20  O   UNL     1      13.861  22.359  44.842  1.00  0.00    -0.504 OA
ATOM     21  H   UNL     1      13.189  21.614  44.974  1.00  0.00     0.293 HD
ENDBRANCH  17  20
ENDBRANCH   1  12
BRANCH   6  22
ATOM     22  O   UNL     1      20.401  22.815  37.420  1.00  0.00    -0.507 OA
ATOM     23  H   UNL     1      20.358  22.484  36.469  1.00  0.00     0.293 HD
ENDBRANCH   6  22
BRANCH   8  24
ATOM     24  O   UNL     1      20.712  19.006  40.327  1.00  0.00    -0.508 OA
ATOM     25  H   UNL     1      21.408  18.578  39.727  1.00  0.00     0.293 HD
ENDBRANCH   8  24
TORSDOF 5
ENDMDL
MODEL 4
REMARK VINA RESULT:    -7.649      1.584      7.466
REMARK INTER + INTRA:          -9.257
REMARK INTER:                  -8.971
REMARK INTRA:                  -0.286
REMARK UNBOUND:                -0.266
REMARK SMILES O=c1cc(-c2ccc(O)c(O)c2)oc2cc(O)cc(O)c12
REMARK SMILES IDX 4 1 3 2 2 3 1 4 21 5 19 6 18 7 16 8 15 9 14 10 13 11 5 12
REMARK SMILES IDX 6 13 7 14 8 15 12 16 10 17 9 18 11 20 20 22 17 24
REMARK H PARENT 9 19 11 21 20 23 17 25
REMARK Flexibility Score: inf
ROOT
ATOM      1  C   UNL     1      16.020  23.136  41.035  1.00  0.00     0.138 A 
ATOM      2  C   UNL     1      15.359  24.247  40.496  1.00  0.00     0.100 A 
ATOM      3  C   UNL     1      14.290  24.818  41.188  1.00  0.00     0.197 A 
ATOM      4  O   UNL     1      13.682  25.780  40.651  1.00  0.00    -0.289 OA
ATOM      5  C   UNL     1      13.906  24.295  42.445  1.00  0.00     0.107 A 
ATOM      6  C   UNL     1      12.853  24.816  43.258  1.00  0.00     0.134 A 
ATOM      7  C   UNL     1      12.500  24.151  44.439  1.00  0.00     0.093 A 
ATOM      8  C   UNL     1      13.197  23.020  44.867  1.00  0.00     0.123 A 
ATOM      9  C   UNL     1      14.258  22.532  44.107  1.00  0.00     0.094 A 
ATOM     10  C   UNL     1      14.613  23.152  42.906  1.00  0.00     0.146 A 
ATOM     11  O   UNL     1      15.620  22.644  42.203  1.00  0.00    -0.456 OA
ENDROOT
BRANCH   1  12
ATOM     12  C   UNL     1      17.165  22.490  40.345  1.00  0.00     0.021 A 
ATOM     13  C   UNL     1      17.459  21.124  40.519  1.00  0.00     0.016 A 
ATOM     14  C   UNL     1      18.550  20.545  39.863  1.00  0.00     0.051 A 
ATOM     15  C   UNL     1      19.367  21.319  39.031  1.00  0.00     0.157 A 
ATOM     16  C   UNL     1      18.000  23.263  39.518  1.00  0.00     0.062 A 
ATOM     17  C   UNL     1      19.091  22.685  38.859  1.00  0.00     0.158 A 
BRANCH  15  18
ATOM     18  O   UNL     1      20.453  20.737  38.377  1.00  0.00    -0.504 OA
ATOM     19  H   UNL     1      20.824  19.839  38.661  1.00  0.00     0.293 HD
ENDBRANCH  15  18
BRANCH  17  20
ATOM     20  O   UNL     1      19.889  23.485  38.040  1.00  0.00    -0.504 OA
ATOM     21  H   UNL     1      19.788  24.491  38.007  1.00  0.00     0.293 HD
ENDBRANCH  17  20
ENDBRANCH   1  12
BRANCH   6  22
ATOM     22  O   UNL     1      12.144  25.985  42.966  1.00  0.00    -0.507 OA
ATOM     23  H   UNL     1      12.352  26.898  43.337  1.00  0.00     0.293 HD
ENDBRANCH   6  22
BRANCH   8  24
ATOM     24  O   UNL     1      12.848  22.375  46.052  1.00  0.00    -0.508 OA
ATOM     25  H   UNL     1      12.148  22.757  46.677  1.00  0.00     0.293 HD
ENDBRANCH   8  24
TORSDOF 5
ENDMDL
MODEL 5
REMARK VINA RESULT:    -7.570      2.393      4.529
REMARK INTER + INTRA:          -9.165
REMARK INTER:                  -8.861
REMARK INTRA:                  -0.303
REMARK UNBOUND:                -0.266
REMARK SMILES O=c1cc(-c2ccc(O)c(O)c2)oc2cc(O)cc(O)c12
REMARK SMILES IDX 4 1 3 2 2 3 1 4 21 5 19 6 18 7 16 8 15 9 14 10 13 11 5 12
REMARK SMILES IDX 6 13 7 14 8 15 12 16 10 17 9 18 11 20 20 22 17 24
REMARK H PARENT 9 19 11 21 20 23 17 25
REMARK Flexibility Score: inf
ROOT
ATOM      1  C   UNL     1      13.975  23.753  42.743  1.00  0.00     0.138 A 
ATOM      2  C   UNL     1      13.686  24.834  41.899  1.00  0.00     0.100 A 
ATOM      3  C   UNL     1      14.486  25.070  40.780  1.00  0.00     0.197 A 
ATOM      4  O   UNL     1      14.234  26.081  40.074  1.00  0.00    -0.289 OA
ATOM      5  C   UNL     1      15.559  24.196  40.485  1.00  0.00     0.107 A 
ATOM      6  C   UNL     1      16.421  24.317  39.353  1.00  0.00     0.134 A 
ATOM      7  C   UNL     1      17.512  23.449  39.221  1.00  0.00     0.093 A 
ATOM      8  C   UNL     1      17.738  22.428  40.146  1.00  0.00     0.123 A 
ATOM      9  C   UNL     1      16.875  22.270  41.227  1.00  0.00     0.094 A 
ATOM     10  C   UNL     1      15.797  23.141  41.406  1.00  0.00     0.146 A 
ATOM     11  O   UNL     1      15.008  22.965  42.461  1.00  0.00    -0.456 OA
ENDROOT
BRANCH   1  12
ATOM     12  C   UNL     1      13.156  23.452  43.944  1.00  0.00     0.021 A 
ATOM     13  C   UNL     1      12.573  24.475  44.717  1.00  0.00     0.016 A 
ATOM     14  C   UNL     1      11.815  24.163  45.849  1.00  0.00     0.051 A 
ATOM     15  C   UNL     1      11.634  22.829  46.233  1.00  0.00     0.157 A 
ATOM     16  C   UNL     1      12.981  22.116  44.346  1.00  0.00     0.062 A 
ATOM     17  C   UNL     1      12.221  21.801  45.479  1.00  0.00     0.158 A 
BRANCH  15  18
ATOM     18  O   UNL     1      10.876  22.522  47.363  1.00  0.00    -0.504 OA
ATOM     19  H   UNL     1      10.286  23.214  47.811  1.00  0.00     0.293 HD
ENDBRANCH  15  18
BRANCH  17  20
ATOM     20  O   UNL     1      12.063  20.463  45.838  1.00  0.00    -0.504 OA
ATOM     21  H   UNL     1      11.216  19.947  45.634  1.00  0.00     0.293 HD
ENDBRANCH  17  20
ENDBRANCH   1  12
BRANCH   6  22
ATOM     22  O   UNL     1      16.240  25.250  38.328  1.00  0.00    -0.507 OA
ATOM     23  H   UNL     1      16.829  26.051  38.161  1.00  0.00     0.293 HD
ENDBRANCH   6  22
BRANCH   8  24
ATOM     24  O   UNL     1      18.817  21.559  39.996  1.00  0.00    -0.508 OA
ATOM     25  H   UNL     1      19.469  21.387  40.753  1.00  0.00     0.293 HD
ENDBRANCH   8  24
TORSDOF 5
ENDMDL
MODEL 6
REMARK VINA RESULT:    -7.163      1.068      1.739
REMARK INTER + INTRA:          -8.686
REMARK INTER:                  -8.391
REMARK INTRA:                  -0.296
REMARK UNBOUND:                -0.266
REMARK SMILES O=c1cc(-c2ccc(O)c(O)c2)oc2cc(O)cc(O)c12
REMARK SMILES IDX 4 1 3 2 2 3 1 4 21 5 19 6 18 7 16 8 15 9 14 10 13 11 5 12
REMARK SMILES IDX 6 13 7 14 8 15 12 16 10 17 9 18 11 20 20 22 17 24
REMARK H PARENT 9 19 11 21 20 23 17 25
REMARK Flexibility Score: inf
ROOT
ATOM      1  C   UNL     1      16.878  22.295  41.038  1.00  0.00     0.138 A 
ATOM      2  C   UNL     1      16.831  20.902  41.189  1.00  0.00     0.100 A 
ATOM      3  C   UNL     1      17.927  20.128  40.804  1.00  0.00     0.197 A 
ATOM      4  O   UNL     1      17.832  18.877  40.900  1.00  0.00    -0.289 OA
ATOM      5  C   UNL     1      19.090  20.757  40.299  1.00  0.00     0.107 A 
ATOM      6  C   UNL     1      20.281  20.073  39.907  1.00  0.00     0.134 A 
ATOM      7  C   UNL     1      21.331  20.795  39.327  1.00  0.00     0.093 A 
ATOM      8  C   UNL     1      21.259  22.182  39.180  1.00  0.00     0.123 A 
ATOM      9  C   UNL     1      20.123  22.865  39.605  1.00  0.00     0.094 A 
ATOM     10  C   UNL     1      19.043  22.169  40.155  1.00  0.00     0.146 A 
ATOM     11  O   UNL     1      17.971  22.858  40.531  1.00  0.00    -0.456 OA
ENDROOT
BRANCH   1  12
ATOM     12  C   UNL     1      15.744  23.167  41.433  1.00  0.00     0.021 A 
ATOM     13  C   UNL     1      15.017  22.944  42.619  1.00  0.00     0.016 A 
ATOM     14  C   UNL     1      13.947  23.776  42.961  1.00  0.00     0.051 A 
ATOM     15  C   UNL     1      13.580  24.837  42.124  1.00  0.00     0.157 A 
ATOM     16  C   UNL     1      15.359  24.227  40.592  1.00  0.00     0.062 A 
ATOM     17  C   UNL     1      14.290  25.062  40.933  1.00  0.00     0.158 A 
BRANCH  15  18
ATOM     18  O   UNL     1      12.513  25.666  42.470  1.00  0.00    -0.504 OA
ATOM     19  H   UNL     1      11.579  25.507  42.111  1.00  0.00     0.293 HD
ENDBRANCH  15  18
BRANCH  17  20
ATOM     20  O   UNL     1      13.946  26.107  40.076  1.00  0.00    -0.504 OA
ATOM     21  H   UNL     1      14.508  26.349  39.269  1.00  0.00     0.293 HD
ENDBRANCH  17  20
ENDBRANCH   1  12
BRANCH   6  22
ATOM     22  O   UNL     1      20.490  18.702  40.082  1.00  0.00    -0.507 OA
ATOM     23  H   UNL     1      20.735  18.054  39.350  1.00  0.00     0.293 HD
ENDBRANCH   6  22
BRANCH   8  24
ATOM     24  O   UNL     1      22.318  22.893  38.618  1.00  0.00    -0.508 OA
ATOM     25  H   UNL     1      22.879  23.532  39.168  1.00  0.00     0.293 HD
ENDBRANCH   8  24
TORSDOF 5
ENDMDL
MODEL 7
REMARK VINA RESULT:    -7.052      1.791      3.304
REMARK INTER + INTRA:          -8.556
REMARK INTER:                  -8.238
REMARK INTRA:                  -0.317
REMARK UNBOUND:                -0.266
REMARK SMILES O=c1cc(-c2ccc(O)c(O)c2)oc2cc(O)cc(O)c12
REMARK SMILES IDX 4 1 3 2 2 3 1 4 21 5 19 6 18 7 16 8 15 9 14 10 13 11 5 12
REMARK SMILES IDX 6 13 7 14 8 15 12 16 10 17 9 18 11 20 20 22 17 24
REMARK H PARENT 9 19 11 21 20 23 17 25
REMARK Flexibility Score: inf
ROOT
ATOM      1  C   UNL     1      14.956  23.692  41.708  1.00  0.00     0.138 A 
ATOM      2  C   UNL     1      15.022  24.642  40.680  1.00  0.00     0.100 A 
ATOM      3  C   UNL     1      16.055  24.575  39.744  1.00  0.00     0.197 A 
ATOM      4  O   UNL     1      16.119  25.475  38.867  1.00  0.00    -0.289 OA
ATOM      5  C   UNL     1      17.006  23.529  39.818  1.00  0.00     0.107 A 
ATOM      6  C   UNL     1      18.083  23.340  38.899  1.00  0.00     0.134 A 
ATOM      7  C   UNL     1      19.019  22.326  39.133  1.00  0.00     0.093 A 
ATOM      8  C   UNL     1      18.886  21.457  40.218  1.00  0.00     0.123 A 
ATOM      9  C   UNL     1      17.812  21.601  41.092  1.00  0.00     0.094 A 
ATOM     10  C   UNL     1      16.880  22.625  40.906  1.00  0.00     0.146 A 
ATOM     11  O   UNL     1      15.880  22.738  41.774  1.00  0.00    -0.456 OA
ENDROOT
BRANCH   1  12
ATOM     12  C   UNL     1      13.878  23.712  42.729  1.00  0.00     0.021 A 
ATOM     13  C   UNL     1      12.796  24.610  42.645  1.00  0.00     0.016 A 
ATOM     14  C   UNL     1      11.800  24.613  43.626  1.00  0.00     0.051 A 
ATOM     15  C   UNL     1      11.871  23.729  44.709  1.00  0.00     0.157 A 
ATOM     16  C   UNL     1      13.948  22.837  43.828  1.00  0.00     0.062 A 
ATOM     17  C   UNL     1      12.952  22.837  44.810  1.00  0.00     0.158 A 
BRANCH  15  18
ATOM     18  O   UNL     1      10.875  23.734  45.684  1.00  0.00    -0.504 OA
ATOM     19  H   UNL     1      10.683  22.917  46.252  1.00  0.00     0.293 HD
ENDBRANCH  15  18
BRANCH  17  20
ATOM     20  O   UNL     1      13.054  21.947  45.879  1.00  0.00    -0.504 OA
ATOM     21  H   UNL     1      12.302  21.317  46.129  1.00  0.00     0.293 HD
ENDBRANCH  17  20
ENDBRANCH   1  12
BRANCH   6  22
ATOM     22  O   UNL     1      18.265  24.100  37.740  1.00  0.00    -0.507 OA
ATOM     23  H   UNL     1      17.523  24.474  37.169  1.00  0.00     0.293 HD
ENDBRANCH   6  22
BRANCH   8  24
ATOM     24  O   UNL     1      19.814  20.440  40.432  1.00  0.00    -0.508 OA
ATOM     25  H   UNL     1      20.798  20.568  40.227  1.00  0.00     0.293 HD
ENDBRANCH   8  24
TORSDOF 5
ENDMDL
MODEL 8
REMARK VINA RESULT:    -6.925      1.558      7.313
REMARK INTER + INTRA:          -8.406
REMARK INTER:                  -8.119
REMARK INTRA:                  -0.287
REMARK UNBOUND:                -0.266
REMARK SMILES O=c1cc(-c2ccc(O)c(O)c2)oc2cc(O)cc(O)c12
REMARK SMILES IDX 4 1 3 2 2 3 1 4 21 5 19 6 18 7 16 8 15 9 14 10 13 11 5 12
REMARK SMILES IDX 6 13 7 14 8 15 12 16 10 17 9 18 11 20 20 22 17 24
REMARK H PARENT 9 19 11 21 20 23 17 25
REMARK Flexibility Score: inf
ROOT
ATOM      1  C   UNL     1      17.612  22.607  40.200  1.00  0.00     0.138 A 
ATOM      2  C   UNL     1      17.285  23.652  39.326  1.00  0.00     0.100 A 
ATOM      3  C   UNL     1      16.164  24.443  39.583  1.00  0.00     0.197 A 
ATOM      4  O   UNL     1      15.865  25.337  38.749  1.00  0.00    -0.289 OA
ATOM      5  C   UNL     1      15.389  24.208  40.744  1.00  0.00     0.107 A 
ATOM      6  C   UNL     1      14.245  24.972  41.127  1.00  0.00     0.134 A 
ATOM      7  C   UNL     1      13.499  24.582  42.247  1.00  0.00     0.093 A 
ATOM      8  C   UNL     1      13.887  23.493  43.029  1.00  0.00     0.123 A 
ATOM      9  C   UNL     1      15.030  22.772  42.693  1.00  0.00     0.094 A 
ATOM     10  C   UNL     1      15.776  23.114  41.562  1.00  0.00     0.146 A 
ATOM     11  O   UNL     1      16.849  22.388  41.267  1.00  0.00    -0.456 OA
ENDROOT
BRANCH   1  12
ATOM     12  C   UNL     1      18.794  21.737  39.978  1.00  0.00     0.021 A 
ATOM     13  C   UNL     1      18.844  20.417  40.467  1.00  0.00     0.016 A 
ATOM     14  C   UNL     1      19.974  19.623  40.251  1.00  0.00     0.051 A 
ATOM     15  C   UNL     1      21.074  20.134  39.551  1.00  0.00     0.157 A 
ATOM     16  C   UNL     1      19.909  22.246  39.288  1.00  0.00     0.062 A 
ATOM     17  C   UNL     1      21.041  21.453  39.069  1.00  0.00     0.158 A 
BRANCH  15  18
ATOM     18  O   UNL     1      22.198  19.338  39.336  1.00  0.00    -0.504 OA
ATOM     19  H   UNL     1      22.416  18.552  39.937  1.00  0.00     0.293 HD
ENDBRANCH  15  18
BRANCH  17  20
ATOM     20  O   UNL     1      22.122  21.992  38.372  1.00  0.00    -0.504 OA
ATOM     21  H   UNL     1      22.537  21.525  37.576  1.00  0.00     0.293 HD
ENDBRANCH  17  20
ENDBRANCH   1  12
BRANCH   6  22
ATOM     22  O   UNL     1      13.814  26.125  40.464  1.00  0.00    -0.507 OA
ATOM     23  H   UNL     1      13.187  26.815  40.846  1.00  0.00     0.293 HD
ENDBRANCH   6  22
BRANCH   8  24
ATOM     24  O   UNL     1      13.148  23.123  44.150  1.00  0.00    -0.508 OA
ATOM     25  H   UNL     1      12.135  23.173  44.158  1.00  0.00     0.293 HD
ENDBRANCH   8  24
TORSDOF 5
ENDMDL
MODEL 9
REMARK VINA RESULT:    -5.854      1.251      1.818
REMARK INTER + INTRA:          -7.147
REMARK INTER:                  -6.840
REMARK INTRA:                  -0.307
REMARK UNBOUND:                -0.266
REMARK SMILES O=c1cc(-c2ccc(O)c(O)c2)oc2cc(O)cc(O)c12
REMARK SMILES IDX 4 1 3 2 2 3 1 4 21 5 19 6 18 7 16 8 15 9 14 10 13 11 5 12
REMARK SMILES IDX 6 13 7 14 8 15 12 16 10 17 9 18 11 20 20 22 17 24
REMARK H PARENT 9 19 11 21 20 23 17 25
REMARK Flexibility Score: inf
ROOT
ATOM      1  C   UNL     1      16.159  22.718  41.344  1.00  0.00     0.138 A 
ATOM      2  C   UNL     1      16.482  21.355  41.400  1.00  0.00     0.100 A 
ATOM      3  C   UNL     1      17.539  20.864  40.633  1.00  0.00     0.197 A 
ATOM      4  O   UNL     1      17.768  19.627  40.663  1.00  0.00    -0.289 OA
ATOM      5  C   UNL     1      18.301  21.750  39.834  1.00  0.00     0.107 A 
ATOM      6  C   UNL     1      19.423  21.369  39.037  1.00  0.00     0.134 A 
ATOM      7  C   UNL     1      20.035  22.318  38.210  1.00  0.00     0.093 A 
ATOM      8  C   UNL     1      19.606  23.647  38.195  1.00  0.00     0.123 A 
ATOM      9  C   UNL     1      18.545  24.040  39.006  1.00  0.00     0.094 A 
ATOM     10  C   UNL     1      17.889  23.110  39.816  1.00  0.00     0.146 A 
ATOM     11  O   UNL     1      16.870  23.524  40.561  1.00  0.00    -0.456 OA
ENDROOT
BRANCH   1  12
ATOM     12  C   UNL     1      15.047  23.296  42.140  1.00  0.00     0.021 A 
ATOM     13  C   UNL     1      14.629  22.718  43.355  1.00  0.00     0.016 A 
ATOM     14  C   UNL     1      13.572  23.278  44.078  1.00  0.00     0.051 A 
ATOM     15  C   UNL     1      12.912  24.416  43.600  1.00  0.00     0.157 A 
ATOM     16  C   UNL     1      14.369  24.430  41.660  1.00  0.00     0.062 A 
ATOM     17  C   UNL     1      13.312  24.994  42.384  1.00  0.00     0.158 A 
BRANCH  15  18
ATOM     18  O   UNL     1      11.859  24.973  44.326  1.00  0.00    -0.504 OA
ATOM     19  H   UNL     1      10.910  24.972  43.971  1.00  0.00     0.293 HD
ENDBRANCH  15  18
BRANCH  17  20
ATOM     20  O   UNL     1      12.671  26.125  41.878  1.00  0.00    -0.504 OA
ATOM     21  H   UNL     1      11.942  26.063  41.179  1.00  0.00     0.293 HD
ENDBRANCH  17  20
ENDBRANCH   1  12
BRANCH   6  22
ATOM     22  O   UNL     1      19.984  20.088  39.036  1.00  0.00    -0.507 OA
ATOM     23  H   UNL     1      19.742  19.349  38.395  1.00  0.00     0.293 HD
ENDBRANCH   6  22
BRANCH   8  24
ATOM     24  O   UNL     1      20.233  24.588  37.380  1.00  0.00    -0.508 OA
ATOM     25  H   UNL     1      21.241  24.689  37.367  1.00  0.00     0.293 HD
ENDBRANCH   8  24
TORSDOF 5
ENDMDL
