MODEL 1
REMARK VINA RESULT:    -2.755      0.000      0.000
REMARK INTER + INTRA:          -3.626
REMARK INTER:                  -3.641
REMARK INTRA:                   0.015
REMARK UNBOUND:                 0.015
REMARK SMILES CC[C@H](C=C[C@H](C)[C@@H]1CC[C@H]2[C@@H]3CC=C4C[C@H](O)CC[C@]4(C)[C@@H]3CC[C@]21C)C(C)C
REMARK SMILES IDX 6 1 7 2 5 3 4 4 3 5 2 6 1 7 28 8 29 9 30 10 8 11 9 12 26 13
REMARK SMILES IDX 10 14 11 15 25 16 27 17 12 18 24 19 23 20 13 21 21 22 14 23
REMARK SMILES IDX 15 24 20 25 22 26 16 27 19 28 17 29 18 30
REMARK H PARENT 18 31
REMARK Flexibility Score: inf
ROOT
ATOM      1  C   UNL     1      26.560  35.898  20.028  1.00  0.00     0.012 C 
ATOM      2  C   UNL     1      26.970  34.787  19.036  1.00  0.00     0.012 C 
ENDROOT
BRANCH   1   3
ATOM      3  C   UNL     1      27.155  35.741  21.412  1.00  0.00    -0.028 C 
ATOM      4  C   UNL     1      28.025  34.775  21.762  1.00  0.00    -0.027 C 
BRANCH   4   5
ATOM      5  C   UNL     1      28.635  34.735  23.151  1.00  0.00     0.014 C 
BRANCH   5   6
ATOM      6  C   UNL     1      27.770  35.486  24.209  1.00  0.00     0.004 C 
ATOM      7  C   UNL     1      26.254  35.283  24.090  1.00  0.00     0.004 C 
ENDBRANCH   5   6
BRANCH   5   8
ATOM      8  C   UNL     1      29.048  33.281  23.547  1.00  0.00    -0.011 C 
ATOM      9  C   UNL     1      28.147  32.703  24.650  1.00  0.00     0.008 C 
ATOM     10  C   UNL     1      29.124  32.308  22.361  1.00  0.00     0.008 C 
ENDBRANCH   5   8
ENDBRANCH   4   5
ENDBRANCH   1   3
BRANCH   1  11
ATOM     11  C   UNL     1      26.632  37.381  19.517  1.00  0.00     0.002 C 
ATOM     12  C   UNL     1      25.898  37.596  18.198  1.00  0.00     0.005 C 
ATOM     13  C   UNL     1      27.990  38.139  19.339  1.00  0.00    -0.026 C 
ATOM     14  C   UNL     1      26.255  39.006  17.770  1.00  0.00     0.005 C 
ATOM     15  C   UNL     1      27.631  39.339  18.393  1.00  0.00    -0.001 C 
ATOM     16  C   UNL     1      28.595  38.627  20.685  1.00  0.00     0.007 C 
ATOM     17  C   UNL     1      29.054  37.262  18.639  1.00  0.00     0.012 C 
ATOM     18  C   UNL     1      27.606  40.748  19.070  1.00  0.00     0.000 C 
ATOM     19  C   UNL     1      27.794  39.719  21.410  1.00  0.00     0.005 C 
ATOM     20  C   UNL     1      27.000  40.698  20.493  1.00  0.00     0.003 C 
ATOM     21  C   UNL     1      28.984  41.451  19.052  1.00  0.00     0.031 C 
ATOM     22  C   UNL     1      26.873  42.151  21.093  1.00  0.00    -0.008 C 
ATOM     23  C   UNL     1      29.124  42.578  20.051  1.00  0.00    -0.027 C 
ATOM     24  C   UNL     1      28.232  42.853  21.032  1.00  0.00    -0.065 C 
ATOM     25  C   UNL     1      26.332  42.085  22.563  1.00  0.00     0.014 C 
ATOM     26  C   UNL     1      25.865  42.987  20.255  1.00  0.00     0.016 C 
ATOM     27  C   UNL     1      28.476  44.063  21.912  1.00  0.00     0.063 C 
ATOM     28  C   UNL     1      26.525  43.387  23.356  1.00  0.00     0.033 C 
ATOM     29  C   UNL     1      27.993  43.833  23.347  1.00  0.00     0.118 C 
BRANCH  29  30
ATOM     30  O   UNL     1      28.808  42.869  23.966  1.00  0.00    -0.393 OA
ATOM     31  H   UNL     1      28.561  41.992  23.574  1.00  0.00     0.210 HD
ENDBRANCH  29  30
ENDBRANCH   1  11
TORSDOF 6
ENDMDL
MODEL 2
REMARK VINA RESULT:    -1.136      1.938      4.475
REMARK INTER + INTRA:          -1.487
REMARK INTER:                  -0.784
REMARK INTRA:                  -0.703
REMARK UNBOUND:                 0.015
REMARK SMILES CC[C@H](C=C[C@H](C)[C@@H]1CC[C@H]2[C@@H]3CC=C4C[C@H](O)CC[C@]4(C)[C@@H]3CC[C@]21C)C(C)C
REMARK SMILES IDX 6 1 7 2 5 3 4 4 3 5 2 6 1 7 28 8 29 9 30 10 8 11 9 12 26 13
REMARK SMILES IDX 10 14 11 15 25 16 27 17 12 18 24 19 23 20 13 21 21 22 14 23
REMARK SMILES IDX 15 24 20 25 22 26 16 27 19 28 17 29 18 30
REMARK H PARENT 18 31
REMARK Flexibility Score: inf
ROOT
ATOM      1  C   UNL     1      29.011  34.660  24.269  1.00  0.00     0.012 C 
ATOM      2  C   UNL     1      29.125  35.080  25.751  1.00  0.00     0.012 C 
ENDROOT
BRANCH   1   3
ATOM      3  C   UNL     1      29.102  33.165  24.042  1.00  0.00    -0.028 C 
ATOM      4  C   UNL     1      29.066  32.242  25.021  1.00  0.00    -0.027 C 
BRANCH   4   5
ATOM      5  C   UNL     1      29.084  30.759  24.702  1.00  0.00     0.014 C 
BRANCH   5   6
ATOM      6  C   UNL     1      29.010  29.868  25.980  1.00  0.00     0.004 C 
ATOM      7  C   UNL     1      29.025  30.624  27.315  1.00  0.00     0.004 C 
ENDBRANCH   5   6
BRANCH   5   8
ATOM      8  C   UNL     1      28.046  30.405  23.590  1.00  0.00    -0.011 C 
ATOM      9  C   UNL     1      28.716  29.807  22.342  1.00  0.00     0.008 C 
ATOM     10  C   UNL     1      26.904  29.495  24.066  1.00  0.00     0.008 C 
ENDBRANCH   5   8
ENDBRANCH   4   5
ENDBRANCH   1   3
BRANCH   1  11
ATOM     11  C   UNL     1      27.869  35.320  23.419  1.00  0.00     0.002 C 
ATOM     12  C   UNL     1      26.477  34.825  23.800  1.00  0.00     0.005 C 
ATOM     13  C   UNL     1      27.876  35.305  21.853  1.00  0.00    -0.026 C 
ATOM     14  C   UNL     1      25.549  35.402  22.749  1.00  0.00     0.005 C 
ATOM     15  C   UNL     1      26.387  35.618  21.466  1.00  0.00    -0.001 C 
ATOM     16  C   UNL     1      28.860  36.340  21.241  1.00  0.00     0.007 C 
ATOM     17  C   UNL     1      28.249  33.914  21.291  1.00  0.00     0.012 C 
ATOM     18  C   UNL     1      26.129  37.038  20.869  1.00  0.00     0.000 C 
ATOM     19  C   UNL     1      28.496  37.814  21.473  1.00  0.00     0.005 C 
ATOM     20  C   UNL     1      26.972  38.128  21.574  1.00  0.00     0.003 C 
ATOM     21  C   UNL     1      26.293  37.085  19.331  1.00  0.00     0.031 C 
ATOM     22  C   UNL     1      26.593  39.559  21.033  1.00  0.00    -0.008 C 
ATOM     23  C   UNL     1      26.492  38.474  18.765  1.00  0.00    -0.027 C 
ATOM     24  C   UNL     1      26.718  39.583  19.507  1.00  0.00    -0.065 C 
ATOM     25  C   UNL     1      27.506  40.649  21.696  1.00  0.00     0.014 C 
ATOM     26  C   UNL     1      25.119  39.893  21.398  1.00  0.00     0.016 C 
ATOM     27  C   UNL     1      26.825  40.919  18.798  1.00  0.00     0.063 C 
ATOM     28  C   UNL     1      27.479  42.006  20.975  1.00  0.00     0.033 C 
ATOM     29  C   UNL     1      27.823  41.853  19.487  1.00  0.00     0.118 C 
BRANCH  29  30
ATOM     30  O   UNL     1      29.125  41.348  19.328  1.00  0.00    -0.393 OA
ATOM     31  H   UNL     1      29.702  41.840  19.968  1.00  0.00     0.210 HD
ENDBRANCH  29  30
ENDBRANCH   1  11
TORSDOF 6
ENDMDL
