MODEL 1
REMARK VINA RESULT:    -3.287      0.000      0.000
REMARK INTER + INTRA:         -11.161
REMARK INTER:                  -7.513
REMARK INTRA:                  -3.647
REMARK UNBOUND:                -3.647
REMARK SMILES CCCCCCCCCCCCCCCCCCCCCCCC(=O)[O-]
REMARK SMILES IDX 13 1 14 2 15 3 16 4 17 5 18 6 19 7 20 8 21 9 22 10 23 11
REMARK SMILES IDX 24 12 25 13 26 14 12 15 11 16 10 17 9 18 8 19 7 20 6 21 5 22
REMARK SMILES IDX 4 23 3 24 2 25 1 26
REMARK H PARENT
REMARK Flexibility Score: inf
ROOT
ATOM      1  C   UNL     1       1.231  69.992  17.682  1.00  0.00     0.000 C 
ENDROOT
BRANCH   1   2
ATOM      2  C   UNL     1       2.402  69.890  16.693  1.00  0.00     0.000 C 
BRANCH   2   3
ATOM      3  C   UNL     1       2.615  68.460  16.171  1.00  0.00     0.000 C 
BRANCH   3   4
ATOM      4  C   UNL     1       4.024  68.253  15.589  1.00  0.00     0.000 C 
BRANCH   4   5
ATOM      5  C   UNL     1       4.675  66.902  15.951  1.00  0.00     0.000 C 
BRANCH   5   6
ATOM      6  C   UNL     1       4.936  65.966  14.754  1.00  0.00     0.000 C 
BRANCH   6   7
ATOM      7  C   UNL     1       3.768  65.847  13.754  1.00  0.00     0.000 C 
BRANCH   7   8
ATOM      8  C   UNL     1       3.056  64.481  13.745  1.00  0.00     0.000 C 
BRANCH   8   9
ATOM      9  C   UNL     1       2.242  64.225  15.021  1.00  0.00     0.000 C 
BRANCH   9  10
ATOM     10  C   UNL     1       2.305  62.745  15.428  1.00  0.00     0.006 C 
BRANCH  10  11
ATOM     11  C   UNL     1       3.727  62.310  15.807  1.00  0.00     0.053 C 
BRANCH  11  12
ATOM     12  C   UNL     1       4.097  62.757  17.189  1.00  0.00     0.041 C 
ATOM     13  O   UNL     1       5.076  63.532  17.363  1.00  0.00    -0.550 OA
ATOM     14  O   UNL     1       3.337  62.353  18.280  1.00  0.00    -0.550 OA
ENDBRANCH  11  12
ENDBRANCH  10  11
ENDBRANCH   9  10
ENDBRANCH   8   9
ENDBRANCH   7   8
ENDBRANCH   6   7
ENDBRANCH   5   6
ENDBRANCH   4   5
ENDBRANCH   3   4
ENDBRANCH   2   3
ENDBRANCH   1   2
BRANCH   1  15
ATOM     15  C   UNL     1       1.574  70.836  18.923  1.00  0.00     0.000 C 
BRANCH  15  16
ATOM     16  C   UNL     1       3.098  71.040  19.085  1.00  0.00     0.000 C 
BRANCH  16  17
ATOM     17  C   UNL     1       3.768  70.007  20.009  1.00  0.00     0.000 C 
BRANCH  17  18
ATOM     18  C   UNL     1       2.820  69.272  20.981  1.00  0.00    -0.000 C 
BRANCH  18  19
ATOM     19  C   UNL     1       3.502  68.749  22.264  1.00  0.00    -0.000 C 
BRANCH  19  20
ATOM     20  C   UNL     1       4.890  69.364  22.507  1.00  0.00    -0.000 C 
BRANCH  20  21
ATOM     21  C   UNL     1       6.038  68.381  22.194  1.00  0.00    -0.000 C 
BRANCH  21  22
ATOM     22  C   UNL     1       5.574  66.920  22.028  1.00  0.00    -0.000 C 
BRANCH  22  23
ATOM     23  C   UNL     1       5.927  66.277  20.675  1.00  0.00    -0.000 C 
BRANCH  23  24
ATOM     24  C   UNL     1       4.851  66.436  19.582  1.00  0.00    -0.000 C 
BRANCH  24  25
ATOM     25  C   UNL     1       3.527  65.712  19.909  1.00  0.00    -0.003 C 
ATOM     26  C   UNL     1       2.503  65.821  18.779  1.00  0.00     0.004 C 
ENDBRANCH  24  25
ENDBRANCH  23  24
ENDBRANCH  22  23
ENDBRANCH  21  22
ENDBRANCH  20  21
ENDBRANCH  19  20
ENDBRANCH  18  19
ENDBRANCH  17  18
ENDBRANCH  16  17
ENDBRANCH  15  16
ENDBRANCH   1  15
TORSDOF 22
ENDMDL
MODEL 2
REMARK VINA RESULT:    -3.248      2.340      4.875
REMARK INTER + INTRA:         -11.072
REMARK INTER:                  -7.226
REMARK INTRA:                  -3.846
REMARK UNBOUND:                -3.647
REMARK SMILES CCCCCCCCCCCCCCCCCCCCCCCC(=O)[O-]
REMARK SMILES IDX 13 1 14 2 15 3 16 4 17 5 18 6 19 7 20 8 21 9 22 10 23 11
REMARK SMILES IDX 24 12 25 13 26 14 12 15 11 16 10 17 9 18 8 19 7 20 6 21 5 22
REMARK SMILES IDX 4 23 3 24 2 25 1 26
REMARK H PARENT
REMARK Flexibility Score: inf
ROOT
ATOM      1  C   UNL     1       3.267  66.063  18.955  1.00  0.00     0.000 C 
ENDROOT
BRANCH   1   2
ATOM      2  C   UNL     1       4.466  66.350  18.039  1.00  0.00     0.000 C 
BRANCH   2   3
ATOM      3  C   UNL     1       5.564  65.280  18.147  1.00  0.00     0.000 C 
BRANCH   3   4
ATOM      4  C   UNL     1       5.729  64.476  16.845  1.00  0.00     0.000 C 
BRANCH   4   5
ATOM      5  C   UNL     1       5.665  62.945  17.025  1.00  0.00     0.000 C 
BRANCH   5   6
ATOM      6  C   UNL     1       4.442  62.265  16.377  1.00  0.00     0.000 C 
BRANCH   6   7
ATOM      7  C   UNL     1       3.120  62.427  17.156  1.00  0.00     0.000 C 
BRANCH   7   8
ATOM      8  C   UNL     1       2.153  63.480  16.584  1.00  0.00     0.000 C 
BRANCH   8   9
ATOM      9  C   UNL     1       2.243  63.605  15.056  1.00  0.00     0.000 C 
BRANCH   9  10
ATOM     10  C   UNL     1       2.599  65.040  14.639  1.00  0.00     0.006 C 
BRANCH  10  11
ATOM     11  C   UNL     1       1.706  65.549  13.500  1.00  0.00     0.053 C 
BRANCH  11  12
ATOM     12  C   UNL     1       0.753  66.607  13.968  1.00  0.00     0.041 C 
ATOM     13  O   UNL     1       0.189  66.501  15.090  1.00  0.00    -0.550 OA
ATOM     14  O   UNL     1       0.520  67.731  13.185  1.00  0.00    -0.550 OA
ENDBRANCH  11  12
ENDBRANCH  10  11
ENDBRANCH   9  10
ENDBRANCH   8   9
ENDBRANCH   7   8
ENDBRANCH   6   7
ENDBRANCH   5   6
ENDBRANCH   4   5
ENDBRANCH   3   4
ENDBRANCH   2   3
ENDBRANCH   1   2
BRANCH   1  15
ATOM     15  C   UNL     1       3.534  64.911  19.939  1.00  0.00     0.000 C 
BRANCH  15  16
ATOM     16  C   UNL     1       3.355  65.349  21.411  1.00  0.00     0.000 C 
BRANCH  16  17
ATOM     17  C   UNL     1       4.671  65.747  22.103  1.00  0.00     0.000 C 
BRANCH  17  18
ATOM     18  C   UNL     1       4.782  67.230  22.517  1.00  0.00    -0.000 C 
BRANCH  18  19
ATOM     19  C   UNL     1       5.409  68.146  21.443  1.00  0.00    -0.000 C 
BRANCH  19  20
ATOM     20  C   UNL     1       4.412  69.157  20.852  1.00  0.00    -0.000 C 
BRANCH  20  21
ATOM     21  C   UNL     1       3.042  69.124  21.562  1.00  0.00    -0.000 C 
BRANCH  21  22
ATOM     22  C   UNL     1       1.843  69.069  20.594  1.00  0.00    -0.000 C 
BRANCH  22  23
ATOM     23  C   UNL     1       2.044  69.828  19.269  1.00  0.00    -0.000 C 
BRANCH  23  24
ATOM     24  C   UNL     1       1.124  71.050  19.077  1.00  0.00    -0.000 C 
BRANCH  24  25
ATOM     25  C   UNL     1       1.875  72.398  19.091  1.00  0.00    -0.003 C 
ATOM     26  C   UNL     1       3.302  72.281  18.555  1.00  0.00     0.004 C 
ENDBRANCH  24  25
ENDBRANCH  23  24
ENDBRANCH  22  23
ENDBRANCH  21  22
ENDBRANCH  20  21
ENDBRANCH  19  20
ENDBRANCH  18  19
ENDBRANCH  17  18
ENDBRANCH  16  17
ENDBRANCH  15  16
ENDBRANCH   1  15
TORSDOF 22
ENDMDL
MODEL 3
REMARK VINA RESULT:    -3.247      7.915     10.956
REMARK INTER + INTRA:         -11.070
REMARK INTER:                  -7.174
REMARK INTRA:                  -3.896
REMARK UNBOUND:                -3.647
REMARK SMILES CCCCCCCCCCCCCCCCCCCCCCCC(=O)[O-]
REMARK SMILES IDX 13 1 14 2 15 3 16 4 17 5 18 6 19 7 20 8 21 9 22 10 23 11
REMARK SMILES IDX 24 12 25 13 26 14 12 15 11 16 10 17 9 18 8 19 7 20 6 21 5 22
REMARK SMILES IDX 4 23 3 24 2 25 1 26
REMARK H PARENT
REMARK Flexibility Score: inf
ROOT
ATOM      1  C   UNL     1       1.334  65.311   9.141  1.00  0.00     0.000 C 
ENDROOT
BRANCH   1   2
ATOM      2  C   UNL     1       2.629  64.490   9.054  1.00  0.00     0.000 C 
BRANCH   2   3
ATOM      3  C   UNL     1       3.224  64.469   7.636  1.00  0.00     0.000 C 
BRANCH   3   4
ATOM      4  C   UNL     1       3.177  65.850   6.960  1.00  0.00     0.000 C 
BRANCH   4   5
ATOM      5  C   UNL     1       4.422  66.194   6.117  1.00  0.00     0.000 C 
BRANCH   5   6
ATOM      6  C   UNL     1       4.677  67.702   5.921  1.00  0.00     0.000 C 
BRANCH   6   7
ATOM      7  C   UNL     1       5.996  68.050   5.199  1.00  0.00     0.000 C 
BRANCH   7   8
ATOM      8  C   UNL     1       6.895  69.059   5.938  1.00  0.00     0.000 C 
BRANCH   8   9
ATOM      9  C   UNL     1       6.115  69.940   6.925  1.00  0.00     0.000 C 
BRANCH   9  10
ATOM     10  C   UNL     1       7.005  70.372   8.100  1.00  0.00     0.006 C 
BRANCH  10  11
ATOM     11  C   UNL     1       6.183  70.750   9.340  1.00  0.00     0.053 C 
BRANCH  11  12
ATOM     12  C   UNL     1       6.769  70.176  10.594  1.00  0.00     0.041 C 
ATOM     13  O   UNL     1       6.031  69.942  11.589  1.00  0.00    -0.550 OA
ATOM     14  O   UNL     1       8.121  69.861  10.651  1.00  0.00    -0.550 OA
ENDBRANCH  11  12
ENDBRANCH  10  11
ENDBRANCH   9  10
ENDBRANCH   8   9
ENDBRANCH   7   8
ENDBRANCH   6   7
ENDBRANCH   5   6
ENDBRANCH   4   5
ENDBRANCH   3   4
ENDBRANCH   2   3
ENDBRANCH   1   2
BRANCH   1  15
ATOM     15  C   UNL     1       1.260  66.170  10.416  1.00  0.00     0.000 C 
BRANCH  15  16
ATOM     16  C   UNL     1       2.660  66.604  10.908  1.00  0.00     0.000 C 
BRANCH  16  17
ATOM     17  C   UNL     1       2.944  68.106  10.724  1.00  0.00     0.000 C 
BRANCH  17  18
ATOM     18  C   UNL     1       3.358  68.535   9.300  1.00  0.00    -0.000 C 
BRANCH  18  19
ATOM     19  C   UNL     1       2.220  69.161   8.466  1.00  0.00    -0.000 C 
BRANCH  19  20
ATOM     20  C   UNL     1       2.672  70.377   7.640  1.00  0.00    -0.000 C 
BRANCH  20  21
ATOM     21  C   UNL     1       2.660  71.687   8.457  1.00  0.00    -0.000 C 
BRANCH  21  22
ATOM     22  C   UNL     1       1.394  71.867   9.319  1.00  0.00    -0.000 C 
BRANCH  22  23
ATOM     23  C   UNL     1       1.636  72.494  10.704  1.00  0.00    -0.000 C 
BRANCH  23  24
ATOM     24  C   UNL     1       2.616  71.716  11.604  1.00  0.00    -0.000 C 
BRANCH  24  25
ATOM     25  C   UNL     1       3.782  72.575  12.138  1.00  0.00    -0.003 C 
ATOM     26  C   UNL     1       4.043  73.812  11.278  1.00  0.00     0.004 C 
ENDBRANCH  24  25
ENDBRANCH  23  24
ENDBRANCH  22  23
ENDBRANCH  21  22
ENDBRANCH  20  21
ENDBRANCH  19  20
ENDBRANCH  18  19
ENDBRANCH  17  18
ENDBRANCH  16  17
ENDBRANCH  15  16
ENDBRANCH   1  15
TORSDOF 22
ENDMDL
MODEL 4
REMARK VINA RESULT:    -3.229      2.114      4.018
REMARK INTER + INTRA:         -11.030
REMARK INTER:                  -6.902
REMARK INTRA:                  -4.128
REMARK UNBOUND:                -3.647
REMARK SMILES CCCCCCCCCCCCCCCCCCCCCCCC(=O)[O-]
REMARK SMILES IDX 13 1 14 2 15 3 16 4 17 5 18 6 19 7 20 8 21 9 22 10 23 11
REMARK SMILES IDX 24 12 25 13 26 14 12 15 11 16 10 17 9 18 8 19 7 20 6 21 5 22
REMARK SMILES IDX 4 23 3 24 2 25 1 26
REMARK H PARENT
REMARK Flexibility Score: inf
ROOT
ATOM      1  C   UNL     1       2.629  67.789  16.096  1.00  0.00     0.000 C 
ENDROOT
BRANCH   1   2
ATOM      2  C   UNL     1       1.520  67.817  15.034  1.00  0.00     0.000 C 
BRANCH   2   3
ATOM      3  C   UNL     1       1.293  66.446  14.376  1.00  0.00     0.000 C 
BRANCH   3   4
ATOM      4  C   UNL     1      -0.133  65.915  14.607  1.00  0.00     0.000 C 
BRANCH   4   5
ATOM      5  C   UNL     1      -0.867  66.552  15.804  1.00  0.00     0.000 C 
BRANCH   5   6
ATOM      6  C   UNL     1      -1.074  65.616  17.012  1.00  0.00     0.000 C 
BRANCH   6   7
ATOM      7  C   UNL     1       0.023  65.698  18.094  1.00  0.00     0.000 C 
BRANCH   7   8
ATOM      8  C   UNL     1       1.266  64.829  17.827  1.00  0.00     0.000 C 
BRANCH   8   9
ATOM      9  C   UNL     1       1.079  63.371  18.268  1.00  0.00     0.000 C 
BRANCH   9  10
ATOM     10  C   UNL     1       1.741  62.405  17.274  1.00  0.00     0.006 C 
BRANCH  10  11
ATOM     11  C   UNL     1       1.798  62.985  15.855  1.00  0.00     0.053 C 
BRANCH  11  12
ATOM     12  C   UNL     1       3.134  62.760  15.213  1.00  0.00     0.041 C 
ATOM     13  O   UNL     1       3.869  61.811  15.597  1.00  0.00    -0.550 OA
ATOM     14  O   UNL     1       3.549  63.572  14.165  1.00  0.00    -0.550 OA
ENDBRANCH  11  12
ENDBRANCH  10  11
ENDBRANCH   9  10
ENDBRANCH   8   9
ENDBRANCH   7   8
ENDBRANCH   6   7
ENDBRANCH   5   6
ENDBRANCH   4   5
ENDBRANCH   3   4
ENDBRANCH   2   3
ENDBRANCH   1   2
BRANCH   1  15
ATOM     15  C   UNL     1       3.370  69.133  16.216  1.00  0.00     0.000 C 
BRANCH  15  16
ATOM     16  C   UNL     1       2.396  70.322  16.378  1.00  0.00     0.000 C 
BRANCH  16  17
ATOM     17  C   UNL     1       2.463  70.994  17.762  1.00  0.00     0.000 C 
BRANCH  17  18
ATOM     18  C   UNL     1       1.172  70.910  18.604  1.00  0.00    -0.000 C 
BRANCH  18  19
ATOM     19  C   UNL     1       0.476  69.532  18.570  1.00  0.00    -0.000 C 
BRANCH  19  20
ATOM     20  C   UNL     1       0.177  68.969  19.969  1.00  0.00    -0.000 C 
BRANCH  20  21
ATOM     21  C   UNL     1       1.459  68.612  20.751  1.00  0.00    -0.000 C 
BRANCH  21  22
ATOM     22  C   UNL     1       2.434  67.711  19.966  1.00  0.00    -0.000 C 
BRANCH  22  23
ATOM     23  C   UNL     1       3.863  68.267  19.827  1.00  0.00    -0.000 C 
BRANCH  23  24
ATOM     24  C   UNL     1       4.162  69.505  20.694  1.00  0.00    -0.000 C 
BRANCH  24  25
ATOM     25  C   UNL     1       5.145  69.227  21.851  1.00  0.00    -0.003 C 
ATOM     26  C   UNL     1       5.803  67.851  21.746  1.00  0.00     0.004 C 
ENDBRANCH  24  25
ENDBRANCH  23  24
ENDBRANCH  22  23
ENDBRANCH  21  22
ENDBRANCH  20  21
ENDBRANCH  19  20
ENDBRANCH  18  19
ENDBRANCH  17  18
ENDBRANCH  16  17
ENDBRANCH  15  16
ENDBRANCH   1  15
TORSDOF 22
ENDMDL
MODEL 5
REMARK VINA RESULT:    -3.191      6.342      8.540
REMARK INTER + INTRA:         -10.943
REMARK INTER:                  -7.012
REMARK INTRA:                  -3.930
REMARK UNBOUND:                -3.647
REMARK SMILES CCCCCCCCCCCCCCCCCCCCCCCC(=O)[O-]
REMARK SMILES IDX 13 1 14 2 15 3 16 4 17 5 18 6 19 7 20 8 21 9 22 10 23 11
REMARK SMILES IDX 24 12 25 13 26 14 12 15 11 16 10 17 9 18 8 19 7 20 6 21 5 22
REMARK SMILES IDX 4 23 3 24 2 25 1 26
REMARK H PARENT
REMARK Flexibility Score: inf
ROOT
ATOM      1  C   UNL     1       1.314  71.373  12.682  1.00  0.00     0.000 C 
ENDROOT
BRANCH   1   2
ATOM      2  C   UNL     1       1.240  69.851  12.875  1.00  0.00     0.000 C 
BRANCH   2   3
ATOM      3  C   UNL     1       0.113  69.203  12.054  1.00  0.00     0.000 C 
BRANCH   3   4
ATOM      4  C   UNL     1      -0.348  70.094  10.886  1.00  0.00     0.000 C 
BRANCH   4   5
ATOM      5  C   UNL     1       0.226  69.695   9.511  1.00  0.00     0.000 C 
BRANCH   5   6
ATOM      6  C   UNL     1       0.071  68.204   9.150  1.00  0.00     0.000 C 
BRANCH   6   7
ATOM      7  C   UNL     1       0.728  67.785   7.819  1.00  0.00     0.000 C 
BRANCH   7   8
ATOM      8  C   UNL     1       0.631  66.284   7.490  1.00  0.00     0.000 C 
BRANCH   8   9
ATOM      9  C   UNL     1       0.714  65.394   8.739  1.00  0.00     0.000 C 
BRANCH   9  10
ATOM     10  C   UNL     1       2.175  65.112   9.120  1.00  0.00     0.006 C 
BRANCH  10  11
ATOM     11  C   UNL     1       2.810  64.042   8.221  1.00  0.00     0.053 C 
BRANCH  11  12
ATOM     12  C   UNL     1       2.071  62.740   8.295  1.00  0.00     0.041 C 
ATOM     13  O   UNL     1       1.030  62.562   7.607  1.00  0.00    -0.550 OA
ATOM     14  O   UNL     1       2.553  61.709   9.092  1.00  0.00    -0.550 OA
ENDBRANCH  11  12
ENDBRANCH  10  11
ENDBRANCH   9  10
ENDBRANCH   8   9
ENDBRANCH   7   8
ENDBRANCH   6   7
ENDBRANCH   5   6
ENDBRANCH   4   5
ENDBRANCH   3   4
ENDBRANCH   2   3
ENDBRANCH   1   2
BRANCH   1  15
ATOM     15  C   UNL     1       2.731  71.932  12.908  1.00  0.00     0.000 C 
BRANCH  15  16
ATOM     16  C   UNL     1       3.162  72.899  11.782  1.00  0.00     0.000 C 
BRANCH  16  17
ATOM     17  C   UNL     1       2.549  72.566  10.410  1.00  0.00     0.000 C 
BRANCH  17  18
ATOM     18  C   UNL     1       3.420  71.687   9.489  1.00  0.00    -0.000 C 
BRANCH  18  19
ATOM     19  C   UNL     1       4.797  71.313  10.079  1.00  0.00    -0.000 C 
BRANCH  19  20
ATOM     20  C   UNL     1       4.871  69.859  10.573  1.00  0.00    -0.000 C 
BRANCH  20  21
ATOM     21  C   UNL     1       3.819  68.950   9.903  1.00  0.00    -0.000 C 
BRANCH  21  22
ATOM     22  C   UNL     1       3.379  67.761  10.779  1.00  0.00    -0.000 C 
BRANCH  22  23
ATOM     23  C   UNL     1       4.175  67.587  12.086  1.00  0.00    -0.000 C 
BRANCH  23  24
ATOM     24  C   UNL     1       3.402  66.897  13.227  1.00  0.00    -0.000 C 
BRANCH  24  25
ATOM     25  C   UNL     1       2.676  65.607  12.791  1.00  0.00    -0.003 C 
ATOM     26  C   UNL     1       1.182  65.634  13.117  1.00  0.00     0.004 C 
ENDBRANCH  24  25
ENDBRANCH  23  24
ENDBRANCH  22  23
ENDBRANCH  21  22
ENDBRANCH  20  21
ENDBRANCH  19  20
ENDBRANCH  18  19
ENDBRANCH  17  18
ENDBRANCH  16  17
ENDBRANCH  15  16
ENDBRANCH   1  15
TORSDOF 22
ENDMDL
MODEL 6
REMARK VINA RESULT:    -3.170      2.035      4.301
REMARK INTER + INTRA:         -10.895
REMARK INTER:                  -6.372
REMARK INTRA:                  -4.524
REMARK UNBOUND:                -3.647
REMARK SMILES CCCCCCCCCCCCCCCCCCCCCCCC(=O)[O-]
REMARK SMILES IDX 13 1 14 2 15 3 16 4 17 5 18 6 19 7 20 8 21 9 22 10 23 11
REMARK SMILES IDX 24 12 25 13 26 14 12 15 11 16 10 17 9 18 8 19 7 20 6 21 5 22
REMARK SMILES IDX 4 23 3 24 2 25 1 26
REMARK H PARENT
REMARK Flexibility Score: inf
ROOT
ATOM      1  C   UNL     1       1.899  66.431  18.800  1.00  0.00     0.000 C 
ENDROOT
BRANCH   1   2
ATOM      2  C   UNL     1       0.500  66.068  18.280  1.00  0.00     0.000 C 
BRANCH   2   3
ATOM      3  C   UNL     1       0.073  66.925  17.078  1.00  0.00     0.000 C 
BRANCH   3   4
ATOM      4  C   UNL     1      -0.232  66.076  15.831  1.00  0.00     0.000 C 
BRANCH   4   5
ATOM      5  C   UNL     1       0.721  66.319  14.642  1.00  0.00     0.000 C 
BRANCH   5   6
ATOM      6  C   UNL     1       1.282  65.041  13.987  1.00  0.00     0.000 C 
BRANCH   6   7
ATOM      7  C   UNL     1       2.422  64.356  14.769  1.00  0.00     0.000 C 
BRANCH   7   8
ATOM      8  C   UNL     1       2.120  62.920  15.235  1.00  0.00     0.000 C 
BRANCH   8   9
ATOM      9  C   UNL     1       1.381  62.874  16.580  1.00  0.00     0.000 C 
BRANCH   9  10
ATOM     10  C   UNL     1       2.346  62.547  17.730  1.00  0.00     0.006 C 
BRANCH  10  11
ATOM     11  C   UNL     1       1.665  61.742  18.845  1.00  0.00     0.053 C 
BRANCH  11  12
ATOM     12  C   UNL     1       0.760  62.599  19.678  1.00  0.00     0.041 C 
ATOM     13  O   UNL     1       1.245  63.402  20.520  1.00  0.00    -0.550 OA
ATOM     14  O   UNL     1      -0.616  62.542  19.496  1.00  0.00    -0.550 OA
ENDBRANCH  11  12
ENDBRANCH  10  11
ENDBRANCH   9  10
ENDBRANCH   8   9
ENDBRANCH   7   8
ENDBRANCH   6   7
ENDBRANCH   5   6
ENDBRANCH   4   5
ENDBRANCH   3   4
ENDBRANCH   2   3
ENDBRANCH   1   2
BRANCH   1  15
ATOM     15  C   UNL     1       3.003  66.188  17.756  1.00  0.00     0.000 C 
BRANCH  15  16
ATOM     16  C   UNL     1       3.760  67.487  17.396  1.00  0.00     0.000 C 
BRANCH  16  17
ATOM     17  C   UNL     1       3.782  67.794  15.887  1.00  0.00     0.000 C 
BRANCH  17  18
ATOM     18  C   UNL     1       3.343  69.220  15.493  1.00  0.00    -0.000 C 
BRANCH  18  19
ATOM     19  C   UNL     1       2.111  69.744  16.263  1.00  0.00    -0.000 C 
BRANCH  19  20
ATOM     20  C   UNL     1       2.470  70.754  17.367  1.00  0.00    -0.000 C 
BRANCH  20  21
ATOM     21  C   UNL     1       1.452  70.752  18.527  1.00  0.00    -0.000 C 
BRANCH  21  22
ATOM     22  C   UNL     1       1.947  70.009  19.784  1.00  0.00    -0.000 C 
BRANCH  22  23
ATOM     23  C   UNL     1       3.473  70.026  19.990  1.00  0.00    -0.000 C 
BRANCH  23  24
ATOM     24  C   UNL     1       3.964  69.279  21.245  1.00  0.00    -0.000 C 
BRANCH  24  25
ATOM     25  C   UNL     1       4.786  68.011  20.928  1.00  0.00    -0.003 C 
ATOM     26  C   UNL     1       4.299  66.786  21.701  1.00  0.00     0.004 C 
ENDBRANCH  24  25
ENDBRANCH  23  24
ENDBRANCH  22  23
ENDBRANCH  21  22
ENDBRANCH  20  21
ENDBRANCH  19  20
ENDBRANCH  18  19
ENDBRANCH  17  18
ENDBRANCH  16  17
ENDBRANCH  15  16
ENDBRANCH   1  15
TORSDOF 22
ENDMDL
MODEL 7
REMARK VINA RESULT:    -3.164      7.288     11.571
REMARK INTER + INTRA:         -10.881
REMARK INTER:                  -7.161
REMARK INTRA:                  -3.720
REMARK UNBOUND:                -3.647
REMARK SMILES CCCCCCCCCCCCCCCCCCCCCCCC(=O)[O-]
REMARK SMILES IDX 13 1 14 2 15 3 16 4 17 5 18 6 19 7 20 8 21 9 22 10 23 11
REMARK SMILES IDX 24 12 25 13 26 14 12 15 11 16 10 17 9 18 8 19 7 20 6 21 5 22
REMARK SMILES IDX 4 23 3 24 2 25 1 26
REMARK H PARENT
REMARK Flexibility Score: inf
ROOT
ATOM      1  C   UNL     1       6.283  71.533  10.325  1.00  0.00     0.000 C 
ENDROOT
BRANCH   1   2
ATOM      2  C   UNL     1       5.763  70.114  10.599  1.00  0.00     0.000 C 
BRANCH   2   3
ATOM      3  C   UNL     1       4.531  69.759   9.751  1.00  0.00     0.000 C 
BRANCH   3   4
ATOM      4  C   UNL     1       4.071  70.931   8.866  1.00  0.00     0.000 C 
BRANCH   4   5
ATOM      5  C   UNL     1       2.656  71.455   9.183  1.00  0.00     0.000 C 
BRANCH   5   6
ATOM      6  C   UNL     1       2.573  72.967   9.475  1.00  0.00     0.000 C 
BRANCH   6   7
ATOM      7  C   UNL     1       3.117  73.394  10.855  1.00  0.00     0.000 C 
BRANCH   7   8
ATOM      8  C   UNL     1       2.412  72.745  12.061  1.00  0.00     0.000 C 
BRANCH   8   9
ATOM      9  C   UNL     1       3.356  71.880  12.908  1.00  0.00     0.000 C 
BRANCH   9  10
ATOM     10  C   UNL     1       2.790  70.465  13.094  1.00  0.00     0.006 C 
BRANCH  10  11
ATOM     11  C   UNL     1       3.235  69.834  14.421  1.00  0.00     0.053 C 
BRANCH  11  12
ATOM     12  C   UNL     1       2.088  69.669  15.372  1.00  0.00     0.041 C 
ATOM     13  O   UNL     1       1.170  68.843  15.121  1.00  0.00    -0.550 OA
ATOM     14  O   UNL     1       2.054  70.396  16.555  1.00  0.00    -0.550 OA
ENDBRANCH  11  12
ENDBRANCH  10  11
ENDBRANCH   9  10
ENDBRANCH   8   9
ENDBRANCH   7   8
ENDBRANCH   6   7
ENDBRANCH   5   6
ENDBRANCH   4   5
ENDBRANCH   3   4
ENDBRANCH   2   3
ENDBRANCH   1   2
BRANCH   1  15
ATOM     15  C   UNL     1       7.761  71.552   9.896  1.00  0.00     0.000 C 
BRANCH  15  16
ATOM     16  C   UNL     1       8.235  70.173   9.381  1.00  0.00     0.000 C 
BRANCH  16  17
ATOM     17  C   UNL     1       8.558  70.152   7.876  1.00  0.00     0.000 C 
BRANCH  17  18
ATOM     18  C   UNL     1       7.467  70.738   6.955  1.00  0.00    -0.000 C 
BRANCH  18  19
ATOM     19  C   UNL     1       6.493  69.691   6.372  1.00  0.00    -0.000 C 
BRANCH  19  20
ATOM     20  C   UNL     1       7.176  68.688   5.427  1.00  0.00    -0.000 C 
BRANCH  20  21
ATOM     21  C   UNL     1       6.268  68.269   4.251  1.00  0.00    -0.000 C 
BRANCH  21  22
ATOM     22  C   UNL     1       5.833  66.791   4.301  1.00  0.00    -0.000 C 
BRANCH  22  23
ATOM     23  C   UNL     1       4.370  66.559   4.722  1.00  0.00    -0.000 C 
BRANCH  23  24
ATOM     24  C   UNL     1       4.174  66.197   6.208  1.00  0.00    -0.000 C 
BRANCH  24  25
ATOM     25  C   UNL     1       3.442  67.288   7.019  1.00  0.00    -0.003 C 
ATOM     26  C   UNL     1       3.053  68.494   6.164  1.00  0.00     0.004 C 
ENDBRANCH  24  25
ENDBRANCH  23  24
ENDBRANCH  22  23
ENDBRANCH  21  22
ENDBRANCH  20  21
ENDBRANCH  19  20
ENDBRANCH  18  19
ENDBRANCH  17  18
ENDBRANCH  16  17
ENDBRANCH  15  16
ENDBRANCH   1  15
TORSDOF 22
ENDMDL
MODEL 8
REMARK VINA RESULT:    -3.163      2.198      4.709
REMARK INTER + INTRA:         -10.877
REMARK INTER:                  -5.830
REMARK INTRA:                  -5.048
REMARK UNBOUND:                -3.647
REMARK SMILES CCCCCCCCCCCCCCCCCCCCCCCC(=O)[O-]
REMARK SMILES IDX 13 1 14 2 15 3 16 4 17 5 18 6 19 7 20 8 21 9 22 10 23 11
REMARK SMILES IDX 24 12 25 13 26 14 12 15 11 16 10 17 9 18 8 19 7 20 6 21 5 22
REMARK SMILES IDX 4 23 3 24 2 25 1 26
REMARK H PARENT
REMARK Flexibility Score: inf
ROOT
ATOM      1  C   UNL     1       2.467  71.054  18.914  1.00  0.00     0.000 C 
ENDROOT
BRANCH   1   2
ATOM      2  C   UNL     1       3.345  70.078  19.710  1.00  0.00     0.000 C 
BRANCH   2   3
ATOM      3  C   UNL     1       2.522  69.026  20.473  1.00  0.00     0.000 C 
BRANCH   3   4
ATOM      4  C   UNL     1       3.024  67.594  20.219  1.00  0.00     0.000 C 
BRANCH   4   5
ATOM      5  C   UNL     1       1.908  66.561  19.960  1.00  0.00     0.000 C 
BRANCH   5   6
ATOM      6  C   UNL     1       0.938  66.924  18.819  1.00  0.00     0.000 C 
BRANCH   6   7
ATOM      7  C   UNL     1       0.314  65.719  18.086  1.00  0.00     0.000 C 
BRANCH   7   8
ATOM      8  C   UNL     1       0.214  65.867  16.556  1.00  0.00     0.000 C 
BRANCH   8   9
ATOM      9  C   UNL     1      -0.123  64.546  15.850  1.00  0.00     0.000 C 
BRANCH   9  10
ATOM     10  C   UNL     1       0.742  64.354  14.596  1.00  0.00     0.006 C 
BRANCH  10  11
ATOM     11  C   UNL     1       1.618  65.581  14.304  1.00  0.00     0.053 C 
BRANCH  11  12
ATOM     12  C   UNL     1       2.885  65.206  13.596  1.00  0.00     0.041 C 
ATOM     13  O   UNL     1       3.243  64.000  13.535  1.00  0.00    -0.550 OA
ATOM     14  O   UNL     1       3.647  66.183  12.969  1.00  0.00    -0.550 OA
ENDBRANCH  11  12
ENDBRANCH  10  11
ENDBRANCH   9  10
ENDBRANCH   8   9
ENDBRANCH   7   8
ENDBRANCH   6   7
ENDBRANCH   5   6
ENDBRANCH   4   5
ENDBRANCH   3   4
ENDBRANCH   2   3
ENDBRANCH   1   2
BRANCH   1  15
ATOM     15  C   UNL     1       2.637  70.900  17.392  1.00  0.00     0.000 C 
BRANCH  15  16
ATOM     16  C   UNL     1       1.633  69.889  16.793  1.00  0.00     0.000 C 
BRANCH  16  17
ATOM     17  C   UNL     1       2.266  68.905  15.793  1.00  0.00     0.000 C 
BRANCH  17  18
ATOM     18  C   UNL     1       3.702  68.449  16.129  1.00  0.00    -0.000 C 
BRANCH  18  19
ATOM     19  C   UNL     1       3.796  67.031  16.734  1.00  0.00    -0.000 C 
BRANCH  19  20
ATOM     20  C   UNL     1       5.111  66.311  16.392  1.00  0.00    -0.000 C 
BRANCH  20  21
ATOM     21  C   UNL     1       5.029  64.787  16.618  1.00  0.00    -0.000 C 
BRANCH  21  22
ATOM     22  C   UNL     1       3.718  64.329  17.288  1.00  0.00    -0.000 C 
BRANCH  22  23
ATOM     23  C   UNL     1       3.262  62.906  16.918  1.00  0.00    -0.000 C 
BRANCH  23  24
ATOM     24  C   UNL     1       2.079  62.369  17.748  1.00  0.00    -0.000 C 
BRANCH  24  25
ATOM     25  C   UNL     1       2.139  62.767  19.239  1.00  0.00    -0.003 C 
ATOM     26  C   UNL     1       0.862  62.402  19.996  1.00  0.00     0.004 C 
ENDBRANCH  24  25
ENDBRANCH  23  24
ENDBRANCH  22  23
ENDBRANCH  21  22
ENDBRANCH  20  21
ENDBRANCH  19  20
ENDBRANCH  18  19
ENDBRANCH  17  18
ENDBRANCH  16  17
ENDBRANCH  15  16
ENDBRANCH   1  15
TORSDOF 22
ENDMDL
MODEL 9
REMARK VINA RESULT:    -3.132      7.625     10.314
REMARK INTER + INTRA:         -10.807
REMARK INTER:                  -7.391
REMARK INTRA:                  -3.416
REMARK UNBOUND:                -3.647
REMARK SMILES CCCCCCCCCCCCCCCCCCCCCCCC(=O)[O-]
REMARK SMILES IDX 13 1 14 2 15 3 16 4 17 5 18 6 19 7 20 8 21 9 22 10 23 11
REMARK SMILES IDX 24 12 25 13 26 14 12 15 11 16 10 17 9 18 8 19 7 20 6 21 5 22
REMARK SMILES IDX 4 23 3 24 2 25 1 26
REMARK H PARENT
REMARK Flexibility Score: inf
ROOT
ATOM      1  C   UNL     1       4.933  70.038   8.258  1.00  0.00     0.000 C 
ENDROOT
BRANCH   1   2
ATOM      2  C   UNL     1       4.686  70.324   6.769  1.00  0.00     0.000 C 
BRANCH   2   3
ATOM      3  C   UNL     1       5.973  70.265   5.931  1.00  0.00     0.000 C 
BRANCH   3   4
ATOM      4  C   UNL     1       6.554  68.842   5.851  1.00  0.00     0.000 C 
BRANCH   4   5
ATOM      5  C   UNL     1       6.220  68.086   4.549  1.00  0.00     0.000 C 
BRANCH   5   6
ATOM      6  C   UNL     1       5.681  66.655   4.748  1.00  0.00     0.000 C 
BRANCH   6   7
ATOM      7  C   UNL     1       4.193  66.571   5.146  1.00  0.00     0.000 C 
BRANCH   7   8
ATOM      8  C   UNL     1       3.922  65.926   6.518  1.00  0.00     0.000 C 
BRANCH   8   9
ATOM      9  C   UNL     1       3.027  66.791   7.417  1.00  0.00     0.000 C 
BRANCH   9  10
ATOM     10  C   UNL     1       2.012  65.927   8.180  1.00  0.00     0.006 C 
BRANCH  10  11
ATOM     11  C   UNL     1       2.697  64.867   9.054  1.00  0.00     0.053 C 
BRANCH  11  12
ATOM     12  C   UNL     1       2.332  63.476   8.631  1.00  0.00     0.041 C 
ATOM     13  O   UNL     1       1.428  63.291   7.772  1.00  0.00    -0.550 OA
ATOM     14  O   UNL     1       3.017  62.386   9.154  1.00  0.00    -0.550 OA
ENDBRANCH  11  12
ENDBRANCH  10  11
ENDBRANCH   9  10
ENDBRANCH   8   9
ENDBRANCH   7   8
ENDBRANCH   6   7
ENDBRANCH   5   6
ENDBRANCH   4   5
ENDBRANCH   3   4
ENDBRANCH   2   3
ENDBRANCH   1   2
BRANCH   1  15
ATOM     15  C   UNL     1       3.633  70.003   9.080  1.00  0.00     0.000 C 
BRANCH  15  16
ATOM     16  C   UNL     1       3.725  69.024  10.273  1.00  0.00     0.000 C 
BRANCH  16  17
ATOM     17  C   UNL     1       3.353  69.658  11.626  1.00  0.00     0.000 C 
BRANCH  17  18
ATOM     18  C   UNL     1       4.218  70.863  12.054  1.00  0.00    -0.000 C 
BRANCH  18  19
ATOM     19  C   UNL     1       3.452  71.954  12.833  1.00  0.00    -0.000 C 
BRANCH  19  20
ATOM     20  C   UNL     1       2.389  72.672  11.985  1.00  0.00    -0.000 C 
BRANCH  20  21
ATOM     21  C   UNL     1       3.000  73.433  10.789  1.00  0.00    -0.000 C 
BRANCH  21  22
ATOM     22  C   UNL     1       2.116  73.413   9.525  1.00  0.00    -0.000 C 
BRANCH  22  23
ATOM     23  C   UNL     1       0.686  72.886   9.742  1.00  0.00    -0.000 C 
BRANCH  23  24
ATOM     24  C   UNL     1       0.376  71.548   9.042  1.00  0.00    -0.000 C 
BRANCH  24  25
ATOM     25  C   UNL     1       0.082  70.392  10.022  1.00  0.00    -0.003 C 
ATOM     26  C   UNL     1      -0.091  69.049   9.312  1.00  0.00     0.004 C 
ENDBRANCH  24  25
ENDBRANCH  23  24
ENDBRANCH  22  23
ENDBRANCH  21  22
ENDBRANCH  20  21
ENDBRANCH  19  20
ENDBRANCH  18  19
ENDBRANCH  17  18
ENDBRANCH  16  17
ENDBRANCH  15  16
ENDBRANCH   1  15
TORSDOF 22
ENDMDL
