MODEL 1
REMARK VINA RESULT:    -7.133      0.000      0.000
REMARK INTER + INTRA:          -8.701
REMARK INTER:                  -8.384
REMARK INTRA:                  -0.317
REMARK UNBOUND:                -0.317
REMARK SMILES O=c1cc(-c2ccc(O)c(O)c2)oc2cc(O)cc(O)c12
REMARK SMILES IDX 4 1 3 2 2 3 1 4 21 5 19 6 18 7 16 8 15 9 14 10 13 11 5 12
REMARK SMILES IDX 6 13 7 14 8 15 12 16 10 17 9 18 11 20 20 22 17 24
REMARK H PARENT 9 19 11 21 20 23 17 25
REMARK Flexibility Score: inf
ROOT
ATOM      1  C   UNL     1      17.029  -1.829  11.284  1.00  0.00     0.138 A 
ATOM      2  C   UNL     1      15.722  -1.636  11.749  1.00  0.00     0.100 A 
ATOM      3  C   UNL     1      14.651  -1.722  10.858  1.00  0.00     0.197 A 
ATOM      4  O   UNL     1      13.495  -1.489  11.295  1.00  0.00    -0.289 OA
ATOM      5  C   UNL     1      14.891  -2.038   9.499  1.00  0.00     0.107 A 
ATOM      6  C   UNL     1      13.875  -2.185   8.505  1.00  0.00     0.134 A 
ATOM      7  C   UNL     1      14.242  -2.402   7.171  1.00  0.00     0.093 A 
ATOM      8  C   UNL     1      15.581  -2.536   6.803  1.00  0.00     0.123 A 
ATOM      9  C   UNL     1      16.579  -2.444   7.775  1.00  0.00     0.094 A 
ATOM     10  C   UNL     1      16.248  -2.193   9.107  1.00  0.00     0.146 A 
ATOM     11  O   UNL     1      17.230  -2.093   9.997  1.00  0.00    -0.456 OA
ENDROOT
BRANCH   1  12
ATOM     12  C   UNL     1      18.204  -1.753  12.189  1.00  0.00     0.021 A 
ATOM     13  C   UNL     1      18.024  -1.353  13.524  1.00  0.00     0.016 A 
ATOM     14  C   UNL     1      19.112  -1.280  14.397  1.00  0.00     0.051 A 
ATOM     15  C   UNL     1      20.396  -1.616  13.954  1.00  0.00     0.157 A 
ATOM     16  C   UNL     1      19.498  -2.103  11.753  1.00  0.00     0.062 A 
ATOM     17  C   UNL     1      20.589  -2.031  12.631  1.00  0.00     0.158 A 
BRANCH  15  18
ATOM     18  O   UNL     1      21.485  -1.543  14.823  1.00  0.00    -0.504 OA
ATOM     19  H   UNL     1      22.376  -1.963  14.591  1.00  0.00     0.293 HD
ENDBRANCH  15  18
BRANCH  17  20
ATOM     20  O   UNL     1      21.869  -2.376  12.197  1.00  0.00    -0.504 OA
ATOM     21  H   UNL     1      22.690  -2.176  12.755  1.00  0.00     0.293 HD
ENDBRANCH  17  20
ENDBRANCH   1  12
BRANCH   6  22
ATOM     22  O   UNL     1      12.504  -2.150   8.775  1.00  0.00    -0.507 OA
ATOM     23  H   UNL     1      11.775  -2.246   8.085  1.00  0.00     0.293 HD
ENDBRANCH   6  22
BRANCH   8  24
ATOM     24  O   UNL     1      15.906  -2.767   5.469  1.00  0.00    -0.508 OA
ATOM     25  H   UNL     1      15.987  -3.708   5.098  1.00  0.00     0.293 HD
ENDBRANCH   8  24
TORSDOF 5
ENDMDL
MODEL 2
REMARK VINA RESULT:    -6.684      1.245      2.816
REMARK INTER + INTRA:          -8.174
REMARK INTER:                  -7.882
REMARK INTRA:                  -0.292
REMARK UNBOUND:                -0.317
REMARK SMILES O=c1cc(-c2ccc(O)c(O)c2)oc2cc(O)cc(O)c12
REMARK SMILES IDX 4 1 3 2 2 3 1 4 21 5 19 6 18 7 16 8 15 9 14 10 13 11 5 12
REMARK SMILES IDX 6 13 7 14 8 15 12 16 10 17 9 18 11 20 20 22 17 24
REMARK H PARENT 9 19 11 21 20 23 17 25
REMARK Flexibility Score: inf
ROOT
ATOM      1  C   UNL     1      17.151  -1.888  11.213  1.00  0.00     0.138 A 
ATOM      2  C   UNL     1      17.301  -1.897   9.820  1.00  0.00     0.100 A 
ATOM      3  C   UNL     1      16.173  -2.005   9.005  1.00  0.00     0.197 A 
ATOM      4  O   UNL     1      16.345  -2.067   7.760  1.00  0.00    -0.289 OA
ATOM      5  C   UNL     1      14.886  -2.068   9.589  1.00  0.00     0.107 A 
ATOM      6  C   UNL     1      13.661  -2.146   8.857  1.00  0.00     0.134 A 
ATOM      7  C   UNL     1      12.453  -2.303   9.548  1.00  0.00     0.093 A 
ATOM      8  C   UNL     1      12.417  -2.327  10.942  1.00  0.00     0.123 A 
ATOM      9  C   UNL     1      13.602  -2.201  11.668  1.00  0.00     0.094 A 
ATOM     10  C   UNL     1      14.827  -2.078  11.008  1.00  0.00     0.146 A 
ATOM     11  O   UNL     1      15.934  -1.981  11.737  1.00  0.00    -0.456 OA
ENDROOT
BRANCH   1  12
ATOM     12  C   UNL     1      18.315  -1.772  12.128  1.00  0.00     0.021 A 
ATOM     13  C   UNL     1      18.115  -1.331  13.447  1.00  0.00     0.016 A 
ATOM     14  C   UNL     1      19.192  -1.220  14.330  1.00  0.00     0.051 A 
ATOM     15  C   UNL     1      20.485  -1.557  13.912  1.00  0.00     0.157 A 
ATOM     16  C   UNL     1      19.617  -2.122  11.718  1.00  0.00     0.062 A 
ATOM     17  C   UNL     1      20.697  -2.012  12.606  1.00  0.00     0.158 A 
BRANCH  15  18
ATOM     18  O   UNL     1      21.562  -1.446  14.791  1.00  0.00    -0.504 OA
ATOM     19  H   UNL     1      22.421  -1.960  14.643  1.00  0.00     0.293 HD
ENDBRANCH  15  18
BRANCH  17  20
ATOM     20  O   UNL     1      21.984  -2.358  12.197  1.00  0.00    -0.504 OA
ATOM     21  H   UNL     1      22.376  -2.011  11.330  1.00  0.00     0.293 HD
ENDBRANCH  17  20
ENDBRANCH   1  12
BRANCH   6  22
ATOM     22  O   UNL     1      13.573  -2.052   7.465  1.00  0.00    -0.507 OA
ATOM     23  H   UNL     1      13.690  -1.203   6.933  1.00  0.00     0.293 HD
ENDBRANCH   6  22
BRANCH   8  24
ATOM     24  O   UNL     1      11.195  -2.468  11.595  1.00  0.00    -0.508 OA
ATOM     25  H   UNL     1      11.130  -2.894  12.513  1.00  0.00     0.293 HD
ENDBRANCH   8  24
TORSDOF 5
ENDMDL
MODEL 3
REMARK VINA RESULT:    -6.645      1.710      6.840
REMARK INTER + INTRA:          -8.127
REMARK INTER:                  -7.834
REMARK INTRA:                  -0.294
REMARK UNBOUND:                -0.317
REMARK SMILES O=c1cc(-c2ccc(O)c(O)c2)oc2cc(O)cc(O)c12
REMARK SMILES IDX 4 1 3 2 2 3 1 4 21 5 19 6 18 7 16 8 15 9 14 10 13 11 5 12
REMARK SMILES IDX 6 13 7 14 8 15 12 16 10 17 9 18 11 20 20 22 17 24
REMARK H PARENT 9 19 11 21 20 23 17 25
REMARK Flexibility Score: inf
ROOT
ATOM      1  C   UNL     1      16.696  -2.047  10.213  1.00  0.00     0.138 A 
ATOM      2  C   UNL     1      16.504  -2.698  11.439  1.00  0.00     0.100 A 
ATOM      3  C   UNL     1      17.404  -2.483  12.484  1.00  0.00     0.197 A 
ATOM      4  O   UNL     1      17.236  -3.125  13.553  1.00  0.00    -0.289 OA
ATOM      5  C   UNL     1      18.481  -1.582  12.310  1.00  0.00     0.107 A 
ATOM      6  C   UNL     1      19.443  -1.257  13.316  1.00  0.00     0.134 A 
ATOM      7  C   UNL     1      20.523  -0.426  12.995  1.00  0.00     0.093 A 
ATOM      8  C   UNL     1      20.647   0.139  11.726  1.00  0.00     0.123 A 
ATOM      9  C   UNL     1      19.686  -0.132  10.751  1.00  0.00     0.094 A 
ATOM     10  C   UNL     1      18.616  -0.984  11.029  1.00  0.00     0.146 A 
ATOM     11  O   UNL     1      17.734  -1.230  10.066  1.00  0.00    -0.456 OA
ENDROOT
BRANCH   1  12
ATOM     12  C   UNL     1      15.768  -2.236   9.069  1.00  0.00     0.021 A 
ATOM     13  C   UNL     1      14.381  -2.216   9.294  1.00  0.00     0.016 A 
ATOM     14  C   UNL     1      13.487  -2.385   8.234  1.00  0.00     0.051 A 
ATOM     15  C   UNL     1      13.964  -2.565   6.930  1.00  0.00     0.157 A 
ATOM     16  C   UNL     1      16.242  -2.404   7.752  1.00  0.00     0.062 A 
ATOM     17  C   UNL     1      15.343  -2.571   6.689  1.00  0.00     0.158 A 
BRANCH  15  18
ATOM     18  O   UNL     1      13.074  -2.735   5.870  1.00  0.00    -0.504 OA
ATOM     19  H   UNL     1      12.271  -3.347   5.945  1.00  0.00     0.293 HD
ENDBRANCH  15  18
BRANCH  17  20
ATOM     20  O   UNL     1      15.814  -2.740   5.387  1.00  0.00    -0.504 OA
ATOM     21  H   UNL     1      15.781  -3.640   4.924  1.00  0.00     0.293 HD
ENDBRANCH  17  20
ENDBRANCH   1  12
BRANCH   6  22
ATOM     22  O   UNL     1      19.372  -1.702  14.640  1.00  0.00    -0.507 OA
ATOM     23  H   UNL     1      19.803  -2.543  14.992  1.00  0.00     0.293 HD
ENDBRANCH   6  22
BRANCH   8  24
ATOM     24  O   UNL     1      21.726   0.974  11.449  1.00  0.00    -0.508 OA
ATOM     25  H   UNL     1      21.651   1.734  10.782  1.00  0.00     0.293 HD
ENDBRANCH   8  24
TORSDOF 5
ENDMDL
MODEL 4
REMARK VINA RESULT:    -6.502      1.416      6.856
REMARK INTER + INTRA:          -7.960
REMARK INTER:                  -7.663
REMARK INTRA:                  -0.296
REMARK UNBOUND:                -0.317
REMARK SMILES O=c1cc(-c2ccc(O)c(O)c2)oc2cc(O)cc(O)c12
REMARK SMILES IDX 4 1 3 2 2 3 1 4 21 5 19 6 18 7 16 8 15 9 14 10 13 11 5 12
REMARK SMILES IDX 6 13 7 14 8 15 12 16 10 17 9 18 11 20 20 22 17 24
REMARK H PARENT 9 19 11 21 20 23 17 25
REMARK Flexibility Score: inf
ROOT
ATOM      1  C   UNL     1      16.436  -2.048  10.343  1.00  0.00     0.138 A 
ATOM      2  C   UNL     1      15.503  -1.901  11.378  1.00  0.00     0.100 A 
ATOM      3  C   UNL     1      15.948  -1.704  12.686  1.00  0.00     0.197 A 
ATOM      4  O   UNL     1      15.087  -1.632  13.601  1.00  0.00    -0.289 OA
ATOM      5  C   UNL     1      17.335  -1.620  12.952  1.00  0.00     0.107 A 
ATOM      6  C   UNL     1      17.906  -1.388  14.241  1.00  0.00     0.134 A 
ATOM      7  C   UNL     1      19.297  -1.423  14.397  1.00  0.00     0.093 A 
ATOM      8  C   UNL     1      20.140  -1.623  13.304  1.00  0.00     0.123 A 
ATOM      9  C   UNL     1      19.595  -1.800  12.031  1.00  0.00     0.094 A 
ATOM     10  C   UNL     1      18.211  -1.805  11.849  1.00  0.00     0.146 A 
ATOM     11  O   UNL     1      17.733  -1.997  10.624  1.00  0.00    -0.456 OA
ENDROOT
BRANCH   1  12
ATOM     12  C   UNL     1      16.019  -2.256   8.933  1.00  0.00     0.021 A 
ATOM     13  C   UNL     1      16.993  -2.526   7.957  1.00  0.00     0.016 A 
ATOM     14  C   UNL     1      16.626  -2.732   6.625  1.00  0.00     0.051 A 
ATOM     15  C   UNL     1      15.279  -2.683   6.248  1.00  0.00     0.157 A 
ATOM     16  C   UNL     1      14.663  -2.221   8.549  1.00  0.00     0.062 A 
ATOM     17  C   UNL     1      14.296  -2.430   7.211  1.00  0.00     0.158 A 
BRANCH  15  18
ATOM     18  O   UNL     1      14.910  -2.887   4.918  1.00  0.00    -0.504 OA
ATOM     19  H   UNL     1      15.546  -3.305   4.250  1.00  0.00     0.293 HD
ENDBRANCH  15  18
BRANCH  17  20
ATOM     20  O   UNL     1      12.955  -2.393   6.833  1.00  0.00    -0.504 OA
ATOM     21  H   UNL     1      12.479  -3.215   6.482  1.00  0.00     0.293 HD
ENDBRANCH  17  20
ENDBRANCH   1  12
BRANCH   6  22
ATOM     22  O   UNL     1      17.159  -1.099  15.387  1.00  0.00    -0.507 OA
ATOM     23  H   UNL     1      16.554  -1.750  15.865  1.00  0.00     0.293 HD
ENDBRANCH   6  22
BRANCH   8  24
ATOM     24  O   UNL     1      21.520  -1.635  13.495  1.00  0.00    -0.508 OA
ATOM     25  H   UNL     1      22.009  -0.835  13.879  1.00  0.00     0.293 HD
ENDBRANCH   8  24
TORSDOF 5
ENDMDL
MODEL 5
REMARK VINA RESULT:    -6.460      3.748      7.428
REMARK INTER + INTRA:          -7.910
REMARK INTER:                  -7.613
REMARK INTRA:                  -0.297
REMARK UNBOUND:                -0.317
REMARK SMILES O=c1cc(-c2ccc(O)c(O)c2)oc2cc(O)cc(O)c12
REMARK SMILES IDX 4 1 3 2 2 3 1 4 21 5 19 6 18 7 16 8 15 9 14 10 13 11 5 12
REMARK SMILES IDX 6 13 7 14 8 15 12 16 10 17 9 18 11 20 20 22 17 24
REMARK H PARENT 9 19 11 21 20 23 17 25
REMARK Flexibility Score: inf
ROOT
ATOM      1  C   UNL     1      16.499  -0.746  14.141  1.00  0.00     0.138 A 
ATOM      2  C   UNL     1      16.896   0.258  15.034  1.00  0.00     0.100 A 
ATOM      3  C   UNL     1      18.251   0.560  15.176  1.00  0.00     0.197 A 
ATOM      4  O   UNL     1      18.580   1.427  16.026  1.00  0.00    -0.289 OA
ATOM      5  C   UNL     1      19.210  -0.124  14.392  1.00  0.00     0.107 A 
ATOM      6  C   UNL     1      20.617   0.122  14.426  1.00  0.00     0.134 A 
ATOM      7  C   UNL     1      21.478  -0.688  13.675  1.00  0.00     0.093 A 
ATOM      8  C   UNL     1      20.982  -1.695  12.848  1.00  0.00     0.123 A 
ATOM      9  C   UNL     1      19.605  -1.912  12.768  1.00  0.00     0.094 A 
ATOM     10  C   UNL     1      18.723  -1.144  13.531  1.00  0.00     0.146 A 
ATOM     11  O   UNL     1      17.421  -1.396  13.440  1.00  0.00    -0.456 OA
ENDROOT
BRANCH   1  12
ATOM     12  C   UNL     1      15.071  -1.106  13.947  1.00  0.00     0.021 A 
ATOM     13  C   UNL     1      14.727  -2.083  12.997  1.00  0.00     0.016 A 
ATOM     14  C   UNL     1      13.392  -2.444  12.800  1.00  0.00     0.051 A 
ATOM     15  C   UNL     1      12.380  -1.844  13.557  1.00  0.00     0.157 A 
ATOM     16  C   UNL     1      14.048  -0.515  14.715  1.00  0.00     0.062 A 
ATOM     17  C   UNL     1      12.708  -0.880  14.519  1.00  0.00     0.158 A 
BRANCH  15  18
ATOM     18  O   UNL     1      11.046  -2.202  13.363  1.00  0.00    -0.504 OA
ATOM     19  H   UNL     1      10.528  -1.892  12.550  1.00  0.00     0.293 HD
ENDBRANCH  15  18
BRANCH  17  20
ATOM     20  O   UNL     1      11.697  -0.293  15.278  1.00  0.00    -0.504 OA
ATOM     21  H   UNL     1      11.013  -0.852  15.775  1.00  0.00     0.293 HD
ENDBRANCH  17  20
ENDBRANCH   1  12
BRANCH   6  22
ATOM     22  O   UNL     1      21.214   1.154  15.156  1.00  0.00    -0.507 OA
ATOM     23  H   UNL     1      21.014   2.135  15.043  1.00  0.00     0.293 HD
ENDBRANCH   6  22
BRANCH   8  24
ATOM     24  O   UNL     1      21.868  -2.470  12.104  1.00  0.00    -0.508 OA
ATOM     25  H   UNL     1      21.762  -2.582  11.101  1.00  0.00     0.293 HD
ENDBRANCH   8  24
TORSDOF 5
ENDMDL
MODEL 6
REMARK VINA RESULT:    -6.429      2.485      6.961
REMARK INTER + INTRA:          -7.873
REMARK INTER:                  -7.556
REMARK INTRA:                  -0.318
REMARK UNBOUND:                -0.317
REMARK SMILES O=c1cc(-c2ccc(O)c(O)c2)oc2cc(O)cc(O)c12
REMARK SMILES IDX 4 1 3 2 2 3 1 4 21 5 19 6 18 7 16 8 15 9 14 10 13 11 5 12
REMARK SMILES IDX 6 13 7 14 8 15 12 16 10 17 9 18 11 20 20 22 17 24
REMARK H PARENT 9 19 11 21 20 23 17 25
REMARK Flexibility Score: inf
ROOT
ATOM      1  C   UNL     1      15.340  -2.097  10.114  1.00  0.00     0.138 A 
ATOM      2  C   UNL     1      16.495  -2.220  10.897  1.00  0.00     0.100 A 
ATOM      3  C   UNL     1      16.418  -2.019  12.276  1.00  0.00     0.197 A 
ATOM      4  O   UNL     1      17.483  -2.081  12.944  1.00  0.00    -0.289 OA
ATOM      5  C   UNL     1      15.170  -1.728  12.877  1.00  0.00     0.107 A 
ATOM      6  C   UNL     1      14.965  -1.537  14.278  1.00  0.00     0.134 A 
ATOM      7  C   UNL     1      13.701  -1.157  14.744  1.00  0.00     0.093 A 
ATOM      8  C   UNL     1      12.622  -1.017  13.872  1.00  0.00     0.123 A 
ATOM      9  C   UNL     1      12.799  -1.251  12.507  1.00  0.00     0.094 A 
ATOM     10  C   UNL     1      14.056  -1.597  12.006  1.00  0.00     0.146 A 
ATOM     11  O   UNL     1      14.186  -1.792  10.698  1.00  0.00    -0.456 OA
ENDROOT
BRANCH   1  12
ATOM     12  C   UNL     1      15.362  -2.303   8.643  1.00  0.00     0.021 A 
ATOM     13  C   UNL     1      16.578  -2.604   8.006  1.00  0.00     0.016 A 
ATOM     14  C   UNL     1      16.625  -2.809   6.625  1.00  0.00     0.051 A 
ATOM     15  C   UNL     1      15.456  -2.727   5.859  1.00  0.00     0.157 A 
ATOM     16  C   UNL     1      14.187  -2.235   7.868  1.00  0.00     0.062 A 
ATOM     17  C   UNL     1      14.235  -2.444   6.482  1.00  0.00     0.158 A 
BRANCH  15  18
ATOM     18  O   UNL     1      15.500  -2.931   4.480  1.00  0.00    -0.504 OA
ATOM     19  H   UNL     1      16.096  -2.373   3.881  1.00  0.00     0.293 HD
ENDBRANCH  15  18
BRANCH  17  20
ATOM     20  O   UNL     1      13.071  -2.375   5.717  1.00  0.00    -0.504 OA
ATOM     21  H   UNL     1      12.679  -1.487   5.428  1.00  0.00     0.293 HD
ENDBRANCH  17  20
ENDBRANCH   1  12
BRANCH   6  22
ATOM     22  O   UNL     1      15.953  -1.728  15.248  1.00  0.00    -0.507 OA
ATOM     23  H   UNL     1      16.549  -1.004  15.620  1.00  0.00     0.293 HD
ENDBRANCH   6  22
BRANCH   8  24
ATOM     24  O   UNL     1      11.375  -0.653  14.374  1.00  0.00    -0.508 OA
ATOM     25  H   UNL     1      10.579  -1.279  14.322  1.00  0.00     0.293 HD
ENDBRANCH   8  24
TORSDOF 5
ENDMDL
MODEL 7
REMARK VINA RESULT:    -6.393      3.515      7.620
REMARK INTER + INTRA:          -7.831
REMARK INTER:                  -7.513
REMARK INTRA:                  -0.318
REMARK UNBOUND:                -0.317
REMARK SMILES O=c1cc(-c2ccc(O)c(O)c2)oc2cc(O)cc(O)c12
REMARK SMILES IDX 4 1 3 2 2 3 1 4 21 5 19 6 18 7 16 8 15 9 14 10 13 11 5 12
REMARK SMILES IDX 6 13 7 14 8 15 12 16 10 17 9 18 11 20 20 22 17 24
REMARK H PARENT 9 19 11 21 20 23 17 25
REMARK Flexibility Score: inf
ROOT
ATOM      1  C   UNL     1      15.749  -1.604  13.438  1.00  0.00     0.138 A 
ATOM      2  C   UNL     1      16.506  -2.483  12.652  1.00  0.00     0.100 A 
ATOM      3  C   UNL     1      17.895  -2.356  12.618  1.00  0.00     0.197 A 
ATOM      4  O   UNL     1      18.542  -3.125  11.860  1.00  0.00    -0.289 OA
ATOM      5  C   UNL     1      18.531  -1.365  13.402  1.00  0.00     0.107 A 
ATOM      6  C   UNL     1      19.944  -1.163  13.473  1.00  0.00     0.134 A 
ATOM      7  C   UNL     1      20.451  -0.085  14.209  1.00  0.00     0.093 A 
ATOM      8  C   UNL     1      19.605   0.763  14.923  1.00  0.00     0.123 A 
ATOM      9  C   UNL     1      18.226   0.545  14.902  1.00  0.00     0.094 A 
ATOM     10  C   UNL     1      17.687  -0.501  14.149  1.00  0.00     0.146 A 
ATOM     11  O   UNL     1      16.367  -0.661  14.141  1.00  0.00    -0.456 OA
ENDROOT
BRANCH   1  12
ATOM     12  C   UNL     1      14.268  -1.695  13.515  1.00  0.00     0.021 A 
ATOM     13  C   UNL     1      13.593  -2.650  12.735  1.00  0.00     0.016 A 
ATOM     14  C   UNL     1      12.202  -2.761  12.795  1.00  0.00     0.051 A 
ATOM     15  C   UNL     1      11.463  -1.928  13.642  1.00  0.00     0.157 A 
ATOM     16  C   UNL     1      13.519  -0.868  14.376  1.00  0.00     0.062 A 
ATOM     17  C   UNL     1      12.123  -0.983  14.437  1.00  0.00     0.158 A 
BRANCH  15  18
ATOM     18  O   UNL     1      10.074  -2.035  13.703  1.00  0.00    -0.504 OA
ATOM     19  H   UNL     1       9.608  -2.437  14.507  1.00  0.00     0.293 HD
ENDBRANCH  15  18
BRANCH  17  20
ATOM     20  O   UNL     1      11.384  -0.162  15.288  1.00  0.00    -0.504 OA
ATOM     21  H   UNL     1      11.221  -0.411  16.256  1.00  0.00     0.293 HD
ENDBRANCH  17  20
ENDBRANCH   1  12
BRANCH   6  22
ATOM     22  O   UNL     1      20.886  -1.998  12.864  1.00  0.00    -0.507 OA
ATOM     23  H   UNL     1      20.991  -2.984  13.048  1.00  0.00     0.293 HD
ENDBRANCH   6  22
BRANCH   8  24
ATOM     24  O   UNL     1      20.146   1.815  15.657  1.00  0.00    -0.508 OA
ATOM     25  H   UNL     1      21.025   1.718  16.154  1.00  0.00     0.293 HD
ENDBRANCH   8  24
TORSDOF 5
ENDMDL
MODEL 8
REMARK VINA RESULT:    -6.303      1.462      7.263
REMARK INTER + INTRA:          -7.726
REMARK INTER:                  -7.435
REMARK INTRA:                  -0.291
REMARK UNBOUND:                -0.317
REMARK SMILES O=c1cc(-c2ccc(O)c(O)c2)oc2cc(O)cc(O)c12
REMARK SMILES IDX 4 1 3 2 2 3 1 4 21 5 19 6 18 7 16 8 15 9 14 10 13 11 5 12
REMARK SMILES IDX 6 13 7 14 8 15 12 16 10 17 9 18 11 20 20 22 17 24
REMARK H PARENT 9 19 11 21 20 23 17 25
REMARK Flexibility Score: inf
ROOT
ATOM      1  C   UNL     1      17.345  -1.767  10.719  1.00  0.00     0.138 A 
ATOM      2  C   UNL     1      18.633  -1.341  10.367  1.00  0.00     0.100 A 
ATOM      3  C   UNL     1      19.611  -1.213  11.355  1.00  0.00     0.197 A 
ATOM      4  O   UNL     1      20.741  -0.775  11.016  1.00  0.00    -0.289 OA
ATOM      5  C   UNL     1      19.306  -1.546  12.696  1.00  0.00     0.107 A 
ATOM      6  C   UNL     1      20.233  -1.486  13.781  1.00  0.00     0.134 A 
ATOM      7  C   UNL     1      19.787  -1.747  15.083  1.00  0.00     0.093 A 
ATOM      8  C   UNL     1      18.467  -2.121  15.334  1.00  0.00     0.123 A 
ATOM      9  C   UNL     1      17.566  -2.231  14.273  1.00  0.00     0.094 A 
ATOM     10  C   UNL     1      17.970  -1.945  12.968  1.00  0.00     0.146 A 
ATOM     11  O   UNL     1      17.075  -2.043  11.990  1.00  0.00    -0.456 OA
ENDROOT
BRANCH   1  12
ATOM     12  C   UNL     1      16.267  -1.925   9.710  1.00  0.00     0.021 A 
ATOM     13  C   UNL     1      14.924  -1.832  10.114  1.00  0.00     0.016 A 
ATOM     14  C   UNL     1      13.891  -1.971   9.184  1.00  0.00     0.051 A 
ATOM     15  C   UNL     1      14.182  -2.192   7.833  1.00  0.00     0.157 A 
ATOM     16  C   UNL     1      16.553  -2.135   8.347  1.00  0.00     0.062 A 
ATOM     17  C   UNL     1      15.515  -2.271   7.413  1.00  0.00     0.158 A 
BRANCH  15  18
ATOM     18  O   UNL     1      13.153  -2.332   6.902  1.00  0.00    -0.504 OA
ATOM     19  H   UNL     1      12.185  -2.178   7.156  1.00  0.00     0.293 HD
ENDBRANCH  15  18
BRANCH  17  20
ATOM     20  O   UNL     1      15.802  -2.480   6.065  1.00  0.00    -0.504 OA
ATOM     21  H   UNL     1      15.534  -1.809   5.355  1.00  0.00     0.293 HD
ENDBRANCH  17  20
ENDBRANCH   1  12
BRANCH   6  22
ATOM     22  O   UNL     1      21.593  -1.201  13.636  1.00  0.00    -0.507 OA
ATOM     23  H   UNL     1      22.220  -0.964  14.389  1.00  0.00     0.293 HD
ENDBRANCH   6  22
BRANCH   8  24
ATOM     24  O   UNL     1      18.065  -2.388  16.639  1.00  0.00    -0.508 OA
ATOM     25  H   UNL     1      17.568  -3.239  16.878  1.00  0.00     0.293 HD
ENDBRANCH   8  24
TORSDOF 5
ENDMDL
MODEL 9
REMARK VINA RESULT:    -6.206      2.926      4.731
REMARK INTER + INTRA:          -7.612
REMARK INTER:                  -7.311
REMARK INTRA:                  -0.301
REMARK UNBOUND:                -0.317
REMARK SMILES O=c1cc(-c2ccc(O)c(O)c2)oc2cc(O)cc(O)c12
REMARK SMILES IDX 4 1 3 2 2 3 1 4 21 5 19 6 18 7 16 8 15 9 14 10 13 11 5 12
REMARK SMILES IDX 6 13 7 14 8 15 12 16 10 17 9 18 11 20 20 22 17 24
REMARK H PARENT 9 19 11 21 20 23 17 25
REMARK Flexibility Score: inf
ROOT
ATOM      1  C   UNL     1      17.082  -1.140  13.523  1.00  0.00     0.138 A 
ATOM      2  C   UNL     1      16.898  -1.912  12.368  1.00  0.00     0.100 A 
ATOM      3  C   UNL     1      15.607  -2.253  11.963  1.00  0.00     0.197 A 
ATOM      4  O   UNL     1      15.478  -2.993  10.954  1.00  0.00    -0.289 OA
ATOM      5  C   UNL     1      14.492  -1.789  12.702  1.00  0.00     0.107 A 
ATOM      6  C   UNL     1      13.128  -2.046  12.366  1.00  0.00     0.134 A 
ATOM      7  C   UNL     1      12.112  -1.616  13.229  1.00  0.00     0.093 A 
ATOM      8  C   UNL     1      12.405  -0.890  14.383  1.00  0.00     0.123 A 
ATOM      9  C   UNL     1      13.732  -0.590  14.695  1.00  0.00     0.094 A 
ATOM     10  C   UNL     1      14.770  -1.034  13.873  1.00  0.00     0.146 A 
ATOM     11  O   UNL     1      16.020  -0.743  14.216  1.00  0.00    -0.456 OA
ENDROOT
BRANCH   1  12
ATOM     12  C   UNL     1      18.432  -0.744  13.997  1.00  0.00     0.021 A 
ATOM     13  C   UNL     1      19.512  -1.626  13.821  1.00  0.00     0.016 A 
ATOM     14  C   UNL     1      20.794  -1.275  14.252  1.00  0.00     0.051 A 
ATOM     15  C   UNL     1      21.020  -0.033  14.856  1.00  0.00     0.157 A 
ATOM     16  C   UNL     1      18.670   0.510  14.594  1.00  0.00     0.062 A 
ATOM     17  C   UNL     1      19.957   0.862  15.024  1.00  0.00     0.158 A 
BRANCH  15  18
ATOM     18  O   UNL     1      22.298   0.320  15.288  1.00  0.00    -0.504 OA
ATOM     19  H   UNL     1      23.087   0.334  14.654  1.00  0.00     0.293 HD
ENDBRANCH  15  18
BRANCH  17  20
ATOM     20  O   UNL     1      20.189   2.103  15.615  1.00  0.00    -0.504 OA
ATOM     21  H   UNL     1      20.174   2.223  16.621  1.00  0.00     0.293 HD
ENDBRANCH  17  20
ENDBRANCH   1  12
BRANCH   6  22
ATOM     22  O   UNL     1      12.717  -2.693  11.197  1.00  0.00    -0.507 OA
ATOM     23  H   UNL     1      12.135  -2.284  10.482  1.00  0.00     0.293 HD
ENDBRANCH   6  22
BRANCH   8  24
ATOM     24  O   UNL     1      11.368  -0.465  15.209  1.00  0.00    -0.508 OA
ATOM     25  H   UNL     1      11.463  -0.455  16.218  1.00  0.00     0.293 HD
ENDBRANCH   8  24
TORSDOF 5
ENDMDL
