MODEL 1
REMARK VINA RESULT:    -6.995      0.000      0.000
REMARK INTER + INTRA:         -10.992
REMARK INTER:                 -10.062
REMARK INTRA:                  -0.931
REMARK UNBOUND:                -0.931
REMARK SMILES O=c1cc(-c2ccc(O)c(O)c2)oc2cc(O[C@@H]3O[C@@H](CO)[C@@H](O)[C@@H](O)[C@@H]3O)cc(O)c12
REMARK SMILES IDX 17 1 16 2 4 3 3 4 13 5 2 6 14 7 1 8 32 9 15 10 30 11 29 12
REMARK SMILES IDX 5 13 6 14 7 15 8 16 12 17 10 18 9 19 11 21 31 23 18 25 27 26
REMARK SMILES IDX 19 27 25 28 20 29 23 30 28 31 26 33 21 35 22 36 24 38
REMARK H PARENT 9 20 11 22 31 24 28 32 26 34 22 37 24 39
REMARK Flexibility Score: inf
ROOT
ATOM      1  O   UNL     1      -6.665  -3.401  20.870  1.00  0.00    -0.462 OA
ENDROOT
BRANCH   1   2
ATOM      2  C   UNL     1      -5.971  -4.546  21.291  1.00  0.00     0.130 A 
ATOM      3  C   UNL     1      -3.325  -6.874  24.511  1.00  0.00     0.138 A 
ATOM      4  C   UNL     1      -3.259  -8.027  23.713  1.00  0.00     0.100 A 
ATOM      5  O   UNL     1      -4.006  -5.816  24.077  1.00  0.00    -0.456 OA
ATOM      6  C   UNL     1      -3.896  -8.040  22.472  1.00  0.00     0.197 A 
ATOM      7  C   UNL     1      -4.629  -5.779  22.902  1.00  0.00     0.146 A 
ATOM      8  O   UNL     1      -3.833  -9.082  21.764  1.00  0.00    -0.289 OA
ATOM      9  C   UNL     1      -4.599  -6.899  22.039  1.00  0.00     0.107 A 
ATOM     10  C   UNL     1      -5.311  -4.618  22.529  1.00  0.00     0.094 A 
ATOM     11  C   UNL     1      -5.266  -6.826  20.795  1.00  0.00     0.134 A 
ATOM     12  C   UNL     1      -5.941  -5.651  20.436  1.00  0.00     0.093 A 
BRANCH   3  13
ATOM     13  C   UNL     1      -2.664  -6.803  25.837  1.00  0.00     0.021 A 
ATOM     14  C   UNL     1      -1.728  -7.770  26.249  1.00  0.00     0.016 A 
ATOM     15  C   UNL     1      -1.108  -7.669  27.496  1.00  0.00     0.051 A 
ATOM     16  C   UNL     1      -1.407  -6.601  28.351  1.00  0.00     0.157 A 
ATOM     17  C   UNL     1      -2.949  -5.725  26.696  1.00  0.00     0.062 A 
ATOM     18  C   UNL     1      -2.328  -5.626  27.949  1.00  0.00     0.158 A 
BRANCH  16  19
ATOM     19  O   UNL     1      -0.790  -6.498  29.597  1.00  0.00    -0.504 OA
ATOM     20  H   UNL     1      -1.197  -5.948  30.345  1.00  0.00     0.293 HD
ENDBRANCH  16  19
BRANCH  18  21
ATOM     21  O   UNL     1      -2.620  -4.561  28.799  1.00  0.00    -0.504 OA
ATOM     22  H   UNL     1      -2.655  -4.678  29.804  1.00  0.00     0.293 HD
ENDBRANCH  18  21
ENDBRANCH   3  13
BRANCH  11  23
ATOM     23  O   UNL     1      -5.260  -7.908  19.913  1.00  0.00    -0.507 OA
ATOM     24  H   UNL     1      -6.019  -8.579  19.891  1.00  0.00     0.293 HD
ENDBRANCH  11  23
ENDBRANCH   1   2
BRANCH   1  25
ATOM     25  C   UNL     1      -7.852  -3.405  20.072  1.00  0.00     0.339 C 
ATOM     26  C   UNL     1      -8.981  -2.623  20.775  1.00  0.00     0.214 C 
ATOM     27  O   UNL     1      -7.605  -2.897  18.768  1.00  0.00    -0.332 OA
ATOM     28  C   UNL     1      -8.665  -1.116  20.795  1.00  0.00     0.180 C 
ATOM     29  C   UNL     1      -7.160  -1.550  18.810  1.00  0.00     0.179 C 
ATOM     30  C   UNL     1      -8.252  -0.623  19.396  1.00  0.00     0.177 C 
BRANCH  26  31
ATOM     31  O   UNL     1      -9.139  -3.085  22.092  1.00  0.00    -0.384 OA
ATOM     32  H   UNL     1      -9.952  -3.653  22.103  1.00  0.00     0.211 HD
ENDBRANCH  26  31
BRANCH  28  33
ATOM     33  O   UNL     1      -9.783  -0.389  21.239  1.00  0.00    -0.387 OA
ATOM     34  H   UNL     1     -10.035   0.230  20.505  1.00  0.00     0.211 HD
ENDBRANCH  28  33
BRANCH  29  35
ATOM     35  C   UNL     1      -6.763  -1.115  17.396  1.00  0.00     0.191 C 
BRANCH  35  36
ATOM     36  O   UNL     1      -6.401   0.238  17.407  1.00  0.00    -0.394 OA
ATOM     37  H   UNL     1      -5.859   0.386  16.588  1.00  0.00     0.210 HD
ENDBRANCH  35  36
ENDBRANCH  29  35
BRANCH  30  38
ATOM     38  O   UNL     1      -9.368  -0.512  18.543  1.00  0.00    -0.387 OA
ATOM     39  H   UNL     1      -9.257  -1.162  17.802  1.00  0.00     0.211 HD
ENDBRANCH  30  38
ENDBRANCH   1  25
TORSDOF 11
ENDMDL
MODEL 2
REMARK VINA RESULT:    -6.727      2.232      9.279
REMARK INTER + INTRA:         -10.608
REMARK INTER:                  -9.589
REMARK INTRA:                  -1.019
REMARK UNBOUND:                -0.931
REMARK SMILES O=c1cc(-c2ccc(O)c(O)c2)oc2cc(O[C@@H]3O[C@@H](CO)[C@@H](O)[C@@H](O)[C@@H]3O)cc(O)c12
REMARK SMILES IDX 17 1 16 2 4 3 3 4 13 5 2 6 14 7 1 8 32 9 15 10 30 11 29 12
REMARK SMILES IDX 5 13 6 14 7 15 8 16 12 17 10 18 9 19 11 21 31 23 18 25 27 26
REMARK SMILES IDX 19 27 25 28 20 29 23 30 28 31 26 33 21 35 22 36 24 38
REMARK H PARENT 9 20 11 22 31 24 28 32 26 34 22 37 24 39
REMARK Flexibility Score: inf
ROOT
ATOM      1  O   UNL     1      -4.238  -6.470  26.255  1.00  0.00    -0.462 OA
ENDROOT
BRANCH   1   2
ATOM      2  C   UNL     1      -5.196  -6.573  25.235  1.00  0.00     0.130 A 
ATOM      3  C   UNL     1      -7.321  -4.856  21.320  1.00  0.00     0.138 A 
ATOM      4  C   UNL     1      -8.198  -5.949  21.242  1.00  0.00     0.100 A 
ATOM      5  O   UNL     1      -6.419  -4.808  22.298  1.00  0.00    -0.456 OA
ATOM      6  C   UNL     1      -8.120  -6.961  22.200  1.00  0.00     0.197 A 
ATOM      7  C   UNL     1      -6.306  -5.746  23.234  1.00  0.00     0.146 A 
ATOM      8  O   UNL     1      -8.911  -7.940  22.121  1.00  0.00    -0.289 OA
ATOM      9  C   UNL     1      -7.161  -6.873  23.228  1.00  0.00     0.107 A 
ATOM     10  C   UNL     1      -5.334  -5.602  24.228  1.00  0.00     0.094 A 
ATOM     11  C   UNL     1      -7.019  -7.849  24.241  1.00  0.00     0.134 A 
ATOM     12  C   UNL     1      -6.041  -7.686  25.232  1.00  0.00     0.093 A 
BRANCH   3  13
ATOM     13  C   UNL     1      -7.360  -3.751  20.331  1.00  0.00     0.021 A 
ATOM     14  C   UNL     1      -6.938  -3.936  19.000  1.00  0.00     0.016 A 
ATOM     15  C   UNL     1      -7.003  -2.882  18.085  1.00  0.00     0.051 A 
ATOM     16  C   UNL     1      -7.495  -1.632  18.478  1.00  0.00     0.157 A 
ATOM     17  C   UNL     1      -7.865  -2.495  20.715  1.00  0.00     0.062 A 
ATOM     18  C   UNL     1      -7.928  -1.439  19.795  1.00  0.00     0.158 A 
BRANCH  16  19
ATOM     19  O   UNL     1      -7.559  -0.579  17.567  1.00  0.00    -0.504 OA
ATOM     20  H   UNL     1      -6.834  -0.434  16.874  1.00  0.00     0.293 HD
ENDBRANCH  16  19
BRANCH  18  21
ATOM     21  O   UNL     1      -8.422  -0.194  20.183  1.00  0.00    -0.504 OA
ATOM     22  H   UNL     1      -7.969   0.667  19.903  1.00  0.00     0.293 HD
ENDBRANCH  18  21
ENDBRANCH   3  13
BRANCH  11  23
ATOM     23  O   UNL     1      -7.843  -8.975  24.272  1.00  0.00    -0.507 OA
ATOM     24  H   UNL     1      -8.816  -8.915  24.546  1.00  0.00     0.293 HD
ENDBRANCH  11  23
ENDBRANCH   1   2
BRANCH   1  25
ATOM     25  C   UNL     1      -2.918  -5.943  26.095  1.00  0.00     0.339 C 
ATOM     26  C   UNL     1      -2.425  -5.304  27.410  1.00  0.00     0.214 C 
ATOM     27  O   UNL     1      -2.013  -6.936  25.632  1.00  0.00    -0.332 OA
ATOM     28  C   UNL     1      -2.165  -6.387  28.475  1.00  0.00     0.180 C 
ATOM     29  C   UNL     1      -1.902  -8.010  26.553  1.00  0.00     0.179 C 
ATOM     30  C   UNL     1      -1.307  -7.528  27.898  1.00  0.00     0.177 C 
BRANCH  26  31
ATOM     31  O   UNL     1      -3.382  -4.396  27.892  1.00  0.00    -0.384 OA
ATOM     32  H   UNL     1      -4.084  -4.321  27.195  1.00  0.00     0.211 HD
ENDBRANCH  26  31
BRANCH  28  33
ATOM     33  O   UNL     1      -1.518  -5.829  29.590  1.00  0.00    -0.387 OA
ATOM     34  H   UNL     1      -1.401  -4.861  29.402  1.00  0.00     0.211 HD
ENDBRANCH  28  33
BRANCH  29  35
ATOM     35  C   UNL     1      -1.042  -9.113  25.929  1.00  0.00     0.191 C 
BRANCH  35  36
ATOM     36  O   UNL     1       0.016  -8.534  25.215  1.00  0.00    -0.394 OA
ATOM     37  H   UNL     1       0.750  -9.202  25.219  1.00  0.00     0.210 HD
ENDBRANCH  35  36
ENDBRANCH  29  35
BRANCH  30  38
ATOM     38  O   UNL     1       0.042  -7.140  27.772  1.00  0.00    -0.387 OA
ATOM     39  H   UNL     1       0.067  -6.215  27.417  1.00  0.00     0.211 HD
ENDBRANCH  30  38
ENDBRANCH   1  25
TORSDOF 11
ENDMDL
MODEL 3
REMARK VINA RESULT:    -6.580      2.145      9.620
REMARK INTER + INTRA:         -10.397
REMARK INTER:                  -9.668
REMARK INTRA:                  -0.728
REMARK UNBOUND:                -0.931
REMARK SMILES O=c1cc(-c2ccc(O)c(O)c2)oc2cc(O[C@@H]3O[C@@H](CO)[C@@H](O)[C@@H](O)[C@@H]3O)cc(O)c12
REMARK SMILES IDX 17 1 16 2 4 3 3 4 13 5 2 6 14 7 1 8 32 9 15 10 30 11 29 12
REMARK SMILES IDX 5 13 6 14 7 15 8 16 12 17 10 18 9 19 11 21 31 23 18 25 27 26
REMARK SMILES IDX 19 27 25 28 20 29 23 30 28 31 26 33 21 35 22 36 24 38
REMARK H PARENT 9 20 11 22 31 24 28 32 26 34 22 37 24 39
REMARK Flexibility Score: inf
ROOT
ATOM      1  O   UNL     1      -2.659  -7.136  24.959  1.00  0.00    -0.462 OA
ENDROOT
BRANCH   1   2
ATOM      2  C   UNL     1      -3.961  -6.831  24.534  1.00  0.00     0.130 A 
ATOM      3  C   UNL     1      -6.982  -4.359  21.786  1.00  0.00     0.138 A 
ATOM      4  C   UNL     1      -8.103  -5.004  22.333  1.00  0.00     0.100 A 
ATOM      5  O   UNL     1      -5.765  -4.691  22.210  1.00  0.00    -0.456 OA
ATOM      6  C   UNL     1      -7.924  -5.970  23.322  1.00  0.00     0.197 A 
ATOM      7  C   UNL     1      -5.543  -5.605  23.150  1.00  0.00     0.146 A 
ATOM      8  O   UNL     1      -8.937  -6.545  23.806  1.00  0.00    -0.289 OA
ATOM      9  C   UNL     1      -6.622  -6.289  23.756  1.00  0.00     0.107 A 
ATOM     10  C   UNL     1      -4.227  -5.877  23.537  1.00  0.00     0.094 A 
ATOM     11  C   UNL     1      -6.352  -7.250  24.757  1.00  0.00     0.134 A 
ATOM     12  C   UNL     1      -5.027  -7.508  25.135  1.00  0.00     0.093 A 
BRANCH   3  13
ATOM     13  C   UNL     1      -7.114  -3.322  20.733  1.00  0.00     0.021 A 
ATOM     14  C   UNL     1      -6.267  -3.300  19.608  1.00  0.00     0.016 A 
ATOM     15  C   UNL     1      -6.425  -2.323  18.623  1.00  0.00     0.051 A 
ATOM     16  C   UNL     1      -7.432  -1.356  18.740  1.00  0.00     0.157 A 
ATOM     17  C   UNL     1      -8.131  -2.356  20.836  1.00  0.00     0.062 A 
ATOM     18  C   UNL     1      -8.287  -1.374  19.848  1.00  0.00     0.158 A 
BRANCH  16  19
ATOM     19  O   UNL     1      -7.590  -0.379  17.759  1.00  0.00    -0.504 OA
ATOM     20  H   UNL     1      -7.501   0.607  17.974  1.00  0.00     0.293 HD
ENDBRANCH  16  19
BRANCH  18  21
ATOM     21  O   UNL     1      -9.291  -0.414  19.959  1.00  0.00    -0.504 OA
ATOM     22  H   UNL     1     -10.150  -0.480  19.425  1.00  0.00     0.293 HD
ENDBRANCH  18  21
ENDBRANCH   3  13
BRANCH  11  23
ATOM     23  O   UNL     1      -7.389  -7.947  25.380  1.00  0.00    -0.507 OA
ATOM     24  H   UNL     1      -7.735  -7.681  26.294  1.00  0.00     0.293 HD
ENDBRANCH  11  23
ENDBRANCH   1   2
BRANCH   1  25
ATOM     25  C   UNL     1      -2.326  -8.104  25.960  1.00  0.00     0.339 C 
ATOM     26  C   UNL     1      -0.917  -8.680  25.709  1.00  0.00     0.214 C 
ATOM     27  O   UNL     1      -2.436  -7.559  27.268  1.00  0.00    -0.332 OA
ATOM     28  C   UNL     1       0.162  -7.615  25.981  1.00  0.00     0.180 C 
ATOM     29  C   UNL     1      -1.546  -6.470  27.456  1.00  0.00     0.179 C 
ATOM     30  C   UNL     1      -0.072  -6.933  27.342  1.00  0.00     0.177 C 
BRANCH  26  31
ATOM     31  O   UNL     1      -0.809  -9.125  24.380  1.00  0.00    -0.384 OA
ATOM     32  H   UNL     1      -0.863  -8.320  23.803  1.00  0.00     0.211 HD
ENDBRANCH  26  31
BRANCH  28  33
ATOM     33  O   UNL     1       1.440  -8.198  25.960  1.00  0.00    -0.387 OA
ATOM     34  H   UNL     1       1.502  -8.786  26.757  1.00  0.00     0.211 HD
ENDBRANCH  28  33
BRANCH  29  35
ATOM     35  C   UNL     1      -1.823  -5.832  28.820  1.00  0.00     0.191 C 
BRANCH  35  36
ATOM     36  O   UNL     1      -2.597  -4.677  28.648  1.00  0.00    -0.394 OA
ATOM     37  H   UNL     1      -3.404  -4.959  28.143  1.00  0.00     0.210 HD
ENDBRANCH  35  36
ENDBRANCH  29  35
BRANCH  30  38
ATOM     38  O   UNL     1       0.302  -7.775  28.407  1.00  0.00    -0.387 OA
ATOM     39  H   UNL     1       0.353  -7.228  29.232  1.00  0.00     0.211 HD
ENDBRANCH  30  38
ENDBRANCH   1  25
TORSDOF 11
ENDMDL
MODEL 4
REMARK VINA RESULT:    -6.470      2.558      5.124
REMARK INTER + INTRA:         -10.238
REMARK INTER:                  -9.251
REMARK INTRA:                  -0.987
REMARK UNBOUND:                -0.931
REMARK SMILES O=c1cc(-c2ccc(O)c(O)c2)oc2cc(O[C@@H]3O[C@@H](CO)[C@@H](O)[C@@H](O)[C@@H]3O)cc(O)c12
REMARK SMILES IDX 17 1 16 2 4 3 3 4 13 5 2 6 14 7 1 8 32 9 15 10 30 11 29 12
REMARK SMILES IDX 5 13 6 14 7 15 8 16 12 17 10 18 9 19 11 21 31 23 18 25 27 26
REMARK SMILES IDX 19 27 25 28 20 29 23 30 28 31 26 33 21 35 22 36 24 38
REMARK H PARENT 9 20 11 22 31 24 28 32 26 34 22 37 24 39
REMARK Flexibility Score: inf
ROOT
ATOM      1  O   UNL     1      -5.497  -6.742  22.984  1.00  0.00    -0.462 OA
ENDROOT
BRANCH   1   2
ATOM      2  C   UNL     1      -4.917  -7.090  24.213  1.00  0.00     0.130 A 
ATOM      3  C   UNL     1      -1.115  -7.461  27.077  1.00  0.00     0.138 A 
ATOM      4  C   UNL     1      -1.882  -7.991  28.127  1.00  0.00     0.100 A 
ATOM      5  O   UNL     1      -1.711  -7.131  25.933  1.00  0.00    -0.456 OA
ATOM      6  C   UNL     1      -3.252  -8.178  27.949  1.00  0.00     0.197 A 
ATOM      7  C   UNL     1      -3.013  -7.291  25.715  1.00  0.00     0.146 A 
ATOM      8  O   UNL     1      -3.933  -8.653  28.899  1.00  0.00    -0.289 OA
ATOM      9  C   UNL     1      -3.849  -7.829  26.721  1.00  0.00     0.107 A 
ATOM     10  C   UNL     1      -3.546  -6.925  24.476  1.00  0.00     0.094 A 
ATOM     11  C   UNL     1      -5.228  -7.993  26.456  1.00  0.00     0.134 A 
ATOM     12  C   UNL     1      -5.744  -7.623  25.206  1.00  0.00     0.093 A 
BRANCH   3  13
ATOM     13  C   UNL     1       0.346  -7.242  27.209  1.00  0.00     0.021 A 
ATOM     14  C   UNL     1       1.256  -7.740  26.257  1.00  0.00     0.016 A 
ATOM     15  C   UNL     1       2.626  -7.504  26.398  1.00  0.00     0.051 A 
ATOM     16  C   UNL     1       3.109  -6.765  27.485  1.00  0.00     0.157 A 
ATOM     17  C   UNL     1       0.838  -6.489  28.291  1.00  0.00     0.062 A 
ATOM     18  C   UNL     1       2.214  -6.255  28.432  1.00  0.00     0.158 A 
BRANCH  16  19
ATOM     19  O   UNL     1       4.476  -6.529  27.628  1.00  0.00    -0.504 OA
ATOM     20  H   UNL     1       4.902  -5.670  27.299  1.00  0.00     0.293 HD
ENDBRANCH  16  19
BRANCH  18  21
ATOM     21  O   UNL     1       2.696  -5.515  29.510  1.00  0.00    -0.504 OA
ATOM     22  H   UNL     1       2.163  -5.414  30.365  1.00  0.00     0.293 HD
ENDBRANCH  18  21
ENDBRANCH   3  13
BRANCH  11  23
ATOM     23  O   UNL     1      -6.087  -8.520  27.422  1.00  0.00    -0.507 OA
ATOM     24  H   UNL     1      -6.619  -7.922  28.043  1.00  0.00     0.293 HD
ENDBRANCH  11  23
ENDBRANCH   1   2
BRANCH   1  25
ATOM     25  C   UNL     1      -4.783  -6.239  21.850  1.00  0.00     0.339 C 
ATOM     26  C   UNL     1      -4.884  -7.223  20.666  1.00  0.00     0.214 C 
ATOM     27  O   UNL     1      -5.233  -4.942  21.484  1.00  0.00    -0.332 OA
ATOM     28  C   UNL     1      -6.318  -7.248  20.103  1.00  0.00     0.180 C 
ATOM     29  C   UNL     1      -6.604  -4.949  21.119  1.00  0.00     0.179 C 
ATOM     30  C   UNL     1      -6.837  -5.819  19.859  1.00  0.00     0.177 C 
BRANCH  26  31
ATOM     31  O   UNL     1      -4.523  -8.515  21.081  1.00  0.00    -0.384 OA
ATOM     32  H   UNL     1      -3.794  -8.817  20.480  1.00  0.00     0.211 HD
ENDBRANCH  26  31
BRANCH  28  33
ATOM     33  O   UNL     1      -6.357  -7.975  18.901  1.00  0.00    -0.387 OA
ATOM     34  H   UNL     1      -6.776  -8.851  19.106  1.00  0.00     0.211 HD
ENDBRANCH  28  33
BRANCH  29  35
ATOM     35  C   UNL     1      -7.065  -3.507  20.890  1.00  0.00     0.191 C 
BRANCH  35  36
ATOM     36  O   UNL     1      -6.101  -2.820  20.141  1.00  0.00    -0.394 OA
ATOM     37  H   UNL     1      -5.227  -3.225  20.379  1.00  0.00     0.210 HD
ENDBRANCH  35  36
ENDBRANCH  29  35
BRANCH  30  38
ATOM     38  O   UNL     1      -6.254  -5.252  18.709  1.00  0.00    -0.387 OA
ATOM     39  H   UNL     1      -6.544  -5.780  17.921  1.00  0.00     0.211 HD
ENDBRANCH  30  38
ENDBRANCH   1  25
TORSDOF 11
ENDMDL
MODEL 5
REMARK VINA RESULT:    -6.226      2.985      5.098
REMARK INTER + INTRA:          -9.886
REMARK INTER:                  -9.023
REMARK INTRA:                  -0.864
REMARK UNBOUND:                -0.931
REMARK SMILES O=c1cc(-c2ccc(O)c(O)c2)oc2cc(O[C@@H]3O[C@@H](CO)[C@@H](O)[C@@H](O)[C@@H]3O)cc(O)c12
REMARK SMILES IDX 17 1 16 2 4 3 3 4 13 5 2 6 14 7 1 8 32 9 15 10 30 11 29 12
REMARK SMILES IDX 5 13 6 14 7 15 8 16 12 17 10 18 9 19 11 21 31 23 18 25 27 26
REMARK SMILES IDX 19 27 25 28 20 29 23 30 28 31 26 33 21 35 22 36 24 38
REMARK H PARENT 9 20 11 22 31 24 28 32 26 34 22 37 24 39
REMARK Flexibility Score: inf
ROOT
ATOM      1  O   UNL     1      -5.101  -6.951  22.964  1.00  0.00    -0.462 OA
ENDROOT
BRANCH   1   2
ATOM      2  C   UNL     1      -4.568  -7.229  24.231  1.00  0.00     0.130 A 
ATOM      3  C   UNL     1      -0.873  -7.451  27.246  1.00  0.00     0.138 A 
ATOM      4  C   UNL     1      -1.680  -7.914  28.298  1.00  0.00     0.100 A 
ATOM      5  O   UNL     1      -1.426  -7.187  26.064  1.00  0.00    -0.456 OA
ATOM      6  C   UNL     1      -3.046  -8.103  28.082  1.00  0.00     0.197 A 
ATOM      7  C   UNL     1      -2.720  -7.352  25.810  1.00  0.00     0.146 A 
ATOM      8  O   UNL     1      -3.763  -8.517  29.033  1.00  0.00    -0.289 OA
ATOM      9  C   UNL     1      -3.595  -7.824  26.815  1.00  0.00     0.107 A 
ATOM     10  C   UNL     1      -3.206  -7.057  24.533  1.00  0.00     0.094 A 
ATOM     11  C   UNL     1      -4.965  -7.995  26.511  1.00  0.00     0.134 A 
ATOM     12  C   UNL     1      -5.434  -7.697  25.223  1.00  0.00     0.093 A 
BRANCH   3  13
ATOM     13  C   UNL     1       0.584  -7.234  27.418  1.00  0.00     0.021 A 
ATOM     14  C   UNL     1       1.512  -7.645  26.441  1.00  0.00     0.016 A 
ATOM     15  C   UNL     1       2.878  -7.412  26.621  1.00  0.00     0.051 A 
ATOM     16  C   UNL     1       3.339  -6.762  27.772  1.00  0.00     0.157 A 
ATOM     17  C   UNL     1       1.055  -6.570  28.565  1.00  0.00     0.062 A 
ATOM     18  C   UNL     1       2.426  -6.338  28.745  1.00  0.00     0.158 A 
BRANCH  16  19
ATOM     19  O   UNL     1       4.702  -6.529  27.954  1.00  0.00    -0.504 OA
ATOM     20  H   UNL     1       5.037  -5.831  28.608  1.00  0.00     0.293 HD
ENDBRANCH  16  19
BRANCH  18  21
ATOM     21  O   UNL     1       2.888  -5.686  29.887  1.00  0.00    -0.504 OA
ATOM     22  H   UNL     1       3.872  -5.666  30.125  1.00  0.00     0.293 HD
ENDBRANCH  18  21
ENDBRANCH   3  13
BRANCH  11  23
ATOM     23  O   UNL     1      -5.862  -8.459  27.475  1.00  0.00    -0.507 OA
ATOM     24  H   UNL     1      -6.327  -7.827  28.116  1.00  0.00     0.293 HD
ENDBRANCH  11  23
ENDBRANCH   1   2
BRANCH   1  25
ATOM     25  C   UNL     1      -6.280  -6.177  22.719  1.00  0.00     0.339 C 
ATOM     26  C   UNL     1      -5.912  -4.709  22.417  1.00  0.00     0.214 C 
ATOM     27  O   UNL     1      -7.064  -6.738  21.675  1.00  0.00    -0.332 OA
ATOM     28  C   UNL     1      -5.215  -4.595  21.048  1.00  0.00     0.180 C 
ATOM     29  C   UNL     1      -6.351  -6.774  20.449  1.00  0.00     0.179 C 
ATOM     30  C   UNL     1      -6.011  -5.343  19.963  1.00  0.00     0.177 C 
BRANCH  26  31
ATOM     31  O   UNL     1      -5.061  -4.211  23.417  1.00  0.00    -0.384 OA
ATOM     32  H   UNL     1      -4.372  -3.661  22.962  1.00  0.00     0.211 HD
ENDBRANCH  26  31
BRANCH  28  33
ATOM     33  O   UNL     1      -5.075  -3.245  20.683  1.00  0.00    -0.387 OA
ATOM     34  H   UNL     1      -5.990  -2.867  20.619  1.00  0.00     0.211 HD
ENDBRANCH  28  33
BRANCH  29  35
ATOM     35  C   UNL     1      -7.187  -7.528  19.410  1.00  0.00     0.191 C 
BRANCH  35  36
ATOM     36  O   UNL     1      -6.785  -7.150  18.122  1.00  0.00    -0.394 OA
ATOM     37  H   UNL     1      -7.454  -7.537  17.500  1.00  0.00     0.210 HD
ENDBRANCH  35  36
ENDBRANCH  29  35
BRANCH  30  38
ATOM     38  O   UNL     1      -7.162  -4.625  19.585  1.00  0.00    -0.387 OA
ATOM     39  H   UNL     1      -7.686  -4.426  20.403  1.00  0.00     0.211 HD
ENDBRANCH  30  38
ENDBRANCH   1  25
TORSDOF 11
ENDMDL
MODEL 6
REMARK VINA RESULT:    -5.938      2.200      3.801
REMARK INTER + INTRA:          -9.473
REMARK INTER:                  -8.515
REMARK INTRA:                  -0.958
REMARK UNBOUND:                -0.931
REMARK SMILES O=c1cc(-c2ccc(O)c(O)c2)oc2cc(O[C@@H]3O[C@@H](CO)[C@@H](O)[C@@H](O)[C@@H]3O)cc(O)c12
REMARK SMILES IDX 17 1 16 2 4 3 3 4 13 5 2 6 14 7 1 8 32 9 15 10 30 11 29 12
REMARK SMILES IDX 5 13 6 14 7 15 8 16 12 17 10 18 9 19 11 21 31 23 18 25 27 26
REMARK SMILES IDX 19 27 25 28 20 29 23 30 28 31 26 33 21 35 22 36 24 38
REMARK H PARENT 9 20 11 22 31 24 28 32 26 34 22 37 24 39
REMARK Flexibility Score: inf
ROOT
ATOM      1  O   UNL     1      -5.965  -5.706  22.012  1.00  0.00    -0.462 OA
ENDROOT
BRANCH   1   2
ATOM      2  C   UNL     1      -5.631  -6.349  23.214  1.00  0.00     0.130 A 
ATOM      3  C   UNL     1      -2.564  -7.223  26.766  1.00  0.00     0.138 A 
ATOM      4  C   UNL     1      -3.458  -8.098  27.404  1.00  0.00     0.100 A 
ATOM      5  O   UNL     1      -2.930  -6.625  25.635  1.00  0.00    -0.456 OA
ATOM      6  C   UNL     1      -4.708  -8.338  26.833  1.00  0.00     0.197 A 
ATOM      7  C   UNL     1      -4.109  -6.822  25.052  1.00  0.00     0.146 A 
ATOM      8  O   UNL     1      -5.505  -9.124  27.415  1.00  0.00    -0.289 OA
ATOM      9  C   UNL     1      -5.058  -7.697  25.629  1.00  0.00     0.107 A 
ATOM     10  C   UNL     1      -4.397  -6.155  23.857  1.00  0.00     0.094 A 
ATOM     11  C   UNL     1      -6.299  -7.889  24.981  1.00  0.00     0.134 A 
ATOM     12  C   UNL     1      -6.570  -7.215  23.782  1.00  0.00     0.093 A 
BRANCH   3  13
ATOM     13  C   UNL     1      -1.221  -6.933  27.326  1.00  0.00     0.021 A 
ATOM     14  C   UNL     1      -0.068  -7.588  26.855  1.00  0.00     0.016 A 
ATOM     15  C   UNL     1       1.187  -7.282  27.388  1.00  0.00     0.051 A 
ATOM     16  C   UNL     1       1.312  -6.316  28.394  1.00  0.00     0.157 A 
ATOM     17  C   UNL     1      -1.086  -5.955  28.328  1.00  0.00     0.062 A 
ATOM     18  C   UNL     1       0.174  -5.651  28.864  1.00  0.00     0.158 A 
BRANCH  16  19
ATOM     19  O   UNL     1       2.562  -6.011  28.929  1.00  0.00    -0.504 OA
ATOM     20  H   UNL     1       2.682  -5.262  29.601  1.00  0.00     0.293 HD
ENDBRANCH  16  19
BRANCH  18  21
ATOM     21  O   UNL     1       0.301  -4.686  29.862  1.00  0.00    -0.504 OA
ATOM     22  H   UNL     1      -0.228  -4.741  30.723  1.00  0.00     0.293 HD
ENDBRANCH  18  21
ENDBRANCH   3  13
BRANCH  11  23
ATOM     23  O   UNL     1      -7.264  -8.744  25.517  1.00  0.00    -0.507 OA
ATOM     24  H   UNL     1      -8.254  -8.580  25.382  1.00  0.00     0.293 HD
ENDBRANCH  11  23
ENDBRANCH   1   2
BRANCH   1  25
ATOM     25  C   UNL     1      -5.886  -4.295  21.784  1.00  0.00     0.339 C 
ATOM     26  C   UNL     1      -5.499  -4.003  20.319  1.00  0.00     0.214 C 
ATOM     27  O   UNL     1      -7.097  -3.642  22.138  1.00  0.00    -0.332 OA
ATOM     28  C   UNL     1      -6.653  -4.375  19.369  1.00  0.00     0.180 C 
ATOM     29  C   UNL     1      -8.188  -4.109  21.361  1.00  0.00     0.179 C 
ATOM     30  C   UNL     1      -7.983  -3.778  19.862  1.00  0.00     0.177 C 
BRANCH  26  31
ATOM     31  O   UNL     1      -4.352  -4.736  19.969  1.00  0.00    -0.384 OA
ATOM     32  H   UNL     1      -4.663  -5.538  19.476  1.00  0.00     0.211 HD
ENDBRANCH  26  31
BRANCH  28  33
ATOM     33  O   UNL     1      -6.383  -3.913  18.069  1.00  0.00    -0.387 OA
ATOM     34  H   UNL     1      -6.259  -2.930  18.132  1.00  0.00     0.211 HD
ENDBRANCH  28  33
BRANCH  29  35
ATOM     35  C   UNL     1      -9.481  -3.486  21.895  1.00  0.00     0.191 C 
BRANCH  35  36
ATOM     36  O   UNL     1      -9.179  -2.316  22.605  1.00  0.00    -0.394 OA
ATOM     37  H   UNL     1      -8.589  -1.780  22.015  1.00  0.00     0.210 HD
ENDBRANCH  35  36
ENDBRANCH  29  35
BRANCH  30  38
ATOM     38  O   UNL     1      -8.047  -2.393  19.612  1.00  0.00    -0.387 OA
ATOM     39  H   UNL     1      -8.554  -1.968  20.350  1.00  0.00     0.211 HD
ENDBRANCH  30  38
ENDBRANCH   1  25
TORSDOF 11
ENDMDL
MODEL 7
REMARK VINA RESULT:    -5.751      2.690     10.169
REMARK INTER + INTRA:          -9.203
REMARK INTER:                  -8.324
REMARK INTRA:                  -0.879
REMARK UNBOUND:                -0.931
REMARK SMILES O=c1cc(-c2ccc(O)c(O)c2)oc2cc(O[C@@H]3O[C@@H](CO)[C@@H](O)[C@@H](O)[C@@H]3O)cc(O)c12
REMARK SMILES IDX 17 1 16 2 4 3 3 4 13 5 2 6 14 7 1 8 32 9 15 10 30 11 29 12
REMARK SMILES IDX 5 13 6 14 7 15 8 16 12 17 10 18 9 19 11 21 31 23 18 25 27 26
REMARK SMILES IDX 19 27 25 28 20 29 23 30 28 31 26 33 21 35 22 36 24 38
REMARK H PARENT 9 20 11 22 31 24 28 32 26 34 22 37 24 39
REMARK Flexibility Score: inf
ROOT
ATOM      1  O   UNL     1      -1.279  -6.778  27.010  1.00  0.00    -0.462 OA
ENDROOT
BRANCH   1   2
ATOM      2  C   UNL     1      -2.550  -7.033  26.474  1.00  0.00     0.130 A 
ATOM      3  C   UNL     1      -5.867  -6.374  23.105  1.00  0.00     0.138 A 
ATOM      4  C   UNL     1      -6.774  -7.236  23.742  1.00  0.00     0.100 A 
ATOM      5  O   UNL     1      -4.666  -6.173  23.643  1.00  0.00    -0.456 OA
ATOM      6  C   UNL     1      -6.407  -7.854  24.937  1.00  0.00     0.197 A 
ATOM      7  C   UNL     1      -4.271  -6.739  24.779  1.00  0.00     0.146 A 
ATOM      8  O   UNL     1      -7.228  -8.628  25.502  1.00  0.00    -0.289 OA
ATOM      9  C   UNL     1      -5.132  -7.610  25.485  1.00  0.00     0.107 A 
ATOM     10  C   UNL     1      -2.993  -6.457  25.271  1.00  0.00     0.094 A 
ATOM     11  C   UNL     1      -4.684  -8.190  26.694  1.00  0.00     0.134 A 
ATOM     12  C   UNL     1      -3.401  -7.894  27.174  1.00  0.00     0.093 A 
BRANCH   3  13
ATOM     13  C   UNL     1      -6.204  -5.688  21.833  1.00  0.00     0.021 A 
ATOM     14  C   UNL     1      -6.393  -4.293  21.775  1.00  0.00     0.016 A 
ATOM     15  C   UNL     1      -6.692  -3.671  20.560  1.00  0.00     0.051 A 
ATOM     16  C   UNL     1      -6.802  -4.426  19.386  1.00  0.00     0.157 A 
ATOM     17  C   UNL     1      -6.303  -6.437  20.647  1.00  0.00     0.062 A 
ATOM     18  C   UNL     1      -6.605  -5.811  19.429  1.00  0.00     0.158 A 
BRANCH  16  19
ATOM     19  O   UNL     1      -7.102  -3.807  18.173  1.00  0.00    -0.504 OA
ATOM     20  H   UNL     1      -7.684  -4.259  17.478  1.00  0.00     0.293 HD
ENDBRANCH  16  19
BRANCH  18  21
ATOM     21  O   UNL     1      -6.710  -6.560  18.258  1.00  0.00    -0.504 OA
ATOM     22  H   UNL     1      -6.799  -7.568  18.280  1.00  0.00     0.293 HD
ENDBRANCH  18  21
ENDBRANCH   3  13
BRANCH  11  23
ATOM     23  O   UNL     1      -5.503  -9.055  27.421  1.00  0.00    -0.507 OA
ATOM     24  H   UNL     1      -6.209  -8.709  28.060  1.00  0.00     0.293 HD
ENDBRANCH  11  23
ENDBRANCH   1   2
BRANCH   1  25
ATOM     25  C   UNL     1      -0.471  -7.734  27.704  1.00  0.00     0.339 C 
ATOM     26  C   UNL     1       0.629  -8.291  26.777  1.00  0.00     0.214 C 
ATOM     27  O   UNL     1       0.083  -7.184  28.891  1.00  0.00    -0.332 OA
ATOM     28  C   UNL     1       1.680  -7.208  26.472  1.00  0.00     0.180 C 
ATOM     29  C   UNL     1       0.930  -6.080  28.608  1.00  0.00     0.179 C 
ATOM     30  C   UNL     1       2.152  -6.521  27.767  1.00  0.00     0.177 C 
BRANCH  26  31
ATOM     31  O   UNL     1       0.061  -8.741  25.574  1.00  0.00    -0.384 OA
ATOM     32  H   UNL     1      -0.240  -9.674  25.729  1.00  0.00     0.211 HD
ENDBRANCH  26  31
BRANCH  28  33
ATOM     33  O   UNL     1       2.784  -7.771  25.809  1.00  0.00    -0.387 OA
ATOM     34  H   UNL     1       2.425  -8.439  25.168  1.00  0.00     0.211 HD
ENDBRANCH  28  33
BRANCH  29  35
ATOM     35  C   UNL     1       1.367  -5.439  29.928  1.00  0.00     0.191 C 
BRANCH  35  36
ATOM     36  O   UNL     1       2.427  -4.554  29.691  1.00  0.00    -0.394 OA
ATOM     37  H   UNL     1       2.046  -3.800  29.170  1.00  0.00     0.210 HD
ENDBRANCH  35  36
ENDBRANCH  29  35
BRANCH  30  38
ATOM     38  O   UNL     1       3.026  -7.352  28.497  1.00  0.00    -0.387 OA
ATOM     39  H   UNL     1       2.506  -8.122  28.842  1.00  0.00     0.211 HD
ENDBRANCH  30  38
ENDBRANCH   1  25
TORSDOF 11
ENDMDL
MODEL 8
REMARK VINA RESULT:    -5.705      2.662      4.744
REMARK INTER + INTRA:          -9.138
REMARK INTER:                  -8.417
REMARK INTRA:                  -0.721
REMARK UNBOUND:                -0.931
REMARK SMILES O=c1cc(-c2ccc(O)c(O)c2)oc2cc(O[C@@H]3O[C@@H](CO)[C@@H](O)[C@@H](O)[C@@H]3O)cc(O)c12
REMARK SMILES IDX 17 1 16 2 4 3 3 4 13 5 2 6 14 7 1 8 32 9 15 10 30 11 29 12
REMARK SMILES IDX 5 13 6 14 7 15 8 16 12 17 10 18 9 19 11 21 31 23 18 25 27 26
REMARK SMILES IDX 19 27 25 28 20 29 23 30 28 31 26 33 21 35 22 36 24 38
REMARK H PARENT 9 20 11 22 31 24 28 32 26 34 22 37 24 39
REMARK Flexibility Score: inf
ROOT
ATOM      1  O   UNL     1      -6.062  -5.425  22.622  1.00  0.00    -0.462 OA
ENDROOT
BRANCH   1   2
ATOM      2  C   UNL     1      -5.615  -6.123  23.754  1.00  0.00     0.130 A 
ATOM      3  C   UNL     1      -2.173  -7.281  26.853  1.00  0.00     0.138 A 
ATOM      4  C   UNL     1      -3.027  -8.124  27.581  1.00  0.00     0.100 A 
ATOM      5  O   UNL     1      -2.645  -6.627  25.794  1.00  0.00    -0.456 OA
ATOM      6  C   UNL     1      -4.353  -8.275  27.173  1.00  0.00     0.197 A 
ATOM      7  C   UNL     1      -3.899  -6.739  25.366  1.00  0.00     0.146 A 
ATOM      8  O   UNL     1      -5.113  -9.033  27.835  1.00  0.00    -0.289 OA
ATOM      9  C   UNL     1      -4.816  -7.577  26.041  1.00  0.00     0.107 A 
ATOM     10  C   UNL     1      -4.298  -6.020  24.236  1.00  0.00     0.094 A 
ATOM     11  C   UNL     1      -6.140  -7.679  25.556  1.00  0.00     0.134 A 
ATOM     12  C   UNL     1      -6.522  -6.953  24.419  1.00  0.00     0.093 A 
BRANCH   3  13
ATOM     13  C   UNL     1      -0.754  -7.084  27.240  1.00  0.00     0.021 A 
ATOM     14  C   UNL     1      -0.396  -6.367  28.397  1.00  0.00     0.016 A 
ATOM     15  C   UNL     1       0.947  -6.213  28.747  1.00  0.00     0.051 A 
ATOM     16  C   UNL     1       1.954  -6.775  27.953  1.00  0.00     0.157 A 
ATOM     17  C   UNL     1       0.263  -7.658  26.455  1.00  0.00     0.062 A 
ATOM     18  C   UNL     1       1.612  -7.500  26.806  1.00  0.00     0.158 A 
BRANCH  16  19
ATOM     19  O   UNL     1       3.296  -6.622  28.300  1.00  0.00    -0.504 OA
ATOM     20  H   UNL     1       3.668  -5.726  28.593  1.00  0.00     0.293 HD
ENDBRANCH  16  19
BRANCH  18  21
ATOM     21  O   UNL     1       2.616  -8.064  26.021  1.00  0.00    -0.504 OA
ATOM     22  H   UNL     1       2.562  -8.061  25.009  1.00  0.00     0.293 HD
ENDBRANCH  18  21
ENDBRANCH   3  13
BRANCH  11  23
ATOM     23  O   UNL     1      -7.076  -8.495  26.193  1.00  0.00    -0.507 OA
ATOM     24  H   UNL     1      -7.999  -8.649  25.805  1.00  0.00     0.293 HD
ENDBRANCH  11  23
ENDBRANCH   1   2
BRANCH   1  25
ATOM     25  C   UNL     1      -7.271  -5.702  21.910  1.00  0.00     0.339 C 
ATOM     26  C   UNL     1      -7.467  -4.692  20.759  1.00  0.00     0.214 C 
ATOM     27  O   UNL     1      -7.300  -7.041  21.432  1.00  0.00    -0.332 OA
ATOM     28  C   UNL     1      -6.428  -4.929  19.647  1.00  0.00     0.180 C 
ATOM     29  C   UNL     1      -6.238  -7.294  20.526  1.00  0.00     0.179 C 
ATOM     30  C   UNL     1      -6.373  -6.417  19.256  1.00  0.00     0.177 C 
BRANCH  26  31
ATOM     31  O   UNL     1      -7.340  -3.380  21.245  1.00  0.00    -0.384 OA
ATOM     32  H   UNL     1      -7.351  -2.779  20.456  1.00  0.00     0.211 HD
ENDBRANCH  26  31
BRANCH  28  33
ATOM     33  O   UNL     1      -6.740  -4.157  18.516  1.00  0.00    -0.387 OA
ATOM     34  H   UNL     1      -7.139  -4.772  17.847  1.00  0.00     0.211 HD
ENDBRANCH  28  33
BRANCH  29  35
ATOM     35  C   UNL     1      -6.231  -8.784  20.173  1.00  0.00     0.191 C 
BRANCH  35  36
ATOM     36  O   UNL     1      -5.644  -8.964  18.914  1.00  0.00    -0.394 OA
ATOM     37  H   UNL     1      -6.276  -9.523  18.392  1.00  0.00     0.210 HD
ENDBRANCH  35  36
ENDBRANCH  29  35
BRANCH  30  38
ATOM     38  O   UNL     1      -7.487  -6.783  18.476  1.00  0.00    -0.387 OA
ATOM     39  H   UNL     1      -7.423  -7.753  18.279  1.00  0.00     0.211 HD
ENDBRANCH  30  38
ENDBRANCH   1  25
TORSDOF 11
ENDMDL
MODEL 9
REMARK VINA RESULT:    -5.596      1.871      8.686
REMARK INTER + INTRA:          -8.980
REMARK INTER:                  -8.290
REMARK INTRA:                  -0.690
REMARK UNBOUND:                -0.931
REMARK SMILES O=c1cc(-c2ccc(O)c(O)c2)oc2cc(O[C@@H]3O[C@@H](CO)[C@@H](O)[C@@H](O)[C@@H]3O)cc(O)c12
REMARK SMILES IDX 17 1 16 2 4 3 3 4 13 5 2 6 14 7 1 8 32 9 15 10 30 11 29 12
REMARK SMILES IDX 5 13 6 14 7 15 8 16 12 17 10 18 9 19 11 21 31 23 18 25 27 26
REMARK SMILES IDX 19 27 25 28 20 29 23 30 28 31 26 33 21 35 22 36 24 38
REMARK H PARENT 9 20 11 22 31 24 28 32 26 34 22 37 24 39
REMARK Flexibility Score: inf
ROOT
ATOM      1  O   UNL     1      -2.993  -7.743  23.259  1.00  0.00    -0.462 OA
ENDROOT
BRANCH   1   2
ATOM      2  C   UNL     1      -3.915  -7.424  22.251  1.00  0.00     0.130 A 
ATOM      3  C   UNL     1      -6.977  -4.385  20.207  1.00  0.00     0.138 A 
ATOM      4  C   UNL     1      -7.298  -5.297  19.189  1.00  0.00     0.100 A 
ATOM      5  O   UNL     1      -6.086  -4.726  21.135  1.00  0.00    -0.456 OA
ATOM      6  C   UNL     1      -6.689  -6.552  19.176  1.00  0.00     0.197 A 
ATOM      7  C   UNL     1      -5.480  -5.909  21.165  1.00  0.00     0.146 A 
ATOM      8  O   UNL     1      -6.983  -7.364  18.257  1.00  0.00    -0.289 OA
ATOM      9  C   UNL     1      -5.759  -6.885  20.180  1.00  0.00     0.107 A 
ATOM     10  C   UNL     1      -4.565  -6.179  22.188  1.00  0.00     0.094 A 
ATOM     11  C   UNL     1      -5.103  -8.135  20.245  1.00  0.00     0.134 A 
ATOM     12  C   UNL     1      -4.191  -8.389  21.279  1.00  0.00     0.093 A 
BRANCH   3  13
ATOM     13  C   UNL     1      -7.595  -3.038  20.272  1.00  0.00     0.021 A 
ATOM     14  C   UNL     1      -7.445  -2.105  19.227  1.00  0.00     0.016 A 
ATOM     15  C   UNL     1      -8.054  -0.850  19.307  1.00  0.00     0.051 A 
ATOM     16  C   UNL     1      -8.824  -0.507  20.424  1.00  0.00     0.157 A 
ATOM     17  C   UNL     1      -8.382  -2.690  21.385  1.00  0.00     0.062 A 
ATOM     18  C   UNL     1      -8.990  -1.429  21.464  1.00  0.00     0.158 A 
BRANCH  16  19
ATOM     19  O   UNL     1      -9.431   0.745  20.507  1.00  0.00    -0.504 OA
ATOM     20  H   UNL     1      -9.177   1.499  19.879  1.00  0.00     0.293 HD
ENDBRANCH  16  19
BRANCH  18  21
ATOM     21  O   UNL     1      -9.762  -1.087  22.574  1.00  0.00    -0.504 OA
ATOM     22  H   UNL     1      -9.917  -0.120  22.834  1.00  0.00     0.293 HD
ENDBRANCH  18  21
ENDBRANCH   3  13
BRANCH  11  23
ATOM     23  O   UNL     1      -5.350  -9.125  19.292  1.00  0.00    -0.507 OA
ATOM     24  H   UNL     1      -6.211  -9.146  18.758  1.00  0.00     0.293 HD
ENDBRANCH  11  23
ENDBRANCH   1   2
BRANCH   1  25
ATOM     25  C   UNL     1      -3.204  -8.713  24.290  1.00  0.00     0.339 C 
ATOM     26  C   UNL     1      -2.084  -8.634  25.348  1.00  0.00     0.214 C 
ATOM     27  O   UNL     1      -4.487  -8.570  24.885  1.00  0.00    -0.332 OA
ATOM     28  C   UNL     1      -2.198  -7.332  26.163  1.00  0.00     0.180 C 
ATOM     29  C   UNL     1      -4.638  -7.299  25.498  1.00  0.00     0.179 C 
ATOM     30  C   UNL     1      -3.638  -7.125  26.667  1.00  0.00     0.177 C 
BRANCH  26  31
ATOM     31  O   UNL     1      -0.827  -8.684  24.722  1.00  0.00    -0.384 OA
ATOM     32  H   UNL     1      -0.171  -8.310  25.365  1.00  0.00     0.211 HD
ENDBRANCH  26  31
BRANCH  28  33
ATOM     33  O   UNL     1      -1.316  -7.362  27.256  1.00  0.00    -0.387 OA
ATOM     34  H   UNL     1      -1.521  -8.186  27.771  1.00  0.00     0.211 HD
ENDBRANCH  28  33
BRANCH  29  35
ATOM     35  C   UNL     1      -6.085  -7.149  25.979  1.00  0.00     0.191 C 
BRANCH  35  36
ATOM     36  O   UNL     1      -6.578  -5.894  25.597  1.00  0.00    -0.394 OA
ATOM     37  H   UNL     1      -6.020  -5.223  26.069  1.00  0.00     0.210 HD
ENDBRANCH  35  36
ENDBRANCH  29  35
BRANCH  30  38
ATOM     38  O   UNL     1      -3.930  -7.983  27.746  1.00  0.00    -0.387 OA
ATOM     39  H   UNL     1      -4.506  -7.491  28.387  1.00  0.00     0.211 HD
ENDBRANCH  30  38
ENDBRANCH   1  25
TORSDOF 11
ENDMDL
