MODEL 1
REMARK VINA RESULT:    -5.243      0.000      0.000
REMARK INTER + INTRA:          -5.549
REMARK INTER:                  -5.549
REMARK INTRA:                   0.000
REMARK UNBOUND:                 0.000
REMARK SMILES O=c1ccc2cc(O)c(O)cc2o1
REMARK SMILES IDX 4 1 3 2 2 3 1 4 13 5 12 6 11 7 9 8 7 9 6 10 5 11 8 12 10 14
REMARK H PARENT 8 13 10 15
REMARK Flexibility Score: inf
ROOT
ATOM      1  C   UNL     1      27.250  44.655  78.514  1.00  0.00     0.019 A 
ATOM      2  C   UNL     1      28.164  45.221  77.625  1.00  0.00     0.094 A 
ATOM      3  C   UNL     1      29.495  44.794  77.658  1.00  0.00     0.336 A 
ATOM      4  O   UNL     1      30.335  45.292  76.863  1.00  0.00    -0.246 OA
ATOM      5  O   UNL     1      29.881  43.861  78.524  1.00  0.00    -0.423 OA
ATOM      6  C   UNL     1      29.043  43.295  79.390  1.00  0.00     0.142 A 
ATOM      7  C   UNL     1      29.507  42.320  80.277  1.00  0.00     0.098 A 
ATOM      8  C   UNL     1      28.631  41.720  81.190  1.00  0.00     0.161 A 
ATOM      9  C   UNL     1      27.276  42.099  81.216  1.00  0.00     0.158 A 
ATOM     10  C   UNL     1      26.806  43.077  80.328  1.00  0.00     0.062 A 
ATOM     11  C   UNL     1      27.684  43.677  79.414  1.00  0.00     0.022 A 
ENDROOT
BRANCH   9  12
ATOM     12  O   UNL     1      26.402  41.502  82.125  1.00  0.00    -0.504 OA
ATOM     13  H   UNL     1      26.184  41.937  83.014  1.00  0.00     0.293 HD
ENDBRANCH   9  12
BRANCH   8  14
ATOM     14  O   UNL     1      29.124  40.750  82.062  1.00  0.00    -0.504 OA
ATOM     15  H   UNL     1      29.248  39.785  81.780  1.00  0.00     0.293 HD
ENDBRANCH   8  14
TORSDOF 2
ENDMDL
MODEL 2
REMARK VINA RESULT:    -5.213      2.397      4.806
REMARK INTER + INTRA:          -5.517
REMARK INTER:                  -5.517
REMARK INTRA:                   0.000
REMARK UNBOUND:                 0.000
REMARK SMILES O=c1ccc2cc(O)c(O)cc2o1
REMARK SMILES IDX 4 1 3 2 2 3 1 4 13 5 12 6 11 7 9 8 7 9 6 10 5 11 8 12 10 14
REMARK H PARENT 8 13 10 15
REMARK Flexibility Score: inf
ROOT
ATOM      1  C   UNL     1      28.783  40.657  80.370  1.00  0.00     0.019 A 
ATOM      2  C   UNL     1      28.347  41.471  81.415  1.00  0.00     0.094 A 
ATOM      3  C   UNL     1      28.216  42.845  81.194  1.00  0.00     0.336 A 
ATOM      4  O   UNL     1      27.824  43.597  82.125  1.00  0.00    -0.246 OA
ATOM      5  O   UNL     1      28.503  43.367  80.004  1.00  0.00    -0.423 OA
ATOM      6  C   UNL     1      28.922  42.626  78.980  1.00  0.00     0.142 A 
ATOM      7  C   UNL     1      29.209  43.231  77.752  1.00  0.00     0.098 A 
ATOM      8  C   UNL     1      29.649  42.458  76.670  1.00  0.00     0.161 A 
ATOM      9  C   UNL     1      29.805  41.068  76.817  1.00  0.00     0.158 A 
ATOM     10  C   UNL     1      29.519  40.457  78.047  1.00  0.00     0.062 A 
ATOM     11  C   UNL     1      29.077  41.232  79.129  1.00  0.00     0.022 A 
ENDROOT
BRANCH   9  12
ATOM     12  O   UNL     1      30.245  40.298  75.740  1.00  0.00    -0.504 OA
ATOM     13  H   UNL     1      29.627  40.054  74.975  1.00  0.00     0.293 HD
ENDBRANCH   9  12
BRANCH   8  14
ATOM     14  O   UNL     1      29.927  43.090  75.459  1.00  0.00    -0.504 OA
ATOM     15  H   UNL     1      29.694  44.062  75.293  1.00  0.00     0.293 HD
ENDBRANCH   8  14
TORSDOF 2
ENDMDL
MODEL 3
REMARK VINA RESULT:    -5.129     12.949     14.635
REMARK INTER + INTRA:          -5.429
REMARK INTER:                  -5.429
REMARK INTRA:                   0.000
REMARK UNBOUND:                 0.000
REMARK SMILES O=c1ccc2cc(O)c(O)cc2o1
REMARK SMILES IDX 4 1 3 2 2 3 1 4 13 5 12 6 11 7 9 8 7 9 6 10 5 11 8 12 10 14
REMARK H PARENT 8 13 10 15
REMARK Flexibility Score: inf
ROOT
ATOM      1  C   UNL     1      16.929  36.164  78.767  1.00  0.00     0.019 A 
ATOM      2  C   UNL     1      16.364  35.386  77.757  1.00  0.00     0.094 A 
ATOM      3  C   UNL     1      15.111  35.740  77.249  1.00  0.00     0.336 A 
ATOM      4  O   UNL     1      14.584  35.050  76.338  1.00  0.00    -0.246 OA
ATOM      5  O   UNL     1      14.468  36.805  77.723  1.00  0.00    -0.423 OA
ATOM      6  C   UNL     1      14.971  37.575  78.687  1.00  0.00     0.142 A 
ATOM      7  C   UNL     1      14.249  38.681  79.145  1.00  0.00     0.098 A 
ATOM      8  C   UNL     1      14.772  39.496  80.157  1.00  0.00     0.161 A 
ATOM      9  C   UNL     1      16.029  39.202  80.716  1.00  0.00     0.158 A 
ATOM     10  C   UNL     1      16.756  38.092  80.260  1.00  0.00     0.062 A 
ATOM     11  C   UNL     1      16.232  37.278  79.246  1.00  0.00     0.022 A 
ENDROOT
BRANCH   9  12
ATOM     12  O   UNL     1      16.550  40.012  81.725  1.00  0.00    -0.504 OA
ATOM     13  H   UNL     1      16.560  39.713  82.693  1.00  0.00     0.293 HD
ENDBRANCH   9  12
BRANCH   8  14
ATOM     14  O   UNL     1      14.028  40.592  80.592  1.00  0.00    -0.504 OA
ATOM     15  H   UNL     1      13.260  40.971  80.050  1.00  0.00     0.293 HD
ENDBRANCH   8  14
TORSDOF 2
ENDMDL
MODEL 4
REMARK VINA RESULT:    -5.063     13.623     14.730
REMARK INTER + INTRA:          -5.359
REMARK INTER:                  -5.359
REMARK INTRA:                   0.000
REMARK UNBOUND:                 0.000
REMARK SMILES O=c1ccc2cc(O)c(O)cc2o1
REMARK SMILES IDX 4 1 3 2 2 3 1 4 13 5 12 6 11 7 9 8 7 9 6 10 5 11 8 12 10 14
REMARK H PARENT 8 13 10 15
REMARK Flexibility Score: inf
ROOT
ATOM      1  C   UNL     1      15.480  39.981  80.365  1.00  0.00     0.019 A 
ATOM      2  C   UNL     1      15.894  39.119  81.380  1.00  0.00     0.094 A 
ATOM      3  C   UNL     1      15.999  37.751  81.108  1.00  0.00     0.336 A 
ATOM      4  O   UNL     1      16.371  36.957  82.011  1.00  0.00    -0.246 OA
ATOM      5  O   UNL     1      15.708  37.281  79.897  1.00  0.00    -0.423 OA
ATOM      6  C   UNL     1      15.310  38.068  78.900  1.00  0.00     0.142 A 
ATOM      7  C   UNL     1      15.018  37.517  77.649  1.00  0.00     0.098 A 
ATOM      8  C   UNL     1      14.599  38.339  76.595  1.00  0.00     0.161 A 
ATOM      9  C   UNL     1      14.470  39.726  76.794  1.00  0.00     0.158 A 
ATOM     10  C   UNL     1      14.761  40.283  78.048  1.00  0.00     0.062 A 
ATOM     11  C   UNL     1      15.182  39.459  79.102  1.00  0.00     0.022 A 
ENDROOT
BRANCH   9  12
ATOM     12  O   UNL     1      14.052  40.545  75.745  1.00  0.00    -0.504 OA
ATOM     13  H   UNL     1      13.809  40.163  74.838  1.00  0.00     0.293 HD
ENDBRANCH   9  12
BRANCH   8  14
ATOM     14  O   UNL     1      14.315  37.759  75.359  1.00  0.00    -0.504 OA
ATOM     15  H   UNL     1      14.150  36.765  75.256  1.00  0.00     0.293 HD
ENDBRANCH   8  14
TORSDOF 2
ENDMDL
MODEL 5
REMARK VINA RESULT:    -5.032     12.195     14.259
REMARK INTER + INTRA:          -5.327
REMARK INTER:                  -5.327
REMARK INTRA:                   0.000
REMARK UNBOUND:                 0.000
REMARK SMILES O=c1ccc2cc(O)c(O)cc2o1
REMARK SMILES IDX 4 1 3 2 2 3 1 4 13 5 12 6 11 7 9 8 7 9 6 10 5 11 8 12 10 14
REMARK H PARENT 8 13 10 15
REMARK Flexibility Score: inf
ROOT
ATOM      1  C   UNL     1      16.353  37.409  79.088  1.00  0.00     0.019 A 
ATOM      2  C   UNL     1      17.363  37.234  80.034  1.00  0.00     0.094 A 
ATOM      3  C   UNL     1      17.501  38.175  81.060  1.00  0.00     0.336 A 
ATOM      4  O   UNL     1      18.406  38.034  81.923  1.00  0.00    -0.246 OA
ATOM      5  O   UNL     1      16.679  39.219  81.132  1.00  0.00    -0.423 OA
ATOM      6  C   UNL     1      15.703  39.424  80.250  1.00  0.00     0.142 A 
ATOM      7  C   UNL     1      14.870  40.540  80.376  1.00  0.00     0.098 A 
ATOM      8  C   UNL     1      13.841  40.762  79.453  1.00  0.00     0.161 A 
ATOM      9  C   UNL     1      13.641  39.858  78.393  1.00  0.00     0.158 A 
ATOM     10  C   UNL     1      14.474  38.737  78.263  1.00  0.00     0.062 A 
ATOM     11  C   UNL     1      15.504  38.516  79.188  1.00  0.00     0.022 A 
ENDROOT
BRANCH   9  12
ATOM     12  O   UNL     1      12.616  40.079  77.473  1.00  0.00    -0.504 OA
ATOM     13  H   UNL     1      11.945  40.828  77.596  1.00  0.00     0.293 HD
ENDBRANCH   9  12
BRANCH   8  14
ATOM     14  O   UNL     1      13.028  41.884  79.606  1.00  0.00    -0.504 OA
ATOM     15  H   UNL     1      12.020  41.812  79.680  1.00  0.00     0.293 HD
ENDBRANCH   8  14
TORSDOF 2
ENDMDL
MODEL 6
REMARK VINA RESULT:    -5.021      1.394      4.989
REMARK INTER + INTRA:          -5.314
REMARK INTER:                  -5.314
REMARK INTRA:                   0.000
REMARK UNBOUND:                 0.000
REMARK SMILES O=c1ccc2cc(O)c(O)cc2o1
REMARK SMILES IDX 4 1 3 2 2 3 1 4 13 5 12 6 11 7 9 8 7 9 6 10 5 11 8 12 10 14
REMARK H PARENT 8 13 10 15
REMARK Flexibility Score: inf
ROOT
ATOM      1  C   UNL     1      28.726  41.696  81.057  1.00  0.00     0.019 A 
ATOM      2  C   UNL     1      27.574  41.379  81.778  1.00  0.00     0.094 A 
ATOM      3  C   UNL     1      26.385  42.053  81.485  1.00  0.00     0.336 A 
ATOM      4  O   UNL     1      25.335  41.782  82.125  1.00  0.00    -0.246 OA
ATOM      5  O   UNL     1      26.354  42.982  80.532  1.00  0.00    -0.423 OA
ATOM      6  C   UNL     1      27.429  43.315  79.821  1.00  0.00     0.142 A 
ATOM      7  C   UNL     1      27.335  44.298  78.832  1.00  0.00     0.098 A 
ATOM      8  C   UNL     1      28.461  44.653  78.079  1.00  0.00     0.161 A 
ATOM      9  C   UNL     1      29.694  44.017  78.317  1.00  0.00     0.158 A 
ATOM     10  C   UNL     1      29.792  43.030  79.308  1.00  0.00     0.062 A 
ATOM     11  C   UNL     1      28.664  42.675  80.061  1.00  0.00     0.022 A 
ENDROOT
BRANCH   9  12
ATOM     12  O   UNL     1      30.816  44.370  77.568  1.00  0.00    -0.504 OA
ATOM     13  H   UNL     1      31.124  45.333  77.495  1.00  0.00     0.293 HD
ENDBRANCH   9  12
BRANCH   8  14
ATOM     14  O   UNL     1      28.336  45.638  77.100  1.00  0.00    -0.504 OA
ATOM     15  H   UNL     1      27.442  45.871  76.682  1.00  0.00     0.293 HD
ENDBRANCH   8  14
TORSDOF 2
ENDMDL
MODEL 7
REMARK VINA RESULT:    -5.000     12.528     14.254
REMARK INTER + INTRA:          -5.292
REMARK INTER:                  -5.292
REMARK INTRA:                   0.000
REMARK UNBOUND:                 0.000
REMARK SMILES O=c1ccc2cc(O)c(O)cc2o1
REMARK SMILES IDX 4 1 3 2 2 3 1 4 13 5 12 6 11 7 9 8 7 9 6 10 5 11 8 12 10 14
REMARK H PARENT 8 13 10 15
REMARK Flexibility Score: inf
ROOT
ATOM      1  C   UNL     1      15.878  35.986  77.857  1.00  0.00     0.019 A 
ATOM      2  C   UNL     1      14.881  36.176  76.900  1.00  0.00     0.094 A 
ATOM      3  C   UNL     1      14.106  37.339  76.950  1.00  0.00     0.336 A 
ATOM      4  O   UNL     1      13.202  37.529  76.096  1.00  0.00    -0.246 OA
ATOM      5  O   UNL     1      14.319  38.250  77.897  1.00  0.00    -0.423 OA
ATOM      6  C   UNL     1      15.259  38.108  78.829  1.00  0.00     0.142 A 
ATOM      7  C   UNL     1      15.436  39.099  79.800  1.00  0.00     0.098 A 
ATOM      8  C   UNL     1      16.423  38.958  80.783  1.00  0.00     0.161 A 
ATOM      9  C   UNL     1      17.241  37.814  80.796  1.00  0.00     0.158 A 
ATOM     10  C   UNL     1      17.067  36.817  79.825  1.00  0.00     0.062 A 
ATOM     11  C   UNL     1      16.079  36.960  78.841  1.00  0.00     0.022 A 
ENDROOT
BRANCH   9  12
ATOM     12  O   UNL     1      18.224  37.671  81.776  1.00  0.00    -0.504 OA
ATOM     13  H   UNL     1      18.738  36.805  81.889  1.00  0.00     0.293 HD
ENDBRANCH   9  12
BRANCH   8  14
ATOM     14  O   UNL     1      16.574  39.963  81.737  1.00  0.00    -0.504 OA
ATOM     15  H   UNL     1      15.834  40.207  82.384  1.00  0.00     0.293 HD
ENDBRANCH   8  14
TORSDOF 2
ENDMDL
MODEL 8
REMARK VINA RESULT:    -4.945     12.533     14.144
REMARK INTER + INTRA:          -5.234
REMARK INTER:                  -5.234
REMARK INTRA:                   0.000
REMARK UNBOUND:                 0.000
REMARK SMILES O=c1ccc2cc(O)c(O)cc2o1
REMARK SMILES IDX 4 1 3 2 2 3 1 4 13 5 12 6 11 7 9 8 7 9 6 10 5 11 8 12 10 14
REMARK H PARENT 8 13 10 15
REMARK Flexibility Score: inf
ROOT
ATOM      1  C   UNL     1      14.200  38.199  77.910  1.00  0.00     0.019 A 
ATOM      2  C   UNL     1      14.053  37.172  76.978  1.00  0.00     0.094 A 
ATOM      3  C   UNL     1      14.909  36.068  77.045  1.00  0.00     0.336 A 
ATOM      4  O   UNL     1      14.792  35.131  76.213  1.00  0.00    -0.246 OA
ATOM      5  O   UNL     1      15.849  36.001  77.985  1.00  0.00    -0.423 OA
ATOM      6  C   UNL     1      16.024  36.959  78.893  1.00  0.00     0.142 A 
ATOM      7  C   UNL     1      17.029  36.832  79.856  1.00  0.00     0.098 A 
ATOM      8  C   UNL     1      17.219  37.835  80.815  1.00  0.00     0.161 A 
ATOM      9  C   UNL     1      16.395  38.976  80.811  1.00  0.00     0.158 A 
ATOM     10  C   UNL     1      15.386  39.107  79.846  1.00  0.00     0.062 A 
ATOM     11  C   UNL     1      15.196  38.102  78.887  1.00  0.00     0.022 A 
ENDROOT
BRANCH   9  12
ATOM     12  O   UNL     1      16.584  39.976  81.765  1.00  0.00    -0.504 OA
ATOM     13  H   UNL     1      17.499  40.173  82.153  1.00  0.00     0.293 HD
ENDBRANCH   9  12
BRANCH   8  14
ATOM     14  O   UNL     1      18.230  37.680  81.763  1.00  0.00    -0.504 OA
ATOM     15  H   UNL     1      18.716  38.473  82.166  1.00  0.00     0.293 HD
ENDBRANCH   8  14
TORSDOF 2
ENDMDL
