MODEL 1
REMARK VINA RESULT:    -6.743      0.000      0.000
REMARK INTER + INTRA:         -10.526
REMARK INTER:                  -9.699
REMARK INTRA:                  -0.827
REMARK UNBOUND:                -0.827
REMARK SMILES O=c1cc(-c2ccc(O)c(O)c2)oc2cc(O[C@@H]3O[C@@H](CO)[C@@H](O)[C@@H](O)[C@H]3O)cc(O)c12
REMARK SMILES IDX 17 1 16 2 4 3 3 4 13 5 2 6 14 7 1 8 32 9 15 10 30 11 29 12
REMARK SMILES IDX 5 13 6 14 7 15 8 16 12 17 10 18 9 19 11 21 31 23 18 25 27 26
REMARK SMILES IDX 19 27 25 28 20 29 23 30 28 31 26 33 21 35 22 36 24 38
REMARK H PARENT 9 20 11 22 31 24 28 32 26 34 22 37 24 39
REMARK Flexibility Score: inf
ROOT
ATOM      1  O   UNL     1      86.406   3.354  -3.725  1.00  0.00    -0.462 OA
ENDROOT
BRANCH   1   2
ATOM      2  C   UNL     1      85.913   2.878  -2.499  1.00  0.00     0.130 A 
ATOM      3  C   UNL     1      82.019   1.710  -0.012  1.00  0.00     0.138 A 
ATOM      4  C   UNL     1      82.767   1.259   1.084  1.00  0.00     0.100 A 
ATOM      5  O   UNL     1      82.650   2.183  -1.082  1.00  0.00    -0.456 OA
ATOM      6  C   UNL     1      84.160   1.337   1.046  1.00  0.00     0.197 A 
ATOM      7  C   UNL     1      83.973   2.285  -1.166  1.00  0.00     0.146 A 
ATOM      8  O   UNL     1      84.807   0.865   2.017  1.00  0.00    -0.289 OA
ATOM      9  C   UNL     1      84.803   1.900  -0.082  1.00  0.00     0.107 A 
ATOM     10  C   UNL     1      84.531   2.771  -2.350  1.00  0.00     0.094 A 
ATOM     11  C   UNL     1      86.212   2.070  -0.212  1.00  0.00     0.134 A 
ATOM     12  C   UNL     1      86.746   2.528  -1.424  1.00  0.00     0.093 A 
BRANCH   3  13
ATOM     13  C   UNL     1      80.535   1.653  -0.025  1.00  0.00     0.021 A 
ATOM     14  C   UNL     1      79.797   2.773   0.388  1.00  0.00     0.016 A 
ATOM     15  C   UNL     1      78.401   2.741   0.390  1.00  0.00     0.051 A 
ATOM     16  C   UNL     1      77.712   1.591  -0.009  1.00  0.00     0.157 A 
ATOM     17  C   UNL     1      79.843   0.491  -0.414  1.00  0.00     0.062 A 
ATOM     18  C   UNL     1      78.442   0.450  -0.412  1.00  0.00     0.158 A 
BRANCH  16  19
ATOM     19  O   UNL     1      76.316   1.628   0.011  1.00  0.00    -0.504 OA
ATOM     20  H   UNL     1      75.770   1.916   0.810  1.00  0.00     0.293 HD
ENDBRANCH  16  19
BRANCH  18  21
ATOM     21  O   UNL     1      77.825  -0.739  -0.808  1.00  0.00    -0.504 OA
ATOM     22  H   UNL     1      78.131  -1.657  -0.519  1.00  0.00     0.293 HD
ENDBRANCH  18  21
ENDBRANCH   3  13
BRANCH  11  23
ATOM     23  O   UNL     1      87.125   1.831   0.820  1.00  0.00    -0.507 OA
ATOM     24  H   UNL     1      88.122   1.735   0.696  1.00  0.00     0.293 HD
ENDBRANCH  11  23
ENDBRANCH   1   2
BRANCH   1  25
ATOM     25  C   UNL     1      87.044   2.568  -4.740  1.00  0.00     0.339 C 
ATOM     26  C   UNL     1      86.325   1.215  -4.946  1.00  0.00     0.214 C 
ATOM     27  O   UNL     1      87.118   3.300  -5.956  1.00  0.00    -0.332 OA
ATOM     28  C   UNL     1      84.935   1.440  -5.579  1.00  0.00     0.180 C 
ATOM     29  C   UNL     1      85.827   3.616  -6.457  1.00  0.00     0.179 C 
ATOM     30  C   UNL     1      85.047   2.334  -6.827  1.00  0.00     0.177 C 
BRANCH  26  31
ATOM     31  O   UNL     1      87.118   0.398  -5.771  1.00  0.00    -0.384 OA
ATOM     32  H   UNL     1      87.151  -0.499  -5.347  1.00  0.00     0.211 HD
ENDBRANCH  26  31
BRANCH  28  33
ATOM     33  O   UNL     1      84.335   0.216  -5.917  1.00  0.00    -0.387 OA
ATOM     34  H   UNL     1      84.824  -0.132  -6.707  1.00  0.00     0.211 HD
ENDBRANCH  28  33
BRANCH  29  35
ATOM     35  C   UNL     1      85.968   4.566  -7.654  1.00  0.00     0.191 C 
BRANCH  35  36
ATOM     36  O   UNL     1      84.743   4.714  -8.318  1.00  0.00    -0.394 OA
ATOM     37  H   UNL     1      84.521   3.822  -8.689  1.00  0.00     0.210 HD
ENDBRANCH  35  36
ENDBRANCH  29  35
BRANCH  30  38
ATOM     38  O   UNL     1      85.705   1.649  -7.863  1.00  0.00    -0.387 OA
ATOM     39  H   UNL     1      85.436   0.696  -7.797  1.00  0.00     0.211 HD
ENDBRANCH  30  38
ENDBRANCH   1  25
TORSDOF 11
ENDMDL
MODEL 2
REMARK VINA RESULT:    -3.844      4.795      6.769
REMARK INTER + INTRA:          -6.356
REMARK INTER:                  -5.411
REMARK INTRA:                  -0.945
REMARK UNBOUND:                -0.827
REMARK SMILES O=c1cc(-c2ccc(O)c(O)c2)oc2cc(O[C@@H]3O[C@@H](CO)[C@@H](O)[C@@H](O)[C@H]3O)cc(O)c12
REMARK SMILES IDX 17 1 16 2 4 3 3 4 13 5 2 6 14 7 1 8 32 9 15 10 30 11 29 12
REMARK SMILES IDX 5 13 6 14 7 15 8 16 12 17 10 18 9 19 11 21 31 23 18 25 27 26
REMARK SMILES IDX 19 27 25 28 20 29 23 30 28 31 26 33 21 35 22 36 24 38
REMARK H PARENT 9 20 11 22 31 24 28 32 26 34 22 37 24 39
REMARK Flexibility Score: inf
ROOT
ATOM      1  O   UNL     1      85.947   2.322  -5.803  1.00  0.00    -0.462 OA
ENDROOT
BRANCH   1   2
ATOM      2  C   UNL     1      86.255   2.475  -4.441  1.00  0.00     0.130 A 
ATOM      3  C   UNL     1      86.911   5.575  -0.882  1.00  0.00     0.138 A 
ATOM      4  C   UNL     1      87.081   4.559   0.068  1.00  0.00     0.100 A 
ATOM      5  O   UNL     1      86.676   5.251  -2.149  1.00  0.00    -0.456 OA
ATOM      6  C   UNL     1      87.027   3.224  -0.335  1.00  0.00     0.197 A 
ATOM      7  C   UNL     1      86.623   3.996  -2.586  1.00  0.00     0.146 A 
ATOM      8  O   UNL     1      87.118   2.332   0.549  1.00  0.00    -0.289 OA
ATOM      9  C   UNL     1      86.836   2.908  -1.702  1.00  0.00     0.107 A 
ATOM     10  C   UNL     1      86.344   3.771  -3.935  1.00  0.00     0.094 A 
ATOM     11  C   UNL     1      86.808   1.586  -2.233  1.00  0.00     0.134 A 
ATOM     12  C   UNL     1      86.491   1.389  -3.583  1.00  0.00     0.093 A 
BRANCH   3  13
ATOM     13  C   UNL     1      86.960   7.012  -0.509  1.00  0.00     0.021 A 
ATOM     14  C   UNL     1      87.005   7.986  -1.519  1.00  0.00     0.016 A 
ATOM     15  C   UNL     1      87.057   9.343  -1.194  1.00  0.00     0.051 A 
ATOM     16  C   UNL     1      87.077   9.757   0.142  1.00  0.00     0.157 A 
ATOM     17  C   UNL     1      86.993   7.427   0.835  1.00  0.00     0.062 A 
ATOM     18  C   UNL     1      87.049   8.787   1.170  1.00  0.00     0.158 A 
BRANCH  16  19
ATOM     19  O   UNL     1      87.123  11.129   0.399  1.00  0.00    -0.504 OA
ATOM     20  H   UNL     1      87.622  11.542   1.174  1.00  0.00     0.293 HD
ENDBRANCH  16  19
BRANCH  18  21
ATOM     21  O   UNL     1      87.081   9.123   2.525  1.00  0.00    -0.504 OA
ATOM     22  H   UNL     1      87.925   9.356   3.029  1.00  0.00     0.293 HD
ENDBRANCH  18  21
ENDBRANCH   3  13
BRANCH  11  23
ATOM     23  O   UNL     1      87.108   0.440  -1.490  1.00  0.00    -0.507 OA
ATOM     24  H   UNL     1      87.993   0.262  -1.039  1.00  0.00     0.293 HD
ENDBRANCH  11  23
ENDBRANCH   1   2
BRANCH   1  25
ATOM     25  C   UNL     1      84.681   1.924  -6.343  1.00  0.00     0.339 C 
ATOM     26  C   UNL     1      84.515   2.394  -7.806  1.00  0.00     0.214 C 
ATOM     27  O   UNL     1      84.518   0.516  -6.235  1.00  0.00    -0.332 OA
ATOM     28  C   UNL     1      85.483   1.621  -8.728  1.00  0.00     0.180 C 
ATOM     29  C   UNL     1      85.502  -0.183  -6.983  1.00  0.00     0.179 C 
ATOM     30  C   UNL     1      85.357   0.105  -8.495  1.00  0.00     0.177 C 
BRANCH  26  31
ATOM     31  O   UNL     1      83.182   2.188  -8.204  1.00  0.00    -0.384 OA
ATOM     32  H   UNL     1      82.763   1.598  -7.524  1.00  0.00     0.211 HD
ENDBRANCH  26  31
BRANCH  28  33
ATOM     33  O   UNL     1      85.236   1.922 -10.077  1.00  0.00    -0.387 OA
ATOM     34  H   UNL     1      84.391   2.439 -10.104  1.00  0.00     0.211 HD
ENDBRANCH  28  33
BRANCH  29  35
ATOM     35  C   UNL     1      85.399  -1.684  -6.674  1.00  0.00     0.191 C 
BRANCH  35  36
ATOM     36  O   UNL     1      85.659  -2.446  -7.821  1.00  0.00    -0.394 OA
ATOM     37  H   UNL     1      84.853  -3.005  -7.969  1.00  0.00     0.210 HD
ENDBRANCH  35  36
ENDBRANCH  29  35
BRANCH  30  38
ATOM     38  O   UNL     1      84.115  -0.361  -8.960  1.00  0.00    -0.387 OA
ATOM     39  H   UNL     1      83.435   0.312  -8.695  1.00  0.00     0.211 HD
ENDBRANCH  30  38
ENDBRANCH   1  25
TORSDOF 11
ENDMDL
