MODEL 1
REMARK VINA RESULT:    -7.726      0.000      0.000
REMARK INTER + INTRA:          -9.583
REMARK INTER:                  -9.307
REMARK INTRA:                  -0.276
REMARK UNBOUND:                -0.276
REMARK SMILES O=c1c(O)c(-c2ccc(O)c(O)c2)oc2cc(O)cc(O)c12
REMARK SMILES IDX 5 1 3 2 2 3 1 4 22 5 20 6 19 7 17 8 16 9 15 10 14 11 6 12
REMARK SMILES IDX 7 13 8 14 9 15 13 16 11 17 10 18 12 20 4 22 21 24 18 26
REMARK H PARENT 10 19 12 21 4 23 21 25 18 27
REMARK Flexibility Score: inf
ROOT
ATOM      1  C   UNL     1       3.343 -14.464  21.739  1.00  0.00     0.180 A 
ATOM      2  C   UNL     1       2.734 -13.203  21.586  1.00  0.00     0.208 A 
ATOM      3  C   UNL     1       1.554 -13.107  20.832  1.00  0.00     0.238 A 
ATOM      4  O   UNL     1       0.994 -11.985  20.698  1.00  0.00    -0.285 OA
ATOM      5  C   UNL     1       1.014 -14.263  20.231  1.00  0.00     0.111 A 
ATOM      6  C   UNL     1      -0.168 -14.250  19.453  1.00  0.00     0.134 A 
ATOM      7  C   UNL     1      -0.636 -15.442  18.880  1.00  0.00     0.093 A 
ATOM      8  C   UNL     1       0.056 -16.644  19.068  1.00  0.00     0.123 A 
ATOM      9  C   UNL     1       1.223 -16.659  19.834  1.00  0.00     0.094 A 
ATOM     10  C   UNL     1       1.705 -15.484  20.416  1.00  0.00     0.146 A 
ATOM     11  O   UNL     1       2.815 -15.530  21.144  1.00  0.00    -0.452 OA
ENDROOT
BRANCH   1  12
ATOM     12  C   UNL     1       4.579 -14.650  22.533  1.00  0.00     0.025 A 
ATOM     13  C   UNL     1       5.788 -14.921  21.875  1.00  0.00     0.016 A 
ATOM     14  C   UNL     1       6.962 -15.121  22.605  1.00  0.00     0.051 A 
ATOM     15  C   UNL     1       6.941 -15.068  24.005  1.00  0.00     0.157 A 
ATOM     16  C   UNL     1       4.558 -14.618  23.939  1.00  0.00     0.062 A 
ATOM     17  C   UNL     1       5.736 -14.821  24.673  1.00  0.00     0.158 A 
BRANCH  15  18
ATOM     18  O   UNL     1       8.110 -15.265  24.738  1.00  0.00    -0.504 OA
ATOM     19  H   UNL     1       8.436 -16.195  24.975  1.00  0.00     0.293 HD
ENDBRANCH  15  18
BRANCH  17  20
ATOM     20  O   UNL     1       5.714 -14.783  26.066  1.00  0.00    -0.504 OA
ATOM     21  H   UNL     1       4.993 -15.256  26.599  1.00  0.00     0.293 HD
ENDBRANCH  17  20
ENDBRANCH   1  12
BRANCH   2  22
ATOM     22  O   UNL     1       3.316 -12.065  22.151  1.00  0.00    -0.502 OA
ATOM     23  H   UNL     1       4.230 -11.730  21.874  1.00  0.00     0.293 HD
ENDBRANCH   2  22
BRANCH   6  24
ATOM     24  O   UNL     1      -0.880 -13.068  19.247  1.00  0.00    -0.507 OA
ATOM     25  H   UNL     1      -0.496 -12.164  19.493  1.00  0.00     0.293 HD
ENDBRANCH   6  24
BRANCH   8  26
ATOM     26  O   UNL     1      -0.407 -17.826  18.498  1.00  0.00    -0.508 OA
ATOM     27  H   UNL     1       0.195 -18.635  18.392  1.00  0.00     0.293 HD
ENDBRANCH   8  26
TORSDOF 6
ENDMDL
MODEL 2
REMARK VINA RESULT:    -7.529      3.722      4.528
REMARK INTER + INTRA:          -9.346
REMARK INTER:                  -9.513
REMARK INTRA:                   0.167
REMARK UNBOUND:                -0.276
REMARK SMILES O=c1c(O)c(-c2ccc(O)c(O)c2)oc2cc(O)cc(O)c12
REMARK SMILES IDX 5 1 3 2 2 3 1 4 22 5 20 6 19 7 17 8 16 9 15 10 14 11 6 12
REMARK SMILES IDX 7 13 8 14 9 15 13 16 11 17 10 18 12 20 4 22 21 24 18 26
REMARK H PARENT 10 19 12 21 4 23 21 25 18 27
REMARK Flexibility Score: inf
ROOT
ATOM      1  C   UNL     1       4.438 -13.097  23.524  1.00  0.00     0.180 A 
ATOM      2  C   UNL     1       3.739 -12.877  24.728  1.00  0.00     0.208 A 
ATOM      3  C   UNL     1       2.675 -11.963  24.737  1.00  0.00     0.238 A 
ATOM      4  O   UNL     1       2.036 -11.766  25.806  1.00  0.00    -0.285 OA
ATOM      5  C   UNL     1       2.339 -11.271  23.554  1.00  0.00     0.111 A 
ATOM      6  C   UNL     1       1.284 -10.332  23.481  1.00  0.00     0.134 A 
ATOM      7  C   UNL     1       1.017  -9.678  22.268  1.00  0.00     0.093 A 
ATOM      8  C   UNL     1       1.787  -9.945  21.130  1.00  0.00     0.123 A 
ATOM      9  C   UNL     1       2.829 -10.872  21.200  1.00  0.00     0.094 A 
ATOM     10  C   UNL     1       3.109 -11.535  22.397  1.00  0.00     0.146 A 
ATOM     11  O   UNL     1       4.103 -12.415  22.432  1.00  0.00    -0.452 OA
ENDROOT
BRANCH   1  12
ATOM     12  C   UNL     1       5.560 -14.058  23.430  1.00  0.00     0.025 A 
ATOM     13  C   UNL     1       5.664 -14.888  22.303  1.00  0.00     0.016 A 
ATOM     14  C   UNL     1       6.703 -15.817  22.202  1.00  0.00     0.051 A 
ATOM     15  C   UNL     1       7.642 -15.942  23.234  1.00  0.00     0.157 A 
ATOM     16  C   UNL     1       6.492 -14.201  24.473  1.00  0.00     0.062 A 
ATOM     17  C   UNL     1       7.534 -15.135  24.374  1.00  0.00     0.158 A 
BRANCH  15  18
ATOM     18  O   UNL     1       8.681 -16.866  23.137  1.00  0.00    -0.504 OA
ATOM     19  H   UNL     1       8.501 -17.864  23.111  1.00  0.00     0.293 HD
ENDBRANCH  15  18
BRANCH  17  20
ATOM     20  O   UNL     1       8.461 -15.270  25.406  1.00  0.00    -0.504 OA
ATOM     21  H   UNL     1       8.590 -16.151  25.891  1.00  0.00     0.293 HD
ENDBRANCH  17  20
ENDBRANCH   1  12
BRANCH   2  22
ATOM     22  O   UNL     1       4.124 -13.538  25.897  1.00  0.00    -0.502 OA
ATOM     23  H   UNL     1       3.456 -13.997  26.505  1.00  0.00     0.293 HD
ENDBRANCH   2  22
BRANCH   6  24
ATOM     24  O   UNL     1       0.499 -10.043  24.598  1.00  0.00    -0.507 OA
ATOM     25  H   UNL     1       0.516  -9.132  25.041  1.00  0.00     0.293 HD
ENDBRANCH   6  24
BRANCH   8  26
ATOM     26  O   UNL     1       1.525  -9.295  19.927  1.00  0.00    -0.508 OA
ATOM     27  H   UNL     1       2.251  -8.802  19.422  1.00  0.00     0.293 HD
ENDBRANCH   8  26
TORSDOF 6
ENDMDL
MODEL 3
REMARK VINA RESULT:    -7.431      7.959     10.693
REMARK INTER + INTRA:          -9.227
REMARK INTER:                  -9.398
REMARK INTRA:                   0.171
REMARK UNBOUND:                -0.276
REMARK SMILES O=c1c(O)c(-c2ccc(O)c(O)c2)oc2cc(O)cc(O)c12
REMARK SMILES IDX 5 1 3 2 2 3 1 4 22 5 20 6 19 7 17 8 16 9 15 10 14 11 6 12
REMARK SMILES IDX 7 13 8 14 9 15 13 16 11 17 10 18 12 20 4 22 21 24 18 26
REMARK H PARENT 10 19 12 21 4 23 21 25 18 27
REMARK Flexibility Score: inf
ROOT
ATOM      1  C   UNL     1      -0.157 -14.413  29.707  1.00  0.00     0.180 A 
ATOM      2  C   UNL     1      -0.006 -14.227  28.319  1.00  0.00     0.208 A 
ATOM      3  C   UNL     1       1.065 -13.449  27.851  1.00  0.00     0.238 A 
ATOM      4  O   UNL     1       1.216 -13.285  26.610  1.00  0.00    -0.285 OA
ATOM      5  C   UNL     1       1.951 -12.856  28.774  1.00  0.00     0.111 A 
ATOM      6  C   UNL     1       3.052 -12.056  28.385  1.00  0.00     0.134 A 
ATOM      7  C   UNL     1       3.883 -11.493  29.365  1.00  0.00     0.093 A 
ATOM      8  C   UNL     1       3.634 -11.714  30.724  1.00  0.00     0.123 A 
ATOM      9  C   UNL     1       2.549 -12.503  31.111  1.00  0.00     0.094 A 
ATOM     10  C   UNL     1       1.710 -13.074  30.151  1.00  0.00     0.146 A 
ATOM     11  O   UNL     1       0.689 -13.824  30.548  1.00  0.00    -0.452 OA
ENDROOT
BRANCH   1  12
ATOM     12  C   UNL     1      -1.250 -15.234  30.277  1.00  0.00     0.025 A 
ATOM     13  C   UNL     1      -1.800 -14.883  31.519  1.00  0.00     0.016 A 
ATOM     14  C   UNL     1      -2.818 -15.656  32.086  1.00  0.00     0.051 A 
ATOM     15  C   UNL     1      -3.288 -16.798  31.425  1.00  0.00     0.157 A 
ATOM     16  C   UNL     1      -1.710 -16.393  29.627  1.00  0.00     0.062 A 
ATOM     17  C   UNL     1      -2.729 -17.171  30.196  1.00  0.00     0.158 A 
BRANCH  15  18
ATOM     18  O   UNL     1      -4.303 -17.571  31.986  1.00  0.00    -0.504 OA
ATOM     19  H   UNL     1      -4.575 -17.465  32.957  1.00  0.00     0.293 HD
ENDBRANCH  15  18
BRANCH  17  20
ATOM     20  O   UNL     1      -3.188 -18.316  29.548  1.00  0.00    -0.504 OA
ATOM     21  H   UNL     1      -3.115 -18.422  28.543  1.00  0.00     0.293 HD
ENDBRANCH  17  20
ENDBRANCH   1  12
BRANCH   2  22
ATOM     22  O   UNL     1      -0.926 -14.785  27.428  1.00  0.00    -0.502 OA
ATOM     23  H   UNL     1      -1.018 -14.465  26.472  1.00  0.00     0.293 HD
ENDBRANCH   2  22
BRANCH   6  24
ATOM     24  O   UNL     1       3.326 -11.816  27.038  1.00  0.00    -0.507 OA
ATOM     25  H   UNL     1       3.498 -10.882  26.687  1.00  0.00     0.293 HD
ENDBRANCH   6  24
BRANCH   8  26
ATOM     26  O   UNL     1       4.458 -11.154  31.697  1.00  0.00    -0.508 OA
ATOM     27  H   UNL     1       4.218 -11.193  32.681  1.00  0.00     0.293 HD
ENDBRANCH   8  26
TORSDOF 6
ENDMDL
MODEL 4
REMARK VINA RESULT:    -7.413      4.147      5.761
REMARK INTER + INTRA:          -9.205
REMARK INTER:                  -9.358
REMARK INTRA:                   0.153
REMARK UNBOUND:                -0.276
REMARK SMILES O=c1c(O)c(-c2ccc(O)c(O)c2)oc2cc(O)cc(O)c12
REMARK SMILES IDX 5 1 3 2 2 3 1 4 22 5 20 6 19 7 17 8 16 9 15 10 14 11 6 12
REMARK SMILES IDX 7 13 8 14 9 15 13 16 11 17 10 18 12 20 4 22 21 24 18 26
REMARK H PARENT 10 19 12 21 4 23 21 25 18 27
REMARK Flexibility Score: inf
ROOT
ATOM      1  C   UNL     1       4.317 -12.819  24.209  1.00  0.00     0.180 A 
ATOM      2  C   UNL     1       3.822 -11.730  23.465  1.00  0.00     0.208 A 
ATOM      3  C   UNL     1       2.867 -10.885  24.053  1.00  0.00     0.238 A 
ATOM      4  O   UNL     1       2.426  -9.901  23.400  1.00  0.00    -0.285 OA
ATOM      5  C   UNL     1       2.410 -11.152  25.360  1.00  0.00     0.111 A 
ATOM      6  C   UNL     1       1.447 -10.353  26.021  1.00  0.00     0.134 A 
ATOM      7  C   UNL     1       1.036 -10.690  27.319  1.00  0.00     0.093 A 
ATOM      8  C   UNL     1       1.568 -11.811  27.967  1.00  0.00     0.123 A 
ATOM      9  C   UNL     1       2.518 -12.602  27.317  1.00  0.00     0.094 A 
ATOM     10  C   UNL     1       2.942 -12.282  26.025  1.00  0.00     0.146 A 
ATOM     11  O   UNL     1       3.850 -13.049  25.434  1.00  0.00    -0.452 OA
ENDROOT
BRANCH   1  12
ATOM     12  C   UNL     1       5.338 -13.744  23.667  1.00  0.00     0.025 A 
ATOM     13  C   UNL     1       5.228 -14.192  22.341  1.00  0.00     0.016 A 
ATOM     14  C   UNL     1       6.168 -15.081  21.815  1.00  0.00     0.051 A 
ATOM     15  C   UNL     1       7.223 -15.547  22.611  1.00  0.00     0.157 A 
ATOM     16  C   UNL     1       6.386 -14.230  24.469  1.00  0.00     0.062 A 
ATOM     17  C   UNL     1       7.329 -15.125  23.941  1.00  0.00     0.158 A 
BRANCH  15  18
ATOM     18  O   UNL     1       8.164 -16.433  22.089  1.00  0.00    -0.504 OA
ATOM     19  H   UNL     1       8.116 -16.751  21.127  1.00  0.00     0.293 HD
ENDBRANCH  15  18
BRANCH  17  20
ATOM     20  O   UNL     1       8.371 -15.601  24.736  1.00  0.00    -0.504 OA
ATOM     21  H   UNL     1       8.635 -15.138  25.598  1.00  0.00     0.293 HD
ENDBRANCH  17  20
ENDBRANCH   1  12
BRANCH   2  22
ATOM     22  O   UNL     1       4.256 -11.516  22.155  1.00  0.00    -0.502 OA
ATOM     23  H   UNL     1       4.627 -12.261  21.578  1.00  0.00     0.293 HD
ENDBRANCH   2  22
BRANCH   6  24
ATOM     24  O   UNL     1       0.898  -9.230  25.402  1.00  0.00    -0.507 OA
ATOM     25  H   UNL     1       1.408  -8.357  25.329  1.00  0.00     0.293 HD
ENDBRANCH   6  24
BRANCH   8  26
ATOM     26  O   UNL     1       1.160 -12.147  29.255  1.00  0.00    -0.508 OA
ATOM     27  H   UNL     1       0.669 -13.013  29.446  1.00  0.00     0.293 HD
ENDBRANCH   8  26
TORSDOF 6
ENDMDL
MODEL 5
REMARK VINA RESULT:    -7.371      2.979      6.875
REMARK INTER + INTRA:          -9.155
REMARK INTER:                  -9.131
REMARK INTRA:                  -0.024
REMARK UNBOUND:                -0.276
REMARK SMILES O=c1c(O)c(-c2ccc(O)c(O)c2)oc2cc(O)cc(O)c12
REMARK SMILES IDX 5 1 3 2 2 3 1 4 22 5 20 6 19 7 17 8 16 9 15 10 14 11 6 12
REMARK SMILES IDX 7 13 8 14 9 15 13 16 11 17 10 18 12 20 4 22 21 24 18 26
REMARK H PARENT 10 19 12 21 4 23 21 25 18 27
REMARK Flexibility Score: inf
ROOT
ATOM      1  C   UNL     1       2.466 -13.186  22.199  1.00  0.00     0.180 A 
ATOM      2  C   UNL     1       3.843 -13.140  22.494  1.00  0.00     0.208 A 
ATOM      3  C   UNL     1       4.304 -12.209  23.437  1.00  0.00     0.238 A 
ATOM      4  O   UNL     1       5.533 -12.166  23.717  1.00  0.00    -0.285 OA
ATOM      5  C   UNL     1       3.390 -11.329  24.053  1.00  0.00     0.111 A 
ATOM      6  C   UNL     1       3.773 -10.360  25.010  1.00  0.00     0.134 A 
ATOM      7  C   UNL     1       2.805  -9.514  25.571  1.00  0.00     0.093 A 
ATOM      8  C   UNL     1       1.461  -9.619  25.193  1.00  0.00     0.123 A 
ATOM      9  C   UNL     1       1.079 -10.575  24.249  1.00  0.00     0.094 A 
ATOM     10  C   UNL     1       2.029 -11.427  23.680  1.00  0.00     0.146 A 
ATOM     11  O   UNL     1       1.636 -12.329  22.788  1.00  0.00    -0.452 OA
ENDROOT
BRANCH   1  12
ATOM     12  C   UNL     1       1.900 -14.152  21.230  1.00  0.00     0.025 A 
ATOM     13  C   UNL     1       2.177 -15.519  21.378  1.00  0.00     0.016 A 
ATOM     14  C   UNL     1       1.671 -16.447  20.463  1.00  0.00     0.051 A 
ATOM     15  C   UNL     1       0.895 -16.018  19.378  1.00  0.00     0.157 A 
ATOM     16  C   UNL     1       1.139 -13.723  20.128  1.00  0.00     0.062 A 
ATOM     17  C   UNL     1       0.632 -14.653  19.208  1.00  0.00     0.158 A 
BRANCH  15  18
ATOM     18  O   UNL     1       0.387 -16.939  18.464  1.00  0.00    -0.504 OA
ATOM     19  H   UNL     1      -0.265 -17.661  18.747  1.00  0.00     0.293 HD
ENDBRANCH  15  18
BRANCH  17  20
ATOM     20  O   UNL     1      -0.128 -14.227  18.120  1.00  0.00    -0.504 OA
ATOM     21  H   UNL     1      -0.572 -14.887  17.492  1.00  0.00     0.293 HD
ENDBRANCH  17  20
ENDBRANCH   1  12
BRANCH   2  22
ATOM     22  O   UNL     1       4.734 -13.989  21.834  1.00  0.00    -0.502 OA
ATOM     23  H   UNL     1       5.309 -13.677  21.061  1.00  0.00     0.293 HD
ENDBRANCH   2  22
BRANCH   6  24
ATOM     24  O   UNL     1       5.105 -10.230  25.408  1.00  0.00    -0.507 OA
ATOM     25  H   UNL     1       5.364 -10.141  26.383  1.00  0.00     0.293 HD
ENDBRANCH   6  24
BRANCH   8  26
ATOM     26  O   UNL     1       0.500  -8.779  25.748  1.00  0.00    -0.508 OA
ATOM     27  H   UNL     1      -0.468  -8.810  25.448  1.00  0.00     0.293 HD
ENDBRANCH   8  26
TORSDOF 6
ENDMDL
MODEL 6
REMARK VINA RESULT:    -7.352      4.752      6.462
REMARK INTER + INTRA:          -9.132
REMARK INTER:                  -8.878
REMARK INTRA:                  -0.254
REMARK UNBOUND:                -0.276
REMARK SMILES O=c1c(O)c(-c2ccc(O)c(O)c2)oc2cc(O)cc(O)c12
REMARK SMILES IDX 5 1 3 2 2 3 1 4 22 5 20 6 19 7 17 8 16 9 15 10 14 11 6 12
REMARK SMILES IDX 7 13 8 14 9 15 13 16 11 17 10 18 12 20 4 22 21 24 18 26
REMARK H PARENT 10 19 12 21 4 23 21 25 18 27
REMARK Flexibility Score: inf
ROOT
ATOM      1  C   UNL     1       2.567 -11.511  26.528  1.00  0.00     0.180 A 
ATOM      2  C   UNL     1       1.553 -10.653  26.059  1.00  0.00     0.208 A 
ATOM      3  C   UNL     1       1.440 -10.427  24.679  1.00  0.00     0.238 A 
ATOM      4  O   UNL     1       0.529  -9.669  24.247  1.00  0.00    -0.285 OA
ATOM      5  C   UNL     1       2.350 -11.043  23.794  1.00  0.00     0.111 A 
ATOM      6  C   UNL     1       2.307 -10.863  22.391  1.00  0.00     0.134 A 
ATOM      7  C   UNL     1       3.254 -11.504  21.579  1.00  0.00     0.093 A 
ATOM      8  C   UNL     1       4.243 -12.318  22.143  1.00  0.00     0.123 A 
ATOM      9  C   UNL     1       4.288 -12.497  23.527  1.00  0.00     0.094 A 
ATOM     10  C   UNL     1       3.353 -11.869  24.353  1.00  0.00     0.146 A 
ATOM     11  O   UNL     1       3.417 -12.062  25.665  1.00  0.00    -0.452 OA
ENDROOT
BRANCH   1  12
ATOM     12  C   UNL     1       2.739 -11.814  27.967  1.00  0.00     0.025 A 
ATOM     13  C   UNL     1       1.822 -12.661  28.608  1.00  0.00     0.016 A 
ATOM     14  C   UNL     1       1.953 -12.944  29.970  1.00  0.00     0.051 A 
ATOM     15  C   UNL     1       2.993 -12.371  30.714  1.00  0.00     0.157 A 
ATOM     16  C   UNL     1       3.769 -11.224  28.722  1.00  0.00     0.062 A 
ATOM     17  C   UNL     1       3.899 -11.506  30.090  1.00  0.00     0.158 A 
BRANCH  15  18
ATOM     18  O   UNL     1       3.128 -12.651  32.072  1.00  0.00    -0.504 OA
ATOM     19  H   UNL     1       3.177 -13.605  32.414  1.00  0.00     0.293 HD
ENDBRANCH  15  18
BRANCH  17  20
ATOM     20  O   UNL     1       4.925 -10.926  30.835  1.00  0.00    -0.504 OA
ATOM     21  H   UNL     1       5.393 -10.082  30.525  1.00  0.00     0.293 HD
ENDBRANCH  17  20
ENDBRANCH   1  12
BRANCH   2  22
ATOM     22  O   UNL     1       0.696 -10.017  26.960  1.00  0.00    -0.502 OA
ATOM     23  H   UNL     1      -0.189 -10.420  27.244  1.00  0.00     0.293 HD
ENDBRANCH   2  22
BRANCH   6  24
ATOM     24  O   UNL     1       1.334 -10.057  21.799  1.00  0.00    -0.507 OA
ATOM     25  H   UNL     1       0.452 -10.436  21.475  1.00  0.00     0.293 HD
ENDBRANCH   6  24
BRANCH   8  26
ATOM     26  O   UNL     1       5.184 -12.953  21.337  1.00  0.00    -0.508 OA
ATOM     27  H   UNL     1       5.683 -13.777  21.653  1.00  0.00     0.293 HD
ENDBRANCH   8  26
TORSDOF 6
ENDMDL
MODEL 7
REMARK VINA RESULT:    -7.338      5.394      7.604
REMARK INTER + INTRA:          -9.115
REMARK INTER:                  -8.782
REMARK INTRA:                  -0.333
REMARK UNBOUND:                -0.276
REMARK SMILES O=c1c(O)c(-c2ccc(O)c(O)c2)oc2cc(O)cc(O)c12
REMARK SMILES IDX 5 1 3 2 2 3 1 4 22 5 20 6 19 7 17 8 16 9 15 10 14 11 6 12
REMARK SMILES IDX 7 13 8 14 9 15 13 16 11 17 10 18 12 20 4 22 21 24 18 26
REMARK H PARENT 10 19 12 21 4 23 21 25 18 27
REMARK Flexibility Score: inf
ROOT
ATOM      1  C   UNL     1       3.017 -11.403  27.337  1.00  0.00     0.180 A 
ATOM      2  C   UNL     1       3.759 -12.047  26.327  1.00  0.00     0.208 A 
ATOM      3  C   UNL     1       3.598 -11.630  24.996  1.00  0.00     0.238 A 
ATOM      4  O   UNL     1       4.264 -12.191  24.085  1.00  0.00    -0.285 OA
ATOM      5  C   UNL     1       2.689 -10.594  24.695  1.00  0.00     0.111 A 
ATOM      6  C   UNL     1       2.466 -10.118  23.382  1.00  0.00     0.134 A 
ATOM      7  C   UNL     1       1.537  -9.089  23.162  1.00  0.00     0.093 A 
ATOM      8  C   UNL     1       0.828  -8.530  24.231  1.00  0.00     0.123 A 
ATOM      9  C   UNL     1       1.045  -8.997  25.529  1.00  0.00     0.094 A 
ATOM     10  C   UNL     1       1.967 -10.020  25.768  1.00  0.00     0.146 A 
ATOM     11  O   UNL     1       2.157 -10.441  27.013  1.00  0.00    -0.452 OA
ENDROOT
BRANCH   1  12
ATOM     12  C   UNL     1       3.144 -11.774  28.764  1.00  0.00     0.025 A 
ATOM     13  C   UNL     1       2.226 -12.672  29.328  1.00  0.00     0.016 A 
ATOM     14  C   UNL     1       2.314 -13.020  30.679  1.00  0.00     0.051 A 
ATOM     15  C   UNL     1       3.313 -12.463  31.488  1.00  0.00     0.157 A 
ATOM     16  C   UNL     1       4.133 -11.200  29.585  1.00  0.00     0.062 A 
ATOM     17  C   UNL     1       4.221 -11.547  30.941  1.00  0.00     0.158 A 
BRANCH  15  18
ATOM     18  O   UNL     1       3.406 -12.808  32.835  1.00  0.00    -0.504 OA
ATOM     19  H   UNL     1       2.583 -13.041  33.380  1.00  0.00     0.293 HD
ENDBRANCH  15  18
BRANCH  17  20
ATOM     20  O   UNL     1       5.205 -10.983  31.751  1.00  0.00    -0.504 OA
ATOM     21  H   UNL     1       6.013 -10.516  31.356  1.00  0.00     0.293 HD
ENDBRANCH  17  20
ENDBRANCH   1  12
BRANCH   2  22
ATOM     22  O   UNL     1       4.615 -13.103  26.645  1.00  0.00    -0.502 OA
ATOM     23  H   UNL     1       5.594 -12.961  26.863  1.00  0.00     0.293 HD
ENDBRANCH   2  22
BRANCH   6  24
ATOM     24  O   UNL     1       3.157 -10.655  22.295  1.00  0.00    -0.507 OA
ATOM     25  H   UNL     1       2.809 -10.572  21.347  1.00  0.00     0.293 HD
ENDBRANCH   6  24
BRANCH   8  26
ATOM     26  O   UNL     1      -0.095  -7.510  24.015  1.00  0.00    -0.508 OA
ATOM     27  H   UNL     1      -1.078  -7.707  23.865  1.00  0.00     0.293 HD
ENDBRANCH   8  26
TORSDOF 6
ENDMDL
MODEL 8
REMARK VINA RESULT:    -7.333      4.493      6.362
REMARK INTER + INTRA:          -9.109
REMARK INTER:                  -8.895
REMARK INTRA:                  -0.214
REMARK UNBOUND:                -0.276
REMARK SMILES O=c1c(O)c(-c2ccc(O)c(O)c2)oc2cc(O)cc(O)c12
REMARK SMILES IDX 5 1 3 2 2 3 1 4 22 5 20 6 19 7 17 8 16 9 15 10 14 11 6 12
REMARK SMILES IDX 7 13 8 14 9 15 13 16 11 17 10 18 12 20 4 22 21 24 18 26
REMARK H PARENT 10 19 12 21 4 23 21 25 18 27
REMARK Flexibility Score: inf
ROOT
ATOM      1  C   UNL     1       2.086 -12.775  26.020  1.00  0.00     0.180 A 
ATOM      2  C   UNL     1       1.836 -11.526  25.417  1.00  0.00     0.208 A 
ATOM      3  C   UNL     1       2.431 -11.241  24.179  1.00  0.00     0.238 A 
ATOM      4  O   UNL     1       2.207 -10.131  23.624  1.00  0.00    -0.285 OA
ATOM      5  C   UNL     1       3.277 -12.194  23.574  1.00  0.00     0.111 A 
ATOM      6  C   UNL     1       3.918 -11.982  22.330  1.00  0.00     0.134 A 
ATOM      7  C   UNL     1       4.752 -12.977  21.799  1.00  0.00     0.093 A 
ATOM      8  C   UNL     1       4.959 -14.177  22.489  1.00  0.00     0.123 A 
ATOM      9  C   UNL     1       4.329 -14.389  23.717  1.00  0.00     0.094 A 
ATOM     10  C   UNL     1       3.492 -13.411  24.262  1.00  0.00     0.146 A 
ATOM     11  O   UNL     1       2.902 -13.643  25.429  1.00  0.00    -0.452 OA
ENDROOT
BRANCH   1  12
ATOM     12  C   UNL     1       1.481 -13.157  27.316  1.00  0.00     0.025 A 
ATOM     13  C   UNL     1       0.460 -14.119  27.344  1.00  0.00     0.016 A 
ATOM     14  C   UNL     1      -0.140 -14.480  28.554  1.00  0.00     0.051 A 
ATOM     15  C   UNL     1       0.263 -13.873  29.750  1.00  0.00     0.157 A 
ATOM     16  C   UNL     1       1.868 -12.535  28.517  1.00  0.00     0.062 A 
ATOM     17  C   UNL     1       1.265 -12.895  29.731  1.00  0.00     0.158 A 
BRANCH  15  18
ATOM     18  O   UNL     1      -0.332 -14.231  30.959  1.00  0.00    -0.504 OA
ATOM     19  H   UNL     1      -0.870 -15.085  31.052  1.00  0.00     0.293 HD
ENDBRANCH  15  18
BRANCH  17  20
ATOM     20  O   UNL     1       1.654 -12.282  30.921  1.00  0.00    -0.504 OA
ATOM     21  H   UNL     1       2.617 -12.016  31.091  1.00  0.00     0.293 HD
ENDBRANCH  17  20
ENDBRANCH   1  12
BRANCH   2  22
ATOM     22  O   UNL     1       1.034 -10.580  26.060  1.00  0.00    -0.502 OA
ATOM     23  H   UNL     1       0.611  -9.803  25.567  1.00  0.00     0.293 HD
ENDBRANCH   2  22
BRANCH   6  24
ATOM     24  O   UNL     1       3.732 -10.796  21.619  1.00  0.00    -0.507 OA
ATOM     25  H   UNL     1       3.360  -9.963  22.059  1.00  0.00     0.293 HD
ENDBRANCH   6  24
BRANCH   8  26
ATOM     26  O   UNL     1       5.789 -15.164  21.963  1.00  0.00    -0.508 OA
ATOM     27  H   UNL     1       6.593 -15.508  22.474  1.00  0.00     0.293 HD
ENDBRANCH   8  26
TORSDOF 6
ENDMDL
MODEL 9
REMARK VINA RESULT:    -7.306      4.924      7.767
REMARK INTER + INTRA:          -9.077
REMARK INTER:                  -8.777
REMARK INTRA:                  -0.300
REMARK UNBOUND:                -0.276
REMARK SMILES O=c1c(O)c(-c2ccc(O)c(O)c2)oc2cc(O)cc(O)c12
REMARK SMILES IDX 5 1 3 2 2 3 1 4 22 5 20 6 19 7 17 8 16 9 15 10 14 11 6 12
REMARK SMILES IDX 7 13 8 14 9 15 13 16 11 17 10 18 12 20 4 22 21 24 18 26
REMARK H PARENT 10 19 12 21 4 23 21 25 18 27
REMARK Flexibility Score: inf
ROOT
ATOM      1  C   UNL     1       2.326 -11.977  25.987  1.00  0.00     0.180 A 
ATOM      2  C   UNL     1       3.116 -11.471  27.038  1.00  0.00     0.208 A 
ATOM      3  C   UNL     1       2.881 -11.929  28.344  1.00  0.00     0.238 A 
ATOM      4  O   UNL     1       3.588 -11.491  29.291  1.00  0.00    -0.285 OA
ATOM      5  C   UNL     1       1.853 -12.865  28.580  1.00  0.00     0.111 A 
ATOM      6  C   UNL     1       1.550 -13.373  29.866  1.00  0.00     0.134 A 
ATOM      7  C   UNL     1       0.506 -14.297  30.021  1.00  0.00     0.093 A 
ATOM      8  C   UNL     1      -0.241 -14.720  28.915  1.00  0.00     0.123 A 
ATOM      9  C   UNL     1       0.055 -14.221  27.646  1.00  0.00     0.094 A 
ATOM     10  C   UNL     1       1.093 -13.302  27.470  1.00  0.00     0.146 A 
ATOM     11  O   UNL     1       1.355 -12.848  26.250  1.00  0.00    -0.452 OA
ENDROOT
BRANCH   1  12
ATOM     12  C   UNL     1       2.525 -11.558  24.581  1.00  0.00     0.025 A 
ATOM     13  C   UNL     1       1.614 -10.668  23.991  1.00  0.00     0.016 A 
ATOM     14  C   UNL     1       1.770 -10.275  22.659  1.00  0.00     0.051 A 
ATOM     15  C   UNL     1       2.830 -10.778  21.894  1.00  0.00     0.157 A 
ATOM     16  C   UNL     1       3.575 -12.077  23.803  1.00  0.00     0.062 A 
ATOM     17  C   UNL     1       3.731 -11.685  22.465  1.00  0.00     0.158 A 
BRANCH  15  18
ATOM     18  O   UNL     1       2.990 -10.388  20.566  1.00  0.00    -0.504 OA
ATOM     19  H   UNL     1       2.193 -10.184  19.974  1.00  0.00     0.293 HD
ENDBRANCH  15  18
BRANCH  17  20
ATOM     20  O   UNL     1       4.776 -12.195  21.698  1.00  0.00    -0.504 OA
ATOM     21  H   UNL     1       4.823 -12.043  20.697  1.00  0.00     0.293 HD
ENDBRANCH  17  20
ENDBRANCH   1  12
BRANCH   2  22
ATOM     22  O   UNL     1       4.094 -10.507  26.784  1.00  0.00    -0.502 OA
ATOM     23  H   UNL     1       4.340  -9.793  27.459  1.00  0.00     0.293 HD
ENDBRANCH   2  22
BRANCH   6  24
ATOM     24  O   UNL     1       2.276 -12.970  30.988  1.00  0.00    -0.507 OA
ATOM     25  H   UNL     1       1.896 -12.317  31.663  1.00  0.00     0.293 HD
ENDBRANCH   6  24
BRANCH   8  26
ATOM     26  O   UNL     1      -1.279 -15.635  29.069  1.00  0.00    -0.508 OA
ATOM     27  H   UNL     1      -1.498 -16.314  28.348  1.00  0.00     0.293 HD
ENDBRANCH   8  26
TORSDOF 6
ENDMDL
