MODEL 1
REMARK VINA RESULT:    -4.733      0.000      0.000
REMARK INTER + INTRA:          -9.948
REMARK INTER:                  -8.883
REMARK INTRA:                  -1.065
REMARK UNBOUND:                -1.065
REMARK SMILES CCCCCCCCC=CCCCCCCCC(=O)[O-]
REMARK SMILES IDX 10 1 9 2 11 3 12 4 13 5 14 6 15 7 16 8 17 9 18 10 19 11
REMARK SMILES IDX 20 12 8 13 7 14 6 15 5 16 4 17 3 18 2 19 1 20
REMARK H PARENT
REMARK Flexibility Score: inf
ROOT
ATOM      1  C   UNL     1      -9.564  -0.196 -37.223  1.00  0.00    -0.031 C 
ATOM      2  C   UNL     1      -9.899   1.041 -36.812  1.00  0.00    -0.031 C 
ENDROOT
BRANCH   1   3
ATOM      3  C   UNL     1     -10.506  -1.165 -37.894  1.00  0.00     0.027 C 
BRANCH   3   4
ATOM      4  C   UNL     1     -10.269  -1.252 -39.411  1.00  0.00     0.004 C 
BRANCH   4   5
ATOM      5  C   UNL     1      -8.826  -0.941 -39.847  1.00  0.00     0.000 C 
BRANCH   5   6
ATOM      6  C   UNL     1      -8.078  -2.177 -40.367  1.00  0.00     0.000 C 
BRANCH   6   7
ATOM      7  C   UNL     1      -7.435  -2.955 -39.213  1.00  0.00     0.000 C 
BRANCH   7   8
ATOM      8  C   UNL     1      -6.693  -4.197 -39.732  1.00  0.00     0.006 C 
BRANCH   8   9
ATOM      9  C   UNL     1      -5.195  -3.934 -39.936  1.00  0.00     0.053 C 
BRANCH   9  10
ATOM     10  C   UNL     1      -4.365  -4.616 -38.894  1.00  0.00     0.041 C 
ATOM     11  O   UNL     1      -4.808  -4.763 -37.725  1.00  0.00    -0.550 OA
ATOM     12  O   UNL     1      -3.111  -5.118 -39.222  1.00  0.00    -0.550 OA
ENDBRANCH   9  10
ENDBRANCH   8   9
ENDBRANCH   7   8
ENDBRANCH   6   7
ENDBRANCH   5   6
ENDBRANCH   4   5
ENDBRANCH   3   4
ENDBRANCH   1   3
BRANCH   2  13
ATOM     13  C   UNL     1     -11.293   1.618 -36.862  1.00  0.00     0.027 C 
BRANCH  13  14
ATOM     14  C   UNL     1     -11.744   2.162 -35.495  1.00  0.00     0.004 C 
BRANCH  14  15
ATOM     15  C   UNL     1     -10.601   2.350 -34.480  1.00  0.00     0.000 C 
BRANCH  15  16
ATOM     16  C   UNL     1     -11.045   2.409 -33.006  1.00  0.00     0.000 C 
BRANCH  16  17
ATOM     17  C   UNL     1     -10.425   3.583 -32.217  1.00  0.00    -0.000 C 
BRANCH  17  18
ATOM     18  C   UNL     1     -10.053   4.764 -33.130  1.00  0.00    -0.000 C 
BRANCH  18  19
ATOM     19  C   UNL     1      -9.338   5.894 -32.372  1.00  0.00    -0.003 C 
ATOM     20  C   UNL     1      -9.700   5.934 -30.887  1.00  0.00     0.004 C 
ENDBRANCH  18  19
ENDBRANCH  17  18
ENDBRANCH  16  17
ENDBRANCH  15  16
ENDBRANCH  14  15
ENDBRANCH  13  14
ENDBRANCH   2  13
TORSDOF 15
ENDMDL
MODEL 2
REMARK VINA RESULT:    -4.712      4.332      9.875
REMARK INTER + INTRA:          -9.909
REMARK INTER:                  -9.078
REMARK INTRA:                  -0.831
REMARK UNBOUND:                -1.065
REMARK SMILES CCCCCCCCC=CCCCCCCCC(=O)[O-]
REMARK SMILES IDX 10 1 9 2 11 3 12 4 13 5 14 6 15 7 16 8 17 9 18 10 19 11
REMARK SMILES IDX 20 12 8 13 7 14 6 15 5 16 4 17 3 18 2 19 1 20
REMARK H PARENT
REMARK Flexibility Score: inf
ROOT
ATOM      1  C   UNL     1      -9.060   0.241 -37.497  1.00  0.00    -0.031 C 
ATOM      2  C   UNL     1      -8.454  -0.405 -38.511  1.00  0.00    -0.031 C 
ENDROOT
BRANCH   1   3
ATOM      3  C   UNL     1     -10.553   0.295 -37.280  1.00  0.00     0.027 C 
BRANCH   3   4
ATOM      4  C   UNL     1     -11.058   1.731 -37.062  1.00  0.00     0.004 C 
BRANCH   4   5
ATOM      5  C   UNL     1     -11.618   2.000 -35.653  1.00  0.00     0.000 C 
BRANCH   5   6
ATOM      6  C   UNL     1     -10.522   2.318 -34.625  1.00  0.00     0.000 C 
BRANCH   6   7
ATOM      7  C   UNL     1     -11.116   2.475 -33.221  1.00  0.00     0.000 C 
BRANCH   7   8
ATOM      8  C   UNL     1     -11.302   3.958 -32.864  1.00  0.00     0.006 C 
BRANCH   8   9
ATOM      9  C   UNL     1     -10.029   4.778 -33.112  1.00  0.00     0.053 C 
BRANCH   9  10
ATOM     10  C   UNL     1      -9.352   5.153 -31.830  1.00  0.00     0.041 C 
ATOM     11  O   UNL     1      -9.556   4.482 -30.785  1.00  0.00    -0.550 OA
ATOM     12  O   UNL     1      -8.470   6.227 -31.798  1.00  0.00    -0.550 OA
ENDBRANCH   9  10
ENDBRANCH   8   9
ENDBRANCH   7   8
ENDBRANCH   6   7
ENDBRANCH   5   6
ENDBRANCH   4   5
ENDBRANCH   3   4
ENDBRANCH   1   3
BRANCH   2  13
ATOM     13  C   UNL     1      -9.173  -1.089 -39.648  1.00  0.00     0.027 C 
BRANCH  13  14
ATOM     14  C   UNL     1      -8.227  -1.969 -40.485  1.00  0.00     0.004 C 
BRANCH  14  15
ATOM     15  C   UNL     1      -8.482  -3.482 -40.346  1.00  0.00     0.000 C 
BRANCH  15  16
ATOM     16  C   UNL     1      -7.230  -4.368 -40.499  1.00  0.00     0.000 C 
BRANCH  16  17
ATOM     17  C   UNL     1      -5.933  -3.702 -39.992  1.00  0.00    -0.000 C 
BRANCH  17  18
ATOM     18  C   UNL     1      -4.735  -4.667 -40.016  1.00  0.00    -0.000 C 
BRANCH  18  19
ATOM     19  C   UNL     1      -4.150  -4.918 -38.618  1.00  0.00    -0.003 C 
ATOM     20  C   UNL     1      -5.223  -5.210 -37.569  1.00  0.00     0.004 C 
ENDBRANCH  18  19
ENDBRANCH  17  18
ENDBRANCH  16  17
ENDBRANCH  15  16
ENDBRANCH  14  15
ENDBRANCH  13  14
ENDBRANCH   2  13
TORSDOF 15
ENDMDL
MODEL 3
REMARK VINA RESULT:    -4.631      1.386      1.980
REMARK INTER + INTRA:          -9.756
REMARK INTER:                  -8.509
REMARK INTRA:                  -1.247
REMARK UNBOUND:                -1.065
REMARK SMILES CCCCCCCCC=CCCCCCCCC(=O)[O-]
REMARK SMILES IDX 10 1 9 2 11 3 12 4 13 5 14 6 15 7 16 8 17 9 18 10 19 11
REMARK SMILES IDX 20 12 8 13 7 14 6 15 5 16 4 17 3 18 2 19 1 20
REMARK H PARENT
REMARK Flexibility Score: inf
ROOT
ATOM      1  C   UNL     1      -9.215   0.283 -36.986  1.00  0.00    -0.031 C 
ATOM      2  C   UNL     1     -10.085   1.189 -36.501  1.00  0.00    -0.031 C 
ENDROOT
BRANCH   1   3
ATOM      3  C   UNL     1      -9.455  -0.575 -38.204  1.00  0.00     0.027 C 
BRANCH   3   4
ATOM      4  C   UNL     1      -8.176  -0.780 -39.034  1.00  0.00     0.004 C 
BRANCH   4   5
ATOM      5  C   UNL     1      -8.427  -1.101 -40.519  1.00  0.00     0.000 C 
BRANCH   5   6
ATOM      6  C   UNL     1      -9.601  -2.068 -40.731  1.00  0.00     0.000 C 
BRANCH   6   7
ATOM      7  C   UNL     1      -9.129  -3.525 -40.669  1.00  0.00     0.000 C 
BRANCH   7   8
ATOM      8  C   UNL     1      -7.661  -3.648 -41.108  1.00  0.00     0.006 C 
BRANCH   8   9
ATOM      9  C   UNL     1      -6.898  -4.699 -40.292  1.00  0.00     0.053 C 
BRANCH   9  10
ATOM     10  C   UNL     1      -5.985  -4.066 -39.287  1.00  0.00     0.041 C 
ATOM     11  O   UNL     1      -5.435  -2.962 -39.537  1.00  0.00    -0.550 OA
ATOM     12  O   UNL     1      -5.765  -4.683 -38.062  1.00  0.00    -0.550 OA
ENDBRANCH   9  10
ENDBRANCH   8   9
ENDBRANCH   7   8
ENDBRANCH   6   7
ENDBRANCH   5   6
ENDBRANCH   4   5
ENDBRANCH   3   4
ENDBRANCH   1   3
BRANCH   2  13
ATOM     13  C   UNL     1     -11.477   1.418 -37.036  1.00  0.00     0.027 C 
BRANCH  13  14
ATOM     14  C   UNL     1     -11.808   2.916 -37.167  1.00  0.00     0.004 C 
BRANCH  14  15
ATOM     15  C   UNL     1     -12.102   3.618 -35.828  1.00  0.00     0.000 C 
BRANCH  15  16
ATOM     16  C   UNL     1     -11.494   5.028 -35.688  1.00  0.00     0.000 C 
BRANCH  16  17
ATOM     17  C   UNL     1     -10.580   5.189 -34.454  1.00  0.00    -0.000 C 
BRANCH  17  18
ATOM     18  C   UNL     1     -10.218   3.836 -33.817  1.00  0.00    -0.000 C 
BRANCH  18  19
ATOM     19  C   UNL     1      -9.842   3.964 -32.333  1.00  0.00    -0.003 C 
ATOM     20  C   UNL     1      -9.463   5.391 -31.937  1.00  0.00     0.004 C 
ENDBRANCH  18  19
ENDBRANCH  17  18
ENDBRANCH  16  17
ENDBRANCH  15  16
ENDBRANCH  14  15
ENDBRANCH  13  14
ENDBRANCH   2  13
TORSDOF 15
ENDMDL
MODEL 4
REMARK VINA RESULT:    -4.535      4.103      9.781
REMARK INTER + INTRA:          -9.576
REMARK INTER:                  -8.381
REMARK INTRA:                  -1.194
REMARK UNBOUND:                -1.065
REMARK SMILES CCCCCCCCC=CCCCCCCCC(=O)[O-]
REMARK SMILES IDX 10 1 9 2 11 3 12 4 13 5 14 6 15 7 16 8 17 9 18 10 19 11
REMARK SMILES IDX 20 12 8 13 7 14 6 15 5 16 4 17 3 18 2 19 1 20
REMARK H PARENT
REMARK Flexibility Score: inf
ROOT
ATOM      1  C   UNL     1      -8.340  -0.708 -39.539  1.00  0.00    -0.031 C 
ATOM      2  C   UNL     1      -8.496  -1.055 -40.830  1.00  0.00    -0.031 C 
ENDROOT
BRANCH   1   3
ATOM      3  C   UNL     1      -9.118  -1.300 -38.389  1.00  0.00     0.027 C 
BRANCH   3   4
ATOM      4  C   UNL     1     -10.384  -0.490 -38.064  1.00  0.00     0.004 C 
BRANCH   4   5
ATOM      5  C   UNL     1     -10.250   0.431 -36.836  1.00  0.00     0.000 C 
BRANCH   5   6
ATOM      6  C   UNL     1     -10.999   1.761 -37.002  1.00  0.00     0.000 C 
BRANCH   6   7
ATOM      7  C   UNL     1     -11.563   2.245 -35.661  1.00  0.00     0.000 C 
BRANCH   7   8
ATOM      8  C   UNL     1     -10.467   2.279 -34.583  1.00  0.00     0.006 C 
BRANCH   8   9
ATOM      9  C   UNL     1     -10.266   3.687 -34.006  1.00  0.00     0.053 C 
BRANCH   9  10
ATOM     10  C   UNL     1     -10.293   3.682 -32.509  1.00  0.00     0.041 C 
ATOM     11  O   UNL     1      -9.267   4.005 -31.855  1.00  0.00    -0.550 OA
ATOM     12  O   UNL     1     -11.462   3.349 -31.836  1.00  0.00    -0.550 OA
ENDBRANCH   9  10
ENDBRANCH   8   9
ENDBRANCH   7   8
ENDBRANCH   6   7
ENDBRANCH   5   6
ENDBRANCH   4   5
ENDBRANCH   3   4
ENDBRANCH   1   3
BRANCH   2  13
ATOM     13  C   UNL     1      -9.542  -2.012 -41.345  1.00  0.00     0.027 C 
BRANCH  13  14
ATOM     14  C   UNL     1      -8.928  -3.342 -41.819  1.00  0.00     0.004 C 
BRANCH  14  15
ATOM     15  C   UNL     1      -8.522  -4.293 -40.678  1.00  0.00     0.000 C 
BRANCH  15  16
ATOM     16  C   UNL     1      -7.039  -4.716 -40.682  1.00  0.00     0.000 C 
BRANCH  16  17
ATOM     17  C   UNL     1      -6.080  -3.619 -40.172  1.00  0.00    -0.000 C 
BRANCH  17  18
ATOM     18  C   UNL     1      -4.717  -4.190 -39.746  1.00  0.00    -0.000 C 
BRANCH  18  19
ATOM     19  C   UNL     1      -4.447  -5.581 -40.339  1.00  0.00    -0.003 C 
ATOM     20  C   UNL     1      -3.284  -6.301 -39.657  1.00  0.00     0.004 C 
ENDBRANCH  18  19
ENDBRANCH  17  18
ENDBRANCH  16  17
ENDBRANCH  15  16
ENDBRANCH  14  15
ENDBRANCH  13  14
ENDBRANCH   2  13
TORSDOF 15
ENDMDL
MODEL 5
REMARK VINA RESULT:    -4.508      4.557     10.118
REMARK INTER + INTRA:          -9.525
REMARK INTER:                  -8.516
REMARK INTRA:                  -1.010
REMARK UNBOUND:                -1.065
REMARK SMILES CCCCCCCCC=CCCCCCCCC(=O)[O-]
REMARK SMILES IDX 10 1 9 2 11 3 12 4 13 5 14 6 15 7 16 8 17 9 18 10 19 11
REMARK SMILES IDX 20 12 8 13 7 14 6 15 5 16 4 17 3 18 2 19 1 20
REMARK H PARENT
REMARK Flexibility Score: inf
ROOT
ATOM      1  C   UNL     1     -11.629   0.959 -37.134  1.00  0.00    -0.031 C 
ATOM      2  C   UNL     1     -10.675   0.020 -37.275  1.00  0.00    -0.031 C 
ENDROOT
BRANCH   1   3
ATOM      3  C   UNL     1     -11.371   2.445 -37.065  1.00  0.00     0.027 C 
BRANCH   3   4
ATOM      4  C   UNL     1     -11.565   3.004 -35.645  1.00  0.00     0.004 C 
BRANCH   4   5
ATOM      5  C   UNL     1     -10.580   2.445 -34.602  1.00  0.00     0.000 C 
BRANCH   5   6
ATOM      6  C   UNL     1     -10.320   3.419 -33.443  1.00  0.00     0.000 C 
BRANCH   6   7
ATOM      7  C   UNL     1     -10.733   4.845 -33.822  1.00  0.00     0.000 C 
BRANCH   7   8
ATOM      8  C   UNL     1     -11.116   5.658 -32.575  1.00  0.00     0.006 C 
BRANCH   8   9
ATOM      9  C   UNL     1     -10.049   6.698 -32.211  1.00  0.00     0.053 C 
BRANCH   9  10
ATOM     10  C   UNL     1      -9.119   6.192 -31.151  1.00  0.00     0.041 C 
ATOM     11  O   UNL     1      -8.010   6.756 -30.959  1.00  0.00    -0.550 OA
ATOM     12  O   UNL     1      -9.492   5.116 -30.356  1.00  0.00    -0.550 OA
ENDBRANCH   9  10
ENDBRANCH   8   9
ENDBRANCH   7   8
ENDBRANCH   6   7
ENDBRANCH   5   6
ENDBRANCH   4   5
ENDBRANCH   3   4
ENDBRANCH   1   3
BRANCH   2  13
ATOM     13  C   UNL     1      -9.190   0.294 -37.282  1.00  0.00     0.027 C 
BRANCH  13  14
ATOM     14  C   UNL     1      -8.480  -0.395 -38.461  1.00  0.00     0.004 C 
BRANCH  14  15
ATOM     15  C   UNL     1      -9.422  -1.172 -39.400  1.00  0.00     0.000 C 
BRANCH  15  16
ATOM     16  C   UNL     1      -8.726  -2.208 -40.306  1.00  0.00     0.000 C 
BRANCH  16  17
ATOM     17  C   UNL     1      -7.667  -3.059 -39.573  1.00  0.00    -0.000 C 
BRANCH  17  18
ATOM     18  C   UNL     1      -6.611  -3.629 -40.536  1.00  0.00    -0.000 C 
BRANCH  18  19
ATOM     19  C   UNL     1      -5.175  -3.397 -40.043  1.00  0.00    -0.003 C 
ATOM     20  C   UNL     1      -4.154  -4.288 -40.748  1.00  0.00     0.004 C 
ENDBRANCH  18  19
ENDBRANCH  17  18
ENDBRANCH  16  17
ENDBRANCH  15  16
ENDBRANCH  14  15
ENDBRANCH  13  14
ENDBRANCH   2  13
TORSDOF 15
ENDMDL
MODEL 6
REMARK VINA RESULT:    -4.469     12.226     14.758
REMARK INTER + INTRA:          -9.453
REMARK INTER:                  -6.960
REMARK INTRA:                  -2.493
REMARK UNBOUND:                -1.065
REMARK SMILES CCCCCCCCC=CCCCCCCCC(=O)[O-]
REMARK SMILES IDX 10 1 9 2 11 3 12 4 13 5 14 6 15 7 16 8 17 9 18 10 19 11
REMARK SMILES IDX 20 12 8 13 7 14 6 15 5 16 4 17 3 18 2 19 1 20
REMARK H PARENT
REMARK Flexibility Score: inf
ROOT
ATOM      1  C   UNL     1       1.766  -6.577 -34.127  1.00  0.00    -0.031 C 
ATOM      2  C   UNL     1       0.653  -6.114 -33.529  1.00  0.00    -0.031 C 
ENDROOT
BRANCH   1   3
ATOM      3  C   UNL     1       2.044  -8.031 -34.421  1.00  0.00     0.027 C 
BRANCH   3   4
ATOM      4  C   UNL     1       3.466  -8.447 -34.006  1.00  0.00     0.004 C 
BRANCH   4   5
ATOM      5  C   UNL     1       4.227  -7.383 -33.194  1.00  0.00     0.000 C 
BRANCH   5   6
ATOM      6  C   UNL     1       5.734  -7.369 -33.490  1.00  0.00     0.000 C 
BRANCH   6   7
ATOM      7  C   UNL     1       6.007  -6.888 -34.920  1.00  0.00     0.000 C 
BRANCH   7   8
ATOM      8  C   UNL     1       5.287  -5.560 -35.202  1.00  0.00     0.006 C 
BRANCH   8   9
ATOM      9  C   UNL     1       4.478  -5.603 -36.505  1.00  0.00     0.053 C 
BRANCH   9  10
ATOM     10  C   UNL     1       4.937  -4.561 -37.478  1.00  0.00     0.041 C 
ATOM     11  O   UNL     1       4.122  -3.717 -37.934  1.00  0.00    -0.550 OA
ATOM     12  O   UNL     1       6.272  -4.503 -37.856  1.00  0.00    -0.550 OA
ENDBRANCH   9  10
ENDBRANCH   8   9
ENDBRANCH   7   8
ENDBRANCH   6   7
ENDBRANCH   5   6
ENDBRANCH   4   5
ENDBRANCH   3   4
ENDBRANCH   1   3
BRANCH   2  13
ATOM     13  C   UNL     1      -0.446  -6.982 -32.964  1.00  0.00     0.027 C 
BRANCH  13  14
ATOM     14  C   UNL     1      -1.031  -6.401 -31.664  1.00  0.00     0.004 C 
BRANCH  14  15
ATOM     15  C   UNL     1      -0.217  -6.734 -30.400  1.00  0.00     0.000 C 
BRANCH  15  16
ATOM     16  C   UNL     1       0.288  -8.188 -30.317  1.00  0.00     0.000 C 
BRANCH  16  17
ATOM     17  C   UNL     1       1.816  -8.324 -30.488  1.00  0.00    -0.000 C 
BRANCH  17  18
ATOM     18  C   UNL     1       2.572  -7.087 -29.974  1.00  0.00    -0.000 C 
BRANCH  18  19
ATOM     19  C   UNL     1       3.797  -7.454 -29.123  1.00  0.00    -0.003 C 
ATOM     20  C   UNL     1       4.561  -8.659 -29.671  1.00  0.00     0.004 C 
ENDBRANCH  18  19
ENDBRANCH  17  18
ENDBRANCH  16  17
ENDBRANCH  15  16
ENDBRANCH  14  15
ENDBRANCH  13  14
ENDBRANCH   2  13
TORSDOF 15
ENDMDL
MODEL 7
REMARK VINA RESULT:    -4.439     12.473     15.612
REMARK INTER + INTRA:          -9.397
REMARK INTER:                  -6.477
REMARK INTRA:                  -2.920
REMARK UNBOUND:                -1.065
REMARK SMILES CCCCCCCCC=CCCCCCCCC(=O)[O-]
REMARK SMILES IDX 10 1 9 2 11 3 12 4 13 5 14 6 15 7 16 8 17 9 18 10 19 11
REMARK SMILES IDX 20 12 8 13 7 14 6 15 5 16 4 17 3 18 2 19 1 20
REMARK H PARENT
REMARK Flexibility Score: inf
ROOT
ATOM      1  C   UNL     1      -1.202  -6.214 -28.996  1.00  0.00    -0.031 C 
ATOM      2  C   UNL     1       0.053  -6.695 -29.059  1.00  0.00    -0.031 C 
ENDROOT
BRANCH   1   3
ATOM      3  C   UNL     1      -2.451  -7.061 -29.009  1.00  0.00     0.027 C 
BRANCH   3   4
ATOM      4  C   UNL     1      -3.353  -6.787 -27.792  1.00  0.00     0.004 C 
BRANCH   4   5
ATOM      5  C   UNL     1      -2.612  -6.783 -26.442  1.00  0.00     0.000 C 
BRANCH   5   6
ATOM      6  C   UNL     1      -2.210  -8.190 -25.976  1.00  0.00     0.000 C 
BRANCH   6   7
ATOM      7  C   UNL     1      -0.725  -8.240 -25.601  1.00  0.00     0.000 C 
BRANCH   7   8
ATOM      8  C   UNL     1      -0.253  -6.892 -25.034  1.00  0.00     0.006 C 
BRANCH   8   9
ATOM      9  C   UNL     1       1.069  -6.430 -25.659  1.00  0.00     0.053 C 
BRANCH   9  10
ATOM     10  C   UNL     1       1.702  -5.327 -24.868  1.00  0.00     0.041 C 
ATOM     11  O   UNL     1       1.305  -5.076 -23.700  1.00  0.00    -0.550 OA
ATOM     12  O   UNL     1       2.751  -4.596 -25.411  1.00  0.00    -0.550 OA
ENDBRANCH   9  10
ENDBRANCH   8   9
ENDBRANCH   7   8
ENDBRANCH   6   7
ENDBRANCH   5   6
ENDBRANCH   4   5
ENDBRANCH   3   4
ENDBRANCH   1   3
BRANCH   2  13
ATOM     13  C   UNL     1       0.409  -8.149 -29.256  1.00  0.00     0.027 C 
BRANCH  13  14
ATOM     14  C   UNL     1       1.537  -8.334 -30.287  1.00  0.00     0.004 C 
BRANCH  14  15
ATOM     15  C   UNL     1       1.976  -7.033 -30.986  1.00  0.00     0.000 C 
BRANCH  15  16
ATOM     16  C   UNL     1       2.163  -7.147 -32.512  1.00  0.00     0.000 C 
BRANCH  16  17
ATOM     17  C   UNL     1       0.837  -7.273 -33.292  1.00  0.00    -0.000 C 
BRANCH  17  18
ATOM     18  C   UNL     1      -0.235  -6.295 -32.780  1.00  0.00    -0.000 C 
BRANCH  18  19
ATOM     19  C   UNL     1      -1.613  -6.954 -32.629  1.00  0.00    -0.003 C 
ATOM     20  C   UNL     1      -1.528  -8.464 -32.405  1.00  0.00     0.004 C 
ENDBRANCH  18  19
ENDBRANCH  17  18
ENDBRANCH  16  17
ENDBRANCH  15  16
ENDBRANCH  14  15
ENDBRANCH  13  14
ENDBRANCH   2  13
TORSDOF 15
ENDMDL
MODEL 8
REMARK VINA RESULT:    -4.405     12.040     14.050
REMARK INTER + INTRA:          -9.333
REMARK INTER:                  -6.765
REMARK INTRA:                  -2.568
REMARK UNBOUND:                -1.065
REMARK SMILES CCCCCCCCC=CCCCCCCCC(=O)[O-]
REMARK SMILES IDX 10 1 9 2 11 3 12 4 13 5 14 6 15 7 16 8 17 9 18 10 19 11
REMARK SMILES IDX 20 12 8 13 7 14 6 15 5 16 4 17 3 18 2 19 1 20
REMARK H PARENT
REMARK Flexibility Score: inf
ROOT
ATOM      1  C   UNL     1      -1.221  -6.403 -31.595  1.00  0.00    -0.031 C 
ATOM      2  C   UNL     1      -1.276  -6.024 -30.305  1.00  0.00    -0.031 C 
ENDROOT
BRANCH   1   3
ATOM      3  C   UNL     1      -1.987  -7.562 -32.186  1.00  0.00     0.027 C 
BRANCH   3   4
ATOM      4  C   UNL     1      -1.057  -8.621 -32.803  1.00  0.00     0.004 C 
BRANCH   4   5
ATOM      5  C   UNL     1       0.247  -8.053 -33.393  1.00  0.00     0.000 C 
BRANCH   5   6
ATOM      6  C   UNL     1       1.063  -9.103 -34.161  1.00  0.00     0.000 C 
BRANCH   6   7
ATOM      7  C   UNL     1       2.175  -8.440 -34.983  1.00  0.00     0.000 C 
BRANCH   7   8
ATOM      8  C   UNL     1       2.303  -6.949 -34.635  1.00  0.00     0.006 C 
BRANCH   8   9
ATOM      9  C   UNL     1       3.763  -6.477 -34.635  1.00  0.00     0.053 C 
BRANCH   9  10
ATOM     10  C   UNL     1       4.242  -6.156 -36.018  1.00  0.00     0.041 C 
ATOM     11  O   UNL     1       4.860  -7.021 -36.692  1.00  0.00    -0.550 OA
ATOM     12  O   UNL     1       3.979  -4.910 -36.573  1.00  0.00    -0.550 OA
ENDBRANCH   9  10
ENDBRANCH   8   9
ENDBRANCH   7   8
ENDBRANCH   6   7
ENDBRANCH   5   6
ENDBRANCH   4   5
ENDBRANCH   3   4
ENDBRANCH   1   3
BRANCH   2  13
ATOM     13  C   UNL     1      -2.029  -6.758 -29.222  1.00  0.00     0.027 C 
BRANCH  13  14
ATOM     14  C   UNL     1      -1.095  -7.601 -28.336  1.00  0.00     0.004 C 
BRANCH  14  15
ATOM     15  C   UNL     1      -0.104  -8.482 -29.120  1.00  0.00     0.000 C 
BRANCH  15  16
ATOM     16  C   UNL     1       1.360  -8.389 -28.648  1.00  0.00     0.000 C 
BRANCH  16  17
ATOM     17  C   UNL     1       2.089  -7.118 -29.135  1.00  0.00    -0.000 C 
BRANCH  17  18
ATOM     18  C   UNL     1       2.284  -7.107 -30.661  1.00  0.00    -0.000 C 
BRANCH  18  19
ATOM     19  C   UNL     1       3.679  -7.592 -31.082  1.00  0.00    -0.003 C 
ATOM     20  C   UNL     1       3.682  -9.040 -31.571  1.00  0.00     0.004 C 
ENDBRANCH  18  19
ENDBRANCH  17  18
ENDBRANCH  16  17
ENDBRANCH  15  16
ENDBRANCH  14  15
ENDBRANCH  13  14
ENDBRANCH   2  13
TORSDOF 15
ENDMDL
MODEL 9
REMARK VINA RESULT:    -4.398     12.589     15.784
REMARK INTER + INTRA:          -9.319
REMARK INTER:                  -6.693
REMARK INTRA:                  -2.626
REMARK UNBOUND:                -1.065
REMARK SMILES CCCCCCCCC=CCCCCCCCC(=O)[O-]
REMARK SMILES IDX 10 1 9 2 11 3 12 4 13 5 14 6 15 7 16 8 17 9 18 10 19 11
REMARK SMILES IDX 20 12 8 13 7 14 6 15 5 16 4 17 3 18 2 19 1 20
REMARK H PARENT
REMARK Flexibility Score: inf
ROOT
ATOM      1  C   UNL     1      -1.447  -6.040 -30.920  1.00  0.00    -0.031 C 
ATOM      2  C   UNL     1      -1.605  -6.846 -31.986  1.00  0.00    -0.031 C 
ENDROOT
BRANCH   1   3
ATOM      3  C   UNL     1      -1.851  -6.389 -29.508  1.00  0.00     0.027 C 
BRANCH   3   4
ATOM      4  C   UNL     1      -0.645  -6.443 -28.554  1.00  0.00     0.004 C 
BRANCH   4   5
ATOM      5  C   UNL     1      -0.364  -7.838 -27.965  1.00  0.00     0.000 C 
BRANCH   5   6
ATOM      6  C   UNL     1       0.822  -7.847 -26.990  1.00  0.00     0.000 C 
BRANCH   6   7
ATOM      7  C   UNL     1       1.864  -6.793 -27.382  1.00  0.00     0.000 C 
BRANCH   7   8
ATOM      8  C   UNL     1       2.782  -6.457 -26.197  1.00  0.00     0.006 C 
BRANCH   8   9
ATOM      9  C   UNL     1       2.097  -5.544 -25.172  1.00  0.00     0.053 C 
BRANCH   9  10
ATOM     10  C   UNL     1       2.982  -4.408 -24.762  1.00  0.00     0.041 C 
ATOM     11  O   UNL     1       3.264  -3.495 -25.582  1.00  0.00    -0.550 OA
ATOM     12  O   UNL     1       3.471  -4.341 -23.463  1.00  0.00    -0.550 OA
ENDBRANCH   9  10
ENDBRANCH   8   9
ENDBRANCH   7   8
ENDBRANCH   6   7
ENDBRANCH   5   6
ENDBRANCH   4   5
ENDBRANCH   3   4
ENDBRANCH   1   3
BRANCH   2  13
ATOM     13  C   UNL     1      -2.304  -8.184 -31.958  1.00  0.00     0.027 C 
BRANCH  13  14
ATOM     14  C   UNL     1      -1.365  -9.336 -32.357  1.00  0.00     0.004 C 
BRANCH  14  15
ATOM     15  C   UNL     1      -0.328  -9.708 -31.281  1.00  0.00     0.000 C 
BRANCH  15  16
ATOM     16  C   UNL     1       1.135  -9.394 -31.653  1.00  0.00     0.000 C 
BRANCH  16  17
ATOM     17  C   UNL     1       1.780  -8.305 -30.770  1.00  0.00    -0.000 C 
BRANCH  17  18
ATOM     18  C   UNL     1       2.118  -7.034 -31.567  1.00  0.00    -0.000 C 
BRANCH  18  19
ATOM     19  C   UNL     1       2.239  -7.297 -33.076  1.00  0.00    -0.003 C 
ATOM     20  C   UNL     1       1.360  -6.368 -33.913  1.00  0.00     0.004 C 
ENDBRANCH  18  19
ENDBRANCH  17  18
ENDBRANCH  16  17
ENDBRANCH  15  16
ENDBRANCH  14  15
ENDBRANCH  13  14
ENDBRANCH   2  13
TORSDOF 15
ENDMDL
