MODEL 1
REMARK VINA RESULT:    -6.480      0.000      0.000
REMARK INTER + INTRA:         -19.230
REMARK INTER:                 -17.086
REMARK INTRA:                  -2.144
REMARK UNBOUND:                -2.144
REMARK SMILES CCCCCCCCCCCCCCCCCCCCCCCCCCCCCC(=O)[O-]
REMARK SMILES IDX 16 1 17 2 18 3 19 4 20 5 21 6 22 7 23 8 24 9 25 10 26 11
REMARK SMILES IDX 27 12 28 13 29 14 30 15 31 16 32 17 15 18 14 19 13 20 12 21
REMARK SMILES IDX 11 22 10 23 9 24 8 25 7 26 6 27 5 28 4 29 3 30 2 31 1 32
REMARK H PARENT
REMARK Flexibility Score: inf
ROOT
ATOM      1  C   UNL     1      22.234  18.046   6.296  1.00  0.00     0.000 C 
ENDROOT
BRANCH   1   2
ATOM      2  C   UNL     1      21.538  19.384   5.996  1.00  0.00     0.000 C 
BRANCH   2   3
ATOM      3  C   UNL     1      20.888  20.013   7.244  1.00  0.00     0.000 C 
BRANCH   3   4
ATOM      4  C   UNL     1      19.498  20.618   6.956  1.00  0.00     0.000 C 
BRANCH   4   5
ATOM      5  C   UNL     1      18.390  20.144   7.916  1.00  0.00     0.000 C 
BRANCH   5   6
ATOM      6  C   UNL     1      18.379  20.819   9.300  1.00  0.00     0.000 C 
BRANCH   6   7
ATOM      7  C   UNL     1      17.308  20.298  10.279  1.00  0.00     0.000 C 
BRANCH   7   8
ATOM      8  C   UNL     1      17.154  21.127  11.566  1.00  0.00     0.000 C 
BRANCH   8   9
ATOM      9  C   UNL     1      15.689  21.251  12.026  1.00  0.00     0.000 C 
BRANCH   9  10
ATOM     10  C   UNL     1      15.448  22.492  12.904  1.00  0.00     0.000 C 
BRANCH  10  11
ATOM     11  C   UNL     1      14.750  22.205  14.248  1.00  0.00     0.000 C 
BRANCH  11  12
ATOM     12  C   UNL     1      15.721  21.794  15.377  1.00  0.00     0.000 C 
BRANCH  12  13
ATOM     13  C   UNL     1      15.746  20.274  15.604  1.00  0.00     0.006 C 
BRANCH  13  14
ATOM     14  C   UNL     1      17.072  19.641  15.159  1.00  0.00     0.053 C 
BRANCH  14  15
ATOM     15  C   UNL     1      17.457  18.487  16.031  1.00  0.00     0.041 C 
ATOM     16  O   UNL     1      16.625  18.000  16.842  1.00  0.00    -0.550 OA
ATOM     17  O   UNL     1      18.750  17.979  15.984  1.00  0.00    -0.550 OA
ENDBRANCH  14  15
ENDBRANCH  13  14
ENDBRANCH  12  13
ENDBRANCH  11  12
ENDBRANCH  10  11
ENDBRANCH   9  10
ENDBRANCH   8   9
ENDBRANCH   7   8
ENDBRANCH   6   7
ENDBRANCH   5   6
ENDBRANCH   4   5
ENDBRANCH   3   4
ENDBRANCH   2   3
ENDBRANCH   1   2
BRANCH   1  18
ATOM     18  C   UNL     1      23.317  17.695   5.262  1.00  0.00     0.000 C 
BRANCH  18  19
ATOM     19  C   UNL     1      24.586  18.547   5.433  1.00  0.00     0.000 C 
BRANCH  19  20
ATOM     20  C   UNL     1      25.726  17.775   6.121  1.00  0.00     0.000 C 
BRANCH  20  21
ATOM     21  C   UNL     1      27.094  18.480   5.982  1.00  0.00     0.000 C 
BRANCH  21  22
ATOM     22  C   UNL     1      28.264  17.528   5.674  1.00  0.00     0.000 C 
BRANCH  22  23
ATOM     23  C   UNL     1      29.528  17.749   6.523  1.00  0.00     0.000 C 
BRANCH  23  24
ATOM     24  C   UNL     1      30.833  17.934   5.719  1.00  0.00    -0.000 C 
BRANCH  24  25
ATOM     25  C   UNL     1      32.012  17.060   6.181  1.00  0.00    -0.000 C 
BRANCH  25  26
ATOM     26  C   UNL     1      32.897  17.756   7.224  1.00  0.00    -0.000 C 
BRANCH  26  27
ATOM     27  C   UNL     1      32.433  17.411   8.646  1.00  0.00    -0.000 C 
BRANCH  27  28
ATOM     28  C   UNL     1      32.303  18.649   9.548  1.00  0.00    -0.000 C 
BRANCH  28  29
ATOM     29  C   UNL     1      32.390  20.001   8.813  1.00  0.00    -0.000 C 
BRANCH  29  30
ATOM     30  C   UNL     1      31.016  20.574   8.404  1.00  0.00    -0.000 C 
BRANCH  30  31
ATOM     31  C   UNL     1      29.871  20.016   9.261  1.00  0.00    -0.003 C 
ATOM     32  C   UNL     1      28.521  20.552   8.801  1.00  0.00     0.004 C 
ENDBRANCH  30  31
ENDBRANCH  29  30
ENDBRANCH  28  29
ENDBRANCH  27  28
ENDBRANCH  26  27
ENDBRANCH  25  26
ENDBRANCH  24  25
ENDBRANCH  23  24
ENDBRANCH  22  23
ENDBRANCH  21  22
ENDBRANCH  20  21
ENDBRANCH  19  20
ENDBRANCH  18  19
ENDBRANCH   1  18
TORSDOF 28
ENDMDL
MODEL 2
REMARK VINA RESULT:    -6.396      1.549      2.389
REMARK INTER + INTRA:         -19.011
REMARK INTER:                 -17.216
REMARK INTRA:                  -1.795
REMARK UNBOUND:                -2.144
REMARK SMILES CCCCCCCCCCCCCCCCCCCCCCCCCCCCCC(=O)[O-]
REMARK SMILES IDX 16 1 17 2 18 3 19 4 20 5 21 6 22 7 23 8 24 9 25 10 26 11
REMARK SMILES IDX 27 12 28 13 29 14 30 15 31 16 32 17 15 18 14 19 13 20 12 21
REMARK SMILES IDX 11 22 10 23 9 24 8 25 7 26 6 27 5 28 4 29 3 30 2 31 1 32
REMARK H PARENT
REMARK Flexibility Score: inf
ROOT
ATOM      1  C   UNL     1      21.102  19.119   6.714  1.00  0.00     0.000 C 
ENDROOT
BRANCH   1   2
ATOM      2  C   UNL     1      20.626  20.541   7.053  1.00  0.00     0.000 C 
BRANCH   2   3
ATOM      3  C   UNL     1      19.101  20.710   6.910  1.00  0.00     0.000 C 
BRANCH   3   4
ATOM      4  C   UNL     1      18.316  20.063   8.070  1.00  0.00     0.000 C 
BRANCH   4   5
ATOM      5  C   UNL     1      18.434  20.813   9.411  1.00  0.00     0.000 C 
BRANCH   5   6
ATOM      6  C   UNL     1      17.413  20.407  10.490  1.00  0.00     0.000 C 
BRANCH   6   7
ATOM      7  C   UNL     1      17.135  21.472  11.569  1.00  0.00     0.000 C 
BRANCH   7   8
ATOM      8  C   UNL     1      15.684  21.509  12.080  1.00  0.00     0.000 C 
BRANCH   8   9
ATOM      9  C   UNL     1      15.475  22.533  13.210  1.00  0.00     0.000 C 
BRANCH   9  10
ATOM     10  C   UNL     1      15.472  21.881  14.605  1.00  0.00     0.000 C 
BRANCH  10  11
ATOM     11  C   UNL     1      15.778  20.370  14.611  1.00  0.00     0.000 C 
BRANCH  11  12
ATOM     12  C   UNL     1      16.814  19.950  15.676  1.00  0.00     0.000 C 
BRANCH  12  13
ATOM     13  C   UNL     1      17.032  21.037  16.741  1.00  0.00     0.006 C 
BRANCH  13  14
ATOM     14  C   UNL     1      16.747  20.526  18.160  1.00  0.00     0.053 C 
BRANCH  14  15
ATOM     15  C   UNL     1      15.470  21.087  18.707  1.00  0.00     0.041 C 
ATOM     16  O   UNL     1      14.803  21.917  18.033  1.00  0.00    -0.550 OA
ATOM     17  O   UNL     1      15.042  20.733  19.980  1.00  0.00    -0.550 OA
ENDBRANCH  14  15
ENDBRANCH  13  14
ENDBRANCH  12  13
ENDBRANCH  11  12
ENDBRANCH  10  11
ENDBRANCH   9  10
ENDBRANCH   8   9
ENDBRANCH   7   8
ENDBRANCH   6   7
ENDBRANCH   5   6
ENDBRANCH   4   5
ENDBRANCH   3   4
ENDBRANCH   2   3
ENDBRANCH   1   2
BRANCH   1  18
ATOM     18  C   UNL     1      22.313  19.106   5.766  1.00  0.00     0.000 C 
BRANCH  18  19
ATOM     19  C   UNL     1      22.940  17.707   5.638  1.00  0.00     0.000 C 
BRANCH  19  20
ATOM     20  C   UNL     1      24.367  17.752   5.063  1.00  0.00     0.000 C 
BRANCH  20  21
ATOM     21  C   UNL     1      25.256  18.814   5.750  1.00  0.00     0.000 C 
BRANCH  21  22
ATOM     22  C   UNL     1      26.479  18.231   6.481  1.00  0.00     0.000 C 
BRANCH  22  23
ATOM     23  C   UNL     1      27.811  18.341   5.718  1.00  0.00     0.000 C 
BRANCH  23  24
ATOM     24  C   UNL     1      28.470  16.994   5.352  1.00  0.00    -0.000 C 
BRANCH  24  25
ATOM     25  C   UNL     1      29.878  16.778   5.933  1.00  0.00    -0.000 C 
BRANCH  25  26
ATOM     26  C   UNL     1      30.794  17.994   5.742  1.00  0.00    -0.000 C 
BRANCH  26  27
ATOM     27  C   UNL     1      32.222  17.677   6.204  1.00  0.00    -0.000 C 
BRANCH  27  28
ATOM     28  C   UNL     1      32.605  18.401   7.505  1.00  0.00    -0.000 C 
BRANCH  28  29
ATOM     29  C   UNL     1      31.443  18.611   8.496  1.00  0.00    -0.000 C 
BRANCH  29  30
ATOM     30  C   UNL     1      31.016  20.087   8.648  1.00  0.00    -0.000 C 
BRANCH  30  31
ATOM     31  C   UNL     1      29.638  20.364   8.030  1.00  0.00    -0.003 C 
ATOM     32  C   UNL     1      28.553  20.424   9.098  1.00  0.00     0.004 C 
ENDBRANCH  30  31
ENDBRANCH  29  30
ENDBRANCH  28  29
ENDBRANCH  27  28
ENDBRANCH  26  27
ENDBRANCH  25  26
ENDBRANCH  24  25
ENDBRANCH  23  24
ENDBRANCH  22  23
ENDBRANCH  21  22
ENDBRANCH  20  21
ENDBRANCH  19  20
ENDBRANCH  18  19
ENDBRANCH   1  18
TORSDOF 28
ENDMDL
MODEL 3
REMARK VINA RESULT:    -6.396      4.437     13.942
REMARK INTER + INTRA:         -19.011
REMARK INTER:                 -16.816
REMARK INTRA:                  -2.194
REMARK UNBOUND:                -2.144
REMARK SMILES CCCCCCCCCCCCCCCCCCCCCCCCCCCCCC(=O)[O-]
REMARK SMILES IDX 16 1 17 2 18 3 19 4 20 5 21 6 22 7 23 8 24 9 25 10 26 11
REMARK SMILES IDX 27 12 28 13 29 14 30 15 31 16 32 17 15 18 14 19 13 20 12 21
REMARK SMILES IDX 11 22 10 23 9 24 8 25 7 26 6 27 5 28 4 29 3 30 2 31 1 32
REMARK H PARENT
REMARK Flexibility Score: inf
ROOT
ATOM      1  C   UNL     1      17.819  20.063  10.886  1.00  0.00     0.000 C 
ENDROOT
BRANCH   1   2
ATOM      2  C   UNL     1      17.371  20.403   9.455  1.00  0.00     0.000 C 
BRANCH   2   3
ATOM      3  C   UNL     1      18.414  20.008   8.393  1.00  0.00     0.000 C 
BRANCH   3   4
ATOM      4  C   UNL     1      18.999  21.225   7.647  1.00  0.00     0.000 C 
BRANCH   4   5
ATOM      5  C   UNL     1      20.276  20.920   6.840  1.00  0.00     0.000 C 
BRANCH   5   6
ATOM      6  C   UNL     1      20.716  19.444   6.827  1.00  0.00     0.000 C 
BRANCH   6   7
ATOM      7  C   UNL     1      22.058  19.161   6.123  1.00  0.00     0.000 C 
BRANCH   7   8
ATOM      8  C   UNL     1      22.355  17.671   5.879  1.00  0.00     0.000 C 
BRANCH   8   9
ATOM      9  C   UNL     1      23.709  17.440   5.181  1.00  0.00     0.000 C 
BRANCH   9  10
ATOM     10  C   UNL     1      24.710  18.580   5.441  1.00  0.00     0.000 C 
BRANCH  10  11
ATOM     11  C   UNL     1      26.114  18.119   5.879  1.00  0.00     0.000 C 
BRANCH  11  12
ATOM     12  C   UNL     1      26.938  19.219   6.582  1.00  0.00     0.000 C 
BRANCH  12  13
ATOM     13  C   UNL     1      28.345  18.738   6.972  1.00  0.00     0.006 C 
BRANCH  13  14
ATOM     14  C   UNL     1      28.835  17.589   6.080  1.00  0.00     0.053 C 
BRANCH  14  15
ATOM     15  C   UNL     1      30.315  17.392   6.191  1.00  0.00     0.041 C 
ATOM     16  O   UNL     1      31.100  18.074   5.480  1.00  0.00    -0.550 OA
ATOM     17  O   UNL     1      30.827  16.420   7.043  1.00  0.00    -0.550 OA
ENDBRANCH  14  15
ENDBRANCH  13  14
ENDBRANCH  12  13
ENDBRANCH  11  12
ENDBRANCH  10  11
ENDBRANCH   9  10
ENDBRANCH   8   9
ENDBRANCH   7   8
ENDBRANCH   6   7
ENDBRANCH   5   6
ENDBRANCH   4   5
ENDBRANCH   3   4
ENDBRANCH   2   3
ENDBRANCH   1   2
BRANCH   1  18
ATOM     18  C   UNL     1      17.390  21.125  11.912  1.00  0.00     0.000 C 
BRANCH  18  19
ATOM     19  C   UNL     1      15.868  21.136  12.139  1.00  0.00     0.000 C 
BRANCH  19  20
ATOM     20  C   UNL     1      15.431  22.217  13.146  1.00  0.00     0.000 C 
BRANCH  20  21
ATOM     21  C   UNL     1      15.159  21.645  14.555  1.00  0.00     0.000 C 
BRANCH  21  22
ATOM     22  C   UNL     1      15.322  22.671  15.691  1.00  0.00     0.000 C 
BRANCH  22  23
ATOM     23  C   UNL     1      14.654  22.283  17.023  1.00  0.00     0.000 C 
BRANCH  23  24
ATOM     24  C   UNL     1      14.320  20.784  17.177  1.00  0.00    -0.000 C 
BRANCH  24  25
ATOM     25  C   UNL     1      14.429  20.235  18.610  1.00  0.00    -0.000 C 
BRANCH  25  26
ATOM     26  C   UNL     1      15.613  19.277  18.793  1.00  0.00    -0.000 C 
BRANCH  26  27
ATOM     27  C   UNL     1      16.875  20.044  19.209  1.00  0.00    -0.000 C 
BRANCH  27  28
ATOM     28  C   UNL     1      17.744  20.460  18.011  1.00  0.00    -0.000 C 
BRANCH  28  29
ATOM     29  C   UNL     1      17.742  19.467  16.832  1.00  0.00    -0.000 C 
BRANCH  29  30
ATOM     30  C   UNL     1      18.538  19.960  15.604  1.00  0.00    -0.000 C 
BRANCH  30  31
ATOM     31  C   UNL     1      19.381  18.846  14.968  1.00  0.00    -0.003 C 
ATOM     32  C   UNL     1      19.399  17.598  15.841  1.00  0.00     0.004 C 
ENDBRANCH  30  31
ENDBRANCH  29  30
ENDBRANCH  28  29
ENDBRANCH  27  28
ENDBRANCH  26  27
ENDBRANCH  25  26
ENDBRANCH  24  25
ENDBRANCH  23  24
ENDBRANCH  22  23
ENDBRANCH  21  22
ENDBRANCH  20  21
ENDBRANCH  19  20
ENDBRANCH  18  19
ENDBRANCH   1  18
TORSDOF 28
ENDMDL
MODEL 4
REMARK VINA RESULT:    -6.314      4.316     14.374
REMARK INTER + INTRA:         -18.794
REMARK INTER:                 -16.462
REMARK INTRA:                  -2.333
REMARK UNBOUND:                -2.144
REMARK SMILES CCCCCCCCCCCCCCCCCCCCCCCCCCCCCC(=O)[O-]
REMARK SMILES IDX 16 1 17 2 18 3 19 4 20 5 21 6 22 7 23 8 24 9 25 10 26 11
REMARK SMILES IDX 27 12 28 13 29 14 30 15 31 16 32 17 15 18 14 19 13 20 12 21
REMARK SMILES IDX 11 22 10 23 9 24 8 25 7 26 6 27 5 28 4 29 3 30 2 31 1 32
REMARK H PARENT
REMARK Flexibility Score: inf
ROOT
ATOM      1  C   UNL     1      18.145  20.767   9.854  1.00  0.00     0.000 C 
ENDROOT
BRANCH   1   2
ATOM      2  C   UNL     1      18.395  20.021   8.533  1.00  0.00     0.000 C 
BRANCH   2   3
ATOM      3  C   UNL     1      18.746  20.969   7.370  1.00  0.00     0.000 C 
BRANCH   3   4
ATOM      4  C   UNL     1      20.205  20.814   6.890  1.00  0.00     0.000 C 
BRANCH   4   5
ATOM      5  C   UNL     1      20.612  19.365   6.557  1.00  0.00     0.000 C 
BRANCH   5   6
ATOM      6  C   UNL     1      22.079  19.170   6.131  1.00  0.00     0.000 C 
BRANCH   6   7
ATOM      7  C   UNL     1      22.537  17.704   5.996  1.00  0.00     0.000 C 
BRANCH   7   8
ATOM      8  C   UNL     1      24.029  17.523   5.668  1.00  0.00     0.000 C 
BRANCH   8   9
ATOM      9  C   UNL     1      24.730  18.851   5.326  1.00  0.00     0.000 C 
BRANCH   9  10
ATOM     10  C   UNL     1      26.113  18.978   5.992  1.00  0.00     0.000 C 
BRANCH  10  11
ATOM     11  C   UNL     1      26.909  17.662   6.080  1.00  0.00     0.000 C 
BRANCH  11  12
ATOM     12  C   UNL     1      28.270  17.709   5.351  1.00  0.00     0.000 C 
BRANCH  12  13
ATOM     13  C   UNL     1      29.408  17.115   6.196  1.00  0.00     0.006 C 
BRANCH  13  14
ATOM     14  C   UNL     1      30.786  17.634   5.762  1.00  0.00     0.053 C 
BRANCH  14  15
ATOM     15  C   UNL     1      31.776  17.589   6.885  1.00  0.00     0.041 C 
ATOM     16  O   UNL     1      33.008  17.495   6.640  1.00  0.00    -0.550 OA
ATOM     17  O   UNL     1      31.335  17.601   8.203  1.00  0.00    -0.550 OA
ENDBRANCH  14  15
ENDBRANCH  13  14
ENDBRANCH  12  13
ENDBRANCH  11  12
ENDBRANCH  10  11
ENDBRANCH   9  10
ENDBRANCH   8   9
ENDBRANCH   7   8
ENDBRANCH   6   7
ENDBRANCH   5   6
ENDBRANCH   4   5
ENDBRANCH   3   4
ENDBRANCH   2   3
ENDBRANCH   1   2
BRANCH   1  18
ATOM     18  C   UNL     1      16.802  20.394  10.503  1.00  0.00     0.000 C 
BRANCH  18  19
ATOM     19  C   UNL     1      16.857  20.458  12.039  1.00  0.00     0.000 C 
BRANCH  19  20
ATOM     20  C   UNL     1      17.763  19.368  12.641  1.00  0.00     0.000 C 
BRANCH  20  21
ATOM     21  C   UNL     1      18.099  19.624  14.128  1.00  0.00     0.000 C 
BRANCH  21  22
ATOM     22  C   UNL     1      17.030  19.115  15.111  1.00  0.00     0.000 C 
BRANCH  22  23
ATOM     23  C   UNL     1      17.559  18.698  16.495  1.00  0.00     0.000 C 
BRANCH  23  24
ATOM     24  C   UNL     1      16.515  18.726  17.631  1.00  0.00    -0.000 C 
BRANCH  24  25
ATOM     25  C   UNL     1      16.887  19.604  18.838  1.00  0.00    -0.000 C 
BRANCH  25  26
ATOM     26  C   UNL     1      15.732  20.501  19.302  1.00  0.00    -0.000 C 
BRANCH  26  27
ATOM     27  C   UNL     1      14.663  20.620  18.208  1.00  0.00    -0.000 C 
BRANCH  27  28
ATOM     28  C   UNL     1      14.024  22.018  18.147  1.00  0.00    -0.000 C 
BRANCH  28  29
ATOM     29  C   UNL     1      14.710  23.003  17.180  1.00  0.00    -0.000 C 
BRANCH  29  30
ATOM     30  C   UNL     1      15.718  22.333  16.221  1.00  0.00    -0.000 C 
BRANCH  30  31
ATOM     31  C   UNL     1      15.294  22.456  14.751  1.00  0.00    -0.003 C 
ATOM     32  C   UNL     1      14.146  21.509  14.424  1.00  0.00     0.004 C 
ENDBRANCH  30  31
ENDBRANCH  29  30
ENDBRANCH  28  29
ENDBRANCH  27  28
ENDBRANCH  26  27
ENDBRANCH  25  26
ENDBRANCH  24  25
ENDBRANCH  23  24
ENDBRANCH  22  23
ENDBRANCH  21  22
ENDBRANCH  20  21
ENDBRANCH  19  20
ENDBRANCH  18  19
ENDBRANCH   1  18
TORSDOF 28
ENDMDL
MODEL 5
REMARK VINA RESULT:    -6.276      1.106      2.144
REMARK INTER + INTRA:         -18.692
REMARK INTER:                 -17.308
REMARK INTRA:                  -1.385
REMARK UNBOUND:                -2.144
REMARK SMILES CCCCCCCCCCCCCCCCCCCCCCCCCCCCCC(=O)[O-]
REMARK SMILES IDX 16 1 17 2 18 3 19 4 20 5 21 6 22 7 23 8 24 9 25 10 26 11
REMARK SMILES IDX 27 12 28 13 29 14 30 15 31 16 32 17 15 18 14 19 13 20 12 21
REMARK SMILES IDX 11 22 10 23 9 24 8 25 7 26 6 27 5 28 4 29 3 30 2 31 1 32
REMARK H PARENT
REMARK Flexibility Score: inf
ROOT
ATOM      1  C   UNL     1      20.936  19.649   6.221  1.00  0.00     0.000 C 
ENDROOT
BRANCH   1   2
ATOM      2  C   UNL     1      20.383  20.471   7.397  1.00  0.00     0.000 C 
BRANCH   2   3
ATOM      3  C   UNL     1      18.872  20.749   7.273  1.00  0.00     0.000 C 
BRANCH   3   4
ATOM      4  C   UNL     1      18.041  20.031   8.357  1.00  0.00     0.000 C 
BRANCH   4   5
ATOM      5  C   UNL     1      18.009  20.757   9.716  1.00  0.00     0.000 C 
BRANCH   5   6
ATOM      6  C   UNL     1      17.462  19.932  10.896  1.00  0.00     0.000 C 
BRANCH   6   7
ATOM      7  C   UNL     1      16.984  20.754  12.109  1.00  0.00     0.000 C 
BRANCH   7   8
ATOM      8  C   UNL     1      15.855  21.754  11.805  1.00  0.00     0.000 C 
BRANCH   8   9
ATOM      9  C   UNL     1      15.394  22.531  13.053  1.00  0.00     0.000 C 
BRANCH   9  10
ATOM     10  C   UNL     1      14.991  21.601  14.212  1.00  0.00     0.000 C 
BRANCH  10  11
ATOM     11  C   UNL     1      15.110  22.229  15.614  1.00  0.00     0.000 C 
BRANCH  11  12
ATOM     12  C   UNL     1      16.129  21.517  16.530  1.00  0.00     0.000 C 
BRANCH  12  13
ATOM     13  C   UNL     1      15.804  20.027  16.721  1.00  0.00     0.006 C 
BRANCH  13  14
ATOM     14  C   UNL     1      16.868  19.114  16.096  1.00  0.00     0.053 C 
BRANCH  14  15
ATOM     15  C   UNL     1      17.634  18.358  17.137  1.00  0.00     0.041 C 
ATOM     16  O   UNL     1      18.197  18.974  18.081  1.00  0.00    -0.550 OA
ATOM     17  O   UNL     1      17.767  16.978  17.039  1.00  0.00    -0.550 OA
ENDBRANCH  14  15
ENDBRANCH  13  14
ENDBRANCH  12  13
ENDBRANCH  11  12
ENDBRANCH  10  11
ENDBRANCH   9  10
ENDBRANCH   8   9
ENDBRANCH   7   8
ENDBRANCH   6   7
ENDBRANCH   5   6
ENDBRANCH   4   5
ENDBRANCH   3   4
ENDBRANCH   2   3
ENDBRANCH   1   2
BRANCH   1  18
ATOM     18  C   UNL     1      21.760  18.434   6.680  1.00  0.00     0.000 C 
BRANCH  18  19
ATOM     19  C   UNL     1      22.665  17.887   5.564  1.00  0.00     0.000 C 
BRANCH  19  20
ATOM     20  C   UNL     1      23.947  18.721   5.384  1.00  0.00     0.000 C 
BRANCH  20  21
ATOM     21  C   UNL     1      25.228  17.931   5.738  1.00  0.00     0.000 C 
BRANCH  21  22
ATOM     22  C   UNL     1      26.422  18.817   6.137  1.00  0.00     0.000 C 
BRANCH  22  23
ATOM     23  C   UNL     1      27.650  18.058   6.670  1.00  0.00     0.000 C 
BRANCH  23  24
ATOM     24  C   UNL     1      28.460  17.291   5.603  1.00  0.00    -0.000 C 
BRANCH  24  25
ATOM     25  C   UNL     1      29.987  17.345   5.779  1.00  0.00    -0.000 C 
BRANCH  25  26
ATOM     26  C   UNL     1      30.409  17.731   7.203  1.00  0.00    -0.000 C 
BRANCH  26  27
ATOM     27  C   UNL     1      31.856  17.302   7.477  1.00  0.00    -0.000 C 
BRANCH  27  28
ATOM     28  C   UNL     1      32.386  17.812   8.827  1.00  0.00    -0.000 C 
BRANCH  28  29
ATOM     29  C   UNL     1      31.657  19.051   9.384  1.00  0.00    -0.000 C 
BRANCH  29  30
ATOM     30  C   UNL     1      32.156  20.385   8.787  1.00  0.00    -0.000 C 
BRANCH  30  31
ATOM     31  C   UNL     1      33.630  20.657   9.116  1.00  0.00    -0.003 C 
ATOM     32  C   UNL     1      33.770  21.678  10.238  1.00  0.00     0.004 C 
ENDBRANCH  30  31
ENDBRANCH  29  30
ENDBRANCH  28  29
ENDBRANCH  27  28
ENDBRANCH  26  27
ENDBRANCH  25  26
ENDBRANCH  24  25
ENDBRANCH  23  24
ENDBRANCH  22  23
ENDBRANCH  21  22
ENDBRANCH  20  21
ENDBRANCH  19  20
ENDBRANCH  18  19
ENDBRANCH   1  18
TORSDOF 28
ENDMDL
MODEL 6
REMARK VINA RESULT:    -6.275      4.085     14.222
REMARK INTER + INTRA:         -18.691
REMARK INTER:                 -17.102
REMARK INTRA:                  -1.589
REMARK UNBOUND:                -2.144
REMARK SMILES CCCCCCCCCCCCCCCCCCCCCCCCCCCCCC(=O)[O-]
REMARK SMILES IDX 16 1 17 2 18 3 19 4 20 5 21 6 22 7 23 8 24 9 25 10 26 11
REMARK SMILES IDX 27 12 28 13 29 14 30 15 31 16 32 17 15 18 14 19 13 20 12 21
REMARK SMILES IDX 11 22 10 23 9 24 8 25 7 26 6 27 5 28 4 29 3 30 2 31 1 32
REMARK H PARENT
REMARK Flexibility Score: inf
ROOT
ATOM      1  C   UNL     1      20.504  20.962   6.842  1.00  0.00     0.000 C 
ENDROOT
BRANCH   1   2
ATOM      2  C   UNL     1      20.810  19.472   6.620  1.00  0.00     0.000 C 
BRANCH   2   3
ATOM      3  C   UNL     1      22.250  19.224   6.131  1.00  0.00     0.000 C 
BRANCH   3   4
ATOM      4  C   UNL     1      22.472  17.781   5.630  1.00  0.00     0.000 C 
BRANCH   4   5
ATOM      5  C   UNL     1      23.879  17.518   5.061  1.00  0.00     0.000 C 
BRANCH   5   6
ATOM      6  C   UNL     1      24.964  18.527   5.480  1.00  0.00     0.000 C 
BRANCH   6   7
ATOM      7  C   UNL     1      26.217  17.915   6.137  1.00  0.00     0.000 C 
BRANCH   7   8
ATOM      8  C   UNL     1      27.462  18.819   6.118  1.00  0.00     0.000 C 
BRANCH   8   9
ATOM      9  C   UNL     1      28.740  18.067   5.702  1.00  0.00     0.000 C 
BRANCH   9  10
ATOM     10  C   UNL     1      29.381  17.301   6.874  1.00  0.00     0.000 C 
BRANCH  10  11
ATOM     11  C   UNL     1      30.693  16.571   6.526  1.00  0.00     0.000 C 
BRANCH  11  12
ATOM     12  C   UNL     1      31.878  16.953   7.439  1.00  0.00     0.000 C 
BRANCH  12  13
ATOM     13  C   UNL     1      31.673  18.313   8.126  1.00  0.00     0.006 C 
BRANCH  13  14
ATOM     14  C   UNL     1      33.003  18.981   8.502  1.00  0.00     0.053 C 
BRANCH  14  15
ATOM     15  C   UNL     1      33.038  19.376   9.946  1.00  0.00     0.041 C 
ATOM     16  O   UNL     1      33.837  20.266  10.341  1.00  0.00    -0.550 OA
ATOM     17  O   UNL     1      32.224  18.726  10.866  1.00  0.00    -0.550 OA
ENDBRANCH  14  15
ENDBRANCH  13  14
ENDBRANCH  12  13
ENDBRANCH  11  12
ENDBRANCH  10  11
ENDBRANCH   9  10
ENDBRANCH   8   9
ENDBRANCH   7   8
ENDBRANCH   6   7
ENDBRANCH   5   6
ENDBRANCH   4   5
ENDBRANCH   3   4
ENDBRANCH   2   3
ENDBRANCH   1   2
BRANCH   1  18
ATOM     18  C   UNL     1      19.120  21.199   7.470  1.00  0.00     0.000 C 
BRANCH  18  19
ATOM     19  C   UNL     1      18.640  19.993   8.295  1.00  0.00     0.000 C 
BRANCH  19  20
ATOM     20  C   UNL     1      17.496  20.358   9.259  1.00  0.00     0.000 C 
BRANCH  20  21
ATOM     21  C   UNL     1      17.991  21.100  10.521  1.00  0.00     0.000 C 
BRANCH  21  22
ATOM     22  C   UNL     1      17.195  20.771  11.797  1.00  0.00     0.000 C 
BRANCH  22  23
ATOM     23  C   UNL     1      15.688  21.077  11.724  1.00  0.00     0.000 C 
BRANCH  23  24
ATOM     24  C   UNL     1      14.967  21.143  13.088  1.00  0.00    -0.000 C 
BRANCH  24  25
ATOM     25  C   UNL     1      15.087  22.487  13.825  1.00  0.00    -0.000 C 
BRANCH  25  26
ATOM     26  C   UNL     1      15.327  22.322  15.331  1.00  0.00    -0.000 C 
BRANCH  26  27
ATOM     27  C   UNL     1      15.581  20.850  15.683  1.00  0.00    -0.000 C 
BRANCH  27  28
ATOM     28  C   UNL     1      17.037  20.578  16.096  1.00  0.00    -0.000 C 
BRANCH  28  29
ATOM     29  C   UNL     1      17.352  19.107  16.433  1.00  0.00    -0.000 C 
BRANCH  29  30
ATOM     30  C   UNL     1      17.225  18.773  17.935  1.00  0.00    -0.000 C 
BRANCH  30  31
ATOM     31  C   UNL     1      17.451  20.002  18.827  1.00  0.00    -0.003 C 
ATOM     32  C   UNL     1      16.200  20.342  19.629  1.00  0.00     0.004 C 
ENDBRANCH  30  31
ENDBRANCH  29  30
ENDBRANCH  28  29
ENDBRANCH  27  28
ENDBRANCH  26  27
ENDBRANCH  25  26
ENDBRANCH  24  25
ENDBRANCH  23  24
ENDBRANCH  22  23
ENDBRANCH  21  22
ENDBRANCH  20  21
ENDBRANCH  19  20
ENDBRANCH  18  19
ENDBRANCH   1  18
TORSDOF 28
ENDMDL
MODEL 7
REMARK VINA RESULT:    -6.258      3.943     14.096
REMARK INTER + INTRA:         -18.645
REMARK INTER:                 -16.633
REMARK INTRA:                  -2.012
REMARK UNBOUND:                -2.144
REMARK SMILES CCCCCCCCCCCCCCCCCCCCCCCCCCCCCC(=O)[O-]
REMARK SMILES IDX 16 1 17 2 18 3 19 4 20 5 21 6 22 7 23 8 24 9 25 10 26 11
REMARK SMILES IDX 27 12 28 13 29 14 30 15 31 16 32 17 15 18 14 19 13 20 12 21
REMARK SMILES IDX 11 22 10 23 9 24 8 25 7 26 6 27 5 28 4 29 3 30 2 31 1 32
REMARK H PARENT
REMARK Flexibility Score: inf
ROOT
ATOM      1  C   UNL     1      19.187  21.178   7.617  1.00  0.00     0.000 C 
ENDROOT
BRANCH   1   2
ATOM      2  C   UNL     1      19.802  20.434   6.420  1.00  0.00     0.000 C 
BRANCH   2   3
ATOM      3  C   UNL     1      20.717  19.270   6.847  1.00  0.00     0.000 C 
BRANCH   3   4
ATOM      4  C   UNL     1      22.039  19.224   6.050  1.00  0.00     0.000 C 
BRANCH   4   5
ATOM      5  C   UNL     1      22.592  17.804   5.825  1.00  0.00     0.000 C 
BRANCH   5   6
ATOM      6  C   UNL     1      24.052  17.731   5.339  1.00  0.00     0.000 C 
BRANCH   6   7
ATOM      7  C   UNL     1      24.823  19.065   5.364  1.00  0.00     0.000 C 
BRANCH   7   8
ATOM      8  C   UNL     1      26.317  18.939   5.710  1.00  0.00     0.000 C 
BRANCH   8   9
ATOM      9  C   UNL     1      26.667  17.587   6.360  1.00  0.00     0.000 C 
BRANCH   9  10
ATOM     10  C   UNL     1      28.181  17.411   6.579  1.00  0.00     0.000 C 
BRANCH  10  11
ATOM     11  C   UNL     1      29.055  17.783   5.365  1.00  0.00     0.000 C 
BRANCH  11  12
ATOM     12  C   UNL     1      30.513  18.135   5.734  1.00  0.00     0.000 C 
BRANCH  12  13
ATOM     13  C   UNL     1      30.629  18.749   7.139  1.00  0.00     0.006 C 
BRANCH  13  14
ATOM     14  C   UNL     1      32.077  18.762   7.650  1.00  0.00     0.053 C 
BRANCH  14  15
ATOM     15  C   UNL     1      32.140  18.925   9.137  1.00  0.00     0.041 C 
ATOM     16  O   UNL     1      31.080  19.054   9.806  1.00  0.00    -0.550 OA
ATOM     17  O   UNL     1      33.371  18.985   9.779  1.00  0.00    -0.550 OA
ENDBRANCH  14  15
ENDBRANCH  13  14
ENDBRANCH  12  13
ENDBRANCH  11  12
ENDBRANCH  10  11
ENDBRANCH   9  10
ENDBRANCH   8   9
ENDBRANCH   7   8
ENDBRANCH   6   7
ENDBRANCH   5   6
ENDBRANCH   4   5
ENDBRANCH   3   4
ENDBRANCH   2   3
ENDBRANCH   1   2
BRANCH   1  18
ATOM     18  C   UNL     1      18.196  20.311   8.411  1.00  0.00     0.000 C 
BRANCH  18  19
ATOM     19  C   UNL     1      18.220  20.628   9.916  1.00  0.00     0.000 C 
BRANCH  19  20
ATOM     20  C   UNL     1      16.828  20.510  10.565  1.00  0.00     0.000 C 
BRANCH  20  21
ATOM     21  C   UNL     1      16.568  21.604  11.624  1.00  0.00     0.000 C 
BRANCH  21  22
ATOM     22  C   UNL     1      15.322  21.354  12.493  1.00  0.00     0.000 C 
BRANCH  22  23
ATOM     23  C   UNL     1      15.105  22.367  13.632  1.00  0.00     0.000 C 
BRANCH  23  24
ATOM     24  C   UNL     1      14.204  21.873  14.784  1.00  0.00    -0.000 C 
BRANCH  24  25
ATOM     25  C   UNL     1      14.447  22.558  16.140  1.00  0.00    -0.000 C 
BRANCH  25  26
ATOM     26  C   UNL     1      15.812  22.209  16.748  1.00  0.00    -0.000 C 
BRANCH  26  27
ATOM     27  C   UNL     1      15.642  21.351  18.008  1.00  0.00    -0.000 C 
BRANCH  27  28
ATOM     28  C   UNL     1      16.233  19.940  17.855  1.00  0.00    -0.000 C 
BRANCH  28  29
ATOM     29  C   UNL     1      16.216  19.382  16.418  1.00  0.00    -0.000 C 
BRANCH  29  30
ATOM     30  C   UNL     1      17.609  19.342  15.752  1.00  0.00    -0.000 C 
BRANCH  30  31
ATOM     31  C   UNL     1      17.522  19.273  14.220  1.00  0.00    -0.003 C 
ATOM     32  C   UNL     1      18.833  18.792  13.612  1.00  0.00     0.004 C 
ENDBRANCH  30  31
ENDBRANCH  29  30
ENDBRANCH  28  29
ENDBRANCH  27  28
ENDBRANCH  26  27
ENDBRANCH  25  26
ENDBRANCH  24  25
ENDBRANCH  23  24
ENDBRANCH  22  23
ENDBRANCH  21  22
ENDBRANCH  20  21
ENDBRANCH  19  20
ENDBRANCH  18  19
ENDBRANCH   1  18
TORSDOF 28
ENDMDL
MODEL 8
REMARK VINA RESULT:    -6.158      7.088     13.872
REMARK INTER + INTRA:         -18.382
REMARK INTER:                 -14.972
REMARK INTRA:                  -3.410
REMARK UNBOUND:                -2.144
REMARK SMILES CCCCCCCCCCCCCCCCCCCCCCCCCCCCCC(=O)[O-]
REMARK SMILES IDX 16 1 17 2 18 3 19 4 20 5 21 6 22 7 23 8 24 9 25 10 26 11
REMARK SMILES IDX 27 12 28 13 29 14 30 15 31 16 32 17 15 18 14 19 13 20 12 21
REMARK SMILES IDX 11 22 10 23 9 24 8 25 7 26 6 27 5 28 4 29 3 30 2 31 1 32
REMARK H PARENT
REMARK Flexibility Score: inf
ROOT
ATOM      1  C   UNL     1      18.051  20.722  12.176  1.00  0.00     0.000 C 
ENDROOT
BRANCH   1   2
ATOM      2  C   UNL     1      18.045  19.327  12.823  1.00  0.00     0.000 C 
BRANCH   2   3
ATOM      3  C   UNL     1      18.705  19.311  14.215  1.00  0.00     0.000 C 
BRANCH   3   4
ATOM      4  C   UNL     1      19.513  18.022  14.479  1.00  0.00     0.000 C 
BRANCH   4   5
ATOM      5  C   UNL     1      20.118  17.934  15.893  1.00  0.00     0.000 C 
BRANCH   5   6
ATOM      6  C   UNL     1      21.377  17.055  16.023  1.00  0.00     0.000 C 
BRANCH   6   7
ATOM      7  C   UNL     1      22.677  17.811  16.361  1.00  0.00     0.000 C 
BRANCH   7   8
ATOM      8  C   UNL     1      23.925  16.920  16.491  1.00  0.00     0.000 C 
BRANCH   8   9
ATOM      9  C   UNL     1      25.154  17.687  17.015  1.00  0.00     0.000 C 
BRANCH   9  10
ATOM     10  C   UNL     1      26.454  17.277  16.300  1.00  0.00     0.000 C 
BRANCH  10  11
ATOM     11  C   UNL     1      27.236  18.443  15.664  1.00  0.00     0.000 C 
BRANCH  11  12
ATOM     12  C   UNL     1      26.591  19.826  15.901  1.00  0.00     0.000 C 
BRANCH  12  13
ATOM     13  C   UNL     1      25.870  20.357  14.652  1.00  0.00     0.006 C 
BRANCH  13  14
ATOM     14  C   UNL     1      25.238  21.736  14.888  1.00  0.00     0.053 C 
BRANCH  14  15
ATOM     15  C   UNL     1      26.204  22.846  14.608  1.00  0.00     0.041 C 
ATOM     16  O   UNL     1      26.565  23.619  15.535  1.00  0.00    -0.550 OA
ATOM     17  O   UNL     1      26.668  23.057  13.315  1.00  0.00    -0.550 OA
ENDBRANCH  14  15
ENDBRANCH  13  14
ENDBRANCH  12  13
ENDBRANCH  11  12
ENDBRANCH  10  11
ENDBRANCH   9  10
ENDBRANCH   8   9
ENDBRANCH   7   8
ENDBRANCH   6   7
ENDBRANCH   5   6
ENDBRANCH   4   5
ENDBRANCH   3   4
ENDBRANCH   2   3
ENDBRANCH   1   2
BRANCH   1  18
ATOM     18  C   UNL     1      17.197  20.790  10.899  1.00  0.00     0.000 C 
BRANCH  18  19
ATOM     19  C   UNL     1      15.755  21.242  11.185  1.00  0.00     0.000 C 
BRANCH  19  20
ATOM     20  C   UNL     1      15.608  21.905  12.567  1.00  0.00     0.000 C 
BRANCH  20  21
ATOM     21  C   UNL     1      14.629  21.148  13.492  1.00  0.00     0.000 C 
BRANCH  21  22
ATOM     22  C   UNL     1      14.356  21.856  14.831  1.00  0.00     0.000 C 
BRANCH  22  23
ATOM     23  C   UNL     1      15.610  22.317  15.595  1.00  0.00     0.000 C 
BRANCH  23  24
ATOM     24  C   UNL     1      15.336  23.014  16.945  1.00  0.00    -0.000 C 
BRANCH  24  25
ATOM     25  C   UNL     1      14.047  22.570  17.658  1.00  0.00    -0.000 C 
BRANCH  25  26
ATOM     26  C   UNL     1      14.240  22.366  19.167  1.00  0.00    -0.000 C 
BRANCH  26  27
ATOM     27  C   UNL     1      14.419  20.878  19.496  1.00  0.00    -0.000 C 
BRANCH  27  28
ATOM     28  C   UNL     1      13.967  19.955  18.353  1.00  0.00    -0.000 C 
BRANCH  28  29
ATOM     29  C   UNL     1      14.920  18.782  18.050  1.00  0.00    -0.000 C 
BRANCH  29  30
ATOM     30  C   UNL     1      16.162  19.189  17.227  1.00  0.00    -0.000 C 
BRANCH  30  31
ATOM     31  C   UNL     1      17.411  19.363  18.103  1.00  0.00    -0.003 C 
ATOM     32  C   UNL     1      18.169  20.634  17.741  1.00  0.00     0.004 C 
ENDBRANCH  30  31
ENDBRANCH  29  30
ENDBRANCH  28  29
ENDBRANCH  27  28
ENDBRANCH  26  27
ENDBRANCH  25  26
ENDBRANCH  24  25
ENDBRANCH  23  24
ENDBRANCH  22  23
ENDBRANCH  21  22
ENDBRANCH  20  21
ENDBRANCH  19  20
ENDBRANCH  18  19
ENDBRANCH   1  18
TORSDOF 28
ENDMDL
MODEL 9
REMARK VINA RESULT:    -6.133      6.428      8.131
REMARK INTER + INTRA:         -18.315
REMARK INTER:                 -14.850
REMARK INTRA:                  -3.465
REMARK UNBOUND:                -2.144
REMARK SMILES CCCCCCCCCCCCCCCCCCCCCCCCCCCCCC(=O)[O-]
REMARK SMILES IDX 16 1 17 2 18 3 19 4 20 5 21 6 22 7 23 8 24 9 25 10 26 11
REMARK SMILES IDX 27 12 28 13 29 14 30 15 31 16 32 17 15 18 14 19 13 20 12 21
REMARK SMILES IDX 11 22 10 23 9 24 8 25 7 26 6 27 5 28 4 29 3 30 2 31 1 32
REMARK H PARENT
REMARK Flexibility Score: inf
ROOT
ATOM      1  C   UNL     1      19.275  19.856  15.681  1.00  0.00     0.000 C 
ENDROOT
BRANCH   1   2
ATOM      2  C   UNL     1      18.045  18.952  15.498  1.00  0.00     0.000 C 
BRANCH   2   3
ATOM      3  C   UNL     1      17.357  19.148  14.133  1.00  0.00     0.000 C 
BRANCH   3   4
ATOM      4  C   UNL     1      18.332  19.618  13.033  1.00  0.00     0.000 C 
BRANCH   4   5
ATOM      5  C   UNL     1      17.653  19.985  11.700  1.00  0.00     0.000 C 
BRANCH   5   6
ATOM      6  C   UNL     1      17.261  21.466  11.541  1.00  0.00     0.000 C 
BRANCH   6   7
ATOM      7  C   UNL     1      15.747  21.755  11.576  1.00  0.00     0.000 C 
BRANCH   7   8
ATOM      8  C   UNL     1      15.056  21.412  12.908  1.00  0.00     0.000 C 
BRANCH   8   9
ATOM      9  C   UNL     1      15.502  22.327  14.064  1.00  0.00     0.000 C 
BRANCH   9  10
ATOM     10  C   UNL     1      14.985  21.845  15.432  1.00  0.00     0.000 C 
BRANCH  10  11
ATOM     11  C   UNL     1      15.376  22.742  16.622  1.00  0.00     0.000 C 
BRANCH  11  12
ATOM     12  C   UNL     1      14.311  22.793  17.738  1.00  0.00     0.000 C 
BRANCH  12  13
ATOM     13  C   UNL     1      14.044  21.411  18.357  1.00  0.00     0.006 C 
BRANCH  13  14
ATOM     14  C   UNL     1      14.957  21.125  19.557  1.00  0.00     0.053 C 
BRANCH  14  15
ATOM     15  C   UNL     1      16.003  20.105  19.229  1.00  0.00     0.041 C 
ATOM     16  O   UNL     1      17.098  20.461  18.719  1.00  0.00    -0.550 OA
ATOM     17  O   UNL     1      15.749  18.755  19.439  1.00  0.00    -0.550 OA
ENDBRANCH  14  15
ENDBRANCH  13  14
ENDBRANCH  12  13
ENDBRANCH  11  12
ENDBRANCH  10  11
ENDBRANCH   9  10
ENDBRANCH   8   9
ENDBRANCH   7   8
ENDBRANCH   6   7
ENDBRANCH   5   6
ENDBRANCH   4   5
ENDBRANCH   3   4
ENDBRANCH   2   3
ENDBRANCH   1   2
BRANCH   1  18
ATOM     18  C   UNL     1      20.577  19.059  15.875  1.00  0.00     0.000 C 
BRANCH  18  19
ATOM     19  C   UNL     1      20.322  17.548  15.999  1.00  0.00     0.000 C 
BRANCH  19  20
ATOM     20  C   UNL     1      21.554  16.709  15.611  1.00  0.00     0.000 C 
BRANCH  20  21
ATOM     21  C   UNL     1      22.838  17.159  16.346  1.00  0.00     0.000 C 
BRANCH  21  22
ATOM     22  C   UNL     1      24.140  16.655  15.699  1.00  0.00     0.000 C 
BRANCH  22  23
ATOM     23  C   UNL     1      25.158  16.037  16.675  1.00  0.00     0.000 C 
BRANCH  23  24
ATOM     24  C   UNL     1      25.616  16.966  17.819  1.00  0.00    -0.000 C 
BRANCH  24  25
ATOM     25  C   UNL     1      27.091  17.400  17.756  1.00  0.00    -0.000 C 
BRANCH  25  26
ATOM     26  C   UNL     1      27.574  17.663  16.324  1.00  0.00    -0.000 C 
BRANCH  26  27
ATOM     27  C   UNL     1      27.609  19.169  16.030  1.00  0.00    -0.000 C 
BRANCH  27  28
ATOM     28  C   UNL     1      26.954  19.531  14.687  1.00  0.00    -0.000 C 
BRANCH  28  29
ATOM     29  C   UNL     1      25.468  19.929  14.776  1.00  0.00    -0.000 C 
BRANCH  29  30
ATOM     30  C   UNL     1      25.057  20.492  16.153  1.00  0.00    -0.000 C 
BRANCH  30  31
ATOM     31  C   UNL     1      23.547  20.756  16.250  1.00  0.00    -0.003 C 
ATOM     32  C   UNL     1      23.244  22.249  16.253  1.00  0.00     0.004 C 
ENDBRANCH  30  31
ENDBRANCH  29  30
ENDBRANCH  28  29
ENDBRANCH  27  28
ENDBRANCH  26  27
ENDBRANCH  25  26
ENDBRANCH  24  25
ENDBRANCH  23  24
ENDBRANCH  22  23
ENDBRANCH  21  22
ENDBRANCH  20  21
ENDBRANCH  19  20
ENDBRANCH  18  19
ENDBRANCH   1  18
TORSDOF 28
ENDMDL
