MODEL 1
REMARK VINA RESULT:    -6.120      0.000      0.000
REMARK INTER + INTRA:          -7.463
REMARK INTER:                  -7.193
REMARK INTRA:                  -0.270
REMARK UNBOUND:                -0.270
REMARK SMILES O=c1cc(-c2ccc(O)c(O)c2)oc2cc(O)cc(O)c12
REMARK SMILES IDX 4 1 3 2 2 3 1 4 21 5 19 6 18 7 16 8 15 9 14 10 13 11 5 12
REMARK SMILES IDX 6 13 7 14 8 15 12 16 10 17 9 18 11 20 20 22 17 24
REMARK H PARENT 9 19 11 21 20 23 17 25
REMARK Flexibility Score: inf
ROOT
ATOM      1  C   UNL     1     114.238  48.625  22.609  1.00  0.00     0.138 A 
ATOM      2  C   UNL     1     114.725  48.898  23.895  1.00  0.00     0.100 A 
ATOM      3  C   UNL     1     115.949  49.552  24.046  1.00  0.00     0.197 A 
ATOM      4  O   UNL     1     116.385  49.732  25.212  1.00  0.00    -0.289 OA
ATOM      5  C   UNL     1     116.670  49.968  22.901  1.00  0.00     0.107 A 
ATOM      6  C   UNL     1     117.911  50.674  22.932  1.00  0.00     0.134 A 
ATOM      7  C   UNL     1     118.581  50.946  21.733  1.00  0.00     0.093 A 
ATOM      8  C   UNL     1     118.029  50.591  20.503  1.00  0.00     0.123 A 
ATOM      9  C   UNL     1     116.793  49.946  20.458  1.00  0.00     0.094 A 
ATOM     10  C   UNL     1     116.116  49.629  21.637  1.00  0.00     0.146 A 
ATOM     11  O   UNL     1     114.950  48.998  21.551  1.00  0.00    -0.456 OA
ENDROOT
BRANCH   1  12
ATOM     12  C   UNL     1     112.942  47.935  22.390  1.00  0.00     0.021 A 
ATOM     13  C   UNL     1     112.821  46.538  22.494  1.00  0.00     0.016 A 
ATOM     14  C   UNL     1     111.591  45.916  22.272  1.00  0.00     0.051 A 
ATOM     15  C   UNL     1     110.460  46.666  21.937  1.00  0.00     0.157 A 
ATOM     16  C   UNL     1     111.809  48.687  22.039  1.00  0.00     0.062 A 
ATOM     17  C   UNL     1     110.571  48.071  21.816  1.00  0.00     0.158 A 
BRANCH  15  18
ATOM     18  O   UNL     1     109.260  45.982  21.732  1.00  0.00    -0.504 OA
ATOM     19  H   UNL     1     108.888  45.292  22.369  1.00  0.00     0.293 HD
ENDBRANCH  15  18
BRANCH  17  20
ATOM     20  O   UNL     1     109.488  48.887  21.480  1.00  0.00    -0.504 OA
ATOM     21  H   UNL     1     109.550  49.677  20.855  1.00  0.00     0.293 HD
ENDBRANCH  17  20
ENDBRANCH   1  12
BRANCH   6  22
ATOM     22  O   UNL     1     118.514  51.147  24.102  1.00  0.00    -0.507 OA
ATOM     23  H   UNL     1     118.104  51.108  25.022  1.00  0.00     0.293 HD
ENDBRANCH   6  22
BRANCH   8  24
ATOM     24  O   UNL     1     118.716  50.892  19.329  1.00  0.00    -0.508 OA
ATOM     25  H   UNL     1     119.729  50.923  19.301  1.00  0.00     0.293 HD
ENDBRANCH   8  24
TORSDOF 5
ENDMDL
MODEL 2
REMARK VINA RESULT:    -6.089      1.851      7.191
REMARK INTER + INTRA:          -7.427
REMARK INTER:                  -7.161
REMARK INTRA:                  -0.266
REMARK UNBOUND:                -0.270
REMARK SMILES O=c1cc(-c2ccc(O)c(O)c2)oc2cc(O)cc(O)c12
REMARK SMILES IDX 4 1 3 2 2 3 1 4 21 5 19 6 18 7 16 8 15 9 14 10 13 11 5 12
REMARK SMILES IDX 6 13 7 14 8 15 12 16 10 17 9 18 11 20 20 22 17 24
REMARK H PARENT 9 19 11 21 20 23 17 25
REMARK Flexibility Score: inf
ROOT
ATOM      1  C   UNL     1     115.223  48.337  21.556  1.00  0.00     0.138 A 
ATOM      2  C   UNL     1     115.543  47.260  20.717  1.00  0.00     0.100 A 
ATOM      3  C   UNL     1     114.545  46.364  20.333  1.00  0.00     0.197 A 
ATOM      4  O   UNL     1     114.875  45.377  19.625  1.00  0.00    -0.289 OA
ATOM      5  C   UNL     1     113.211  46.570  20.760  1.00  0.00     0.107 A 
ATOM      6  C   UNL     1     112.104  45.742  20.403  1.00  0.00     0.134 A 
ATOM      7  C   UNL     1     110.847  45.988  20.969  1.00  0.00     0.093 A 
ATOM      8  C   UNL     1     110.643  47.064  21.831  1.00  0.00     0.123 A 
ATOM      9  C   UNL     1     111.706  47.910  22.148  1.00  0.00     0.094 A 
ATOM     10  C   UNL     1     112.980  47.671  21.629  1.00  0.00     0.146 A 
ATOM     11  O   UNL     1     113.970  48.490  21.969  1.00  0.00    -0.456 OA
ENDROOT
BRANCH   1  12
ATOM     12  C   UNL     1     116.244  49.322  21.994  1.00  0.00     0.021 A 
ATOM     13  C   UNL     1     116.798  49.288  23.286  1.00  0.00     0.016 A 
ATOM     14  C   UNL     1     117.749  50.234  23.673  1.00  0.00     0.051 A 
ATOM     15  C   UNL     1     118.164  51.235  22.788  1.00  0.00     0.157 A 
ATOM     16  C   UNL     1     116.650  50.336  21.110  1.00  0.00     0.062 A 
ATOM     17  C   UNL     1     117.604  51.289  21.491  1.00  0.00     0.158 A 
BRANCH  15  18
ATOM     18  O   UNL     1     119.120  52.148  23.237  1.00  0.00    -0.504 OA
ATOM     19  H   UNL     1     119.682  52.015  24.066  1.00  0.00     0.293 HD
ENDBRANCH  15  18
BRANCH  17  20
ATOM     20  O   UNL     1     117.963  52.261  20.554  1.00  0.00    -0.504 OA
ATOM     21  H   UNL     1     118.737  52.899  20.671  1.00  0.00     0.293 HD
ENDBRANCH  17  20
ENDBRANCH   1  12
BRANCH   6  22
ATOM     22  O   UNL     1     112.177  44.688  19.487  1.00  0.00    -0.507 OA
ATOM     23  H   UNL     1     112.373  43.727  19.723  1.00  0.00     0.293 HD
ENDBRANCH   6  22
BRANCH   8  24
ATOM     24  O   UNL     1     109.375  47.288  22.363  1.00  0.00    -0.508 OA
ATOM     25  H   UNL     1     108.836  46.539  22.783  1.00  0.00     0.293 HD
ENDBRANCH   8  24
TORSDOF 5
ENDMDL
MODEL 3
REMARK VINA RESULT:    -5.822      4.109      4.795
REMARK INTER + INTRA:          -7.113
REMARK INTER:                  -6.849
REMARK INTRA:                  -0.264
REMARK UNBOUND:                -0.270
REMARK SMILES O=c1cc(-c2ccc(O)c(O)c2)oc2cc(O)cc(O)c12
REMARK SMILES IDX 4 1 3 2 2 3 1 4 21 5 19 6 18 7 16 8 15 9 14 10 13 11 5 12
REMARK SMILES IDX 6 13 7 14 8 15 12 16 10 17 9 18 11 20 20 22 17 24
REMARK H PARENT 9 19 11 21 20 23 17 25
REMARK Flexibility Score: inf
ROOT
ATOM      1  C   UNL     1     116.051  45.801  21.305  1.00  0.00     0.138 A 
ATOM      2  C   UNL     1     115.688  45.749  22.659  1.00  0.00     0.100 A 
ATOM      3  C   UNL     1     115.707  46.916  23.424  1.00  0.00     0.197 A 
ATOM      4  O   UNL     1     115.431  46.827  24.648  1.00  0.00    -0.289 OA
ATOM      5  C   UNL     1     116.055  48.148  22.820  1.00  0.00     0.107 A 
ATOM      6  C   UNL     1     116.076  49.408  23.492  1.00  0.00     0.134 A 
ATOM      7  C   UNL     1     116.533  50.545  22.814  1.00  0.00     0.093 A 
ATOM      8  C   UNL     1     116.915  50.480  21.475  1.00  0.00     0.123 A 
ATOM      9  C   UNL     1     116.852  49.265  20.794  1.00  0.00     0.094 A 
ATOM     10  C   UNL     1     116.433  48.105  21.451  1.00  0.00     0.146 A 
ATOM     11  O   UNL     1     116.404  46.964  20.771  1.00  0.00    -0.456 OA
ENDROOT
BRANCH   1  12
ATOM     12  C   UNL     1     116.046  44.591  20.444  1.00  0.00     0.021 A 
ATOM     13  C   UNL     1     117.164  43.744  20.352  1.00  0.00     0.016 A 
ATOM     14  C   UNL     1     117.134  42.620  19.525  1.00  0.00     0.051 A 
ATOM     15  C   UNL     1     115.996  42.318  18.770  1.00  0.00     0.157 A 
ATOM     16  C   UNL     1     114.908  44.296  19.674  1.00  0.00     0.062 A 
ATOM     17  C   UNL     1     114.869  43.169  18.843  1.00  0.00     0.158 A 
BRANCH  15  18
ATOM     18  O   UNL     1     116.030  41.177  17.966  1.00  0.00    -0.504 OA
ATOM     19  H   UNL     1     115.972  40.233  18.323  1.00  0.00     0.293 HD
ENDBRANCH  15  18
BRANCH  17  20
ATOM     20  O   UNL     1     113.700  42.937  18.115  1.00  0.00    -0.504 OA
ATOM     21  H   UNL     1     112.989  43.634  17.951  1.00  0.00     0.293 HD
ENDBRANCH  17  20
ENDBRANCH   1  12
BRANCH   6  22
ATOM     22  O   UNL     1     115.640  49.602  24.807  1.00  0.00    -0.507 OA
ATOM     23  H   UNL     1     114.675  49.635  25.099  1.00  0.00     0.293 HD
ENDBRANCH   6  22
BRANCH   8  24
ATOM     24  O   UNL     1     117.349  51.635  20.828  1.00  0.00    -0.508 OA
ATOM     25  H   UNL     1     116.724  52.188  20.254  1.00  0.00     0.293 HD
ENDBRANCH   8  24
TORSDOF 5
ENDMDL
MODEL 4
REMARK VINA RESULT:    -5.814      7.304      9.812
REMARK INTER + INTRA:          -7.104
REMARK INTER:                  -6.834
REMARK INTRA:                  -0.270
REMARK UNBOUND:                -0.270
REMARK SMILES O=c1cc(-c2ccc(O)c(O)c2)oc2cc(O)cc(O)c12
REMARK SMILES IDX 4 1 3 2 2 3 1 4 21 5 19 6 18 7 16 8 15 9 14 10 13 11 5 12
REMARK SMILES IDX 6 13 7 14 8 15 12 16 10 17 9 18 11 20 20 22 17 24
REMARK H PARENT 9 19 11 21 20 23 17 25
REMARK Flexibility Score: inf
ROOT
ATOM      1  C   UNL     1     107.759  43.312  24.264  1.00  0.00     0.138 A 
ATOM      2  C   UNL     1     108.550  44.379  24.711  1.00  0.00     0.100 A 
ATOM      3  C   UNL     1     108.817  45.446  23.853  1.00  0.00     0.197 A 
ATOM      4  O   UNL     1     109.576  46.362  24.264  1.00  0.00    -0.289 OA
ATOM      5  C   UNL     1     108.258  45.462  22.553  1.00  0.00     0.107 A 
ATOM      6  C   UNL     1     108.433  46.513  21.602  1.00  0.00     0.134 A 
ATOM      7  C   UNL     1     107.911  46.370  20.311  1.00  0.00     0.093 A 
ATOM      8  C   UNL     1     107.173  45.243  19.952  1.00  0.00     0.123 A 
ATOM      9  C   UNL     1     106.953  44.232  20.887  1.00  0.00     0.094 A 
ATOM     10  C   UNL     1     107.489  44.327  22.173  1.00  0.00     0.146 A 
ATOM     11  O   UNL     1     107.272  43.335  23.029  1.00  0.00    -0.456 OA
ENDROOT
BRANCH   1  12
ATOM     12  C   UNL     1     107.440  42.152  25.136  1.00  0.00     0.021 A 
ATOM     13  C   UNL     1     108.363  41.113  25.351  1.00  0.00     0.016 A 
ATOM     14  C   UNL     1     108.030  40.030  26.167  1.00  0.00     0.051 A 
ATOM     15  C   UNL     1     106.776  39.954  26.780  1.00  0.00     0.157 A 
ATOM     16  C   UNL     1     106.175  42.069  25.740  1.00  0.00     0.062 A 
ATOM     17  C   UNL     1     105.834  40.986  26.562  1.00  0.00     0.158 A 
BRANCH  15  18
ATOM     18  O   UNL     1     106.509  38.846  27.587  1.00  0.00    -0.504 OA
ATOM     19  H   UNL     1     105.614  38.663  28.016  1.00  0.00     0.293 HD
ENDBRANCH  15  18
BRANCH  17  20
ATOM     20  O   UNL     1     104.560  40.979  27.135  1.00  0.00    -0.504 OA
ATOM     21  H   UNL     1     103.717  41.225  26.638  1.00  0.00     0.293 HD
ENDBRANCH  17  20
ENDBRANCH   1  12
BRANCH   6  22
ATOM     22  O   UNL     1     109.084  47.719  21.879  1.00  0.00    -0.507 OA
ATOM     23  H   UNL     1     109.355  48.034  22.798  1.00  0.00     0.293 HD
ENDBRANCH   6  22
BRANCH   8  24
ATOM     24  O   UNL     1     106.656  45.142  18.663  1.00  0.00    -0.508 OA
ATOM     25  H   UNL     1     107.257  44.995  17.860  1.00  0.00     0.293 HD
ENDBRANCH   8  24
TORSDOF 5
ENDMDL
MODEL 5
REMARK VINA RESULT:    -5.801      2.939      6.979
REMARK INTER + INTRA:          -7.089
REMARK INTER:                  -6.819
REMARK INTRA:                  -0.270
REMARK UNBOUND:                -0.270
REMARK SMILES O=c1cc(-c2ccc(O)c(O)c2)oc2cc(O)cc(O)c12
REMARK SMILES IDX 4 1 3 2 2 3 1 4 21 5 19 6 18 7 16 8 15 9 14 10 13 11 5 12
REMARK SMILES IDX 6 13 7 14 8 15 12 16 10 17 9 18 11 20 20 22 17 24
REMARK H PARENT 9 19 11 21 20 23 17 25
REMARK Flexibility Score: inf
ROOT
ATOM      1  C   UNL     1     115.456  47.905  21.395  1.00  0.00     0.138 A 
ATOM      2  C   UNL     1     114.059  47.945  21.503  1.00  0.00     0.100 A 
ATOM      3  C   UNL     1     113.305  46.835  21.118  1.00  0.00     0.197 A 
ATOM      4  O   UNL     1     112.051  46.922  21.174  1.00  0.00    -0.289 OA
ATOM      5  C   UNL     1     113.957  45.667  20.658  1.00  0.00     0.107 A 
ATOM      6  C   UNL     1     113.295  44.462  20.270  1.00  0.00     0.134 A 
ATOM      7  C   UNL     1     114.041  43.404  19.737  1.00  0.00     0.093 A 
ATOM      8  C   UNL     1     115.429  43.483  19.630  1.00  0.00     0.123 A 
ATOM      9  C   UNL     1     116.092  44.636  20.052  1.00  0.00     0.094 A 
ATOM     10  C   UNL     1     115.374  45.722  20.556  1.00  0.00     0.146 A 
ATOM     11  O   UNL     1     116.042  46.808  20.930  1.00  0.00    -0.456 OA
ENDROOT
BRANCH   1  12
ATOM     12  C   UNL     1     116.307  49.056  21.793  1.00  0.00     0.021 A 
ATOM     13  C   UNL     1     116.516  49.389  23.143  1.00  0.00     0.016 A 
ATOM     14  C   UNL     1     117.313  50.483  23.486  1.00  0.00     0.051 A 
ATOM     15  C   UNL     1     117.911  51.271  22.498  1.00  0.00     0.157 A 
ATOM     16  C   UNL     1     116.896  49.856  20.800  1.00  0.00     0.062 A 
ATOM     17  C   UNL     1     117.697  50.954  21.136  1.00  0.00     0.158 A 
BRANCH  15  18
ATOM     18  O   UNL     1     118.698  52.348  22.909  1.00  0.00    -0.504 OA
ATOM     19  H   UNL     1     118.349  53.130  23.443  1.00  0.00     0.293 HD
ENDBRANCH  15  18
BRANCH  17  20
ATOM     20  O   UNL     1     118.257  51.697  20.093  1.00  0.00    -0.504 OA
ATOM     21  H   UNL     1     118.090  51.509  19.115  1.00  0.00     0.293 HD
ENDBRANCH  17  20
ENDBRANCH   1  12
BRANCH   6  22
ATOM     22  O   UNL     1     111.920  44.245  20.409  1.00  0.00    -0.507 OA
ATOM     23  H   UNL     1     111.381  43.585  19.870  1.00  0.00     0.293 HD
ENDBRANCH   6  22
BRANCH   8  24
ATOM     24  O   UNL     1     116.140  42.405  19.109  1.00  0.00    -0.508 OA
ATOM     25  H   UNL     1     115.850  41.940  18.257  1.00  0.00     0.293 HD
ENDBRANCH   8  24
TORSDOF 5
ENDMDL
MODEL 6
REMARK VINA RESULT:    -5.679      6.362     11.125
REMARK INTER + INTRA:          -6.945
REMARK INTER:                  -6.682
REMARK INTRA:                  -0.263
REMARK UNBOUND:                -0.270
REMARK SMILES O=c1cc(-c2ccc(O)c(O)c2)oc2cc(O)cc(O)c12
REMARK SMILES IDX 4 1 3 2 2 3 1 4 21 5 19 6 18 7 16 8 15 9 14 10 13 11 5 12
REMARK SMILES IDX 6 13 7 14 8 15 12 16 10 17 9 18 11 20 20 22 17 24
REMARK H PARENT 9 19 11 21 20 23 17 25
REMARK Flexibility Score: inf
ROOT
ATOM      1  C   UNL     1     108.138  43.345  23.180  1.00  0.00     0.138 A 
ATOM      2  C   UNL     1     108.904  42.218  22.852  1.00  0.00     0.100 A 
ATOM      3  C   UNL     1     108.685  41.015  23.524  1.00  0.00     0.197 A 
ATOM      4  O   UNL     1     109.426  40.037  23.246  1.00  0.00    -0.289 OA
ATOM      5  C   UNL     1     107.667  40.931  24.504  1.00  0.00     0.107 A 
ATOM      6  C   UNL     1     107.329  39.748  25.230  1.00  0.00     0.134 A 
ATOM      7  C   UNL     1     106.369  39.813  26.247  1.00  0.00     0.093 A 
ATOM      8  C   UNL     1     105.694  41.000  26.526  1.00  0.00     0.123 A 
ATOM      9  C   UNL     1     105.979  42.150  25.790  1.00  0.00     0.094 A 
ATOM     10  C   UNL     1     106.957  42.128  24.793  1.00  0.00     0.146 A 
ATOM     11  O   UNL     1     107.211  43.249  24.126  1.00  0.00    -0.456 OA
ENDROOT
BRANCH   1  12
ATOM     12  C   UNL     1     108.327  44.649  22.496  1.00  0.00     0.021 A 
ATOM     13  C   UNL     1     107.552  45.019  21.382  1.00  0.00     0.016 A 
ATOM     14  C   UNL     1     107.760  46.248  20.752  1.00  0.00     0.051 A 
ATOM     15  C   UNL     1     108.744  47.129  21.210  1.00  0.00     0.157 A 
ATOM     16  C   UNL     1     109.326  45.528  22.946  1.00  0.00     0.062 A 
ATOM     17  C   UNL     1     109.540  46.763  22.320  1.00  0.00     0.158 A 
BRANCH  15  18
ATOM     18  O   UNL     1     108.898  48.342  20.537  1.00  0.00    -0.504 OA
ATOM     19  H   UNL     1     109.727  48.600  20.020  1.00  0.00     0.293 HD
ENDBRANCH  15  18
BRANCH  17  20
ATOM     20  O   UNL     1     110.546  47.587  22.832  1.00  0.00    -0.504 OA
ATOM     21  H   UNL     1     110.487  48.594  22.866  1.00  0.00     0.293 HD
ENDBRANCH  17  20
ENDBRANCH   1  12
BRANCH   6  22
ATOM     22  O   UNL     1     107.885  38.490  24.979  1.00  0.00    -0.507 OA
ATOM     23  H   UNL     1     107.640  37.640  25.464  1.00  0.00     0.293 HD
ENDBRANCH   6  22
BRANCH   8  24
ATOM     24  O   UNL     1     104.733  41.023  27.534  1.00  0.00    -0.508 OA
ATOM     25  H   UNL     1     104.083  40.256  27.665  1.00  0.00     0.293 HD
ENDBRANCH   8  24
TORSDOF 5
ENDMDL
MODEL 7
REMARK VINA RESULT:    -5.664      7.086      9.434
REMARK INTER + INTRA:          -6.927
REMARK INTER:                  -6.635
REMARK INTRA:                  -0.293
REMARK UNBOUND:                -0.270
REMARK SMILES O=c1cc(-c2ccc(O)c(O)c2)oc2cc(O)cc(O)c12
REMARK SMILES IDX 4 1 3 2 2 3 1 4 21 5 19 6 18 7 16 8 15 9 14 10 13 11 5 12
REMARK SMILES IDX 6 13 7 14 8 15 12 16 10 17 9 18 11 20 20 22 17 24
REMARK H PARENT 9 19 11 21 20 23 17 25
REMARK Flexibility Score: inf
ROOT
ATOM      1  C   UNL     1     107.724  44.690  20.387  1.00  0.00     0.138 A 
ATOM      2  C   UNL     1     108.384  45.912  20.575  1.00  0.00     0.100 A 
ATOM      3  C   UNL     1     108.797  46.284  21.855  1.00  0.00     0.197 A 
ATOM      4  O   UNL     1     109.336  47.411  22.000  1.00  0.00    -0.289 OA
ATOM      5  C   UNL     1     108.581  45.409  22.947  1.00  0.00     0.107 A 
ATOM      6  C   UNL     1     108.989  45.666  24.291  1.00  0.00     0.134 A 
ATOM      7  C   UNL     1     108.631  44.769  25.305  1.00  0.00     0.093 A 
ATOM      8  C   UNL     1     107.931  43.598  25.017  1.00  0.00     0.123 A 
ATOM      9  C   UNL     1     107.570  43.312  23.700  1.00  0.00     0.094 A 
ATOM     10  C   UNL     1     107.881  44.202  22.671  1.00  0.00     0.146 A 
ATOM     11  O   UNL     1     107.504  43.901  21.433  1.00  0.00    -0.456 OA
ENDROOT
BRANCH   1  12
ATOM     12  C   UNL     1     107.266  44.243  19.047  1.00  0.00     0.021 A 
ATOM     13  C   UNL     1     106.887  42.912  18.801  1.00  0.00     0.016 A 
ATOM     14  C   UNL     1     106.471  42.519  17.527  1.00  0.00     0.051 A 
ATOM     15  C   UNL     1     106.428  43.437  16.473  1.00  0.00     0.157 A 
ATOM     16  C   UNL     1     107.237  45.162  17.985  1.00  0.00     0.062 A 
ATOM     17  C   UNL     1     106.819  44.776  16.705  1.00  0.00     0.158 A 
BRANCH  15  18
ATOM     18  O   UNL     1     105.999  42.979  15.226  1.00  0.00    -0.504 OA
ATOM     19  H   UNL     1     105.118  42.511  15.069  1.00  0.00     0.293 HD
ENDBRANCH  15  18
BRANCH  17  20
ATOM     20  O   UNL     1     106.809  45.748  15.702  1.00  0.00    -0.504 OA
ATOM     21  H   UNL     1     107.308  46.624  15.759  1.00  0.00     0.293 HD
ENDBRANCH  17  20
ENDBRANCH   1  12
BRANCH   6  22
ATOM     22  O   UNL     1     109.761  46.765  24.679  1.00  0.00    -0.507 OA
ATOM     23  H   UNL     1     110.749  46.870  24.506  1.00  0.00     0.293 HD
ENDBRANCH   6  22
BRANCH   8  24
ATOM     24  O   UNL     1     107.606  42.721  26.049  1.00  0.00    -0.508 OA
ATOM     25  H   UNL     1     108.316  42.332  26.658  1.00  0.00     0.293 HD
ENDBRANCH   8  24
TORSDOF 5
ENDMDL
MODEL 8
REMARK VINA RESULT:    -5.522      2.440      7.615
REMARK INTER + INTRA:          -6.761
REMARK INTER:                  -6.490
REMARK INTRA:                  -0.271
REMARK UNBOUND:                -0.270
REMARK SMILES O=c1cc(-c2ccc(O)c(O)c2)oc2cc(O)cc(O)c12
REMARK SMILES IDX 4 1 3 2 2 3 1 4 21 5 19 6 18 7 16 8 15 9 14 10 13 11 5 12
REMARK SMILES IDX 6 13 7 14 8 15 12 16 10 17 9 18 11 20 20 22 17 24
REMARK H PARENT 9 19 11 21 20 23 17 25
REMARK Flexibility Score: inf
ROOT
ATOM      1  C   UNL     1     112.707  47.024  21.862  1.00  0.00     0.138 A 
ATOM      2  C   UNL     1     112.148  46.860  23.137  1.00  0.00     0.100 A 
ATOM      3  C   UNL     1     110.816  46.462  23.261  1.00  0.00     0.197 A 
ATOM      4  O   UNL     1     110.328  46.378  24.418  1.00  0.00    -0.289 OA
ATOM      5  C   UNL     1     110.051  46.191  22.102  1.00  0.00     0.107 A 
ATOM      6  C   UNL     1     108.694  45.746  22.106  1.00  0.00     0.134 A 
ATOM      7  C   UNL     1     108.010  45.607  20.892  1.00  0.00     0.093 A 
ATOM      8  C   UNL     1     108.647  45.839  19.674  1.00  0.00     0.123 A 
ATOM      9  C   UNL     1     109.987  46.226  19.656  1.00  0.00     0.094 A 
ATOM     10  C   UNL     1     110.688  46.408  20.850  1.00  0.00     0.146 A 
ATOM     11  O   UNL     1     111.958  46.794  20.789  1.00  0.00    -0.456 OA
ENDROOT
BRANCH   1  12
ATOM     12  C   UNL     1     114.119  47.442  21.672  1.00  0.00     0.021 A 
ATOM     13  C   UNL     1     114.544  48.755  21.942  1.00  0.00     0.016 A 
ATOM     14  C   UNL     1     115.877  49.121  21.742  1.00  0.00     0.051 A 
ATOM     15  C   UNL     1     116.810  48.195  21.266  1.00  0.00     0.157 A 
ATOM     16  C   UNL     1     115.053  46.516  21.179  1.00  0.00     0.062 A 
ATOM     17  C   UNL     1     116.392  46.875  20.978  1.00  0.00     0.158 A 
BRANCH  15  18
ATOM     18  O   UNL     1     118.127  48.626  21.093  1.00  0.00    -0.504 OA
ATOM     19  H   UNL     1     118.893  48.352  21.690  1.00  0.00     0.293 HD
ENDBRANCH  15  18
BRANCH  17  20
ATOM     20  O   UNL     1     117.264  45.897  20.495  1.00  0.00    -0.504 OA
ATOM     21  H   UNL     1     117.433  45.014  20.954  1.00  0.00     0.293 HD
ENDBRANCH  17  20
ENDBRANCH   1  12
BRANCH   6  22
ATOM     22  O   UNL     1     107.984  45.408  23.262  1.00  0.00    -0.507 OA
ATOM     23  H   UNL     1     107.067  45.753  23.500  1.00  0.00     0.293 HD
ENDBRANCH   6  22
BRANCH   8  24
ATOM     24  O   UNL     1     107.939  45.675  18.486  1.00  0.00    -0.508 OA
ATOM     25  H   UNL     1     107.328  44.880  18.338  1.00  0.00     0.293 HD
ENDBRANCH   8  24
TORSDOF 5
ENDMDL
MODEL 9
REMARK VINA RESULT:    -5.478      3.353      4.771
REMARK INTER + INTRA:          -6.709
REMARK INTER:                  -6.392
REMARK INTRA:                  -0.316
REMARK UNBOUND:                -0.270
REMARK SMILES O=c1cc(-c2ccc(O)c(O)c2)oc2cc(O)cc(O)c12
REMARK SMILES IDX 4 1 3 2 2 3 1 4 21 5 19 6 18 7 16 8 15 9 14 10 13 11 5 12
REMARK SMILES IDX 6 13 7 14 8 15 12 16 10 17 9 18 11 20 20 22 17 24
REMARK H PARENT 9 19 11 21 20 23 17 25
REMARK Flexibility Score: inf
ROOT
ATOM      1  C   UNL     1     111.563  46.476  20.837  1.00  0.00     0.138 A 
ATOM      2  C   UNL     1     112.055  47.506  21.651  1.00  0.00     0.100 A 
ATOM      3  C   UNL     1     113.424  47.584  21.912  1.00  0.00     0.197 A 
ATOM      4  O   UNL     1     113.828  48.486  22.691  1.00  0.00    -0.289 OA
ATOM      5  C   UNL     1     114.307  46.647  21.326  1.00  0.00     0.107 A 
ATOM      6  C   UNL     1     115.726  46.648  21.493  1.00  0.00     0.134 A 
ATOM      7  C   UNL     1     116.487  45.610  20.942  1.00  0.00     0.093 A 
ATOM      8  C   UNL     1     115.891  44.604  20.183  1.00  0.00     0.123 A 
ATOM      9  C   UNL     1     114.512  44.619  19.971  1.00  0.00     0.094 A 
ATOM     10  C   UNL     1     113.720  45.622  20.536  1.00  0.00     0.146 A 
ATOM     11  O   UNL     1     112.409  45.591  20.324  1.00  0.00    -0.456 OA
ENDROOT
BRANCH   1  12
ATOM     12  C   UNL     1     110.117  46.348  20.524  1.00  0.00     0.021 A 
ATOM     13  C   UNL     1     109.140  47.071  21.230  1.00  0.00     0.016 A 
ATOM     14  C   UNL     1     107.787  46.921  20.919  1.00  0.00     0.051 A 
ATOM     15  C   UNL     1     107.377  46.046  19.908  1.00  0.00     0.157 A 
ATOM     16  C   UNL     1     109.705  45.458  19.518  1.00  0.00     0.062 A 
ATOM     17  C   UNL     1     108.349  45.302  19.199  1.00  0.00     0.158 A 
BRANCH  15  18
ATOM     18  O   UNL     1     106.010  45.946  19.646  1.00  0.00    -0.504 OA
ATOM     19  H   UNL     1     105.620  45.431  18.869  1.00  0.00     0.293 HD
ENDBRANCH  15  18
BRANCH  17  20
ATOM     20  O   UNL     1     108.018  44.406  18.181  1.00  0.00    -0.504 OA
ATOM     21  H   UNL     1     107.115  44.372  17.731  1.00  0.00     0.293 HD
ENDBRANCH  17  20
ENDBRANCH   1  12
BRANCH   6  22
ATOM     22  O   UNL     1     116.435  47.649  22.165  1.00  0.00    -0.507 OA
ATOM     23  H   UNL     1     117.050  48.317  21.727  1.00  0.00     0.293 HD
ENDBRANCH   6  22
BRANCH   8  24
ATOM     24  O   UNL     1     116.682  43.595  19.637  1.00  0.00    -0.508 OA
ATOM     25  H   UNL     1     116.738  43.449  18.636  1.00  0.00     0.293 HD
ENDBRANCH   8  24
TORSDOF 5
ENDMDL
