MODEL 1
REMARK VINA RESULT:    -6.288      0.000      0.000
REMARK INTER + INTRA:          -6.680
REMARK INTER:                  -6.839
REMARK INTRA:                   0.159
REMARK UNBOUND:                 0.159
REMARK SMILES CC1(C)CC[C@]2(C(=O)[O-])CC[C@@]3(C)C(=CC[C@H]4[C@@]5(C)CC[C@H](O)C(C)(C)[C@@H]5CC[C@]43C)[C@H]2C1
REMARK SMILES IDX 6 1 5 2 10 3 32 4 4 5 11 6 14 7 33 8 2 9 12 10 15 11 1 12
REMARK SMILES IDX 3 13 13 14 30 15 16 16 17 17 29 18 31 19 18 20 28 21 27 22
REMARK SMILES IDX 20 23 19 24 24 25 21 26 22 27 25 28 26 29 7 30 8 31 9 32
REMARK SMILES IDX 23 33
REMARK H PARENT 23 34
REMARK Flexibility Score: inf
ROOT
ATOM      1  C   UNL     1       6.606  34.119  65.182  1.00  0.00     0.017 C 
ATOM      2  C   UNL     1       6.817  35.647  65.341  1.00  0.00     0.014 C 
ATOM      3  C   UNL     1       7.609  33.313  64.235  1.00  0.00     0.014 C 
ATOM      4  C   UNL     1       5.174  33.952  64.599  1.00  0.00     0.028 C 
ATOM      5  C   UNL     1       5.554  36.368  65.934  1.00  0.00     0.007 C 
ATOM      6  C   UNL     1       7.211  31.772  63.981  1.00  0.00     0.013 C 
ATOM      7  C   UNL     1       5.030  32.730  63.683  1.00  0.00    -0.064 C 
ATOM      8  C   UNL     1       4.087  34.184  65.641  1.00  0.00     0.015 C 
ATOM      9  C   UNL     1       4.359  35.483  66.501  1.00  0.00    -0.035 C 
ATOM     10  C   UNL     1       5.663  31.401  64.107  1.00  0.00    -0.006 C 
ATOM     11  C   UNL     1       5.062  32.967  62.345  1.00  0.00    -0.027 C 
ATOM     12  C   UNL     1       4.612  35.139  67.996  1.00  0.00     0.011 C 
ATOM     13  C   UNL     1       3.038  36.333  66.521  1.00  0.00     0.011 C 
ATOM     14  C   UNL     1       5.441  31.022  65.631  1.00  0.00     0.017 C 
ATOM     15  C   UNL     1       5.030  30.193  63.190  1.00  0.00    -0.020 C 
ATOM     16  C   UNL     1       5.270  31.882  61.298  1.00  0.00     0.032 C 
ATOM     17  C   UNL     1       4.525  30.625  61.762  1.00  0.00     0.006 C 
ATOM     18  C   UNL     1       6.041  29.055  63.047  1.00  0.00     0.008 C 
ATOM     19  C   UNL     1       3.762  29.635  63.942  1.00  0.00     0.012 C 
ATOM     20  C   UNL     1       4.293  29.491  60.628  1.00  0.00    -0.025 C 
ATOM     21  C   UNL     1       5.543  27.874  62.225  1.00  0.00     0.005 C 
ATOM     22  C   UNL     1       5.291  28.294  60.771  1.00  0.00     0.003 C 
ATOM     23  C   UNL     1       4.493  30.062  59.165  1.00  0.00     0.010 C 
ATOM     24  C   UNL     1       2.780  29.049  60.709  1.00  0.00     0.012 C 
ATOM     25  C   UNL     1       5.074  27.120  59.732  1.00  0.00    -0.006 C 
ATOM     26  C   UNL     1       4.300  29.003  58.061  1.00  0.00     0.033 C 
ATOM     27  C   UNL     1       5.068  27.680  58.248  1.00  0.00     0.120 C 
ATOM     28  C   UNL     1       3.790  26.274  60.044  1.00  0.00     0.014 C 
ATOM     29  C   UNL     1       6.278  26.109  59.851  1.00  0.00     0.014 C 
ENDROOT
BRANCH   1  30
ATOM     30  C   UNL     1       6.798  33.550  66.561  1.00  0.00     0.048 C 
ATOM     31  O   UNL     1       7.914  33.618  67.137  1.00  0.00    -0.550 OA
ATOM     32  O   UNL     1       8.016  33.614  67.213  1.00  0.00    -0.550 OA
ENDBRANCH   1  30
BRANCH  27  33
ATOM     33  O   UNL     1       4.542  26.705  57.368  1.00  0.00    -0.393 OA
ATOM     34  H   UNL     1       4.109  25.997  57.898  1.00  0.00     0.210 HD
ENDBRANCH  27  33
TORSDOF 2
ENDMDL
MODEL 2
REMARK VINA RESULT:    -5.760      5.183      8.010
REMARK INTER + INTRA:          -6.106
REMARK INTER:                  -6.268
REMARK INTRA:                   0.162
REMARK UNBOUND:                 0.159
REMARK SMILES CC1(C)CC[C@]2(C(=O)[O-])CC[C@@]3(C)C(=CC[C@H]4[C@@]5(C)CC[C@H](O)C(C)(C)[C@@H]5CC[C@]43C)[C@H]2C1
REMARK SMILES IDX 6 1 5 2 10 3 32 4 4 5 11 6 14 7 33 8 2 9 12 10 15 11 1 12
REMARK SMILES IDX 3 13 13 14 30 15 16 16 17 17 29 18 31 19 18 20 28 21 27 22
REMARK SMILES IDX 20 23 19 24 24 25 21 26 22 27 25 28 26 29 7 30 8 31 9 32
REMARK SMILES IDX 23 33
REMARK H PARENT 23 34
REMARK Flexibility Score: inf
ROOT
ATOM      1  C   UNL     1      11.514  26.037  64.245  1.00  0.00     0.017 C 
ATOM      2  C   UNL     1      12.325  26.227  65.553  1.00  0.00     0.014 C 
ATOM      3  C   UNL     1      11.384  27.281  63.250  1.00  0.00     0.014 C 
ATOM      4  C   UNL     1      10.078  25.647  64.697  1.00  0.00     0.028 C 
ATOM      5  C   UNL     1      12.028  25.105  66.611  1.00  0.00     0.007 C 
ATOM      6  C   UNL     1      10.377  27.055  62.012  1.00  0.00     0.013 C 
ATOM      7  C   UNL     1       8.984  26.141  63.741  1.00  0.00    -0.064 C 
ATOM      8  C   UNL     1       9.989  24.206  65.184  1.00  0.00     0.015 C 
ATOM      9  C   UNL     1      11.170  23.840  66.170  1.00  0.00    -0.035 C 
ATOM     10  C   UNL     1       9.196  26.002  62.230  1.00  0.00    -0.006 C 
ATOM     11  C   UNL     1       8.313  27.262  64.115  1.00  0.00    -0.027 C 
ATOM     12  C   UNL     1      12.100  22.746  65.573  1.00  0.00     0.011 C 
ATOM     13  C   UNL     1      10.544  23.160  67.441  1.00  0.00     0.011 C 
ATOM     14  C   UNL     1       9.786  24.603  61.773  1.00  0.00     0.017 C 
ATOM     15  C   UNL     1       7.756  26.214  61.469  1.00  0.00    -0.020 C 
ATOM     16  C   UNL     1       7.448  28.085  63.171  1.00  0.00     0.032 C 
ATOM     17  C   UNL     1       6.716  27.118  62.233  1.00  0.00     0.006 C 
ATOM     18  C   UNL     1       7.979  26.774  60.064  1.00  0.00     0.008 C 
ATOM     19  C   UNL     1       7.074  24.799  61.333  1.00  0.00     0.012 C 
ATOM     20  C   UNL     1       5.464  27.747  61.418  1.00  0.00    -0.025 C 
ATOM     21  C   UNL     1       6.701  26.992  59.266  1.00  0.00     0.005 C 
ATOM     22  C   UNL     1       5.824  28.064  59.928  1.00  0.00     0.003 C 
ATOM     23  C   UNL     1       4.965  29.109  62.051  1.00  0.00     0.010 C 
ATOM     24  C   UNL     1       4.257  26.742  61.563  1.00  0.00     0.012 C 
ATOM     25  C   UNL     1       4.625  28.621  59.059  1.00  0.00    -0.006 C 
ATOM     26  C   UNL     1       3.787  29.745  61.288  1.00  0.00     0.033 C 
ATOM     27  C   UNL     1       3.960  29.877  59.762  1.00  0.00     0.120 C 
ATOM     28  C   UNL     1       3.567  27.512  58.718  1.00  0.00     0.014 C 
ATOM     29  C   UNL     1       5.188  29.100  57.667  1.00  0.00     0.014 C 
ENDROOT
BRANCH   1  30
ATOM     30  C   UNL     1      12.248  24.972  63.478  1.00  0.00     0.048 C 
ATOM     31  O   UNL     1      13.398  25.186  63.019  1.00  0.00    -0.550 OA
ATOM     32  O   UNL     1      13.513  25.186  62.965  1.00  0.00    -0.550 OA
ENDBRANCH   1  30
BRANCH  27  33
ATOM     33  O   UNL     1       2.705  30.151  59.171  1.00  0.00    -0.393 OA
ATOM     34  H   UNL     1       2.421  31.058  59.428  1.00  0.00     0.210 HD
ENDBRANCH  27  33
TORSDOF 2
ENDMDL
MODEL 3
REMARK VINA RESULT:    -5.739      5.199      7.653
REMARK INTER + INTRA:          -6.083
REMARK INTER:                  -6.245
REMARK INTRA:                   0.162
REMARK UNBOUND:                 0.159
REMARK SMILES CC1(C)CC[C@]2(C(=O)[O-])CC[C@@]3(C)C(=CC[C@H]4[C@@]5(C)CC[C@H](O)C(C)(C)[C@@H]5CC[C@]43C)[C@H]2C1
REMARK SMILES IDX 6 1 5 2 10 3 32 4 4 5 11 6 14 7 33 8 2 9 12 10 15 11 1 12
REMARK SMILES IDX 3 13 13 14 30 15 16 16 17 17 29 18 31 19 18 20 28 21 27 22
REMARK SMILES IDX 20 23 19 24 24 25 21 26 22 27 25 28 26 29 7 30 8 31 9 32
REMARK SMILES IDX 23 33
REMARK H PARENT 23 34
REMARK Flexibility Score: inf
ROOT
ATOM      1  C   UNL     1      10.320  25.895  65.154  1.00  0.00     0.017 C 
ATOM      2  C   UNL     1      10.765  26.013  66.635  1.00  0.00     0.014 C 
ATOM      3  C   UNL     1      10.401  27.200  64.235  1.00  0.00     0.014 C 
ATOM      4  C   UNL     1       8.832  25.445  65.199  1.00  0.00     0.028 C 
ATOM      5  C   UNL     1      10.251  24.816  67.512  1.00  0.00     0.007 C 
ATOM      6  C   UNL     1       9.750  27.037  62.769  1.00  0.00     0.013 C 
ATOM      7  C   UNL     1       7.999  25.979  64.026  1.00  0.00    -0.064 C 
ATOM      8  C   UNL     1       8.677  23.973  65.559  1.00  0.00     0.015 C 
ATOM      9  C   UNL     1       9.582  23.565  66.791  1.00  0.00    -0.035 C 
ATOM     10  C   UNL     1       8.593  25.948  62.614  1.00  0.00    -0.006 C 
ATOM     11  C   UNL     1       7.214  27.058  64.282  1.00  0.00    -0.027 C 
ATOM     12  C   UNL     1      10.673  22.535  66.387  1.00  0.00     0.011 C 
ATOM     13  C   UNL     1       8.679  22.788  67.816  1.00  0.00     0.011 C 
ATOM     14  C   UNL     1       9.332  24.595  62.240  1.00  0.00     0.017 C 
ATOM     15  C   UNL     1       7.387  26.180  61.524  1.00  0.00    -0.020 C 
ATOM     16  C   UNL     1       6.587  27.925  63.199  1.00  0.00     0.032 C 
ATOM     17  C   UNL     1       6.153  27.009  62.049  1.00  0.00     0.006 C 
ATOM     18  C   UNL     1       7.938  26.839  60.259  1.00  0.00     0.008 C 
ATOM     19  C   UNL     1       6.815  24.763  61.133  1.00  0.00     0.012 C 
ATOM     20  C   UNL     1       5.128  27.665  60.980  1.00  0.00    -0.025 C 
ATOM     21  C   UNL     1       6.898  27.084  59.175  1.00  0.00     0.005 C 
ATOM     22  C   UNL     1       5.842  28.090  59.654  1.00  0.00     0.003 C 
ATOM     23  C   UNL     1       4.433  28.970  61.546  1.00  0.00     0.010 C 
ATOM     24  C   UNL     1       3.962  26.627  60.751  1.00  0.00     0.012 C 
ATOM     25  C   UNL     1       4.882  28.679  58.542  1.00  0.00    -0.006 C 
ATOM     26  C   UNL     1       3.465  29.632  60.546  1.00  0.00     0.033 C 
ATOM     27  C   UNL     1       4.014  29.871  59.125  1.00  0.00     0.120 C 
ATOM     28  C   UNL     1       3.988  27.574  57.876  1.00  0.00     0.014 C 
ATOM     29  C   UNL     1       5.762  29.263  57.372  1.00  0.00     0.014 C 
ENDROOT
BRANCH   1  30
ATOM     30  C   UNL     1      11.264  24.900  64.537  1.00  0.00     0.048 C 
ATOM     31  O   UNL     1      12.495  25.143  64.459  1.00  0.00    -0.550 OA
ATOM     32  O   UNL     1      12.621  25.146  64.441  1.00  0.00    -0.550 OA
ENDBRANCH   1  30
BRANCH  27  33
ATOM     33  O   UNL     1       2.941  30.157  58.251  1.00  0.00    -0.393 OA
ATOM     34  H   UNL     1       3.151  30.975  57.743  1.00  0.00     0.210 HD
ENDBRANCH  27  33
TORSDOF 2
ENDMDL
MODEL 4
REMARK VINA RESULT:    -5.608      4.528      8.477
REMARK INTER + INTRA:          -5.941
REMARK INTER:                  -6.118
REMARK INTRA:                   0.177
REMARK UNBOUND:                 0.159
REMARK SMILES CC1(C)CC[C@]2(C(=O)[O-])CC[C@@]3(C)C(=CC[C@H]4[C@@]5(C)CC[C@H](O)C(C)(C)[C@@H]5CC[C@]43C)[C@H]2C1
REMARK SMILES IDX 6 1 5 2 10 3 32 4 4 5 11 6 14 7 33 8 2 9 12 10 15 11 1 12
REMARK SMILES IDX 3 13 13 14 30 15 16 16 17 17 29 18 31 19 18 20 28 21 27 22
REMARK SMILES IDX 20 23 19 24 24 25 21 26 22 27 25 28 26 29 7 30 8 31 9 32
REMARK SMILES IDX 23 33
REMARK H PARENT 23 34
REMARK Flexibility Score: inf
ROOT
ATOM      1  C   UNL     1       5.082  26.810  59.786  1.00  0.00     0.017 C 
ATOM      2  C   UNL     1       4.878  26.295  58.337  1.00  0.00     0.014 C 
ATOM      3  C   UNL     1       5.260  25.733  60.952  1.00  0.00     0.014 C 
ATOM      4  C   UNL     1       3.815  27.651  60.113  1.00  0.00     0.028 C 
ATOM      5  C   UNL     1       4.307  27.403  57.382  1.00  0.00     0.007 C 
ATOM      6  C   UNL     1       5.281  26.346  62.443  1.00  0.00     0.013 C 
ATOM      7  C   UNL     1       3.422  27.606  61.595  1.00  0.00    -0.064 C 
ATOM      8  C   UNL     1       3.823  29.011  59.427  1.00  0.00     0.015 C 
ATOM      9  C   UNL     1       4.232  28.905  57.903  1.00  0.00    -0.035 C 
ATOM     10  C   UNL     1       4.515  27.730  62.661  1.00  0.00    -0.006 C 
ATOM     11  C   UNL     1       2.404  26.769  61.928  1.00  0.00    -0.027 C 
ATOM     12  C   UNL     1       5.574  29.636  57.616  1.00  0.00     0.011 C 
ATOM     13  C   UNL     1       3.172  29.702  57.061  1.00  0.00     0.011 C 
ATOM     14  C   UNL     1       5.591  28.859  62.373  1.00  0.00     0.017 C 
ATOM     15  C   UNL     1       3.813  28.061  64.108  1.00  0.00    -0.020 C 
ATOM     16  C   UNL     1       2.096  26.337  63.354  1.00  0.00     0.032 C 
ATOM     17  C   UNL     1       2.336  27.537  64.277  1.00  0.00     0.006 C 
ATOM     18  C   UNL     1       4.675  27.520  65.249  1.00  0.00     0.008 C 
ATOM     19  C   UNL     1       3.730  29.629  64.253  1.00  0.00     0.012 C 
ATOM     20  C   UNL     1       1.705  27.414  65.764  1.00  0.00    -0.025 C 
ATOM     21  C   UNL     1       4.118  27.791  66.640  1.00  0.00     0.005 C 
ATOM     22  C   UNL     1       2.784  27.058  66.841  1.00  0.00     0.003 C 
ATOM     23  C   UNL     1       0.603  26.280  65.852  1.00  0.00     0.010 C 
ATOM     24  C   UNL     1       0.950  28.766  66.067  1.00  0.00     0.012 C 
ATOM     25  C   UNL     1       2.242  26.987  68.326  1.00  0.00    -0.006 C 
ATOM     26  C   UNL     1      -0.005  26.122  67.259  1.00  0.00     0.033 C 
ATOM     27  C   UNL     1       1.000  26.007  68.423  1.00  0.00     0.120 C 
ATOM     28  C   UNL     1       1.916  28.406  68.913  1.00  0.00     0.014 C 
ATOM     29  C   UNL     1       3.378  26.405  69.252  1.00  0.00     0.014 C 
ENDROOT
BRANCH   1  30
ATOM     30  C   UNL     1       6.367  27.590  59.748  1.00  0.00     0.048 C 
ATOM     31  O   UNL     1       7.417  27.080  59.281  1.00  0.00    -0.550 OA
ATOM     32  O   UNL     1       7.533  27.050  59.239  1.00  0.00    -0.550 OA
ENDBRANCH   1  30
BRANCH  27  33
ATOM     33  O   UNL     1       0.322  26.208  69.647  1.00  0.00    -0.393 OA
ATOM     34  H   UNL     1      -0.247  27.009  69.571  1.00  0.00     0.210 HD
ENDBRANCH  27  33
TORSDOF 2
ENDMDL
MODEL 5
REMARK VINA RESULT:    -5.486      5.007      8.403
REMARK INTER + INTRA:          -5.808
REMARK INTER:                  -6.003
REMARK INTRA:                   0.195
REMARK UNBOUND:                 0.159
REMARK SMILES CC1(C)CC[C@]2(C(=O)[O-])CC[C@@]3(C)C(=CC[C@H]4[C@@]5(C)CC[C@H](O)C(C)(C)[C@@H]5CC[C@]43C)[C@H]2C1
REMARK SMILES IDX 6 1 5 2 10 3 32 4 4 5 11 6 14 7 33 8 2 9 12 10 15 11 1 12
REMARK SMILES IDX 3 13 13 14 30 15 16 16 17 17 29 18 31 19 18 20 28 21 27 22
REMARK SMILES IDX 20 23 19 24 24 25 21 26 22 27 25 28 26 29 7 30 8 31 9 32
REMARK SMILES IDX 23 33
REMARK H PARENT 23 34
REMARK Flexibility Score: inf
ROOT
ATOM      1  C   UNL     1       4.194  28.727  61.485  1.00  0.00     0.017 C 
ATOM      2  C   UNL     1       4.032  30.176  60.956  1.00  0.00     0.014 C 
ATOM      3  C   UNL     1       4.225  28.501  63.067  1.00  0.00     0.014 C 
ATOM      4  C   UNL     1       5.549  28.222  60.912  1.00  0.00     0.028 C 
ATOM      5  C   UNL     1       4.434  30.310  59.443  1.00  0.00     0.007 C 
ATOM      6  C   UNL     1       4.580  26.998  63.529  1.00  0.00     0.013 C 
ATOM      7  C   UNL     1       6.267  27.229  61.836  1.00  0.00    -0.064 C 
ATOM      8  C   UNL     1       5.465  27.872  59.432  1.00  0.00     0.015 C 
ATOM      9  C   UNL     1       4.713  28.988  58.601  1.00  0.00    -0.035 C 
ATOM     10  C   UNL     1       5.455  26.124  62.518  1.00  0.00    -0.006 C 
ATOM     11  C   UNL     1       7.283  27.726  62.589  1.00  0.00    -0.027 C 
ATOM     12  C   UNL     1       3.386  28.454  57.991  1.00  0.00     0.011 C 
ATOM     13  C   UNL     1       5.598  29.337  57.351  1.00  0.00     0.011 C 
ATOM     14  C   UNL     1       4.409  25.396  61.574  1.00  0.00     0.017 C 
ATOM     15  C   UNL     1       6.486  24.985  63.099  1.00  0.00    -0.020 C 
ATOM     16  C   UNL     1       7.883  27.002  63.785  1.00  0.00     0.032 C 
ATOM     17  C   UNL     1       7.930  25.505  63.460  1.00  0.00     0.006 C 
ATOM     18  C   UNL     1       5.877  24.293  64.318  1.00  0.00     0.008 C 
ATOM     19  C   UNL     1       6.691  23.904  61.969  1.00  0.00     0.012 C 
ATOM     20  C   UNL     1       8.875  24.608  64.424  1.00  0.00    -0.025 C 
ATOM     21  C   UNL     1       6.752  23.204  64.924  1.00  0.00     0.005 C 
ATOM     22  C   UNL     1       8.052  23.801  65.481  1.00  0.00     0.003 C 
ATOM     23  C   UNL     1       9.900  25.494  65.243  1.00  0.00     0.010 C 
ATOM     24  C   UNL     1       9.757  23.689  63.492  1.00  0.00     0.012 C 
ATOM     25  C   UNL     1       8.913  22.854  66.412  1.00  0.00    -0.006 C 
ATOM     26  C   UNL     1      10.803  24.674  66.185  1.00  0.00     0.033 C 
ATOM     27  C   UNL     1      10.085  23.666  67.105  1.00  0.00     0.120 C 
ATOM     28  C   UNL     1       9.446  21.589  65.650  1.00  0.00     0.014 C 
ATOM     29  C   UNL     1       7.987  22.290  67.556  1.00  0.00     0.014 C 
ENDROOT
BRANCH   1  30
ATOM     30  C   UNL     1       2.982  27.989  60.988  1.00  0.00     0.048 C 
ATOM     31  O   UNL     1       1.869  28.120  61.558  1.00  0.00    -0.550 OA
ATOM     32  O   UNL     1       1.749  28.119  61.599  1.00  0.00    -0.550 OA
ENDBRANCH   1  30
BRANCH  27  33
ATOM     33  O   UNL     1      11.035  22.770  67.648  1.00  0.00    -0.393 OA
ATOM     34  H   UNL     1      10.647  21.865  67.668  1.00  0.00     0.210 HD
ENDBRANCH  27  33
TORSDOF 2
ENDMDL
MODEL 6
REMARK VINA RESULT:    -5.457      1.190      1.295
REMARK INTER + INTRA:          -5.777
REMARK INTER:                  -5.947
REMARK INTRA:                   0.170
REMARK UNBOUND:                 0.159
REMARK SMILES CC1(C)CC[C@]2(C(=O)[O-])CC[C@@]3(C)C(=CC[C@H]4[C@@]5(C)CC[C@H](O)C(C)(C)[C@@H]5CC[C@]43C)[C@H]2C1
REMARK SMILES IDX 6 1 5 2 10 3 32 4 4 5 11 6 14 7 33 8 2 9 12 10 15 11 1 12
REMARK SMILES IDX 3 13 13 14 30 15 16 16 17 17 29 18 31 19 18 20 28 21 27 22
REMARK SMILES IDX 20 23 19 24 24 25 21 26 22 27 25 28 26 29 7 30 8 31 9 32
REMARK SMILES IDX 23 33
REMARK H PARENT 23 34
REMARK Flexibility Score: inf
ROOT
ATOM      1  C   UNL     1       6.820  35.186  64.408  1.00  0.00     0.017 C 
ATOM      2  C   UNL     1       6.880  36.716  64.166  1.00  0.00     0.014 C 
ATOM      3  C   UNL     1       7.806  34.250  63.569  1.00  0.00     0.014 C 
ATOM      4  C   UNL     1       5.364  34.764  64.060  1.00  0.00     0.028 C 
ATOM      5  C   UNL     1       5.610  37.460  64.715  1.00  0.00     0.007 C 
ATOM      6  C   UNL     1       7.553  32.668  63.745  1.00  0.00     0.013 C 
ATOM      7  C   UNL     1       5.263  33.343  63.490  1.00  0.00    -0.064 C 
ATOM      8  C   UNL     1       4.365  35.163  65.138  1.00  0.00     0.015 C 
ATOM      9  C   UNL     1       4.578  36.655  65.620  1.00  0.00    -0.035 C 
ATOM     10  C   UNL     1       6.073  32.218  64.143  1.00  0.00    -0.006 C 
ATOM     11  C   UNL     1       5.139  33.237  62.141  1.00  0.00    -0.027 C 
ATOM     12  C   UNL     1       5.012  36.720  67.112  1.00  0.00     0.011 C 
ATOM     13  C   UNL     1       3.182  37.375  65.593  1.00  0.00     0.011 C 
ATOM     14  C   UNL     1       6.042  32.219  65.729  1.00  0.00     0.017 C 
ATOM     15  C   UNL     1       5.487  30.772  63.629  1.00  0.00    -0.020 C 
ATOM     16  C   UNL     1       5.359  31.943  61.370  1.00  0.00     0.032 C 
ATOM     17  C   UNL     1       4.802  30.789  62.210  1.00  0.00     0.006 C 
ATOM     18  C   UNL     1       6.595  29.719  63.644  1.00  0.00     0.008 C 
ATOM     19  C   UNL     1       4.365  30.323  64.641  1.00  0.00     0.012 C 
ATOM     20  C   UNL     1       4.583  29.390  61.420  1.00  0.00    -0.025 C 
ATOM     21  C   UNL     1       6.150  28.333  63.198  1.00  0.00     0.005 C 
ATOM     22  C   UNL     1       5.713  28.352  61.726  1.00  0.00     0.003 C 
ATOM     23  C   UNL     1       4.578  29.588  59.850  1.00  0.00     0.010 C 
ATOM     24  C   UNL     1       3.142  28.864  61.788  1.00  0.00     0.012 C 
ATOM     25  C   UNL     1       5.524  26.940  61.036  1.00  0.00    -0.006 C 
ATOM     26  C   UNL     1       4.392  28.274  59.066  1.00  0.00     0.033 C 
ATOM     27  C   UNL     1       5.313  27.106  59.473  1.00  0.00     0.120 C 
ATOM     28  C   UNL     1       4.374  26.100  61.696  1.00  0.00     0.014 C 
ATOM     29  C   UNL     1       6.834  26.092  61.249  1.00  0.00     0.014 C 
ENDROOT
BRANCH   1  30
ATOM     30  C   UNL     1       7.205  35.000  65.850  1.00  0.00     0.048 C 
ATOM     31  O   UNL     1       8.376  35.238  66.239  1.00  0.00    -0.550 OA
ATOM     32  O   UNL     1       8.487  35.256  66.300  1.00  0.00    -0.550 OA
ENDBRANCH   1  30
BRANCH  27  33
ATOM     33  O   UNL     1       4.811  25.903  58.925  1.00  0.00    -0.393 OA
ATOM     34  H   UNL     1       4.840  25.200  59.614  1.00  0.00     0.210 HD
ENDBRANCH  27  33
TORSDOF 2
ENDMDL
MODEL 7
REMARK VINA RESULT:    -5.433      2.665      8.065
REMARK INTER + INTRA:          -5.750
REMARK INTER:                  -5.910
REMARK INTRA:                   0.159
REMARK UNBOUND:                 0.159
REMARK SMILES CC1(C)CC[C@]2(C(=O)[O-])CC[C@@]3(C)C(=CC[C@H]4[C@@]5(C)CC[C@H](O)C(C)(C)[C@@H]5CC[C@]43C)[C@H]2C1
REMARK SMILES IDX 6 1 5 2 10 3 32 4 4 5 11 6 14 7 33 8 2 9 12 10 15 11 1 12
REMARK SMILES IDX 3 13 13 14 30 15 16 16 17 17 29 18 31 19 18 20 28 21 27 22
REMARK SMILES IDX 20 23 19 24 24 25 21 26 22 27 25 28 26 29 7 30 8 31 9 32
REMARK SMILES IDX 23 33
REMARK H PARENT 23 34
REMARK Flexibility Score: inf
ROOT
ATOM      1  C   UNL     1       4.019  27.703  63.016  1.00  0.00     0.017 C 
ATOM      2  C   UNL     1       3.174  26.721  62.164  1.00  0.00     0.014 C 
ATOM      3  C   UNL     1       3.264  28.901  63.757  1.00  0.00     0.014 C 
ATOM      4  C   UNL     1       5.047  28.332  62.034  1.00  0.00     0.028 C 
ATOM      5  C   UNL     1       4.055  25.874  61.176  1.00  0.00     0.007 C 
ATOM      6  C   UNL     1       4.233  29.976  64.466  1.00  0.00     0.013 C 
ATOM      7  C   UNL     1       5.427  29.775  62.393  1.00  0.00    -0.064 C 
ATOM      8  C   UNL     1       6.177  27.375  61.677  1.00  0.00     0.015 C 
ATOM      9  C   UNL     1       5.639  25.932  61.316  1.00  0.00    -0.035 C 
ATOM     10  C   UNL     1       5.701  30.131  63.858  1.00  0.00    -0.006 C 
ATOM     11  C   UNL     1       4.818  30.758  61.679  1.00  0.00    -0.027 C 
ATOM     12  C   UNL     1       6.124  24.866  62.339  1.00  0.00     0.011 C 
ATOM     13  C   UNL     1       6.303  25.494  59.961  1.00  0.00     0.011 C 
ATOM     14  C   UNL     1       6.595  29.078  64.636  1.00  0.00     0.017 C 
ATOM     15  C   UNL     1       6.466  31.583  63.918  1.00  0.00    -0.020 C 
ATOM     16  C   UNL     1       4.802  32.221  62.097  1.00  0.00     0.032 C 
ATOM     17  C   UNL     1       6.165  32.555  62.714  1.00  0.00     0.006 C 
ATOM     18  C   UNL     1       6.146  32.294  65.233  1.00  0.00     0.008 C 
ATOM     19  C   UNL     1       8.018  31.310  63.870  1.00  0.00     0.012 C 
ATOM     20  C   UNL     1       6.497  34.133  62.868  1.00  0.00    -0.025 C 
ATOM     21  C   UNL     1       6.823  33.648  65.395  1.00  0.00     0.005 C 
ATOM     22  C   UNL     1       6.315  34.638  64.338  1.00  0.00     0.003 C 
ATOM     23  C   UNL     1       5.549  35.031  61.972  1.00  0.00     0.010 C 
ATOM     24  C   UNL     1       7.954  34.363  62.310  1.00  0.00     0.012 C 
ATOM     25  C   UNL     1       6.686  36.159  64.569  1.00  0.00    -0.006 C 
ATOM     26  C   UNL     1       5.824  36.541  62.110  1.00  0.00     0.033 C 
ATOM     27  C   UNL     1       5.903  37.088  63.550  1.00  0.00     0.120 C 
ATOM     28  C   UNL     1       8.235  36.412  64.521  1.00  0.00     0.014 C 
ATOM     29  C   UNL     1       6.242  36.574  66.024  1.00  0.00     0.014 C 
ENDROOT
BRANCH   1  30
ATOM     30  C   UNL     1       4.620  26.860  64.107  1.00  0.00     0.048 C 
ATOM     31  O   UNL     1       3.891  26.302  64.966  1.00  0.00    -0.550 OA
ATOM     32  O   UNL     1       3.837  26.237  65.061  1.00  0.00    -0.550 OA
ENDBRANCH   1  30
BRANCH  27  33
ATOM     33  O   UNL     1       6.484  38.377  63.529  1.00  0.00    -0.393 OA
ATOM     34  H   UNL     1       5.794  39.043  63.752  1.00  0.00     0.210 HD
ENDBRANCH  27  33
TORSDOF 2
ENDMDL
MODEL 8
REMARK VINA RESULT:    -5.361      5.718      7.718
REMARK INTER + INTRA:          -5.672
REMARK INTER:                  -5.855
REMARK INTRA:                   0.183
REMARK UNBOUND:                 0.159
REMARK SMILES CC1(C)CC[C@]2(C(=O)[O-])CC[C@@]3(C)C(=CC[C@H]4[C@@]5(C)CC[C@H](O)C(C)(C)[C@@H]5CC[C@]43C)[C@H]2C1
REMARK SMILES IDX 6 1 5 2 10 3 32 4 4 5 11 6 14 7 33 8 2 9 12 10 15 11 1 12
REMARK SMILES IDX 3 13 13 14 30 15 16 16 17 17 29 18 31 19 18 20 28 21 27 22
REMARK SMILES IDX 20 23 19 24 24 25 21 26 22 27 25 28 26 29 7 30 8 31 9 32
REMARK SMILES IDX 23 33
REMARK H PARENT 23 34
REMARK Flexibility Score: inf
ROOT
ATOM      1  C   UNL     1       2.545  38.313  63.314  1.00  0.00     0.017 C 
ATOM      2  C   UNL     1       1.281  38.563  62.452  1.00  0.00     0.014 C 
ATOM      3  C   UNL     1       3.905  39.036  62.887  1.00  0.00     0.014 C 
ATOM      4  C   UNL     1       2.793  36.779  63.260  1.00  0.00     0.028 C 
ATOM      5  C   UNL     1       0.157  37.497  62.714  1.00  0.00     0.007 C 
ATOM      6  C   UNL     1       5.206  38.580  63.722  1.00  0.00     0.013 C 
ATOM      7  C   UNL     1       4.277  36.399  63.343  1.00  0.00    -0.064 C 
ATOM      8  C   UNL     1       1.816  35.998  64.129  1.00  0.00     0.015 C 
ATOM      9  C   UNL     1       0.324  36.486  63.931  1.00  0.00    -0.035 C 
ATOM     10  C   UNL     1       5.174  37.115  64.357  1.00  0.00    -0.006 C 
ATOM     11  C   UNL     1       4.890  36.087  62.171  1.00  0.00    -0.027 C 
ATOM     12  C   UNL     1      -0.252  37.114  65.231  1.00  0.00     0.011 C 
ATOM     13  C   UNL     1      -0.570  35.217  63.687  1.00  0.00     0.011 C 
ATOM     14  C   UNL     1       4.532  37.292  65.796  1.00  0.00     0.017 C 
ATOM     15  C   UNL     1       6.568  36.264  64.529  1.00  0.00    -0.020 C 
ATOM     16  C   UNL     1       6.400  36.015  61.999  1.00  0.00     0.032 C 
ATOM     17  C   UNL     1       6.995  35.410  63.276  1.00  0.00     0.006 C 
ATOM     18  C   UNL     1       7.713  37.200  64.918  1.00  0.00     0.008 C 
ATOM     19  C   UNL     1       6.357  35.230  65.700  1.00  0.00     0.012 C 
ATOM     20  C   UNL     1       8.526  34.890  63.157  1.00  0.00    -0.025 C 
ATOM     21  C   UNL     1       9.052  36.503  65.118  1.00  0.00     0.005 C 
ATOM     22  C   UNL     1       9.545  35.887  63.802  1.00  0.00     0.003 C 
ATOM     23  C   UNL     1       8.977  34.709  61.650  1.00  0.00     0.010 C 
ATOM     24  C   UNL     1       8.582  33.447  63.795  1.00  0.00     0.012 C 
ATOM     25  C   UNL     1      11.052  35.406  63.777  1.00  0.00    -0.006 C 
ATOM     26  C   UNL     1      10.436  34.234  61.500  1.00  0.00     0.033 C 
ATOM     27  C   UNL     1      11.492  35.020  62.302  1.00  0.00     0.120 C 
ATOM     28  C   UNL     1      11.327  34.242  64.793  1.00  0.00     0.014 C 
ATOM     29  C   UNL     1      11.972  36.596  64.248  1.00  0.00     0.014 C 
ENDROOT
BRANCH   1  30
ATOM     30  C   UNL     1       2.205  38.852  64.677  1.00  0.00     0.048 C 
ATOM     31  O   UNL     1       1.734  40.009  64.813  1.00  0.00    -0.550 OA
ATOM     32  O   UNL     1       1.686  40.121  64.849  1.00  0.00    -0.550 OA
ENDBRANCH   1  30
BRANCH  27  33
ATOM     33  O   UNL     1      12.697  34.282  62.338  1.00  0.00    -0.393 OA
ATOM     34  H   UNL     1      12.489  33.323  62.254  1.00  0.00     0.210 HD
ENDBRANCH  27  33
TORSDOF 2
ENDMDL
MODEL 9
REMARK VINA RESULT:    -5.237      5.462      9.615
REMARK INTER + INTRA:          -5.537
REMARK INTER:                  -5.702
REMARK INTRA:                   0.165
REMARK UNBOUND:                 0.159
REMARK SMILES CC1(C)CC[C@]2(C(=O)[O-])CC[C@@]3(C)C(=CC[C@H]4[C@@]5(C)CC[C@H](O)C(C)(C)[C@@H]5CC[C@]43C)[C@H]2C1
REMARK SMILES IDX 6 1 5 2 10 3 32 4 4 5 11 6 14 7 33 8 2 9 12 10 15 11 1 12
REMARK SMILES IDX 3 13 13 14 30 15 16 16 17 17 29 18 31 19 18 20 28 21 27 22
REMARK SMILES IDX 20 23 19 24 24 25 21 26 22 27 25 28 26 29 7 30 8 31 9 32
REMARK SMILES IDX 23 33
REMARK H PARENT 23 34
REMARK Flexibility Score: inf
ROOT
ATOM      1  C   UNL     1      10.044  22.533  64.401  1.00  0.00     0.017 C 
ATOM      2  C   UNL     1      10.378  21.031  64.594  1.00  0.00     0.014 C 
ATOM      3  C   UNL     1       8.777  23.129  65.170  1.00  0.00     0.014 C 
ATOM      4  C   UNL     1       9.795  22.713  62.876  1.00  0.00     0.028 C 
ATOM      5  C   UNL     1      11.353  20.486  63.490  1.00  0.00     0.007 C 
ATOM      6  C   UNL     1       8.394  24.643  64.772  1.00  0.00     0.013 C 
ATOM      7  C   UNL     1       8.765  23.803  62.553  1.00  0.00    -0.064 C 
ATOM      8  C   UNL     1      11.086  22.702  62.067  1.00  0.00     0.015 C 
ATOM      9  C   UNL     1      12.045  21.520  62.497  1.00  0.00    -0.035 C 
ATOM     10  C   UNL     1       8.822  25.132  63.313  1.00  0.00    -0.006 C 
ATOM     11  C   UNL     1       7.509  23.380  62.253  1.00  0.00    -0.027 C 
ATOM     12  C   UNL     1      13.369  22.051  63.116  1.00  0.00     0.011 C 
ATOM     13  C   UNL     1      12.502  20.772  61.193  1.00  0.00     0.011 C 
ATOM     14  C   UNL     1      10.280  25.734  63.479  1.00  0.00     0.017 C 
ATOM     15  C   UNL     1       7.908  26.240  62.517  1.00  0.00    -0.020 C 
ATOM     16  C   UNL     1       6.290  24.293  62.237  1.00  0.00     0.032 C 
ATOM     17  C   UNL     1       6.720  25.649  61.667  1.00  0.00     0.006 C 
ATOM     18  C   UNL     1       7.361  27.277  63.499  1.00  0.00     0.008 C 
ATOM     19  C   UNL     1       8.844  26.982  61.487  1.00  0.00     0.012 C 
ATOM     20  C   UNL     1       5.514  26.628  61.204  1.00  0.00    -0.025 C 
ATOM     21  C   UNL     1       6.510  28.363  62.855  1.00  0.00     0.005 C 
ATOM     22  C   UNL     1       5.236  27.762  62.245  1.00  0.00     0.003 C 
ATOM     23  C   UNL     1       4.149  25.847  61.025  1.00  0.00     0.010 C 
ATOM     24  C   UNL     1       5.881  27.178  59.771  1.00  0.00     0.012 C 
ATOM     25  C   UNL     1       4.112  28.793  61.821  1.00  0.00    -0.006 C 
ATOM     26  C   UNL     1       2.975  26.752  60.604  1.00  0.00     0.033 C 
ATOM     27  C   UNL     1       2.773  28.034  61.438  1.00  0.00     0.120 C 
ATOM     28  C   UNL     1       4.585  29.759  60.678  1.00  0.00     0.014 C 
ATOM     29  C   UNL     1       3.791  29.726  63.050  1.00  0.00     0.014 C 
ENDROOT
BRANCH   1  30
ATOM     30  C   UNL     1      11.237  23.273  64.939  1.00  0.00     0.048 C 
ATOM     31  O   UNL     1      11.538  23.211  66.158  1.00  0.00    -0.550 OA
ATOM     32  O   UNL     1      11.586  23.219  66.276  1.00  0.00    -0.550 OA
ENDBRANCH   1  30
BRANCH  27  33
ATOM     33  O   UNL     1       1.905  28.910  60.746  1.00  0.00    -0.393 OA
ATOM     34  H   UNL     1       2.033  29.824  61.089  1.00  0.00     0.210 HD
ENDBRANCH  27  33
TORSDOF 2
ENDMDL
