MODEL 1
REMARK VINA RESULT:    -4.223      0.000      0.000
REMARK INTER + INTRA:         -14.830
REMARK INTER:                 -11.136
REMARK INTRA:                  -3.695
REMARK UNBOUND:                -3.695
REMARK SMILES CCCCCCCCCCCCCCCCCCCCCCCCCCCCCC(=O)[O-]
REMARK SMILES IDX 16 1 17 2 18 3 19 4 20 5 21 6 22 7 23 8 24 9 25 10 26 11
REMARK SMILES IDX 27 12 28 13 29 14 30 15 31 16 32 17 15 18 14 19 13 20 12 21
REMARK SMILES IDX 11 22 10 23 9 24 8 25 7 26 6 27 5 28 4 29 3 30 2 31 1 32
REMARK H PARENT
REMARK Flexibility Score: inf
ROOT
ATOM      1  C   UNL     1      19.237  17.272 -11.751  1.00  0.00     0.000 C 
ENDROOT
BRANCH   1   2
ATOM      2  C   UNL     1      19.454  17.784 -13.187  1.00  0.00     0.000 C 
BRANCH   2   3
ATOM      3  C   UNL     1      18.282  18.642 -13.691  1.00  0.00     0.000 C 
BRANCH   3   4
ATOM      4  C   UNL     1      18.592  20.148 -13.628  1.00  0.00     0.000 C 
BRANCH   4   5
ATOM      5  C   UNL     1      17.348  21.001 -13.334  1.00  0.00     0.000 C 
BRANCH   5   6
ATOM      6  C   UNL     1      16.512  20.445 -12.169  1.00  0.00     0.000 C 
BRANCH   6   7
ATOM      7  C   UNL     1      15.235  21.276 -11.960  1.00  0.00     0.000 C 
BRANCH   7   8
ATOM      8  C   UNL     1      15.335  22.671 -12.613  1.00  0.00     0.000 C 
BRANCH   8   9
ATOM      9  C   UNL     1      14.026  23.147 -13.267  1.00  0.00     0.000 C 
BRANCH   9  10
ATOM     10  C   UNL     1      12.801  22.345 -12.807  1.00  0.00     0.000 C 
BRANCH  10  11
ATOM     11  C   UNL     1      11.503  23.125 -13.058  1.00  0.00     0.000 C 
BRANCH  11  12
ATOM     12  C   UNL     1      10.618  23.239 -11.802  1.00  0.00     0.000 C 
BRANCH  12  13
ATOM     13  C   UNL     1      10.293  24.680 -11.356  1.00  0.00     0.006 C 
BRANCH  13  14
ATOM     14  C   UNL     1      11.471  25.661 -11.455  1.00  0.00     0.053 C 
BRANCH  14  15
ATOM     15  C   UNL     1      12.426  25.507 -10.311  1.00  0.00     0.041 C 
ATOM     16  O   UNL     1      13.611  25.137 -10.519  1.00  0.00    -0.550 OA
ATOM     17  O   UNL     1      12.013  25.797  -9.018  1.00  0.00    -0.550 OA
ENDBRANCH  14  15
ENDBRANCH  13  14
ENDBRANCH  12  13
ENDBRANCH  11  12
ENDBRANCH  10  11
ENDBRANCH   9  10
ENDBRANCH   8   9
ENDBRANCH   7   8
ENDBRANCH   6   7
ENDBRANCH   5   6
ENDBRANCH   4   5
ENDBRANCH   3   4
ENDBRANCH   2   3
ENDBRANCH   1   2
BRANCH   1  18
ATOM     18  C   UNL     1      19.706  18.276 -10.681  1.00  0.00     0.000 C 
BRANCH  18  19
ATOM     19  C   UNL     1      21.056  17.940 -10.021  1.00  0.00     0.000 C 
BRANCH  19  20
ATOM     20  C   UNL     1      21.221  16.442  -9.730  1.00  0.00     0.000 C 
BRANCH  20  21
ATOM     21  C   UNL     1      22.666  16.124  -9.313  1.00  0.00     0.000 C 
BRANCH  21  22
ATOM     22  C   UNL     1      22.781  15.658  -7.848  1.00  0.00     0.000 C 
BRANCH  22  23
ATOM     23  C   UNL     1      23.460  14.285  -7.672  1.00  0.00     0.000 C 
BRANCH  23  24
ATOM     24  C   UNL     1      22.529  13.130  -7.258  1.00  0.00    -0.000 C 
BRANCH  24  25
ATOM     25  C   UNL     1      21.031  13.486  -7.203  1.00  0.00    -0.000 C 
BRANCH  25  26
ATOM     26  C   UNL     1      20.167  12.548  -8.061  1.00  0.00    -0.000 C 
BRANCH  26  27
ATOM     27  C   UNL     1      19.596  13.280  -9.282  1.00  0.00    -0.000 C 
BRANCH  27  28
ATOM     28  C   UNL     1      20.045  12.598 -10.585  1.00  0.00    -0.000 C 
BRANCH  28  29
ATOM     29  C   UNL     1      20.145  13.589 -11.764  1.00  0.00    -0.000 C 
BRANCH  29  30
ATOM     30  C   UNL     1      21.589  13.865 -12.216  1.00  0.00    -0.000 C 
BRANCH  30  31
ATOM     31  C   UNL     1      21.676  14.873 -13.369  1.00  0.00    -0.003 C 
ATOM     32  C   UNL     1      22.738  15.933 -13.092  1.00  0.00     0.004 C 
ENDBRANCH  30  31
ENDBRANCH  29  30
ENDBRANCH  28  29
ENDBRANCH  27  28
ENDBRANCH  26  27
ENDBRANCH  25  26
ENDBRANCH  24  25
ENDBRANCH  23  24
ENDBRANCH  22  23
ENDBRANCH  21  22
ENDBRANCH  20  21
ENDBRANCH  19  20
ENDBRANCH  18  19
ENDBRANCH   1  18
TORSDOF 28
ENDMDL
MODEL 2
REMARK VINA RESULT:    -4.148     10.136     14.498
REMARK INTER + INTRA:         -14.633
REMARK INTER:                  -9.536
REMARK INTRA:                  -5.097
REMARK UNBOUND:                -3.695
REMARK SMILES CCCCCCCCCCCCCCCCCCCCCCCCCCCCCC(=O)[O-]
REMARK SMILES IDX 16 1 17 2 18 3 19 4 20 5 21 6 22 7 23 8 24 9 25 10 26 11
REMARK SMILES IDX 27 12 28 13 29 14 30 15 31 16 32 17 15 18 14 19 13 20 12 21
REMARK SMILES IDX 11 22 10 23 9 24 8 25 7 26 6 27 5 28 4 29 3 30 2 31 1 32
REMARK H PARENT
REMARK Flexibility Score: inf
ROOT
ATOM      1  C   UNL     1       9.759  13.779 -10.233  1.00  0.00     0.000 C 
ENDROOT
BRANCH   1   2
ATOM      2  C   UNL     1       9.678  12.711  -9.127  1.00  0.00     0.000 C 
BRANCH   2   3
ATOM      3  C   UNL     1       9.582  11.283  -9.691  1.00  0.00     0.000 C 
BRANCH   3   4
ATOM      4  C   UNL     1       8.553  10.425  -8.932  1.00  0.00     0.000 C 
BRANCH   4   5
ATOM      5  C   UNL     1       7.972  11.141  -7.703  1.00  0.00     0.000 C 
BRANCH   5   6
ATOM      6  C   UNL     1       8.089  10.302  -6.419  1.00  0.00     0.000 C 
BRANCH   6   7
ATOM      7  C   UNL     1       9.558  10.147  -5.993  1.00  0.00     0.000 C 
BRANCH   7   8
ATOM      8  C   UNL     1      10.154  11.470  -5.465  1.00  0.00     0.000 C 
BRANCH   8   9
ATOM      9  C   UNL     1      11.569  11.768  -5.988  1.00  0.00     0.000 C 
BRANCH   9  10
ATOM     10  C   UNL     1      12.252  10.537  -6.600  1.00  0.00     0.000 C 
BRANCH  10  11
ATOM     11  C   UNL     1      12.770  10.837  -8.014  1.00  0.00     0.000 C 
BRANCH  11  12
ATOM     12  C   UNL     1      13.369  12.250  -8.146  1.00  0.00     0.000 C 
BRANCH  12  13
ATOM     13  C   UNL     1      14.905  12.301  -8.290  1.00  0.00     0.006 C 
BRANCH  13  14
ATOM     14  C   UNL     1      15.651  12.736  -7.019  1.00  0.00     0.053 C 
BRANCH  14  15
ATOM     15  C   UNL     1      17.136  12.636  -7.180  1.00  0.00     0.041 C 
ATOM     16  O   UNL     1      17.901  13.352  -6.481  1.00  0.00    -0.550 OA
ATOM     17  O   UNL     1      17.678  11.732  -8.085  1.00  0.00    -0.550 OA
ENDBRANCH  14  15
ENDBRANCH  13  14
ENDBRANCH  12  13
ENDBRANCH  11  12
ENDBRANCH  10  11
ENDBRANCH   9  10
ENDBRANCH   8   9
ENDBRANCH   7   8
ENDBRANCH   6   7
ENDBRANCH   5   6
ENDBRANCH   4   5
ENDBRANCH   3   4
ENDBRANCH   2   3
ENDBRANCH   1   2
BRANCH   1  18
ATOM     18  C   UNL     1       8.571  14.759 -10.205  1.00  0.00     0.000 C 
BRANCH  18  19
ATOM     19  C   UNL     1       7.965  15.006  -8.811  1.00  0.00     0.000 C 
BRANCH  19  20
ATOM     20  C   UNL     1       7.853  16.498  -8.465  1.00  0.00     0.000 C 
BRANCH  20  21
ATOM     21  C   UNL     1       7.186  16.690  -7.094  1.00  0.00     0.000 C 
BRANCH  21  22
ATOM     22  C   UNL     1       5.942  17.599  -7.153  1.00  0.00     0.000 C 
BRANCH  22  23
ATOM     23  C   UNL     1       4.629  16.856  -7.466  1.00  0.00     0.000 C 
BRANCH  23  24
ATOM     24  C   UNL     1       4.581  15.377  -7.036  1.00  0.00    -0.000 C 
BRANCH  24  25
ATOM     25  C   UNL     1       4.276  14.377  -8.168  1.00  0.00    -0.000 C 
BRANCH  25  26
ATOM     26  C   UNL     1       4.618  14.935  -9.558  1.00  0.00    -0.000 C 
BRANCH  26  27
ATOM     27  C   UNL     1       4.596  13.829 -10.621  1.00  0.00    -0.000 C 
BRANCH  27  28
ATOM     28  C   UNL     1       5.600  12.717 -10.273  1.00  0.00    -0.000 C 
BRANCH  28  29
ATOM     29  C   UNL     1       5.606  11.580 -11.317  1.00  0.00    -0.000 C 
BRANCH  29  30
ATOM     30  C   UNL     1       6.941  11.441 -12.068  1.00  0.00    -0.000 C 
BRANCH  30  31
ATOM     31  C   UNL     1       7.241  12.633 -12.987  1.00  0.00    -0.003 C 
ATOM     32  C   UNL     1       6.067  12.914 -13.921  1.00  0.00     0.004 C 
ENDBRANCH  30  31
ENDBRANCH  29  30
ENDBRANCH  28  29
ENDBRANCH  27  28
ENDBRANCH  26  27
ENDBRANCH  25  26
ENDBRANCH  24  25
ENDBRANCH  23  24
ENDBRANCH  22  23
ENDBRANCH  21  22
ENDBRANCH  20  21
ENDBRANCH  19  20
ENDBRANCH  18  19
ENDBRANCH   1  18
TORSDOF 28
ENDMDL
MODEL 3
REMARK VINA RESULT:    -4.146      9.357     11.376
REMARK INTER + INTRA:         -14.627
REMARK INTER:                 -10.580
REMARK INTRA:                  -4.047
REMARK UNBOUND:                -3.695
REMARK SMILES CCCCCCCCCCCCCCCCCCCCCCCCCCCCCC(=O)[O-]
REMARK SMILES IDX 16 1 17 2 18 3 19 4 20 5 21 6 22 7 23 8 24 9 25 10 26 11
REMARK SMILES IDX 27 12 28 13 29 14 30 15 31 16 32 17 15 18 14 19 13 20 12 21
REMARK SMILES IDX 11 22 10 23 9 24 8 25 7 26 6 27 5 28 4 29 3 30 2 31 1 32
REMARK H PARENT
REMARK Flexibility Score: inf
ROOT
ATOM      1  C   UNL     1      10.654  11.530  -6.115  1.00  0.00     0.000 C 
ENDROOT
BRANCH   1   2
ATOM      2  C   UNL     1       9.687  10.562  -6.821  1.00  0.00     0.000 C 
BRANCH   2   3
ATOM      3  C   UNL     1       8.225  11.032  -6.749  1.00  0.00     0.000 C 
BRANCH   3   4
ATOM      4  C   UNL     1       7.818  11.861  -7.981  1.00  0.00     0.000 C 
BRANCH   4   5
ATOM      5  C   UNL     1       8.752  11.641  -9.182  1.00  0.00     0.000 C 
BRANCH   5   6
ATOM      6  C   UNL     1       9.329  12.957  -9.732  1.00  0.00     0.000 C 
BRANCH   6   7
ATOM      7  C   UNL     1       8.470  14.158  -9.302  1.00  0.00     0.000 C 
BRANCH   7   8
ATOM      8  C   UNL     1       8.235  15.149 -10.463  1.00  0.00     0.000 C 
BRANCH   8   9
ATOM      9  C   UNL     1       6.801  15.127 -11.019  1.00  0.00     0.000 C 
BRANCH   9  10
ATOM     10  C   UNL     1       5.922  14.053 -10.363  1.00  0.00     0.000 C 
BRANCH  10  11
ATOM     11  C   UNL     1       4.704  14.683  -9.671  1.00  0.00     0.000 C 
BRANCH  11  12
ATOM     12  C   UNL     1       4.590  14.293  -8.186  1.00  0.00     0.000 C 
BRANCH  12  13
ATOM     13  C   UNL     1       4.919  15.420  -7.183  1.00  0.00     0.006 C 
BRANCH  13  14
ATOM     14  C   UNL     1       5.548  16.672  -7.813  1.00  0.00     0.053 C 
BRANCH  14  15
ATOM     15  C   UNL     1       6.697  17.188  -7.004  1.00  0.00     0.041 C 
ATOM     16  O   UNL     1       6.510  17.618  -5.836  1.00  0.00    -0.550 OA
ATOM     17  O   UNL     1       7.982  17.169  -7.532  1.00  0.00    -0.550 OA
ENDBRANCH  14  15
ENDBRANCH  13  14
ENDBRANCH  12  13
ENDBRANCH  11  12
ENDBRANCH  10  11
ENDBRANCH   9  10
ENDBRANCH   8   9
ENDBRANCH   7   8
ENDBRANCH   6   7
ENDBRANCH   5   6
ENDBRANCH   4   5
ENDBRANCH   3   4
ENDBRANCH   2   3
ENDBRANCH   1   2
BRANCH   1  18
ATOM     18  C   UNL     1      10.540  11.476  -4.580  1.00  0.00     0.000 C 
BRANCH  18  19
ATOM     19  C   UNL     1      11.176  10.236  -3.925  1.00  0.00     0.000 C 
BRANCH  19  20
ATOM     20  C   UNL     1      12.090  10.588  -2.743  1.00  0.00     0.000 C 
BRANCH  20  21
ATOM     21  C   UNL     1      12.047  12.096  -2.451  1.00  0.00     0.000 C 
BRANCH  21  22
ATOM     22  C   UNL     1      12.775  12.479  -1.147  1.00  0.00     0.000 C 
BRANCH  22  23
ATOM     23  C   UNL     1      14.261  12.074  -1.110  1.00  0.00     0.000 C 
BRANCH  23  24
ATOM     24  C   UNL     1      15.080  12.648   0.062  1.00  0.00    -0.000 C 
BRANCH  24  25
ATOM     25  C   UNL     1      16.576  12.872  -0.234  1.00  0.00    -0.000 C 
BRANCH  25  26
ATOM     26  C   UNL     1      17.067  12.066  -1.446  1.00  0.00    -0.000 C 
BRANCH  26  27
ATOM     27  C   UNL     1      18.082  12.866  -2.271  1.00  0.00    -0.000 C 
BRANCH  27  28
ATOM     28  C   UNL     1      17.458  13.334  -3.597  1.00  0.00    -0.000 C 
BRANCH  28  29
ATOM     29  C   UNL     1      16.197  12.527  -3.972  1.00  0.00    -0.000 C 
BRANCH  29  30
ATOM     30  C   UNL     1      15.017  13.404  -4.425  1.00  0.00    -0.000 C 
BRANCH  30  31
ATOM     31  C   UNL     1      14.068  12.683  -5.391  1.00  0.00    -0.003 C 
ATOM     32  C   UNL     1      14.489  11.229  -5.591  1.00  0.00     0.004 C 
ENDBRANCH  30  31
ENDBRANCH  29  30
ENDBRANCH  28  29
ENDBRANCH  27  28
ENDBRANCH  26  27
ENDBRANCH  25  26
ENDBRANCH  24  25
ENDBRANCH  23  24
ENDBRANCH  22  23
ENDBRANCH  21  22
ENDBRANCH  20  21
ENDBRANCH  19  20
ENDBRANCH  18  19
ENDBRANCH   1  18
TORSDOF 28
ENDMDL
MODEL 4
REMARK VINA RESULT:    -4.102      4.011     12.735
REMARK INTER + INTRA:         -14.511
REMARK INTER:                 -11.084
REMARK INTRA:                  -3.427
REMARK UNBOUND:                -3.695
REMARK SMILES CCCCCCCCCCCCCCCCCCCCCCCCCCCCCC(=O)[O-]
REMARK SMILES IDX 16 1 17 2 18 3 19 4 20 5 21 6 22 7 23 8 24 9 25 10 26 11
REMARK SMILES IDX 27 12 28 13 29 14 30 15 31 16 32 17 15 18 14 19 13 20 12 21
REMARK SMILES IDX 11 22 10 23 9 24 8 25 7 26 6 27 5 28 4 29 3 30 2 31 1 32
REMARK H PARENT
REMARK Flexibility Score: inf
ROOT
ATOM      1  C   UNL     1      12.883  23.332 -14.058  1.00  0.00     0.000 C 
ENDROOT
BRANCH   1   2
ATOM      2  C   UNL     1      14.384  23.546 -13.790  1.00  0.00     0.000 C 
BRANCH   2   3
ATOM      3  C   UNL     1      14.885  22.752 -12.572  1.00  0.00     0.000 C 
BRANCH   3   4
ATOM      4  C   UNL     1      16.244  22.078 -12.834  1.00  0.00     0.000 C 
BRANCH   4   5
ATOM      5  C   UNL     1      16.356  20.690 -12.183  1.00  0.00     0.000 C 
BRANCH   5   6
ATOM      6  C   UNL     1      16.995  19.648 -13.117  1.00  0.00     0.000 C 
BRANCH   6   7
ATOM      7  C   UNL     1      18.384  20.108 -13.589  1.00  0.00     0.000 C 
BRANCH   7   8
ATOM      8  C   UNL     1      19.514  19.222 -13.023  1.00  0.00     0.000 C 
BRANCH   8   9
ATOM      9  C   UNL     1      19.026  18.143 -12.041  1.00  0.00     0.000 C 
BRANCH   9  10
ATOM     10  C   UNL     1      19.392  18.451 -10.583  1.00  0.00     0.000 C 
BRANCH  10  11
ATOM     11  C   UNL     1      20.848  18.064 -10.284  1.00  0.00     0.000 C 
BRANCH  11  12
ATOM     12  C   UNL     1      21.018  16.565  -9.975  1.00  0.00     0.000 C 
BRANCH  12  13
ATOM     13  C   UNL     1      22.185  16.218  -9.025  1.00  0.00     0.006 C 
BRANCH  13  14
ATOM     14  C   UNL     1      22.599  14.739  -9.035  1.00  0.00     0.053 C 
BRANCH  14  15
ATOM     15  C   UNL     1      21.612  13.877  -8.311  1.00  0.00     0.041 C 
ATOM     16  O   UNL     1      21.385  12.703  -8.704  1.00  0.00    -0.550 OA
ATOM     17  O   UNL     1      20.962  14.362  -7.184  1.00  0.00    -0.550 OA
ENDBRANCH  14  15
ENDBRANCH  13  14
ENDBRANCH  12  13
ENDBRANCH  11  12
ENDBRANCH  10  11
ENDBRANCH   9  10
ENDBRANCH   8   9
ENDBRANCH   7   8
ENDBRANCH   6   7
ENDBRANCH   5   6
ENDBRANCH   4   5
ENDBRANCH   3   4
ENDBRANCH   2   3
ENDBRANCH   1   2
BRANCH   1  18
ATOM     18  C   UNL     1      12.131  22.770 -12.836  1.00  0.00     0.000 C 
BRANCH  18  19
ATOM     19  C   UNL     1      11.086  23.719 -12.222  1.00  0.00     0.000 C 
BRANCH  19  20
ATOM     20  C   UNL     1      11.684  24.672 -11.178  1.00  0.00     0.000 C 
BRANCH  20  21
ATOM     21  C   UNL     1      11.984  26.044 -11.802  1.00  0.00     0.000 C 
BRANCH  21  22
ATOM     22  C   UNL     1      13.269  26.690 -11.247  1.00  0.00     0.000 C 
BRANCH  22  23
ATOM     23  C   UNL     1      14.184  25.719 -10.476  1.00  0.00     0.000 C 
BRANCH  23  24
ATOM     24  C   UNL     1      15.373  26.366  -9.739  1.00  0.00    -0.000 C 
BRANCH  24  25
ATOM     25  C   UNL     1      15.262  26.373  -8.202  1.00  0.00    -0.000 C 
BRANCH  25  26
ATOM     26  C   UNL     1      13.838  26.074  -7.709  1.00  0.00    -0.000 C 
BRANCH  26  27
ATOM     27  C   UNL     1      13.085  27.366  -7.370  1.00  0.00    -0.000 C 
BRANCH  27  28
ATOM     28  C   UNL     1      11.668  27.345  -7.968  1.00  0.00    -0.000 C 
BRANCH  28  29
ATOM     29  C   UNL     1      10.889  26.065  -7.595  1.00  0.00    -0.000 C 
BRANCH  29  30
ATOM     30  C   UNL     1       9.779  25.706  -8.597  1.00  0.00    -0.000 C 
BRANCH  30  31
ATOM     31  C   UNL     1       9.030  26.934  -9.131  1.00  0.00    -0.003 C 
ATOM     32  C   UNL     1       8.361  26.630 -10.468  1.00  0.00     0.004 C 
ENDBRANCH  30  31
ENDBRANCH  29  30
ENDBRANCH  28  29
ENDBRANCH  27  28
ENDBRANCH  26  27
ENDBRANCH  25  26
ENDBRANCH  24  25
ENDBRANCH  23  24
ENDBRANCH  22  23
ENDBRANCH  21  22
ENDBRANCH  20  21
ENDBRANCH  19  20
ENDBRANCH  18  19
ENDBRANCH   1  18
TORSDOF 28
ENDMDL
MODEL 5
REMARK VINA RESULT:    -4.080      9.459     14.054
REMARK INTER + INTRA:         -14.454
REMARK INTER:                 -10.061
REMARK INTRA:                  -4.393
REMARK UNBOUND:                -3.695
REMARK SMILES CCCCCCCCCCCCCCCCCCCCCCCCCCCCCC(=O)[O-]
REMARK SMILES IDX 16 1 17 2 18 3 19 4 20 5 21 6 22 7 23 8 24 9 25 10 26 11
REMARK SMILES IDX 27 12 28 13 29 14 30 15 31 16 32 17 15 18 14 19 13 20 12 21
REMARK SMILES IDX 11 22 10 23 9 24 8 25 7 26 6 27 5 28 4 29 3 30 2 31 1 32
REMARK H PARENT
REMARK Flexibility Score: inf
ROOT
ATOM      1  C   UNL     1       8.132  16.085  -9.233  1.00  0.00     0.000 C 
ENDROOT
BRANCH   1   2
ATOM      2  C   UNL     1       7.992  14.655  -8.679  1.00  0.00     0.000 C 
BRANCH   2   3
ATOM      3  C   UNL     1       8.812  13.630  -9.479  1.00  0.00     0.000 C 
BRANCH   3   4
ATOM      4  C   UNL     1       9.429  12.546  -8.576  1.00  0.00     0.000 C 
BRANCH   4   5
ATOM      5  C   UNL     1      10.879  12.209  -8.957  1.00  0.00     0.000 C 
BRANCH   5   6
ATOM      6  C   UNL     1      11.360  12.981 -10.197  1.00  0.00     0.000 C 
BRANCH   6   7
ATOM      7  C   UNL     1      12.512  12.241 -10.897  1.00  0.00     0.000 C 
BRANCH   7   8
ATOM      8  C   UNL     1      12.930  10.964 -10.137  1.00  0.00     0.000 C 
BRANCH   8   9
ATOM      9  C   UNL     1      14.408  10.950  -9.711  1.00  0.00     0.000 C 
BRANCH   9  10
ATOM     10  C   UNL     1      14.832  12.229  -8.976  1.00  0.00     0.000 C 
BRANCH  10  11
ATOM     11  C   UNL     1      15.776  11.909  -7.808  1.00  0.00     0.000 C 
BRANCH  11  12
ATOM     12  C   UNL     1      15.027  11.573  -6.505  1.00  0.00     0.000 C 
BRANCH  12  13
ATOM     13  C   UNL     1      15.298  12.531  -5.325  1.00  0.00     0.006 C 
BRANCH  13  14
ATOM     14  C   UNL     1      14.441  12.267  -4.078  1.00  0.00     0.053 C 
BRANCH  14  15
ATOM     15  C   UNL     1      14.616  13.334  -3.043  1.00  0.00     0.041 C 
ATOM     16  O   UNL     1      15.466  14.247  -3.209  1.00  0.00    -0.550 OA
ATOM     17  O   UNL     1      13.819  13.336  -1.905  1.00  0.00    -0.550 OA
ENDBRANCH  14  15
ENDBRANCH  13  14
ENDBRANCH  12  13
ENDBRANCH  11  12
ENDBRANCH  10  11
ENDBRANCH   9  10
ENDBRANCH   8   9
ENDBRANCH   7   8
ENDBRANCH   6   7
ENDBRANCH   5   6
ENDBRANCH   4   5
ENDBRANCH   3   4
ENDBRANCH   2   3
ENDBRANCH   1   2
BRANCH   1  18
ATOM     18  C   UNL     1       7.896  17.167  -8.163  1.00  0.00     0.000 C 
BRANCH  18  19
ATOM     19  C   UNL     1       7.205  16.671  -6.879  1.00  0.00     0.000 C 
BRANCH  19  20
ATOM     20  C   UNL     1       6.048  17.577  -6.436  1.00  0.00     0.000 C 
BRANCH  20  21
ATOM     21  C   UNL     1       4.698  16.866  -6.619  1.00  0.00     0.000 C 
BRANCH  21  22
ATOM     22  C   UNL     1       4.597  16.102  -7.956  1.00  0.00     0.000 C 
BRANCH  22  23
ATOM     23  C   UNL     1       4.361  14.587  -7.802  1.00  0.00     0.000 C 
BRANCH  23  24
ATOM     24  C   UNL     1       4.395  13.771  -9.109  1.00  0.00    -0.000 C 
BRANCH  24  25
ATOM     25  C   UNL     1       4.644  14.596 -10.387  1.00  0.00    -0.000 C 
BRANCH  25  26
ATOM     26  C   UNL     1       5.538  13.865 -11.399  1.00  0.00    -0.000 C 
BRANCH  26  27
ATOM     27  C   UNL     1       6.404  14.852 -12.191  1.00  0.00    -0.000 C 
BRANCH  27  28
ATOM     28  C   UNL     1       7.455  14.105 -13.029  1.00  0.00    -0.000 C 
BRANCH  28  29
ATOM     29  C   UNL     1       7.443  12.583 -12.770  1.00  0.00    -0.000 C 
BRANCH  29  30
ATOM     30  C   UNL     1       8.844  11.949 -12.760  1.00  0.00    -0.000 C 
BRANCH  30  31
ATOM     31  C   UNL     1       8.933  10.702 -11.871  1.00  0.00    -0.003 C 
ATOM     32  C   UNL     1       7.628  10.473 -11.114  1.00  0.00     0.004 C 
ENDBRANCH  30  31
ENDBRANCH  29  30
ENDBRANCH  28  29
ENDBRANCH  27  28
ENDBRANCH  26  27
ENDBRANCH  25  26
ENDBRANCH  24  25
ENDBRANCH  23  24
ENDBRANCH  22  23
ENDBRANCH  21  22
ENDBRANCH  20  21
ENDBRANCH  19  20
ENDBRANCH  18  19
ENDBRANCH   1  18
TORSDOF 28
ENDMDL
MODEL 6
REMARK VINA RESULT:    -4.059      9.491     14.585
REMARK INTER + INTRA:         -14.398
REMARK INTER:                 -10.235
REMARK INTRA:                  -4.163
REMARK UNBOUND:                -3.695
REMARK SMILES CCCCCCCCCCCCCCCCCCCCCCCCCCCCCC(=O)[O-]
REMARK SMILES IDX 16 1 17 2 18 3 19 4 20 5 21 6 22 7 23 8 24 9 25 10 26 11
REMARK SMILES IDX 27 12 28 13 29 14 30 15 31 16 32 17 15 18 14 19 13 20 12 21
REMARK SMILES IDX 11 22 10 23 9 24 8 25 7 26 6 27 5 28 4 29 3 30 2 31 1 32
REMARK H PARENT
REMARK Flexibility Score: inf
ROOT
ATOM      1  C   UNL     1       9.473   9.715  -3.888  1.00  0.00     0.000 C 
ENDROOT
BRANCH   1   2
ATOM      2  C   UNL     1      10.244   9.867  -2.564  1.00  0.00     0.000 C 
BRANCH   2   3
ATOM      3  C   UNL     1       9.911  11.178  -1.834  1.00  0.00     0.000 C 
BRANCH   3   4
ATOM      4  C   UNL     1      11.171  11.890  -1.311  1.00  0.00     0.000 C 
BRANCH   4   5
ATOM      5  C   UNL     1      12.378  11.731  -2.249  1.00  0.00     0.000 C 
BRANCH   5   6
ATOM      6  C   UNL     1      13.636  11.236  -1.516  1.00  0.00     0.000 C 
BRANCH   6   7
ATOM      7  C   UNL     1      14.532  10.408  -2.452  1.00  0.00     0.000 C 
BRANCH   7   8
ATOM      8  C   UNL     1      13.716   9.667  -3.533  1.00  0.00     0.000 C 
BRANCH   8   9
ATOM      9  C   UNL     1      14.393   9.641  -4.914  1.00  0.00     0.000 C 
BRANCH   9  10
ATOM     10  C   UNL     1      15.680  10.476  -4.966  1.00  0.00     0.000 C 
BRANCH  10  11
ATOM     11  C   UNL     1      15.521  11.679  -5.908  1.00  0.00     0.000 C 
BRANCH  11  12
ATOM     12  C   UNL     1      15.267  12.999  -5.157  1.00  0.00     0.000 C 
BRANCH  12  13
ATOM     13  C   UNL     1      16.418  13.468  -4.243  1.00  0.00     0.006 C 
BRANCH  13  14
ATOM     14  C   UNL     1      16.003  13.761  -2.793  1.00  0.00     0.053 C 
BRANCH  14  15
ATOM     15  C   UNL     1      17.026  13.280  -1.810  1.00  0.00     0.041 C 
ATOM     16  O   UNL     1      17.367  14.007  -0.841  1.00  0.00    -0.550 OA
ATOM     17  O   UNL     1      17.583  12.015  -1.950  1.00  0.00    -0.550 OA
ENDBRANCH  14  15
ENDBRANCH  13  14
ENDBRANCH  12  13
ENDBRANCH  11  12
ENDBRANCH  10  11
ENDBRANCH   9  10
ENDBRANCH   8   9
ENDBRANCH   7   8
ENDBRANCH   6   7
ENDBRANCH   5   6
ENDBRANCH   4   5
ENDBRANCH   3   4
ENDBRANCH   2   3
ENDBRANCH   1   2
BRANCH   1  18
ATOM     18  C   UNL     1      10.345  10.004  -5.125  1.00  0.00     0.000 C 
BRANCH  18  19
ATOM     19  C   UNL     1      10.445  11.489  -5.517  1.00  0.00     0.000 C 
BRANCH  19  20
ATOM     20  C   UNL     1      11.838  11.878  -6.033  1.00  0.00     0.000 C 
BRANCH  20  21
ATOM     21  C   UNL     1      12.115  11.226  -7.396  1.00  0.00     0.000 C 
BRANCH  21  22
ATOM     22  C   UNL     1      12.305  12.256  -8.528  1.00  0.00     0.000 C 
BRANCH  22  23
ATOM     23  C   UNL     1      11.239  12.181  -9.638  1.00  0.00     0.000 C 
BRANCH  23  24
ATOM     24  C   UNL     1       9.855  12.754  -9.273  1.00  0.00    -0.000 C 
BRANCH  24  25
ATOM     25  C   UNL     1       9.167  13.559 -10.392  1.00  0.00    -0.000 C 
BRANCH  25  26
ATOM     26  C   UNL     1       7.738  13.986 -10.022  1.00  0.00    -0.000 C 
BRANCH  26  27
ATOM     27  C   UNL     1       7.701  14.676  -8.653  1.00  0.00    -0.000 C 
BRANCH  27  28
ATOM     28  C   UNL     1       8.068  16.163  -8.781  1.00  0.00    -0.000 C 
BRANCH  28  29
ATOM     29  C   UNL     1       7.505  17.012  -7.621  1.00  0.00    -0.000 C 
BRANCH  29  30
ATOM     30  C   UNL     1       5.991  17.265  -7.722  1.00  0.00    -0.000 C 
BRANCH  30  31
ATOM     31  C   UNL     1       5.420  17.988  -6.495  1.00  0.00    -0.003 C 
ATOM     32  C   UNL     1       4.353  17.140  -5.806  1.00  0.00     0.004 C 
ENDBRANCH  30  31
ENDBRANCH  29  30
ENDBRANCH  28  29
ENDBRANCH  27  28
ENDBRANCH  26  27
ENDBRANCH  25  26
ENDBRANCH  24  25
ENDBRANCH  23  24
ENDBRANCH  22  23
ENDBRANCH  21  22
ENDBRANCH  20  21
ENDBRANCH  19  20
ENDBRANCH  18  19
ENDBRANCH   1  18
TORSDOF 28
ENDMDL
MODEL 7
REMARK VINA RESULT:    -4.041      9.780     14.424
REMARK INTER + INTRA:         -14.350
REMARK INTER:                 -10.620
REMARK INTRA:                  -3.730
REMARK UNBOUND:                -3.695
REMARK SMILES CCCCCCCCCCCCCCCCCCCCCCCCCCCCCC(=O)[O-]
REMARK SMILES IDX 16 1 17 2 18 3 19 4 20 5 21 6 22 7 23 8 24 9 25 10 26 11
REMARK SMILES IDX 27 12 28 13 29 14 30 15 31 16 32 17 15 18 14 19 13 20 12 21
REMARK SMILES IDX 11 22 10 23 9 24 8 25 7 26 6 27 5 28 4 29 3 30 2 31 1 32
REMARK H PARENT
REMARK Flexibility Score: inf
ROOT
ATOM      1  C   UNL     1      12.834  11.291  -6.687  1.00  0.00     0.000 C 
ENDROOT
BRANCH   1   2
ATOM      2  C   UNL     1      11.460  10.600  -6.740  1.00  0.00     0.000 C 
BRANCH   2   3
ATOM      3  C   UNL     1      10.293  11.598  -6.654  1.00  0.00     0.000 C 
BRANCH   3   4
ATOM      4  C   UNL     1       8.973  10.918  -6.248  1.00  0.00     0.000 C 
BRANCH   4   5
ATOM      5  C   UNL     1       9.187   9.542  -5.599  1.00  0.00     0.000 C 
BRANCH   5   6
ATOM      6  C   UNL     1       8.926   9.556  -4.083  1.00  0.00     0.000 C 
BRANCH   6   7
ATOM      7  C   UNL     1      10.228   9.792  -3.300  1.00  0.00     0.000 C 
BRANCH   7   8
ATOM      8  C   UNL     1      10.335  11.238  -2.771  1.00  0.00     0.000 C 
BRANCH   8   9
ATOM      9  C   UNL     1      11.656  11.937  -3.136  1.00  0.00     0.000 C 
BRANCH   9  10
ATOM     10  C   UNL     1      12.407  12.474  -1.910  1.00  0.00     0.000 C 
BRANCH  10  11
ATOM     11  C   UNL     1      13.809  12.971  -2.293  1.00  0.00     0.000 C 
BRANCH  11  12
ATOM     12  C   UNL     1      14.007  13.091  -3.816  1.00  0.00     0.000 C 
BRANCH  12  13
ATOM     13  C   UNL     1      15.475  13.053  -4.293  1.00  0.00     0.006 C 
BRANCH  13  14
ATOM     14  C   UNL     1      16.428  12.286  -3.364  1.00  0.00     0.053 C 
BRANCH  14  15
ATOM     15  C   UNL     1      17.555  13.147  -2.885  1.00  0.00     0.041 C 
ATOM     16  O   UNL     1      18.559  13.347  -3.618  1.00  0.00    -0.550 OA
ATOM     17  O   UNL     1      17.485  13.752  -1.637  1.00  0.00    -0.550 OA
ENDBRANCH  14  15
ENDBRANCH  13  14
ENDBRANCH  12  13
ENDBRANCH  11  12
ENDBRANCH  10  11
ENDBRANCH   9  10
ENDBRANCH   8   9
ENDBRANCH   7   8
ENDBRANCH   6   7
ENDBRANCH   5   6
ENDBRANCH   4   5
ENDBRANCH   3   4
ENDBRANCH   2   3
ENDBRANCH   1   2
BRANCH   1  18
ATOM     18  C   UNL     1      12.965  12.441  -7.705  1.00  0.00     0.000 C 
BRANCH  18  19
ATOM     19  C   UNL     1      13.553  12.037  -9.069  1.00  0.00     0.000 C 
BRANCH  19  20
ATOM     20  C   UNL     1      12.490  11.940 -10.172  1.00  0.00     0.000 C 
BRANCH  20  21
ATOM     21  C   UNL     1      11.424  13.034  -9.999  1.00  0.00     0.000 C 
BRANCH  21  22
ATOM     22  C   UNL     1       9.984  12.484 -10.046  1.00  0.00     0.000 C 
BRANCH  22  23
ATOM     23  C   UNL     1       9.190  12.896 -11.300  1.00  0.00     0.000 C 
BRANCH  23  24
ATOM     24  C   UNL     1       7.656  12.868 -11.157  1.00  0.00    -0.000 C 
BRANCH  24  25
ATOM     25  C   UNL     1       7.062  13.988 -10.281  1.00  0.00    -0.000 C 
BRANCH  25  26
ATOM     26  C   UNL     1       6.516  13.468  -8.943  1.00  0.00    -0.000 C 
BRANCH  26  27
ATOM     27  C   UNL     1       6.894  14.402  -7.786  1.00  0.00    -0.000 C 
BRANCH  27  28
ATOM     28  C   UNL     1       7.378  15.761  -8.320  1.00  0.00    -0.000 C 
BRANCH  28  29
ATOM     29  C   UNL     1       6.546  16.939  -7.770  1.00  0.00    -0.000 C 
BRANCH  29  30
ATOM     30  C   UNL     1       5.032  16.670  -7.753  1.00  0.00    -0.000 C 
BRANCH  30  31
ATOM     31  C   UNL     1       4.368  17.050  -6.424  1.00  0.00    -0.003 C 
ATOM     32  C   UNL     1       5.347  17.785  -5.512  1.00  0.00     0.004 C 
ENDBRANCH  30  31
ENDBRANCH  29  30
ENDBRANCH  28  29
ENDBRANCH  27  28
ENDBRANCH  26  27
ENDBRANCH  25  26
ENDBRANCH  24  25
ENDBRANCH  23  24
ENDBRANCH  22  23
ENDBRANCH  21  22
ENDBRANCH  20  21
ENDBRANCH  19  20
ENDBRANCH  18  19
ENDBRANCH   1  18
TORSDOF 28
ENDMDL
MODEL 8
REMARK VINA RESULT:    -4.019      8.688     14.032
REMARK INTER + INTRA:         -14.293
REMARK INTER:                 -10.435
REMARK INTRA:                  -3.858
REMARK UNBOUND:                -3.695
REMARK SMILES CCCCCCCCCCCCCCCCCCCCCCCCCCCCCC(=O)[O-]
REMARK SMILES IDX 16 1 17 2 18 3 19 4 20 5 21 6 22 7 23 8 24 9 25 10 26 11
REMARK SMILES IDX 27 12 28 13 29 14 30 15 31 16 32 17 15 18 14 19 13 20 12 21
REMARK SMILES IDX 11 22 10 23 9 24 8 25 7 26 6 27 5 28 4 29 3 30 2 31 1 32
REMARK H PARENT
REMARK Flexibility Score: inf
ROOT
ATOM      1  C   UNL     1      12.898  12.251  -6.678  1.00  0.00     0.000 C 
ENDROOT
BRANCH   1   2
ATOM      2  C   UNL     1      12.501  10.772  -6.511  1.00  0.00     0.000 C 
BRANCH   2   3
ATOM      3  C   UNL     1      11.937  10.467  -5.114  1.00  0.00     0.000 C 
BRANCH   3   4
ATOM      4  C   UNL     1      10.824  11.450  -4.707  1.00  0.00     0.000 C 
BRANCH   4   5
ATOM      5  C   UNL     1      10.663  11.569  -3.183  1.00  0.00     0.000 C 
BRANCH   5   6
ATOM      6  C   UNL     1      11.986  11.355  -2.430  1.00  0.00     0.000 C 
BRANCH   6   7
ATOM      7  C   UNL     1      12.479  12.666  -1.795  1.00  0.00     0.000 C 
BRANCH   7   8
ATOM      8  C   UNL     1      14.000  12.862  -1.972  1.00  0.00     0.000 C 
BRANCH   8   9
ATOM      9  C   UNL     1      14.535  12.380  -3.331  1.00  0.00     0.000 C 
BRANCH   9  10
ATOM     10  C   UNL     1      15.321  11.065  -3.232  1.00  0.00     0.000 C 
BRANCH  10  11
ATOM     11  C   UNL     1      15.598  10.479  -4.625  1.00  0.00     0.000 C 
BRANCH  11  12
ATOM     12  C   UNL     1      16.955  10.923  -5.203  1.00  0.00     0.000 C 
BRANCH  12  13
ATOM     13  C   UNL     1      17.995  11.384  -4.160  1.00  0.00     0.006 C 
BRANCH  13  14
ATOM     14  C   UNL     1      19.271  11.995  -4.758  1.00  0.00     0.053 C 
BRANCH  14  15
ATOM     15  C   UNL     1      18.976  13.208  -5.584  1.00  0.00     0.041 C 
ATOM     16  O   UNL     1      18.156  14.072  -5.175  1.00  0.00    -0.550 OA
ATOM     17  O   UNL     1      19.628  13.399  -6.796  1.00  0.00    -0.550 OA
ENDBRANCH  14  15
ENDBRANCH  13  14
ENDBRANCH  12  13
ENDBRANCH  11  12
ENDBRANCH  10  11
ENDBRANCH   9  10
ENDBRANCH   8   9
ENDBRANCH   7   8
ENDBRANCH   6   7
ENDBRANCH   5   6
ENDBRANCH   4   5
ENDBRANCH   3   4
ENDBRANCH   2   3
ENDBRANCH   1   2
BRANCH   1  18
ATOM     18  C   UNL     1      14.119  12.441  -7.599  1.00  0.00     0.000 C 
BRANCH  18  19
ATOM     19  C   UNL     1      14.218  11.440  -8.764  1.00  0.00     0.000 C 
BRANCH  19  20
ATOM     20  C   UNL     1      13.410  11.874  -9.995  1.00  0.00     0.000 C 
BRANCH  20  21
ATOM     21  C   UNL     1      12.444  10.762 -10.432  1.00  0.00     0.000 C 
BRANCH  21  22
ATOM     22  C   UNL     1      11.024  10.936  -9.856  1.00  0.00     0.000 C 
BRANCH  22  23
ATOM     23  C   UNL     1      10.617  12.402  -9.610  1.00  0.00     0.000 C 
BRANCH  23  24
ATOM     24  C   UNL     1       9.554  12.623  -8.516  1.00  0.00    -0.000 C 
BRANCH  24  25
ATOM     25  C   UNL     1       8.363  13.508  -8.933  1.00  0.00    -0.000 C 
BRANCH  25  26
ATOM     26  C   UNL     1       8.750  14.571  -9.973  1.00  0.00    -0.000 C 
BRANCH  26  27
ATOM     27  C   UNL     1       8.057  15.908  -9.687  1.00  0.00    -0.000 C 
BRANCH  27  28
ATOM     28  C   UNL     1       7.840  16.098  -8.176  1.00  0.00    -0.000 C 
BRANCH  28  29
ATOM     29  C   UNL     1       6.406  16.557  -7.839  1.00  0.00    -0.000 C 
BRANCH  29  30
ATOM     30  C   UNL     1       5.398  15.400  -7.729  1.00  0.00    -0.000 C 
BRANCH  30  31
ATOM     31  C   UNL     1       4.264  15.683  -6.736  1.00  0.00    -0.003 C 
ATOM     32  C   UNL     1       4.285  17.140  -6.279  1.00  0.00     0.004 C 
ENDBRANCH  30  31
ENDBRANCH  29  30
ENDBRANCH  28  29
ENDBRANCH  27  28
ENDBRANCH  26  27
ENDBRANCH  25  26
ENDBRANCH  24  25
ENDBRANCH  23  24
ENDBRANCH  22  23
ENDBRANCH  21  22
ENDBRANCH  20  21
ENDBRANCH  19  20
ENDBRANCH  18  19
ENDBRANCH   1  18
TORSDOF 28
ENDMDL
MODEL 9
REMARK VINA RESULT:    -4.010      8.768     10.646
REMARK INTER + INTRA:         -14.268
REMARK INTER:                 -10.808
REMARK INTRA:                  -3.460
REMARK UNBOUND:                -3.695
REMARK SMILES CCCCCCCCCCCCCCCCCCCCCCCCCCCCCC(=O)[O-]
REMARK SMILES IDX 16 1 17 2 18 3 19 4 20 5 21 6 22 7 23 8 24 9 25 10 26 11
REMARK SMILES IDX 27 12 28 13 29 14 30 15 31 16 32 17 15 18 14 19 13 20 12 21
REMARK SMILES IDX 11 22 10 23 9 24 8 25 7 26 6 27 5 28 4 29 3 30 2 31 1 32
REMARK H PARENT
REMARK Flexibility Score: inf
ROOT
ATOM      1  C   UNL     1      13.822  10.939  -9.164  1.00  0.00     0.000 C 
ENDROOT
BRANCH   1   2
ATOM      2  C   UNL     1      13.774  11.164 -10.686  1.00  0.00     0.000 C 
BRANCH   2   3
ATOM      3  C   UNL     1      12.570  12.016 -11.119  1.00  0.00     0.000 C 
BRANCH   3   4
ATOM      4  C   UNL     1      11.393  11.154 -11.610  1.00  0.00     0.000 C 
BRANCH   4   5
ATOM      5  C   UNL     1      10.063  11.522 -10.934  1.00  0.00     0.000 C 
BRANCH   5   6
ATOM      6  C   UNL     1       9.897  13.038 -10.739  1.00  0.00     0.000 C 
BRANCH   6   7
ATOM      7  C   UNL     1       8.515  13.373 -10.154  1.00  0.00     0.000 C 
BRANCH   7   8
ATOM      8  C   UNL     1       8.541  14.658  -9.298  1.00  0.00     0.000 C 
BRANCH   8   9
ATOM      9  C   UNL     1       7.177  15.360  -9.188  1.00  0.00     0.000 C 
BRANCH   9  10
ATOM     10  C   UNL     1       6.081  14.451  -8.616  1.00  0.00     0.000 C 
BRANCH  10  11
ATOM     11  C   UNL     1       4.752  15.208  -8.474  1.00  0.00     0.000 C 
BRANCH  11  12
ATOM     12  C   UNL     1       4.228  15.233  -7.026  1.00  0.00     0.000 C 
BRANCH  12  13
ATOM     13  C   UNL     1       4.136  16.634  -6.384  1.00  0.00     0.006 C 
BRANCH  13  14
ATOM     14  C   UNL     1       5.040  17.694  -7.031  1.00  0.00     0.053 C 
BRANCH  14  15
ATOM     15  C   UNL     1       6.295  17.913  -6.245  1.00  0.00     0.041 C 
ATOM     16  O   UNL     1       7.208  17.047  -6.250  1.00  0.00    -0.550 OA
ATOM     17  O   UNL     1       6.468  19.089  -5.527  1.00  0.00    -0.550 OA
ENDBRANCH  14  15
ENDBRANCH  13  14
ENDBRANCH  12  13
ENDBRANCH  11  12
ENDBRANCH  10  11
ENDBRANCH   9  10
ENDBRANCH   8   9
ENDBRANCH   7   8
ENDBRANCH   6   7
ENDBRANCH   5   6
ENDBRANCH   4   5
ENDBRANCH   3   4
ENDBRANCH   2   3
ENDBRANCH   1   2
BRANCH   1  18
ATOM     18  C   UNL     1      13.698  12.248  -8.362  1.00  0.00     0.000 C 
BRANCH  18  19
ATOM     19  C   UNL     1      12.708  12.197  -7.183  1.00  0.00     0.000 C 
BRANCH  19  20
ATOM     20  C   UNL     1      11.828  10.940  -7.197  1.00  0.00     0.000 C 
BRANCH  20  21
ATOM     21  C   UNL     1      10.344  11.317  -7.330  1.00  0.00     0.000 C 
BRANCH  21  22
ATOM     22  C   UNL     1       9.635  11.464  -5.968  1.00  0.00     0.000 C 
BRANCH  22  23
ATOM     23  C   UNL     1      10.281  10.653  -4.828  1.00  0.00     0.000 C 
BRANCH  23  24
ATOM     24  C   UNL     1      10.569  11.437  -3.533  1.00  0.00    -0.000 C 
BRANCH  24  25
ATOM     25  C   UNL     1      11.881  12.246  -3.538  1.00  0.00    -0.000 C 
BRANCH  25  26
ATOM     26  C   UNL     1      12.675  12.095  -2.232  1.00  0.00    -0.000 C 
BRANCH  26  27
ATOM     27  C   UNL     1      14.105  12.629  -2.386  1.00  0.00    -0.000 C 
BRANCH  27  28
ATOM     28  C   UNL     1      14.433  12.889  -3.866  1.00  0.00    -0.000 C 
BRANCH  28  29
ATOM     29  C   UNL     1      15.497  11.914  -4.414  1.00  0.00    -0.000 C 
BRANCH  29  30
ATOM     30  C   UNL     1      16.720  12.617  -5.028  1.00  0.00    -0.000 C 
BRANCH  30  31
ATOM     31  C   UNL     1      16.612  12.794  -6.547  1.00  0.00    -0.003 C 
ATOM     32  C   UNL     1      17.980  12.671  -7.213  1.00  0.00     0.004 C 
ENDBRANCH  30  31
ENDBRANCH  29  30
ENDBRANCH  28  29
ENDBRANCH  27  28
ENDBRANCH  26  27
ENDBRANCH  25  26
ENDBRANCH  24  25
ENDBRANCH  23  24
ENDBRANCH  22  23
ENDBRANCH  21  22
ENDBRANCH  20  21
ENDBRANCH  19  20
ENDBRANCH  18  19
ENDBRANCH   1  18
TORSDOF 28
ENDMDL
