MODEL 1
REMARK VINA RESULT:    -5.661      0.000      0.000
REMARK INTER + INTRA:          -6.383
REMARK INTER:                  -6.654
REMARK INTRA:                   0.271
REMARK UNBOUND:                 0.271
REMARK SMILES O=c1c(O)c(-c2ccc(O)cc2)oc2cc(O)cc(O)c12
REMARK SMILES IDX 5 1 3 2 2 3 1 4 21 5 19 6 18 7 16 8 15 9 14 10 13 11 6 12
REMARK SMILES IDX 7 13 8 14 9 15 12 16 11 17 10 18 4 20 20 22 17 24
REMARK H PARENT 10 19 4 21 20 23 17 25
REMARK Flexibility Score: inf
ROOT
ATOM      1  C   UNL     1     101.673 136.768  59.686  1.00  0.00     0.180 A 
ATOM      2  C   UNL     1     100.921 137.958  59.650  1.00  0.00     0.208 A 
ATOM      3  C   UNL     1      99.522 137.881  59.733  1.00  0.00     0.238 A 
ATOM      4  O   UNL     1      98.839 138.941  59.712  1.00  0.00    -0.285 OA
ATOM      5  C   UNL     1      98.899 136.620  59.828  1.00  0.00     0.111 A 
ATOM      6  C   UNL     1      97.494 136.455  59.911  1.00  0.00     0.134 A 
ATOM      7  C   UNL     1      96.950 135.164  59.995  1.00  0.00     0.093 A 
ATOM      8  C   UNL     1      97.779 134.041  59.997  1.00  0.00     0.123 A 
ATOM      9  C   UNL     1      99.166 134.197  59.916  1.00  0.00     0.094 A 
ATOM     10  C   UNL     1      99.729 135.474  59.833  1.00  0.00     0.146 A 
ATOM     11  O   UNL     1     101.048 135.596  59.762  1.00  0.00    -0.452 OA
ENDROOT
BRANCH   1  12
ATOM     12  C   UNL     1     103.151 136.768  59.624  1.00  0.00     0.021 A 
ATOM     13  C   UNL     1     103.907 137.838  60.139  1.00  0.00     0.016 A 
ATOM     14  C   UNL     1     105.304 137.805  60.090  1.00  0.00     0.047 A 
ATOM     15  C   UNL     1     105.963 136.701  59.542  1.00  0.00     0.115 A 
ATOM     16  C   UNL     1     103.821 135.653  59.093  1.00  0.00     0.016 A 
ATOM     17  C   UNL     1     105.219 135.623  59.045  1.00  0.00     0.047 A 
BRANCH  15  18
ATOM     18  O   UNL     1     107.355 136.682  59.498  1.00  0.00    -0.508 OA
ATOM     19  H   UNL     1     107.914 137.066  60.251  1.00  0.00     0.293 HD
ENDBRANCH  15  18
ENDBRANCH   1  12
BRANCH   2  20
ATOM     20  O   UNL     1     101.560 139.192  59.505  1.00  0.00    -0.502 OA
ATOM     21  H   UNL     1     102.560 139.272  59.360  1.00  0.00     0.293 HD
ENDBRANCH   2  20
BRANCH   6  22
ATOM     22  O   UNL     1      96.640 137.558  59.910  1.00  0.00    -0.507 OA
ATOM     23  H   UNL     1      96.106 137.817  59.089  1.00  0.00     0.293 HD
ENDBRANCH   6  22
BRANCH   8  24
ATOM     24  O   UNL     1      97.211 132.771  60.079  1.00  0.00    -0.508 OA
ATOM     25  H   UNL     1      97.727 131.942  59.808  1.00  0.00     0.293 HD
ENDBRANCH   8  24
TORSDOF 5
ENDMDL
MODEL 2
REMARK VINA RESULT:    -5.490      9.762     12.605
REMARK INTER + INTRA:          -6.182
REMARK INTER:                  -5.917
REMARK INTRA:                  -0.265
REMARK UNBOUND:                 0.271
REMARK SMILES O=c1c(O)c(-c2ccc(O)cc2)oc2cc(O)cc(O)c12
REMARK SMILES IDX 5 1 3 2 2 3 1 4 21 5 19 6 18 7 16 8 15 9 14 10 13 11 6 12
REMARK SMILES IDX 7 13 8 14 9 15 12 16 11 17 10 18 4 20 20 22 17 24
REMARK H PARENT 10 19 4 21 20 23 17 25
REMARK Flexibility Score: inf
ROOT
ATOM      1  C   UNL     1     110.027 141.843  52.585  1.00  0.00     0.180 A 
ATOM      2  C   UNL     1     109.801 140.957  53.656  1.00  0.00     0.208 A 
ATOM      3  C   UNL     1     108.508 140.854  54.191  1.00  0.00     0.238 A 
ATOM      4  O   UNL     1     108.292 140.056  55.144  1.00  0.00    -0.285 OA
ATOM      5  C   UNL     1     107.470 141.651  53.664  1.00  0.00     0.111 A 
ATOM      6  C   UNL     1     106.141 141.610  54.151  1.00  0.00     0.134 A 
ATOM      7  C   UNL     1     105.166 142.442  53.578  1.00  0.00     0.093 A 
ATOM      8  C   UNL     1     105.494 143.309  52.535  1.00  0.00     0.123 A 
ATOM      9  C   UNL     1     106.805 143.353  52.050  1.00  0.00     0.094 A 
ATOM     10  C   UNL     1     107.791 142.532  52.605  1.00  0.00     0.146 A 
ATOM     11  O   UNL     1     109.026 142.590  52.125  1.00  0.00    -0.452 OA
ENDROOT
BRANCH   1  12
ATOM     12  C   UNL     1     111.357 141.994  51.955  1.00  0.00     0.021 A 
ATOM     13  C   UNL     1     111.666 141.363  50.735  1.00  0.00     0.016 A 
ATOM     14  C   UNL     1     112.922 141.539  50.146  1.00  0.00     0.047 A 
ATOM     15  C   UNL     1     113.878 142.357  50.757  1.00  0.00     0.115 A 
ATOM     16  C   UNL     1     112.315 142.831  52.552  1.00  0.00     0.016 A 
ATOM     17  C   UNL     1     113.571 143.004  51.960  1.00  0.00     0.047 A 
BRANCH  15  18
ATOM     18  O   UNL     1     115.125 142.522  50.160  1.00  0.00    -0.508 OA
ATOM     19  H   UNL     1     115.926 141.972  50.445  1.00  0.00     0.293 HD
ENDBRANCH  15  18
ENDBRANCH   1  12
BRANCH   2  20
ATOM     20  O   UNL     1     110.857 140.216  54.192  1.00  0.00    -0.502 OA
ATOM     21  H   UNL     1     111.827 140.481  54.065  1.00  0.00     0.293 HD
ENDBRANCH   2  20
BRANCH   6  22
ATOM     22  O   UNL     1     105.783 140.754  55.193  1.00  0.00    -0.507 OA
ATOM     23  H   UNL     1     106.309 140.720  56.059  1.00  0.00     0.293 HD
ENDBRANCH   6  22
BRANCH   8  24
ATOM     24  O   UNL     1     104.507 144.125  51.986  1.00  0.00    -0.508 OA
ATOM     25  H   UNL     1     104.252 144.062  51.007  1.00  0.00     0.293 HD
ENDBRANCH   8  24
TORSDOF 5
ENDMDL
MODEL 3
REMARK VINA RESULT:    -5.467      9.652     12.677
REMARK INTER + INTRA:          -6.155
REMARK INTER:                  -5.873
REMARK INTRA:                  -0.281
REMARK UNBOUND:                 0.271
REMARK SMILES O=c1c(O)c(-c2ccc(O)cc2)oc2cc(O)cc(O)c12
REMARK SMILES IDX 5 1 3 2 2 3 1 4 21 5 19 6 18 7 16 8 15 9 14 10 13 11 6 12
REMARK SMILES IDX 7 13 8 14 9 15 12 16 11 17 10 18 4 20 20 22 17 24
REMARK H PARENT 10 19 4 21 20 23 17 25
REMARK Flexibility Score: inf
ROOT
ATOM      1  C   UNL     1     110.297 141.998  52.648  1.00  0.00     0.180 A 
ATOM      2  C   UNL     1     110.830 142.013  53.951  1.00  0.00     0.208 A 
ATOM      3  C   UNL     1     109.969 141.809  55.040  1.00  0.00     0.238 A 
ATOM      4  O   UNL     1     110.437 141.811  56.211  1.00  0.00    -0.285 OA
ATOM      5  C   UNL     1     108.591 141.614  54.811  1.00  0.00     0.111 A 
ATOM      6  C   UNL     1     107.656 141.405  55.854  1.00  0.00     0.134 A 
ATOM      7  C   UNL     1     106.299 141.227  55.544  1.00  0.00     0.093 A 
ATOM      8  C   UNL     1     105.861 141.255  54.219  1.00  0.00     0.123 A 
ATOM      9  C   UNL     1     106.780 141.459  53.186  1.00  0.00     0.094 A 
ATOM     10  C   UNL     1     108.136 141.637  53.472  1.00  0.00     0.146 A 
ATOM     11  O   UNL     1     108.989 141.825  52.472  1.00  0.00    -0.452 OA
ENDROOT
BRANCH   1  12
ATOM     12  C   UNL     1     111.143 142.186  51.448  1.00  0.00     0.021 A 
ATOM     13  C   UNL     1     111.889 141.125  50.904  1.00  0.00     0.016 A 
ATOM     14  C   UNL     1     112.663 141.321  49.755  1.00  0.00     0.047 A 
ATOM     15  C   UNL     1     112.689 142.571  49.129  1.00  0.00     0.115 A 
ATOM     16  C   UNL     1     111.158 143.434  50.802  1.00  0.00     0.016 A 
ATOM     17  C   UNL     1     111.933 143.627  49.654  1.00  0.00     0.047 A 
BRANCH  15  18
ATOM     18  O   UNL     1     113.465 142.753  47.987  1.00  0.00    -0.508 OA
ATOM     19  H   UNL     1     113.169 142.402  47.084  1.00  0.00     0.293 HD
ENDBRANCH  15  18
ENDBRANCH   1  12
BRANCH   2  20
ATOM     20  O   UNL     1     112.190 142.259  54.154  1.00  0.00    -0.502 OA
ATOM     21  H   UNL     1     112.782 142.662  53.436  1.00  0.00     0.293 HD
ENDBRANCH   2  20
BRANCH   6  22
ATOM     22  O   UNL     1     108.062 141.374  57.188  1.00  0.00    -0.507 OA
ATOM     23  H   UNL     1     108.096 140.509  57.715  1.00  0.00     0.293 HD
ENDBRANCH   6  22
BRANCH   8  24
ATOM     24  O   UNL     1     104.507 141.077  53.941  1.00  0.00    -0.508 OA
ATOM     25  H   UNL     1     104.181 140.887  53.000  1.00  0.00     0.293 HD
ENDBRANCH   8  24
TORSDOF 5
ENDMDL
MODEL 4
REMARK VINA RESULT:    -5.446      6.445     10.784
REMARK INTER + INTRA:          -6.131
REMARK INTER:                  -5.836
REMARK INTRA:                  -0.295
REMARK UNBOUND:                 0.271
REMARK SMILES O=c1c(O)c(-c2ccc(O)cc2)oc2cc(O)cc(O)c12
REMARK SMILES IDX 5 1 3 2 2 3 1 4 21 5 19 6 18 7 16 8 15 9 14 10 13 11 6 12
REMARK SMILES IDX 7 13 8 14 9 15 12 16 11 17 10 18 4 20 20 22 17 24
REMARK H PARENT 10 19 4 21 20 23 17 25
REMARK Flexibility Score: inf
ROOT
ATOM      1  C   UNL     1     108.587 139.467  56.723  1.00  0.00     0.180 A 
ATOM      2  C   UNL     1     109.886 139.923  57.020  1.00  0.00     0.208 A 
ATOM      3  C   UNL     1     110.442 140.946  56.236  1.00  0.00     0.238 A 
ATOM      4  O   UNL     1     111.601 141.369  56.498  1.00  0.00    -0.285 OA
ATOM      5  C   UNL     1     109.702 141.480  55.161  1.00  0.00     0.111 A 
ATOM      6  C   UNL     1     110.192 142.509  54.320  1.00  0.00     0.134 A 
ATOM      7  C   UNL     1     109.397 142.981  53.265  1.00  0.00     0.093 A 
ATOM      8  C   UNL     1     108.128 142.445  53.033  1.00  0.00     0.123 A 
ATOM      9  C   UNL     1     107.639 141.429  53.860  1.00  0.00     0.094 A 
ATOM     10  C   UNL     1     108.414 140.946  54.918  1.00  0.00     0.146 A 
ATOM     11  O   UNL     1     107.926 139.984  55.692  1.00  0.00    -0.452 OA
ENDROOT
BRANCH   1  12
ATOM     12  C   UNL     1     107.926 138.405  57.515  1.00  0.00     0.021 A 
ATOM     13  C   UNL     1     107.097 138.716  58.608  1.00  0.00     0.016 A 
ATOM     14  C   UNL     1     106.463 137.697  59.327  1.00  0.00     0.047 A 
ATOM     15  C   UNL     1     106.636 136.360  58.954  1.00  0.00     0.115 A 
ATOM     16  C   UNL     1     108.078 137.061  57.134  1.00  0.00     0.016 A 
ATOM     17  C   UNL     1     107.443 136.045  57.855  1.00  0.00     0.047 A 
BRANCH  15  18
ATOM     18  O   UNL     1     106.000 135.356  59.680  1.00  0.00    -0.508 OA
ATOM     19  H   UNL     1     105.169 134.895  59.329  1.00  0.00     0.293 HD
ENDBRANCH  15  18
ENDBRANCH   1  12
BRANCH   2  20
ATOM     20  O   UNL     1     110.618 139.343  58.059  1.00  0.00    -0.502 OA
ATOM     21  H   UNL     1     110.177 138.818  58.806  1.00  0.00     0.293 HD
ENDBRANCH   2  20
BRANCH   6  22
ATOM     22  O   UNL     1     111.456 143.063  54.525  1.00  0.00    -0.507 OA
ATOM     23  H   UNL     1     112.289 142.652  54.122  1.00  0.00     0.293 HD
ENDBRANCH   6  22
BRANCH   8  24
ATOM     24  O   UNL     1     107.361 142.932  51.977  1.00  0.00    -0.508 OA
ATOM     25  H   UNL     1     107.738 143.596  51.311  1.00  0.00     0.293 HD
ENDBRANCH   8  24
TORSDOF 5
ENDMDL
MODEL 5
REMARK VINA RESULT:    -5.406      8.174      9.652
REMARK INTER + INTRA:          -6.084
REMARK INTER:                  -5.832
REMARK INTRA:                  -0.252
REMARK UNBOUND:                 0.271
REMARK SMILES O=c1c(O)c(-c2ccc(O)cc2)oc2cc(O)cc(O)c12
REMARK SMILES IDX 5 1 3 2 2 3 1 4 21 5 19 6 18 7 16 8 15 9 14 10 13 11 6 12
REMARK SMILES IDX 7 13 8 14 9 15 12 16 11 17 10 18 4 20 20 22 17 24
REMARK H PARENT 10 19 4 21 20 23 17 25
REMARK Flexibility Score: inf
ROOT
ATOM      1  C   UNL     1     108.134 140.082  56.171  1.00  0.00     0.180 A 
ATOM      2  C   UNL     1     108.986 140.405  55.097  1.00  0.00     0.208 A 
ATOM      3  C   UNL     1     108.481 141.173  54.037  1.00  0.00     0.238 A 
ATOM      4  O   UNL     1     109.238 141.477  53.074  1.00  0.00    -0.285 OA
ATOM      5  C   UNL     1     107.133 141.587  54.057  1.00  0.00     0.111 A 
ATOM      6  C   UNL     1     106.545 142.359  53.025  1.00  0.00     0.134 A 
ATOM      7  C   UNL     1     105.193 142.723  53.114  1.00  0.00     0.093 A 
ATOM      8  C   UNL     1     104.421 142.332  54.209  1.00  0.00     0.123 A 
ATOM      9  C   UNL     1     104.995 141.570  55.231  1.00  0.00     0.094 A 
ATOM     10  C   UNL     1     106.341 141.197  55.162  1.00  0.00     0.146 A 
ATOM     11  O   UNL     1     106.864 140.478  56.148  1.00  0.00    -0.452 OA
ENDROOT
BRANCH   1  12
ATOM     12  C   UNL     1     108.597 139.293  57.334  1.00  0.00     0.021 A 
ATOM     13  C   UNL     1     108.889 139.907  58.567  1.00  0.00     0.016 A 
ATOM     14  C   UNL     1     109.303 139.137  59.659  1.00  0.00     0.047 A 
ATOM     15  C   UNL     1     109.415 137.749  59.540  1.00  0.00     0.115 A 
ATOM     16  C   UNL     1     108.693 137.895  57.228  1.00  0.00     0.016 A 
ATOM     17  C   UNL     1     109.107 137.129  58.322  1.00  0.00     0.047 A 
BRANCH  15  18
ATOM     18  O   UNL     1     109.829 136.995  60.635  1.00  0.00    -0.508 OA
ATOM     19  H   UNL     1     109.798 135.982  60.624  1.00  0.00     0.293 HD
ENDBRANCH  15  18
ENDBRANCH   1  12
BRANCH   2  20
ATOM     20  O   UNL     1     110.303 139.941  55.078  1.00  0.00    -0.502 OA
ATOM     21  H   UNL     1     110.567 139.075  54.624  1.00  0.00     0.293 HD
ENDBRANCH   2  20
BRANCH   6  22
ATOM     22  O   UNL     1     107.291 142.765  51.918  1.00  0.00    -0.507 OA
ATOM     23  H   UNL     1     106.934 142.675  50.973  1.00  0.00     0.293 HD
ENDBRANCH   6  22
BRANCH   8  24
ATOM     24  O   UNL     1     103.080 142.707  54.271  1.00  0.00    -0.508 OA
ATOM     25  H   UNL     1     102.349 142.029  54.452  1.00  0.00     0.293 HD
ENDBRANCH   8  24
TORSDOF 5
ENDMDL
MODEL 6
REMARK VINA RESULT:    -5.387      9.145     11.105
REMARK INTER + INTRA:          -6.061
REMARK INTER:                  -5.773
REMARK INTRA:                  -0.288
REMARK UNBOUND:                 0.271
REMARK SMILES O=c1c(O)c(-c2ccc(O)cc2)oc2cc(O)cc(O)c12
REMARK SMILES IDX 5 1 3 2 2 3 1 4 21 5 19 6 18 7 16 8 15 9 14 10 13 11 6 12
REMARK SMILES IDX 7 13 8 14 9 15 12 16 11 17 10 18 4 20 20 22 17 24
REMARK H PARENT 10 19 4 21 20 23 17 25
REMARK Flexibility Score: inf
ROOT
ATOM      1  C   UNL     1     109.358 140.300  56.112  1.00  0.00     0.180 A 
ATOM      2  C   UNL     1     110.502 141.005  55.691  1.00  0.00     0.208 A 
ATOM      3  C   UNL     1     110.409 141.837  54.565  1.00  0.00     0.238 A 
ATOM      4  O   UNL     1     111.425 142.481  54.184  1.00  0.00    -0.285 OA
ATOM      5  C   UNL     1     109.187 141.935  53.869  1.00  0.00     0.111 A 
ATOM      6  C   UNL     1     109.012 142.748  52.723  1.00  0.00     0.134 A 
ATOM      7  C   UNL     1     107.764 142.785  52.081  1.00  0.00     0.093 A 
ATOM      8  C   UNL     1     106.694 142.027  52.560  1.00  0.00     0.123 A 
ATOM      9  C   UNL     1     106.861 141.223  53.692  1.00  0.00     0.094 A 
ATOM     10  C   UNL     1     108.095 141.173  54.347  1.00  0.00     0.146 A 
ATOM     11  O   UNL     1     108.226 140.406  55.422  1.00  0.00    -0.452 OA
ENDROOT
BRANCH   1  12
ATOM     12  C   UNL     1     109.370 139.418  57.301  1.00  0.00     0.021 A 
ATOM     13  C   UNL     1     109.657 138.045  57.192  1.00  0.00     0.016 A 
ATOM     14  C   UNL     1     109.687 137.235  58.332  1.00  0.00     0.047 A 
ATOM     15  C   UNL     1     109.446 137.788  59.594  1.00  0.00     0.115 A 
ATOM     16  C   UNL     1     109.149 139.969  58.574  1.00  0.00     0.016 A 
ATOM     17  C   UNL     1     109.179 139.158  59.712  1.00  0.00     0.047 A 
BRANCH  15  18
ATOM     18  O   UNL     1     109.476 136.970  60.720  1.00  0.00    -0.508 OA
ATOM     19  H   UNL     1     109.919 136.058  60.701  1.00  0.00     0.293 HD
ENDBRANCH  15  18
ENDBRANCH   1  12
BRANCH   2  20
ATOM     20  O   UNL     1     111.714 140.852  56.367  1.00  0.00    -0.502 OA
ATOM     21  H   UNL     1     112.219 139.973  56.385  1.00  0.00     0.293 HD
ENDBRANCH   2  20
BRANCH   6  22
ATOM     22  O   UNL     1     110.062 143.516  52.219  1.00  0.00    -0.507 OA
ATOM     23  H   UNL     1     111.018 143.178  52.222  1.00  0.00     0.293 HD
ENDBRANCH   6  22
BRANCH   8  24
ATOM     24  O   UNL     1     105.467 142.081  51.903  1.00  0.00    -0.508 OA
ATOM     25  H   UNL     1     104.709 142.661  52.244  1.00  0.00     0.293 HD
ENDBRANCH   8  24
TORSDOF 5
ENDMDL
MODEL 7
REMARK VINA RESULT:    -5.368      6.442     11.366
REMARK INTER + INTRA:          -6.039
REMARK INTER:                  -5.773
REMARK INTRA:                  -0.266
REMARK UNBOUND:                 0.271
REMARK SMILES O=c1c(O)c(-c2ccc(O)cc2)oc2cc(O)cc(O)c12
REMARK SMILES IDX 5 1 3 2 2 3 1 4 21 5 19 6 18 7 16 8 15 9 14 10 13 11 6 12
REMARK SMILES IDX 7 13 8 14 9 15 12 16 11 17 10 18 4 20 20 22 17 24
REMARK H PARENT 10 19 4 21 20 23 17 25
REMARK Flexibility Score: inf
ROOT
ATOM      1  C   UNL     1     108.986 139.376  57.145  1.00  0.00     0.180 A 
ATOM      2  C   UNL     1     108.464 140.249  56.170  1.00  0.00     0.208 A 
ATOM      3  C   UNL     1     109.288 141.261  55.655  1.00  0.00     0.238 A 
ATOM      4  O   UNL     1     108.834 142.043  54.774  1.00  0.00    -0.285 OA
ATOM      5  C   UNL     1     110.607 141.399  56.135  1.00  0.00     0.111 A 
ATOM      6  C   UNL     1     111.499 142.397  55.672  1.00  0.00     0.134 A 
ATOM      7  C   UNL     1     112.794 142.473  56.207  1.00  0.00     0.093 A 
ATOM      8  C   UNL     1     113.211 141.577  57.193  1.00  0.00     0.123 A 
ATOM      9  C   UNL     1     112.335 140.590  57.654  1.00  0.00     0.094 A 
ATOM     10  C   UNL     1     111.041 140.495  57.133  1.00  0.00     0.146 A 
ATOM     11  O   UNL     1     110.230 139.546  57.584  1.00  0.00    -0.452 OA
ENDROOT
BRANCH   1  12
ATOM     12  C   UNL     1     108.187 138.272  57.722  1.00  0.00     0.021 A 
ATOM     13  C   UNL     1     107.254 138.502  58.750  1.00  0.00     0.016 A 
ATOM     14  C   UNL     1     106.493 137.447  59.264  1.00  0.00     0.047 A 
ATOM     15  C   UNL     1     106.642 136.156  58.748  1.00  0.00     0.115 A 
ATOM     16  C   UNL     1     108.316 136.976  57.195  1.00  0.00     0.016 A 
ATOM     17  C   UNL     1     107.554 135.923  57.711  1.00  0.00     0.047 A 
BRANCH  15  18
ATOM     18  O   UNL     1     105.879 135.114  59.270  1.00  0.00    -0.508 OA
ATOM     19  H   UNL     1     105.102 134.717  58.755  1.00  0.00     0.293 HD
ENDBRANCH  15  18
ENDBRANCH   1  12
BRANCH   2  20
ATOM     20  O   UNL     1     107.139 140.123  55.747  1.00  0.00    -0.502 OA
ATOM     21  H   UNL     1     106.491 139.474  56.178  1.00  0.00     0.293 HD
ENDBRANCH   2  20
BRANCH   6  22
ATOM     22  O   UNL     1     111.111 143.307  54.689  1.00  0.00    -0.507 OA
ATOM     23  H   UNL     1     110.525 143.032  53.909  1.00  0.00     0.293 HD
ENDBRANCH   6  22
BRANCH   8  24
ATOM     24  O   UNL     1     114.502 141.677  57.708  1.00  0.00    -0.508 OA
ATOM     25  H   UNL     1     115.314 141.443  57.148  1.00  0.00     0.293 HD
ENDBRANCH   8  24
TORSDOF 5
ENDMDL
MODEL 8
REMARK VINA RESULT:    -5.278      9.365     12.392
REMARK INTER + INTRA:          -5.934
REMARK INTER:                  -5.692
REMARK INTRA:                  -0.242
REMARK UNBOUND:                 0.271
REMARK SMILES O=c1c(O)c(-c2ccc(O)cc2)oc2cc(O)cc(O)c12
REMARK SMILES IDX 5 1 3 2 2 3 1 4 21 5 19 6 18 7 16 8 15 9 14 10 13 11 6 12
REMARK SMILES IDX 7 13 8 14 9 15 12 16 11 17 10 18 4 20 20 22 17 24
REMARK H PARENT 10 19 4 21 20 23 17 25
REMARK Flexibility Score: inf
ROOT
ATOM      1  C   UNL     1     110.296 141.682  52.732  1.00  0.00     0.180 A 
ATOM      2  C   UNL     1     109.067 142.366  52.795  1.00  0.00     0.208 A 
ATOM      3  C   UNL     1     108.126 141.983  53.763  1.00  0.00     0.238 A 
ATOM      4  O   UNL     1     107.025 142.595  53.835  1.00  0.00    -0.285 OA
ATOM      5  C   UNL     1     108.418 140.914  54.635  1.00  0.00     0.111 A 
ATOM      6  C   UNL     1     107.522 140.464  55.635  1.00  0.00     0.134 A 
ATOM      7  C   UNL     1     107.885 139.387  56.458  1.00  0.00     0.093 A 
ATOM      8  C   UNL     1     109.119 138.754  56.301  1.00  0.00     0.123 A 
ATOM      9  C   UNL     1     110.008 139.195  55.316  1.00  0.00     0.094 A 
ATOM     10  C   UNL     1     109.667 140.267  54.486  1.00  0.00     0.146 A 
ATOM     11  O   UNL     1     110.531 140.669  53.562  1.00  0.00    -0.452 OA
ENDROOT
BRANCH   1  12
ATOM     12  C   UNL     1     111.346 142.039  51.752  1.00  0.00     0.021 A 
ATOM     13  C   UNL     1     112.130 143.197  51.908  1.00  0.00     0.016 A 
ATOM     14  C   UNL     1     113.133 143.502  50.982  1.00  0.00     0.047 A 
ATOM     15  C   UNL     1     113.376 142.648  49.901  1.00  0.00     0.115 A 
ATOM     16  C   UNL     1     111.610 141.176  50.675  1.00  0.00     0.016 A 
ATOM     17  C   UNL     1     112.613 141.483  49.751  1.00  0.00     0.047 A 
BRANCH  15  18
ATOM     18  O   UNL     1     114.377 142.965  48.986  1.00  0.00    -0.508 OA
ATOM     19  H   UNL     1     114.955 143.789  49.097  1.00  0.00     0.293 HD
ENDBRANCH  15  18
ENDBRANCH   1  12
BRANCH   2  20
ATOM     20  O   UNL     1     108.781 143.388  51.887  1.00  0.00    -0.502 OA
ATOM     21  H   UNL     1     107.954 143.379  51.301  1.00  0.00     0.293 HD
ENDBRANCH   2  20
BRANCH   6  22
ATOM     22  O   UNL     1     106.281 141.075  55.815  1.00  0.00    -0.507 OA
ATOM     23  H   UNL     1     105.724 140.914  56.646  1.00  0.00     0.293 HD
ENDBRANCH   6  22
BRANCH   8  24
ATOM     24  O   UNL     1     109.453 137.686  57.132  1.00  0.00    -0.508 OA
ATOM     25  H   UNL     1     110.408 137.360  57.216  1.00  0.00     0.293 HD
ENDBRANCH   8  24
TORSDOF 5
ENDMDL
MODEL 9
REMARK VINA RESULT:    -5.277      8.854     11.733
REMARK INTER + INTRA:          -5.932
REMARK INTER:                  -5.650
REMARK INTRA:                  -0.281
REMARK UNBOUND:                 0.271
REMARK SMILES O=c1c(O)c(-c2ccc(O)cc2)oc2cc(O)cc(O)c12
REMARK SMILES IDX 5 1 3 2 2 3 1 4 21 5 19 6 18 7 16 8 15 9 14 10 13 11 6 12
REMARK SMILES IDX 7 13 8 14 9 15 12 16 11 17 10 18 4 20 20 22 17 24
REMARK H PARENT 10 19 4 21 20 23 17 25
REMARK Flexibility Score: inf
ROOT
ATOM      1  C   UNL     1     108.999 140.416  55.524  1.00  0.00     0.180 A 
ATOM      2  C   UNL     1     107.739 140.813  55.037  1.00  0.00     0.208 A 
ATOM      3  C   UNL     1     107.680 141.657  53.917  1.00  0.00     0.238 A 
ATOM      4  O   UNL     1     106.556 142.011  53.465  1.00  0.00    -0.285 OA
ATOM      5  C   UNL     1     108.875 142.104  53.317  1.00  0.00     0.111 A 
ATOM      6  C   UNL     1     108.902 142.960  52.189  1.00  0.00     0.134 A 
ATOM      7  C   UNL     1     110.134 143.368  51.656  1.00  0.00     0.093 A 
ATOM      8  C   UNL     1     111.334 142.940  52.227  1.00  0.00     0.123 A 
ATOM      9  C   UNL     1     111.314 142.096  53.341  1.00  0.00     0.094 A 
ATOM     10  C   UNL     1     110.098 141.676  53.887  1.00  0.00     0.146 A 
ATOM     11  O   UNL     1     110.106 140.870  54.941  1.00  0.00    -0.452 OA
ENDROOT
BRANCH   1  12
ATOM     12  C   UNL     1     109.145 139.513  56.688  1.00  0.00     0.021 A 
ATOM     13  C   UNL     1     109.012 138.118  56.555  1.00  0.00     0.016 A 
ATOM     14  C   UNL     1     109.177 137.283  57.664  1.00  0.00     0.047 A 
ATOM     15  C   UNL     1     109.491 137.827  58.914  1.00  0.00     0.115 A 
ATOM     16  C   UNL     1     109.479 140.050  57.943  1.00  0.00     0.016 A 
ATOM     17  C   UNL     1     109.644 139.212  59.050  1.00  0.00     0.047 A 
BRANCH  15  18
ATOM     18  O   UNL     1     109.650 136.984  60.011  1.00  0.00    -0.508 OA
ATOM     19  H   UNL     1     109.760 135.983  59.898  1.00  0.00     0.293 HD
ENDBRANCH  15  18
ENDBRANCH   1  12
BRANCH   2  20
ATOM     20  O   UNL     1     106.571 140.396  55.679  1.00  0.00    -0.502 OA
ATOM     21  H   UNL     1     106.585 139.809  56.505  1.00  0.00     0.293 HD
ENDBRANCH   2  20
BRANCH   6  22
ATOM     22  O   UNL     1     107.720 143.405  51.597  1.00  0.00    -0.507 OA
ATOM     23  H   UNL     1     107.144 142.792  51.031  1.00  0.00     0.293 HD
ENDBRANCH   6  22
BRANCH   8  24
ATOM     24  O   UNL     1     112.543 143.362  51.678  1.00  0.00    -0.508 OA
ATOM     25  H   UNL     1     113.256 142.700  51.395  1.00  0.00     0.293 HD
ENDBRANCH   8  24
TORSDOF 5
ENDMDL
