MODEL 1
REMARK VINA RESULT:    -4.737      0.000      0.000
REMARK INTER + INTRA:         -11.431
REMARK INTER:                  -9.168
REMARK INTRA:                  -2.263
REMARK UNBOUND:                -2.263
REMARK SMILES CCCCCCCCCCCCCCCCCC(=O)[O-]
REMARK SMILES IDX 10 1 11 2 12 3 13 4 14 5 15 6 16 7 17 8 18 9 19 10 20 11
REMARK SMILES IDX 9 12 8 13 7 14 6 15 5 16 4 17 3 18 2 19 1 20
REMARK H PARENT
REMARK Flexibility Score: inf
ROOT
ATOM      1  C   UNL     1      46.490 -40.318  -3.218  1.00  0.00     0.000 C 
ENDROOT
BRANCH   1   2
ATOM      2  C   UNL     1      47.013 -40.049  -4.643  1.00  0.00     0.000 C 
BRANCH   2   3
ATOM      3  C   UNL     1      48.454 -40.548  -4.881  1.00  0.00     0.000 C 
BRANCH   3   4
ATOM      4  C   UNL     1      48.786 -41.804  -4.056  1.00  0.00     0.000 C 
BRANCH   4   5
ATOM      5  C   UNL     1      50.191 -41.751  -3.436  1.00  0.00     0.000 C 
BRANCH   5   6
ATOM      6  C   UNL     1      50.559 -40.349  -2.924  1.00  0.00     0.000 C 
BRANCH   6   7
ATOM      7  C   UNL     1      52.082 -40.146  -2.927  1.00  0.00     0.006 C 
BRANCH   7   8
ATOM      8  C   UNL     1      52.824 -41.304  -2.246  1.00  0.00     0.053 C 
BRANCH   8   9
ATOM      9  C   UNL     1      54.241 -40.939  -1.923  1.00  0.00     0.041 C 
ATOM     10  O   UNL     1      54.589 -39.729  -1.869  1.00  0.00    -0.550 OA
ATOM     11  O   UNL     1      55.171 -41.934  -1.652  1.00  0.00    -0.550 OA
ENDBRANCH   8   9
ENDBRANCH   7   8
ENDBRANCH   6   7
ENDBRANCH   5   6
ENDBRANCH   4   5
ENDBRANCH   3   4
ENDBRANCH   2   3
ENDBRANCH   1   2
BRANCH   1  12
ATOM     12  C   UNL     1      47.091 -39.418  -2.122  1.00  0.00     0.000 C 
BRANCH  12  13
ATOM     13  C   UNL     1      46.635 -37.948  -2.168  1.00  0.00    -0.000 C 
BRANCH  13  14
ATOM     14  C   UNL     1      47.813 -36.962  -2.237  1.00  0.00    -0.000 C 
BRANCH  14  15
ATOM     15  C   UNL     1      48.233 -36.643  -3.681  1.00  0.00    -0.000 C 
BRANCH  15  16
ATOM     16  C   UNL     1      49.562 -37.312  -4.073  1.00  0.00    -0.000 C 
BRANCH  16  17
ATOM     17  C   UNL     1      49.825 -37.244  -5.593  1.00  0.00    -0.000 C 
BRANCH  17  18
ATOM     18  C   UNL     1      51.284 -36.903  -5.950  1.00  0.00    -0.000 C 
BRANCH  18  19
ATOM     19  C   UNL     1      52.006 -37.973  -6.787  1.00  0.00    -0.003 C 
ATOM     20  C   UNL     1      51.327 -39.340  -6.711  1.00  0.00     0.004 C 
ENDBRANCH  18  19
ENDBRANCH  17  18
ENDBRANCH  16  17
ENDBRANCH  15  16
ENDBRANCH  14  15
ENDBRANCH  13  14
ENDBRANCH  12  13
ENDBRANCH   1  12
TORSDOF 16
ENDMDL
MODEL 2
REMARK VINA RESULT:    -4.521      1.597      3.498
REMARK INTER + INTRA:         -11.014
REMARK INTER:                  -8.610
REMARK INTRA:                  -2.404
REMARK UNBOUND:                -2.263
REMARK SMILES CCCCCCCCCCCCCCCCCC(=O)[O-]
REMARK SMILES IDX 10 1 11 2 12 3 13 4 14 5 15 6 16 7 17 8 18 9 19 10 20 11
REMARK SMILES IDX 9 12 8 13 7 14 6 15 5 16 4 17 3 18 2 19 1 20
REMARK H PARENT
REMARK Flexibility Score: inf
ROOT
ATOM      1  C   UNL     1      49.049 -41.550  -2.985  1.00  0.00     0.000 C 
ENDROOT
BRANCH   1   2
ATOM      2  C   UNL     1      49.514 -41.611  -4.453  1.00  0.00     0.000 C 
BRANCH   2   3
ATOM      3  C   UNL     1      49.253 -40.309  -5.242  1.00  0.00     0.000 C 
BRANCH   3   4
ATOM      4  C   UNL     1      50.497 -39.406  -5.316  1.00  0.00     0.000 C 
BRANCH   4   5
ATOM      5  C   UNL     1      50.444 -38.242  -4.314  1.00  0.00     0.000 C 
BRANCH   5   6
ATOM      6  C   UNL     1      51.645 -38.231  -3.355  1.00  0.00     0.000 C 
BRANCH   6   7
ATOM      7  C   UNL     1      52.146 -39.658  -3.087  1.00  0.00     0.006 C 
BRANCH   7   8
ATOM      8  C   UNL     1      53.484 -39.674  -2.337  1.00  0.00     0.053 C 
BRANCH   8   9
ATOM      9  C   UNL     1      53.839 -41.051  -1.866  1.00  0.00     0.041 C 
ATOM     10  O   UNL     1      52.936 -41.848  -1.495  1.00  0.00    -0.550 OA
ATOM     11  O   UNL     1      55.164 -41.466  -1.863  1.00  0.00    -0.550 OA
ENDBRANCH   8   9
ENDBRANCH   7   8
ENDBRANCH   6   7
ENDBRANCH   5   6
ENDBRANCH   4   5
ENDBRANCH   3   4
ENDBRANCH   2   3
ENDBRANCH   1   2
BRANCH   1  12
ATOM     12  C   UNL     1      47.844 -40.629  -2.719  1.00  0.00     0.000 C 
BRANCH  12  13
ATOM     13  C   UNL     1      48.094 -39.519  -1.681  1.00  0.00    -0.000 C 
BRANCH  13  14
ATOM     14  C   UNL     1      46.793 -38.980  -1.062  1.00  0.00    -0.000 C 
BRANCH  14  15
ATOM     15  C   UNL     1      45.539 -39.462  -1.808  1.00  0.00    -0.000 C 
BRANCH  15  16
ATOM     16  C   UNL     1      44.951 -38.384  -2.736  1.00  0.00    -0.000 C 
BRANCH  16  17
ATOM     17  C   UNL     1      44.650 -38.929  -4.149  1.00  0.00    -0.000 C 
BRANCH  17  18
ATOM     18  C   UNL     1      45.833 -38.795  -5.126  1.00  0.00    -0.000 C 
BRANCH  18  19
ATOM     19  C   UNL     1      46.772 -37.611  -4.838  1.00  0.00    -0.003 C 
ATOM     20  C   UNL     1      46.494 -36.405  -5.735  1.00  0.00     0.004 C 
ENDBRANCH  18  19
ENDBRANCH  17  18
ENDBRANCH  16  17
ENDBRANCH  15  16
ENDBRANCH  14  15
ENDBRANCH  13  14
ENDBRANCH  12  13
ENDBRANCH   1  12
TORSDOF 16
ENDMDL
MODEL 3
REMARK VINA RESULT:    -4.500      1.612      3.775
REMARK INTER + INTRA:         -10.972
REMARK INTER:                  -8.361
REMARK INTRA:                  -2.611
REMARK UNBOUND:                -2.263
REMARK SMILES CCCCCCCCCCCCCCCCCC(=O)[O-]
REMARK SMILES IDX 10 1 11 2 12 3 13 4 14 5 15 6 16 7 17 8 18 9 19 10 20 11
REMARK SMILES IDX 9 12 8 13 7 14 6 15 5 16 4 17 3 18 2 19 1 20
REMARK H PARENT
REMARK Flexibility Score: inf
ROOT
ATOM      1  C   UNL     1      46.398 -39.503  -4.553  1.00  0.00     0.000 C 
ENDROOT
BRANCH   1   2
ATOM      2  C   UNL     1      46.909 -40.632  -3.636  1.00  0.00     0.000 C 
BRANCH   2   3
ATOM      3  C   UNL     1      48.425 -40.895  -3.759  1.00  0.00     0.000 C 
BRANCH   3   4
ATOM      4  C   UNL     1      48.997 -40.422  -5.107  1.00  0.00     0.000 C 
BRANCH   4   5
ATOM      5  C   UNL     1      50.226 -39.513  -4.943  1.00  0.00     0.000 C 
BRANCH   5   6
ATOM      6  C   UNL     1      50.657 -39.361  -3.476  1.00  0.00     0.000 C 
BRANCH   6   7
ATOM      7  C   UNL     1      52.172 -39.562  -3.325  1.00  0.00     0.006 C 
BRANCH   7   8
ATOM      8  C   UNL     1      52.514 -40.773  -2.448  1.00  0.00     0.053 C 
BRANCH   8   9
ATOM      9  C   UNL     1      53.908 -40.688  -1.905  1.00  0.00     0.041 C 
ATOM     10  O   UNL     1      54.613 -41.727  -1.803  1.00  0.00    -0.550 OA
ATOM     11  O   UNL     1      54.439 -39.458  -1.540  1.00  0.00    -0.550 OA
ENDBRANCH   8   9
ENDBRANCH   7   8
ENDBRANCH   6   7
ENDBRANCH   5   6
ENDBRANCH   4   5
ENDBRANCH   3   4
ENDBRANCH   2   3
ENDBRANCH   1   2
BRANCH   1  12
ATOM     12  C   UNL     1      44.998 -38.963  -4.207  1.00  0.00     0.000 C 
BRANCH  12  13
ATOM     13  C   UNL     1      44.462 -39.393  -2.829  1.00  0.00    -0.000 C 
BRANCH  13  14
ATOM     14  C   UNL     1      44.227 -38.202  -1.883  1.00  0.00    -0.000 C 
BRANCH  14  15
ATOM     15  C   UNL     1      44.825 -38.430  -0.486  1.00  0.00    -0.000 C 
BRANCH  15  16
ATOM     16  C   UNL     1      45.726 -39.675  -0.424  1.00  0.00    -0.000 C 
BRANCH  16  17
ATOM     17  C   UNL     1      47.195 -39.319  -0.108  1.00  0.00    -0.000 C 
BRANCH  17  18
ATOM     18  C   UNL     1      47.542 -37.842  -0.375  1.00  0.00    -0.000 C 
BRANCH  18  19
ATOM     19  C   UNL     1      48.215 -37.577  -1.733  1.00  0.00    -0.003 C 
ATOM     20  C   UNL     1      47.451 -36.562  -2.584  1.00  0.00     0.004 C 
ENDBRANCH  18  19
ENDBRANCH  17  18
ENDBRANCH  16  17
ENDBRANCH  15  16
ENDBRANCH  14  15
ENDBRANCH  13  14
ENDBRANCH  12  13
ENDBRANCH   1  12
TORSDOF 16
ENDMDL
MODEL 4
REMARK VINA RESULT:    -4.488      1.658      3.596
REMARK INTER + INTRA:         -10.948
REMARK INTER:                  -8.480
REMARK INTRA:                  -2.468
REMARK UNBOUND:                -2.263
REMARK SMILES CCCCCCCCCCCCCCCCCC(=O)[O-]
REMARK SMILES IDX 10 1 11 2 12 3 13 4 14 5 15 6 16 7 17 8 18 9 19 10 20 11
REMARK SMILES IDX 9 12 8 13 7 14 6 15 5 16 4 17 3 18 2 19 1 20
REMARK H PARENT
REMARK Flexibility Score: inf
ROOT
ATOM      1  C   UNL     1      44.984 -39.173  -3.615  1.00  0.00     0.000 C 
ENDROOT
BRANCH   1   2
ATOM      2  C   UNL     1      46.088 -40.249  -3.664  1.00  0.00     0.000 C 
BRANCH   2   3
ATOM      3  C   UNL     1      46.865 -40.403  -2.339  1.00  0.00     0.000 C 
BRANCH   3   4
ATOM      4  C   UNL     1      48.377 -40.583  -2.561  1.00  0.00     0.000 C 
BRANCH   4   5
ATOM      5  C   UNL     1      48.724 -40.933  -4.016  1.00  0.00     0.000 C 
BRANCH   5   6
ATOM      6  C   UNL     1      50.239 -40.936  -4.278  1.00  0.00     0.000 C 
BRANCH   6   7
ATOM      7  C   UNL     1      51.024 -40.969  -2.958  1.00  0.00     0.006 C 
BRANCH   7   8
ATOM      8  C   UNL     1      52.160 -39.938  -2.932  1.00  0.00     0.053 C 
BRANCH   8   9
ATOM      9  C   UNL     1      53.341 -40.436  -2.154  1.00  0.00     0.041 C 
ATOM     10  O   UNL     1      53.428 -41.653  -1.841  1.00  0.00    -0.550 OA
ATOM     11  O   UNL     1      54.359 -39.560  -1.800  1.00  0.00    -0.550 OA
ENDBRANCH   8   9
ENDBRANCH   7   8
ENDBRANCH   6   7
ENDBRANCH   5   6
ENDBRANCH   4   5
ENDBRANCH   3   4
ENDBRANCH   2   3
ENDBRANCH   1   2
BRANCH   1  12
ATOM     12  C   UNL     1      45.129 -38.042  -4.650  1.00  0.00     0.000 C 
BRANCH  12  13
ATOM     13  C   UNL     1      46.542 -37.880  -5.238  1.00  0.00    -0.000 C 
BRANCH  13  14
ATOM     14  C   UNL     1      47.390 -36.847  -4.475  1.00  0.00    -0.000 C 
BRANCH  14  15
ATOM     15  C   UNL     1      48.886 -37.196  -4.472  1.00  0.00    -0.000 C 
BRANCH  15  16
ATOM     16  C   UNL     1      49.488 -37.211  -3.056  1.00  0.00    -0.000 C 
BRANCH  16  17
ATOM     17  C   UNL     1      48.434 -36.911  -1.969  1.00  0.00    -0.000 C 
BRANCH  17  18
ATOM     18  C   UNL     1      48.751 -35.657  -1.132  1.00  0.00    -0.000 C 
BRANCH  18  19
ATOM     19  C   UNL     1      48.965 -35.925   0.368  1.00  0.00    -0.003 C 
ATOM     20  C   UNL     1      47.872 -36.803   0.974  1.00  0.00     0.004 C 
ENDBRANCH  18  19
ENDBRANCH  17  18
ENDBRANCH  16  17
ENDBRANCH  15  16
ENDBRANCH  14  15
ENDBRANCH  13  14
ENDBRANCH  12  13
ENDBRANCH   1  12
TORSDOF 16
ENDMDL
MODEL 5
REMARK VINA RESULT:    -4.479      1.638      3.588
REMARK INTER + INTRA:         -10.931
REMARK INTER:                  -8.416
REMARK INTRA:                  -2.515
REMARK UNBOUND:                -2.263
REMARK SMILES CCCCCCCCCCCCCCCCCC(=O)[O-]
REMARK SMILES IDX 10 1 11 2 12 3 13 4 14 5 15 6 16 7 17 8 18 9 19 10 20 11
REMARK SMILES IDX 9 12 8 13 7 14 6 15 5 16 4 17 3 18 2 19 1 20
REMARK H PARENT
REMARK Flexibility Score: inf
ROOT
ATOM      1  C   UNL     1      47.705 -39.369  -0.755  1.00  0.00     0.000 C 
ENDROOT
BRANCH   1   2
ATOM      2  C   UNL     1      47.307 -37.884  -0.646  1.00  0.00     0.000 C 
BRANCH   2   3
ATOM      3  C   UNL     1      48.371 -36.913  -1.201  1.00  0.00     0.000 C 
BRANCH   3   4
ATOM      4  C   UNL     1      48.891 -37.337  -2.586  1.00  0.00     0.000 C 
BRANCH   4   5
ATOM      5  C   UNL     1      50.422 -37.267  -2.690  1.00  0.00     0.000 C 
BRANCH   5   6
ATOM      6  C   UNL     1      50.950 -37.828  -4.020  1.00  0.00     0.000 C 
BRANCH   6   7
ATOM      7  C   UNL     1      51.816 -39.075  -3.786  1.00  0.00     0.006 C 
BRANCH   7   8
ATOM      8  C   UNL     1      52.879 -38.850  -2.702  1.00  0.00     0.053 C 
BRANCH   8   9
ATOM      9  C   UNL     1      53.505 -40.139  -2.266  1.00  0.00     0.041 C 
ATOM     10  O   UNL     1      54.740 -40.193  -2.021  1.00  0.00    -0.550 OA
ATOM     11  O   UNL     1      52.721 -41.273  -2.100  1.00  0.00    -0.550 OA
ENDBRANCH   8   9
ENDBRANCH   7   8
ENDBRANCH   6   7
ENDBRANCH   5   6
ENDBRANCH   4   5
ENDBRANCH   3   4
ENDBRANCH   2   3
ENDBRANCH   1   2
BRANCH   1  12
ATOM     12  C   UNL     1      46.611 -40.300  -1.311  1.00  0.00     0.000 C 
BRANCH  12  13
ATOM     13  C   UNL     1      45.218 -39.657  -1.438  1.00  0.00    -0.000 C 
BRANCH  13  14
ATOM     14  C   UNL     1      44.740 -39.556  -2.897  1.00  0.00    -0.000 C 
BRANCH  14  15
ATOM     15  C   UNL     1      45.252 -38.289  -3.600  1.00  0.00    -0.000 C 
BRANCH  15  16
ATOM     16  C   UNL     1      46.011 -38.599  -4.902  1.00  0.00    -0.000 C 
BRANCH  16  17
ATOM     17  C   UNL     1      46.686 -39.988  -4.869  1.00  0.00    -0.000 C 
BRANCH  17  18
ATOM     18  C   UNL     1      48.202 -39.930  -4.602  1.00  0.00    -0.000 C 
BRANCH  18  19
ATOM     19  C   UNL     1      48.919 -41.288  -4.688  1.00  0.00    -0.003 C 
ATOM     20  C   UNL     1      49.415 -41.782  -3.330  1.00  0.00     0.004 C 
ENDBRANCH  18  19
ENDBRANCH  17  18
ENDBRANCH  16  17
ENDBRANCH  15  16
ENDBRANCH  14  15
ENDBRANCH  13  14
ENDBRANCH  12  13
ENDBRANCH   1  12
TORSDOF 16
ENDMDL
MODEL 6
REMARK VINA RESULT:    -4.476      1.799      2.389
REMARK INTER + INTRA:         -10.926
REMARK INTER:                  -8.990
REMARK INTRA:                  -1.936
REMARK UNBOUND:                -2.263
REMARK SMILES CCCCCCCCCCCCCCCCCC(=O)[O-]
REMARK SMILES IDX 10 1 11 2 12 3 13 4 14 5 15 6 16 7 17 8 18 9 19 10 20 11
REMARK SMILES IDX 9 12 8 13 7 14 6 15 5 16 4 17 3 18 2 19 1 20
REMARK H PARENT
REMARK Flexibility Score: inf
ROOT
ATOM      1  C   UNL     1      45.794 -38.728  -3.337  1.00  0.00     0.000 C 
ENDROOT
BRANCH   1   2
ATOM      2  C   UNL     1      45.977 -40.239  -3.579  1.00  0.00     0.000 C 
BRANCH   2   3
ATOM      3  C   UNL     1      47.403 -40.629  -4.024  1.00  0.00     0.000 C 
BRANCH   3   4
ATOM      4  C   UNL     1      48.394 -40.679  -2.848  1.00  0.00     0.000 C 
BRANCH   4   5
ATOM      5  C   UNL     1      49.574 -41.630  -3.106  1.00  0.00     0.000 C 
BRANCH   5   6
ATOM      6  C   UNL     1      50.698 -40.969  -3.919  1.00  0.00     0.000 C 
BRANCH   6   7
ATOM      7  C   UNL     1      51.744 -40.332  -2.991  1.00  0.00     0.006 C 
BRANCH   7   8
ATOM      8  C   UNL     1      52.483 -41.375  -2.143  1.00  0.00     0.053 C 
BRANCH   8   9
ATOM      9  C   UNL     1      53.888 -40.949  -1.843  1.00  0.00     0.041 C 
ATOM     10  O   UNL     1      54.149 -39.739  -1.611  1.00  0.00    -0.550 OA
ATOM     11  O   UNL     1      54.905 -41.894  -1.790  1.00  0.00    -0.550 OA
ENDBRANCH   8   9
ENDBRANCH   7   8
ENDBRANCH   6   7
ENDBRANCH   5   6
ENDBRANCH   4   5
ENDBRANCH   3   4
ENDBRANCH   2   3
ENDBRANCH   1   2
BRANCH   1  12
ATOM     12  C   UNL     1      46.332 -37.818  -4.457  1.00  0.00     0.000 C 
BRANCH  12  13
ATOM     13  C   UNL     1      45.494 -37.816  -5.748  1.00  0.00    -0.000 C 
BRANCH  13  14
ATOM     14  C   UNL     1      45.661 -36.522  -6.564  1.00  0.00    -0.000 C 
BRANCH  14  15
ATOM     15  C   UNL     1      46.382 -35.417  -5.777  1.00  0.00    -0.000 C 
BRANCH  15  16
ATOM     16  C   UNL     1      47.715 -35.002  -6.423  1.00  0.00    -0.000 C 
BRANCH  16  17
ATOM     17  C   UNL     1      48.909 -35.163  -5.458  1.00  0.00    -0.000 C 
BRANCH  17  18
ATOM     18  C   UNL     1      49.959 -36.180  -5.941  1.00  0.00    -0.000 C 
BRANCH  18  19
ATOM     19  C   UNL     1      50.127 -37.410  -5.032  1.00  0.00    -0.003 C 
ATOM     20  C   UNL     1      49.713 -37.137  -3.586  1.00  0.00     0.004 C 
ENDBRANCH  18  19
ENDBRANCH  17  18
ENDBRANCH  16  17
ENDBRANCH  15  16
ENDBRANCH  14  15
ENDBRANCH  13  14
ENDBRANCH  12  13
ENDBRANCH   1  12
TORSDOF 16
ENDMDL
MODEL 7
REMARK VINA RESULT:    -4.434      2.885      5.889
REMARK INTER + INTRA:         -10.845
REMARK INTER:                  -7.947
REMARK INTRA:                  -2.898
REMARK UNBOUND:                -2.263
REMARK SMILES CCCCCCCCCCCCCCCCCC(=O)[O-]
REMARK SMILES IDX 10 1 11 2 12 3 13 4 14 5 15 6 16 7 17 8 18 9 19 10 20 11
REMARK SMILES IDX 9 12 8 13 7 14 6 15 5 16 4 17 3 18 2 19 1 20
REMARK H PARENT
REMARK Flexibility Score: inf
ROOT
ATOM      1  C   UNL     1      50.893 -40.737  -2.561  1.00  0.00     0.000 C 
ENDROOT
BRANCH   1   2
ATOM      2  C   UNL     1      52.190 -40.034  -3.007  1.00  0.00     0.000 C 
BRANCH   2   3
ATOM      3  C   UNL     1      51.953 -38.679  -3.708  1.00  0.00     0.000 C 
BRANCH   3   4
ATOM      4  C   UNL     1      50.817 -37.870  -3.057  1.00  0.00     0.000 C 
BRANCH   4   5
ATOM      5  C   UNL     1      49.953 -37.126  -4.088  1.00  0.00     0.000 C 
BRANCH   5   6
ATOM      6  C   UNL     1      48.505 -36.928  -3.613  1.00  0.00     0.000 C 
BRANCH   6   7
ATOM      7  C   UNL     1      48.302 -37.518  -2.210  1.00  0.00     0.006 C 
BRANCH   7   8
ATOM      8  C   UNL     1      47.747 -36.486  -1.219  1.00  0.00     0.053 C 
BRANCH   8   9
ATOM      9  C   UNL     1      48.819 -35.948  -0.321  1.00  0.00     0.041 C 
ATOM     10  O   UNL     1      49.704 -35.178  -0.780  1.00  0.00    -0.550 OA
ATOM     11  O   UNL     1      48.823 -36.274   1.029  1.00  0.00    -0.550 OA
ENDBRANCH   8   9
ENDBRANCH   7   8
ENDBRANCH   6   7
ENDBRANCH   5   6
ENDBRANCH   4   5
ENDBRANCH   3   4
ENDBRANCH   2   3
ENDBRANCH   1   2
BRANCH   1  12
ATOM     12  C   UNL     1      50.490 -41.961  -3.404  1.00  0.00     0.000 C 
BRANCH  12  13
ATOM     13  C   UNL     1      49.072 -41.898  -4.001  1.00  0.00    -0.000 C 
BRANCH  13  14
ATOM     14  C   UNL     1      48.826 -40.616  -4.815  1.00  0.00    -0.000 C 
BRANCH  14  15
ATOM     15  C   UNL     1      47.366 -40.141  -4.742  1.00  0.00    -0.000 C 
BRANCH  15  16
ATOM     16  C   UNL     1      46.667 -40.573  -3.442  1.00  0.00    -0.000 C 
BRANCH  16  17
ATOM     17  C   UNL     1      45.227 -40.027  -3.342  1.00  0.00    -0.000 C 
BRANCH  17  18
ATOM     18  C   UNL     1      44.941 -38.862  -4.309  1.00  0.00    -0.000 C 
BRANCH  18  19
ATOM     19  C   UNL     1      44.825 -37.484  -3.636  1.00  0.00    -0.003 C 
ATOM     20  C   UNL     1      44.305 -37.568  -2.202  1.00  0.00     0.004 C 
ENDBRANCH  18  19
ENDBRANCH  17  18
ENDBRANCH  16  17
ENDBRANCH  15  16
ENDBRANCH  14  15
ENDBRANCH  13  14
ENDBRANCH  12  13
ENDBRANCH   1  12
TORSDOF 16
ENDMDL
MODEL 8
REMARK VINA RESULT:    -4.402      3.224      6.070
REMARK INTER + INTRA:         -10.783
REMARK INTER:                  -7.542
REMARK INTRA:                  -3.241
REMARK UNBOUND:                -2.263
REMARK SMILES CCCCCCCCCCCCCCCCCC(=O)[O-]
REMARK SMILES IDX 10 1 11 2 12 3 13 4 14 5 15 6 16 7 17 8 18 9 19 10 20 11
REMARK SMILES IDX 9 12 8 13 7 14 6 15 5 16 4 17 3 18 2 19 1 20
REMARK H PARENT
REMARK Flexibility Score: inf
ROOT
ATOM      1  C   UNL     1      50.312 -41.239  -3.466  1.00  0.00     0.000 C 
ENDROOT
BRANCH   1   2
ATOM      2  C   UNL     1      51.656 -40.732  -2.907  1.00  0.00     0.000 C 
BRANCH   2   3
ATOM      3  C   UNL     1      51.960 -39.260  -3.257  1.00  0.00     0.000 C 
BRANCH   3   4
ATOM      4  C   UNL     1      51.336 -38.833  -4.598  1.00  0.00     0.000 C 
BRANCH   4   5
ATOM      5  C   UNL     1      50.418 -37.608  -4.460  1.00  0.00     0.000 C 
BRANCH   5   6
ATOM      6  C   UNL     1      50.129 -37.248  -2.994  1.00  0.00     0.000 C 
BRANCH   6   7
ATOM      7  C   UNL     1      48.628 -37.013  -2.772  1.00  0.00     0.006 C 
BRANCH   7   8
ATOM      8  C   UNL     1      48.131 -37.630  -1.458  1.00  0.00     0.053 C 
BRANCH   8   9
ATOM      9  C   UNL     1      47.326 -36.653  -0.656  1.00  0.00     0.041 C 
ATOM     10  O   UNL     1      47.180 -36.817   0.584  1.00  0.00    -0.550 OA
ATOM     11  O   UNL     1      46.763 -35.544  -1.274  1.00  0.00    -0.550 OA
ENDBRANCH   8   9
ENDBRANCH   7   8
ENDBRANCH   6   7
ENDBRANCH   5   6
ENDBRANCH   4   5
ENDBRANCH   3   4
ENDBRANCH   2   3
ENDBRANCH   1   2
BRANCH   1  12
ATOM     12  C   UNL     1      49.074 -40.864  -2.630  1.00  0.00     0.000 C 
BRANCH  12  13
ATOM     13  C   UNL     1      47.736 -40.923  -3.390  1.00  0.00    -0.000 C 
BRANCH  13  14
ATOM     14  C   UNL     1      47.756 -40.107  -4.694  1.00  0.00    -0.000 C 
BRANCH  14  15
ATOM     15  C   UNL     1      46.526 -39.199  -4.841  1.00  0.00    -0.000 C 
BRANCH  15  16
ATOM     16  C   UNL     1      45.373 -39.607  -3.908  1.00  0.00    -0.000 C 
BRANCH  16  17
ATOM     17  C   UNL     1      44.808 -38.408  -3.116  1.00  0.00    -0.000 C 
BRANCH  17  18
ATOM     18  C   UNL     1      44.482 -38.738  -1.647  1.00  0.00    -0.000 C 
BRANCH  18  19
ATOM     19  C   UNL     1      44.758 -40.196  -1.241  1.00  0.00    -0.003 C 
ATOM     20  C   UNL     1      45.881 -40.320  -0.211  1.00  0.00     0.004 C 
ENDBRANCH  18  19
ENDBRANCH  17  18
ENDBRANCH  16  17
ENDBRANCH  15  16
ENDBRANCH  14  15
ENDBRANCH  13  14
ENDBRANCH  12  13
ENDBRANCH   1  12
TORSDOF 16
ENDMDL
MODEL 9
REMARK VINA RESULT:    -4.382      1.908      3.128
REMARK INTER + INTRA:         -10.743
REMARK INTER:                  -8.586
REMARK INTRA:                  -2.157
REMARK UNBOUND:                -2.263
REMARK SMILES CCCCCCCCCCCCCCCCCC(=O)[O-]
REMARK SMILES IDX 10 1 11 2 12 3 13 4 14 5 15 6 16 7 17 8 18 9 19 10 20 11
REMARK SMILES IDX 9 12 8 13 7 14 6 15 5 16 4 17 3 18 2 19 1 20
REMARK H PARENT
REMARK Flexibility Score: inf
ROOT
ATOM      1  C   UNL     1      46.061 -39.961  -3.998  1.00  0.00     0.000 C 
ENDROOT
BRANCH   1   2
ATOM      2  C   UNL     1      47.516 -39.919  -4.505  1.00  0.00     0.000 C 
BRANCH   2   3
ATOM      3  C   UNL     1      48.342 -41.166  -4.127  1.00  0.00     0.000 C 
BRANCH   3   4
ATOM      4  C   UNL     1      49.858 -40.921  -4.229  1.00  0.00     0.000 C 
BRANCH   4   5
ATOM      5  C   UNL     1      50.216 -39.840  -5.261  1.00  0.00     0.000 C 
BRANCH   5   6
ATOM      6  C   UNL     1      51.399 -38.966  -4.816  1.00  0.00     0.000 C 
BRANCH   6   7
ATOM      7  C   UNL     1      51.594 -39.040  -3.295  1.00  0.00     0.006 C 
BRANCH   7   8
ATOM      8  C   UNL     1      53.076 -39.087  -2.900  1.00  0.00     0.053 C 
BRANCH   8   9
ATOM      9  C   UNL     1      53.433 -40.384  -2.241  1.00  0.00     0.041 C 
ATOM     10  O   UNL     1      52.551 -41.265  -2.053  1.00  0.00    -0.550 OA
ATOM     11  O   UNL     1      54.745 -40.633  -1.859  1.00  0.00    -0.550 OA
ENDBRANCH   8   9
ENDBRANCH   7   8
ENDBRANCH   6   7
ENDBRANCH   5   6
ENDBRANCH   4   5
ENDBRANCH   3   4
ENDBRANCH   2   3
ENDBRANCH   1   2
BRANCH   1  12
ATOM     12  C   UNL     1      45.222 -38.708  -4.314  1.00  0.00     0.000 C 
BRANCH  12  13
ATOM     13  C   UNL     1      45.122 -38.357  -5.810  1.00  0.00    -0.000 C 
BRANCH  13  14
ATOM     14  C   UNL     1      45.126 -36.841  -6.067  1.00  0.00    -0.000 C 
BRANCH  14  15
ATOM     15  C   UNL     1      46.100 -36.088  -5.147  1.00  0.00    -0.000 C 
BRANCH  15  16
ATOM     16  C   UNL     1      47.527 -36.028  -5.718  1.00  0.00    -0.000 C 
BRANCH  16  17
ATOM     17  C   UNL     1      48.580 -36.555  -4.719  1.00  0.00    -0.000 C 
BRANCH  17  18
ATOM     18  C   UNL     1      48.274 -36.193  -3.253  1.00  0.00    -0.000 C 
BRANCH  18  19
ATOM     19  C   UNL     1      49.490 -36.242  -2.313  1.00  0.00    -0.003 C 
ATOM     20  C   UNL     1      49.139 -35.875  -0.872  1.00  0.00     0.004 C 
ENDBRANCH  18  19
ENDBRANCH  17  18
ENDBRANCH  16  17
ENDBRANCH  15  16
ENDBRANCH  14  15
ENDBRANCH  13  14
ENDBRANCH  12  13
ENDBRANCH   1  12
TORSDOF 16
ENDMDL
