MODEL 1
REMARK VINA RESULT:    -3.612      0.000      0.000
REMARK INTER + INTRA:          -8.896
REMARK INTER:                  -6.779
REMARK INTRA:                  -2.117
REMARK UNBOUND:                -2.117
REMARK SMILES CCCCCCCCC=CCCCCCCCC(=O)[O-]
REMARK SMILES IDX 10 1 9 2 11 3 12 4 13 5 14 6 15 7 16 8 17 9 18 10 19 11
REMARK SMILES IDX 20 12 8 13 7 14 6 15 5 16 4 17 3 18 2 19 1 20
REMARK H PARENT
REMARK Flexibility Score: inf
ROOT
ATOM      1  C   UNL     1      10.492  20.925  20.894  1.00  0.00    -0.031 C 
ATOM      2  C   UNL     1      11.661  21.190  20.278  1.00  0.00    -0.031 C 
ENDROOT
BRANCH   1   3
ATOM      3  C   UNL     1       9.639  21.944  21.607  1.00  0.00     0.027 C 
BRANCH   3   4
ATOM      4  C   UNL     1       8.583  22.544  20.671  1.00  0.00     0.004 C 
BRANCH   4   5
ATOM      5  C   UNL     1       8.040  21.484  19.702  1.00  0.00     0.000 C 
BRANCH   5   6
ATOM      6  C   UNL     1       6.711  20.864  20.172  1.00  0.00     0.000 C 
BRANCH   6   7
ATOM      7  C   UNL     1       6.032  21.583  21.354  1.00  0.00     0.000 C 
BRANCH   7   8
ATOM      8  C   UNL     1       5.909  20.700  22.608  1.00  0.00     0.006 C 
BRANCH   8   9
ATOM      9  C   UNL     1       4.458  20.282  22.880  1.00  0.00     0.053 C 
BRANCH   9  10
ATOM     10  C   UNL     1       4.374  19.203  23.915  1.00  0.00     0.041 C 
ATOM     11  O   UNL     1       3.252  18.762  24.281  1.00  0.00    -0.550 OA
ATOM     12  O   UNL     1       5.535  18.664  24.456  1.00  0.00    -0.550 OA
ENDBRANCH   9  10
ENDBRANCH   8   9
ENDBRANCH   7   8
ENDBRANCH   6   7
ENDBRANCH   5   6
ENDBRANCH   4   5
ENDBRANCH   3   4
ENDBRANCH   1   3
BRANCH   2  13
ATOM     13  C   UNL     1      12.330  22.542  20.223  1.00  0.00     0.027 C 
BRANCH  13  14
ATOM     14  C   UNL     1      12.995  22.753  18.856  1.00  0.00     0.004 C 
BRANCH  14  15
ATOM     15  C   UNL     1      12.030  22.524  17.678  1.00  0.00     0.000 C 
BRANCH  15  16
ATOM     16  C   UNL     1      12.583  21.633  16.552  1.00  0.00     0.000 C 
BRANCH  16  17
ATOM     17  C   UNL     1      11.581  20.563  16.087  1.00  0.00    -0.000 C 
BRANCH  17  18
ATOM     18  C   UNL     1      10.224  20.672  16.816  1.00  0.00    -0.000 C 
BRANCH  18  19
ATOM     19  C   UNL     1       9.518  19.321  17.014  1.00  0.00    -0.003 C 
ATOM     20  C   UNL     1      10.105  18.498  18.159  1.00  0.00     0.004 C 
ENDBRANCH  18  19
ENDBRANCH  17  18
ENDBRANCH  16  17
ENDBRANCH  15  16
ENDBRANCH  14  15
ENDBRANCH  13  14
ENDBRANCH   2  13
TORSDOF 15
ENDMDL
MODEL 2
REMARK VINA RESULT:    -3.605     19.638     21.642
REMARK INTER + INTRA:          -8.884
REMARK INTER:                  -5.995
REMARK INTRA:                  -2.890
REMARK UNBOUND:                -2.117
REMARK SMILES CCCCCCCCC=CCCCCCCCC(=O)[O-]
REMARK SMILES IDX 10 1 9 2 11 3 12 4 13 5 14 6 15 7 16 8 17 9 18 10 19 11
REMARK SMILES IDX 20 12 8 13 7 14 6 15 5 16 4 17 3 18 2 19 1 20
REMARK H PARENT
REMARK Flexibility Score: inf
ROOT
ATOM      1  C   UNL     1      10.410   4.878  31.174  1.00  0.00    -0.031 C 
ATOM      2  C   UNL     1      11.596   4.508  31.696  1.00  0.00    -0.031 C 
ENDROOT
BRANCH   1   3
ATOM      3  C   UNL     1       9.277   3.937  30.847  1.00  0.00     0.027 C 
BRANCH   3   4
ATOM      4  C   UNL     1       8.156   4.028  31.891  1.00  0.00     0.004 C 
BRANCH   4   5
ATOM      5  C   UNL     1       8.410   3.063  33.057  1.00  0.00     0.000 C 
BRANCH   5   6
ATOM      6  C   UNL     1       7.187   2.895  33.977  1.00  0.00     0.000 C 
BRANCH   6   7
ATOM      7  C   UNL     1       7.441   3.193  35.468  1.00  0.00     0.000 C 
BRANCH   7   8
ATOM      8  C   UNL     1       6.745   4.477  35.953  1.00  0.00     0.006 C 
BRANCH   8   9
ATOM      9  C   UNL     1       5.331   4.622  35.376  1.00  0.00     0.053 C 
BRANCH   9  10
ATOM     10  C   UNL     1       5.139   5.942  34.696  1.00  0.00     0.041 C 
ATOM     11  O   UNL     1       5.072   7.000  35.375  1.00  0.00    -0.550 OA
ATOM     12  O   UNL     1       5.065   6.008  33.310  1.00  0.00    -0.550 OA
ENDBRANCH   9  10
ENDBRANCH   8   9
ENDBRANCH   7   8
ENDBRANCH   6   7
ENDBRANCH   5   6
ENDBRANCH   4   5
ENDBRANCH   3   4
ENDBRANCH   1   3
BRANCH   2  13
ATOM     13  C   UNL     1      12.003   3.090  32.016  1.00  0.00     0.027 C 
BRANCH  13  14
ATOM     14  C   UNL     1      12.724   3.035  33.371  1.00  0.00     0.004 C 
BRANCH  14  15
ATOM     15  C   UNL     1      11.771   3.227  34.564  1.00  0.00     0.000 C 
BRANCH  15  16
ATOM     16  C   UNL     1      12.370   4.001  35.752  1.00  0.00     0.000 C 
BRANCH  16  17
ATOM     17  C   UNL     1      11.574   5.271  36.102  1.00  0.00    -0.000 C 
BRANCH  17  18
ATOM     18  C   UNL     1      10.276   5.397  35.276  1.00  0.00    -0.000 C 
BRANCH  18  19
ATOM     19  C   UNL     1      10.256   6.614  34.337  1.00  0.00    -0.003 C 
ATOM     20  C   UNL     1       8.850   7.004  33.886  1.00  0.00     0.004 C 
ENDBRANCH  18  19
ENDBRANCH  17  18
ENDBRANCH  16  17
ENDBRANCH  15  16
ENDBRANCH  14  15
ENDBRANCH  13  14
ENDBRANCH   2  13
TORSDOF 15
ENDMDL
MODEL 3
REMARK VINA RESULT:    -3.604      3.055      3.745
REMARK INTER + INTRA:          -8.881
REMARK INTER:                  -6.506
REMARK INTRA:                  -2.374
REMARK UNBOUND:                -2.117
REMARK SMILES CCCCCCCCC=CCCCCCCCC(=O)[O-]
REMARK SMILES IDX 10 1 9 2 11 3 12 4 13 5 14 6 15 7 16 8 17 9 18 10 19 11
REMARK SMILES IDX 20 12 8 13 7 14 6 15 5 16 4 17 3 18 2 19 1 20
REMARK H PARENT
REMARK Flexibility Score: inf
ROOT
ATOM      1  C   UNL     1      10.372  20.872  20.677  1.00  0.00    -0.031 C 
ATOM      2  C   UNL     1      11.622  21.248  20.341  1.00  0.00    -0.031 C 
ENDROOT
BRANCH   1   3
ATOM      3  C   UNL     1       9.205  21.811  20.856  1.00  0.00     0.027 C 
BRANCH   3   4
ATOM      4  C   UNL     1       8.319  21.846  19.604  1.00  0.00     0.004 C 
BRANCH   4   5
ATOM      5  C   UNL     1       6.972  21.156  19.863  1.00  0.00     0.000 C 
BRANCH   5   6
ATOM      6  C   UNL     1       6.671  20.029  18.857  1.00  0.00     0.000 C 
BRANCH   6   7
ATOM      7  C   UNL     1       6.277  20.499  17.443  1.00  0.00     0.000 C 
BRANCH   7   8
ATOM      8  C   UNL     1       6.021  19.335  16.470  1.00  0.00     0.006 C 
BRANCH   8   9
ATOM      9  C   UNL     1       4.562  19.288  15.996  1.00  0.00     0.053 C 
BRANCH   9  10
ATOM     10  C   UNL     1       3.790  18.201  16.677  1.00  0.00     0.041 C 
ATOM     11  O   UNL     1       3.353  17.224  16.014  1.00  0.00    -0.550 OA
ATOM     12  O   UNL     1       3.577  18.252  18.049  1.00  0.00    -0.550 OA
ENDBRANCH   9  10
ENDBRANCH   8   9
ENDBRANCH   7   8
ENDBRANCH   6   7
ENDBRANCH   5   6
ENDBRANCH   4   5
ENDBRANCH   3   4
ENDBRANCH   1   3
BRANCH   2  13
ATOM     13  C   UNL     1      12.074  22.671  20.116  1.00  0.00     0.027 C 
BRANCH  13  14
ATOM     14  C   UNL     1      12.934  22.763  18.848  1.00  0.00     0.004 C 
BRANCH  14  15
ATOM     15  C   UNL     1      12.105  22.666  17.554  1.00  0.00     0.000 C 
BRANCH  15  16
ATOM     16  C   UNL     1      12.693  21.739  16.477  1.00  0.00     0.000 C 
BRANCH  16  17
ATOM     17  C   UNL     1      11.792  20.530  16.170  1.00  0.00    -0.000 C 
BRANCH  17  18
ATOM     18  C   UNL     1      10.425  20.620  16.881  1.00  0.00    -0.000 C 
BRANCH  18  19
ATOM     19  C   UNL     1       9.713  19.265  17.027  1.00  0.00    -0.003 C 
ATOM     20  C   UNL     1      10.259  18.420  18.176  1.00  0.00     0.004 C 
ENDBRANCH  18  19
ENDBRANCH  17  18
ENDBRANCH  16  17
ENDBRANCH  15  16
ENDBRANCH  14  15
ENDBRANCH  13  14
ENDBRANCH   2  13
TORSDOF 15
ENDMDL
MODEL 4
REMARK VINA RESULT:    -3.565      0.893      1.181
REMARK INTER + INTRA:          -8.808
REMARK INTER:                  -6.273
REMARK INTRA:                  -2.535
REMARK UNBOUND:                -2.117
REMARK SMILES CCCCCCCCC=CCCCCCCCC(=O)[O-]
REMARK SMILES IDX 10 1 9 2 11 3 12 4 13 5 14 6 15 7 16 8 17 9 18 10 19 11
REMARK SMILES IDX 20 12 8 13 7 14 6 15 5 16 4 17 3 18 2 19 1 20
REMARK H PARENT
REMARK Flexibility Score: inf
ROOT
ATOM      1  C   UNL     1      10.382  21.071  20.698  1.00  0.00    -0.031 C 
ATOM      2  C   UNL     1      11.670  21.323  20.395  1.00  0.00    -0.031 C 
ENDROOT
BRANCH   1   3
ATOM      3  C   UNL     1       9.305  22.118  20.840  1.00  0.00     0.027 C 
BRANCH   3   4
ATOM      4  C   UNL     1       8.787  22.578  19.471  1.00  0.00     0.004 C 
BRANCH   4   5
ATOM      5  C   UNL     1       7.279  22.327  19.340  1.00  0.00     0.000 C 
BRANCH   5   6
ATOM      6  C   UNL     1       6.892  20.853  19.566  1.00  0.00     0.000 C 
BRANCH   6   7
ATOM      7  C   UNL     1       5.558  20.630  20.305  1.00  0.00     0.000 C 
BRANCH   7   8
ATOM      8  C   UNL     1       5.446  21.444  21.606  1.00  0.00     0.006 C 
BRANCH   8   9
ATOM      9  C   UNL     1       6.346  20.886  22.717  1.00  0.00     0.053 C 
BRANCH   9  10
ATOM     10  C   UNL     1       5.548  20.353  23.866  1.00  0.00     0.041 C 
ATOM     11  O   UNL     1       5.563  19.122  24.131  1.00  0.00    -0.550 OA
ATOM     12  O   UNL     1       4.809  21.220  24.662  1.00  0.00    -0.550 OA
ENDBRANCH   9  10
ENDBRANCH   8   9
ENDBRANCH   7   8
ENDBRANCH   6   7
ENDBRANCH   5   6
ENDBRANCH   4   5
ENDBRANCH   3   4
ENDBRANCH   1   3
BRANCH   2  13
ATOM     13  C   UNL     1      12.262  22.695  20.174  1.00  0.00     0.027 C 
BRANCH  13  14
ATOM     14  C   UNL     1      13.012  22.744  18.836  1.00  0.00     0.004 C 
BRANCH  14  15
ATOM     15  C   UNL     1      12.087  22.537  17.623  1.00  0.00     0.000 C 
BRANCH  15  16
ATOM     16  C   UNL     1      12.633  21.579  16.550  1.00  0.00     0.000 C 
BRANCH  16  17
ATOM     17  C   UNL     1      11.621  20.493  16.145  1.00  0.00    -0.000 C 
BRANCH  17  18
ATOM     18  C   UNL     1      10.184  20.832  16.594  1.00  0.00    -0.000 C 
BRANCH  18  19
ATOM     19  C   UNL     1       9.462  19.667  17.292  1.00  0.00    -0.003 C 
ATOM     20  C   UNL     1      10.419  18.665  17.935  1.00  0.00     0.004 C 
ENDBRANCH  18  19
ENDBRANCH  17  18
ENDBRANCH  16  17
ENDBRANCH  15  16
ENDBRANCH  14  15
ENDBRANCH  13  14
ENDBRANCH   2  13
TORSDOF 15
ENDMDL
MODEL 5
REMARK VINA RESULT:    -3.475      3.286      3.787
REMARK INTER + INTRA:          -8.639
REMARK INTER:                  -7.129
REMARK INTRA:                  -1.510
REMARK UNBOUND:                -2.117
REMARK SMILES CCCCCCCCC=CCCCCCCCC(=O)[O-]
REMARK SMILES IDX 10 1 9 2 11 3 12 4 13 5 14 6 15 7 16 8 17 9 18 10 19 11
REMARK SMILES IDX 20 12 8 13 7 14 6 15 5 16 4 17 3 18 2 19 1 20
REMARK H PARENT
REMARK Flexibility Score: inf
ROOT
ATOM      1  C   UNL     1      11.060  21.246  20.986  1.00  0.00    -0.031 C 
ATOM      2  C   UNL     1      11.911  21.591  20.000  1.00  0.00    -0.031 C 
ENDROOT
BRANCH   1   3
ATOM      3  C   UNL     1      10.196  22.210  21.761  1.00  0.00     0.027 C 
BRANCH   3   4
ATOM      4  C   UNL     1       8.881  21.553  22.201  1.00  0.00     0.004 C 
BRANCH   4   5
ATOM      5  C   UNL     1       7.967  22.568  22.902  1.00  0.00     0.000 C 
BRANCH   5   6
ATOM      6  C   UNL     1       8.316  22.766  24.389  1.00  0.00     0.000 C 
BRANCH   6   7
ATOM      7  C   UNL     1       7.108  22.935  25.331  1.00  0.00     0.000 C 
BRANCH   7   8
ATOM      8  C   UNL     1       7.377  22.420  26.755  1.00  0.00     0.006 C 
BRANCH   8   9
ATOM      9  C   UNL     1       8.873  22.415  27.096  1.00  0.00     0.053 C 
BRANCH   9  10
ATOM     10  C   UNL     1       9.156  21.651  28.351  1.00  0.00     0.041 C 
ATOM     11  O   UNL     1      10.340  21.346  28.653  1.00  0.00    -0.550 OA
ATOM     12  O   UNL     1       8.117  21.300  29.203  1.00  0.00    -0.550 OA
ENDBRANCH   9  10
ENDBRANCH   8   9
ENDBRANCH   7   8
ENDBRANCH   6   7
ENDBRANCH   5   6
ENDBRANCH   4   5
ENDBRANCH   3   4
ENDBRANCH   1   3
BRANCH   2  13
ATOM     13  C   UNL     1      12.166  23.001  19.523  1.00  0.00     0.027 C 
BRANCH  13  14
ATOM     14  C   UNL     1      13.109  22.991  18.311  1.00  0.00     0.004 C 
BRANCH  14  15
ATOM     15  C   UNL     1      12.372  22.751  16.981  1.00  0.00     0.000 C 
BRANCH  15  16
ATOM     16  C   UNL     1      12.798  21.480  16.226  1.00  0.00     0.000 C 
BRANCH  16  17
ATOM     17  C   UNL     1      11.707  20.394  16.219  1.00  0.00    -0.000 C 
BRANCH  17  18
ATOM     18  C   UNL     1      10.328  20.944  16.641  1.00  0.00    -0.000 C 
BRANCH  18  19
ATOM     19  C   UNL     1       9.572  20.031  17.620  1.00  0.00    -0.003 C 
ATOM     20  C   UNL     1      10.369  18.794  18.028  1.00  0.00     0.004 C 
ENDBRANCH  18  19
ENDBRANCH  17  18
ENDBRANCH  16  17
ENDBRANCH  15  16
ENDBRANCH  14  15
ENDBRANCH  13  14
ENDBRANCH   2  13
TORSDOF 15
ENDMDL
MODEL 6
REMARK VINA RESULT:    -3.473      2.865      6.286
REMARK INTER + INTRA:          -8.636
REMARK INTER:                  -6.432
REMARK INTRA:                  -2.204
REMARK UNBOUND:                -2.117
REMARK SMILES CCCCCCCCC=CCCCCCCCC(=O)[O-]
REMARK SMILES IDX 10 1 9 2 11 3 12 4 13 5 14 6 15 7 16 8 17 9 18 10 19 11
REMARK SMILES IDX 20 12 8 13 7 14 6 15 5 16 4 17 3 18 2 19 1 20
REMARK H PARENT
REMARK Flexibility Score: inf
ROOT
ATOM      1  C   UNL     1      11.877  21.522  19.866  1.00  0.00    -0.031 C 
ATOM      2  C   UNL     1      10.733  21.001  20.351  1.00  0.00    -0.031 C 
ENDROOT
BRANCH   1   3
ATOM      3  C   UNL     1      12.047  22.943  19.389  1.00  0.00     0.027 C 
BRANCH   3   4
ATOM      4  C   UNL     1      13.059  23.030  18.240  1.00  0.00     0.004 C 
BRANCH   4   5
ATOM      5  C   UNL     1      12.379  22.779  16.887  1.00  0.00     0.000 C 
BRANCH   5   6
ATOM      6  C   UNL     1      12.769  21.427  16.260  1.00  0.00     0.000 C 
BRANCH   6   7
ATOM      7  C   UNL     1      11.637  20.383  16.193  1.00  0.00     0.000 C 
BRANCH   7   8
ATOM      8  C   UNL     1      10.261  21.003  15.892  1.00  0.00     0.006 C 
BRANCH   8   9
ATOM      9  C   UNL     1       9.229  20.675  16.979  1.00  0.00     0.053 C 
BRANCH   9  10
ATOM     10  C   UNL     1       8.894  19.216  17.006  1.00  0.00     0.041 C 
ATOM     11  O   UNL     1       8.379  18.666  15.997  1.00  0.00    -0.550 OA
ATOM     12  O   UNL     1       9.177  18.456  18.135  1.00  0.00    -0.550 OA
ENDBRANCH   9  10
ENDBRANCH   8   9
ENDBRANCH   7   8
ENDBRANCH   6   7
ENDBRANCH   5   6
ENDBRANCH   4   5
ENDBRANCH   3   4
ENDBRANCH   1   3
BRANCH   2  13
ATOM     13  C   UNL     1       9.422  21.739  20.474  1.00  0.00     0.027 C 
BRANCH  13  14
ATOM     14  C   UNL     1       8.899  21.663  21.915  1.00  0.00     0.004 C 
BRANCH  14  15
ATOM     15  C   UNL     1       7.424  22.085  22.041  1.00  0.00     0.000 C 
BRANCH  15  16
ATOM     16  C   UNL     1       6.408  20.945  21.856  1.00  0.00     0.000 C 
BRANCH  16  17
ATOM     17  C   UNL     1       5.598  21.069  20.553  1.00  0.00    -0.000 C 
BRANCH  17  18
ATOM     18  C   UNL     1       6.277  20.350  19.368  1.00  0.00    -0.000 C 
BRANCH  18  19
ATOM     19  C   UNL     1       5.316  20.014  18.216  1.00  0.00    -0.003 C 
ATOM     20  C   UNL     1       5.520  20.896  16.986  1.00  0.00     0.004 C 
ENDBRANCH  18  19
ENDBRANCH  17  18
ENDBRANCH  16  17
ENDBRANCH  15  16
ENDBRANCH  14  15
ENDBRANCH  13  14
ENDBRANCH   2  13
TORSDOF 15
ENDMDL
MODEL 7
REMARK VINA RESULT:    -3.462      2.447      6.635
REMARK INTER + INTRA:          -8.615
REMARK INTER:                  -6.706
REMARK INTRA:                  -1.909
REMARK UNBOUND:                -2.117
REMARK SMILES CCCCCCCCC=CCCCCCCCC(=O)[O-]
REMARK SMILES IDX 10 1 9 2 11 3 12 4 13 5 14 6 15 7 16 8 17 9 18 10 19 11
REMARK SMILES IDX 20 12 8 13 7 14 6 15 5 16 4 17 3 18 2 19 1 20
REMARK H PARENT
REMARK Flexibility Score: inf
ROOT
ATOM      1  C   UNL     1      11.920  21.631  19.926  1.00  0.00    -0.031 C 
ATOM      2  C   UNL     1      10.629  21.259  20.028  1.00  0.00    -0.031 C 
ENDROOT
BRANCH   1   3
ATOM      3  C   UNL     1      12.396  23.026  19.607  1.00  0.00     0.027 C 
BRANCH   3   4
ATOM      4  C   UNL     1      13.226  23.053  18.317  1.00  0.00     0.004 C 
BRANCH   4   5
ATOM      5  C   UNL     1      12.352  22.745  17.094  1.00  0.00     0.000 C 
BRANCH   5   6
ATOM      6  C   UNL     1      12.849  21.530  16.289  1.00  0.00     0.000 C 
BRANCH   6   7
ATOM      7  C   UNL     1      11.777  20.469  15.973  1.00  0.00     0.000 C 
BRANCH   7   8
ATOM      8  C   UNL     1      10.364  20.889  16.413  1.00  0.00     0.006 C 
BRANCH   8   9
ATOM      9  C   UNL     1       9.330  19.780  16.174  1.00  0.00     0.053 C 
BRANCH   9  10
ATOM     10  C   UNL     1       8.994  19.050  17.437  1.00  0.00     0.041 C 
ATOM     11  O   UNL     1       9.723  18.103  17.834  1.00  0.00    -0.550 OA
ATOM     12  O   UNL     1       7.894  19.435  18.193  1.00  0.00    -0.550 OA
ENDBRANCH   9  10
ENDBRANCH   8   9
ENDBRANCH   7   8
ENDBRANCH   6   7
ENDBRANCH   5   6
ENDBRANCH   4   5
ENDBRANCH   3   4
ENDBRANCH   1   3
BRANCH   2  13
ATOM     13  C   UNL     1       9.441  22.166  19.813  1.00  0.00     0.027 C 
BRANCH  13  14
ATOM     14  C   UNL     1       8.950  22.729  21.154  1.00  0.00     0.004 C 
BRANCH  14  15
ATOM     15  C   UNL     1       8.731  21.639  22.218  1.00  0.00     0.000 C 
BRANCH  15  16
ATOM     16  C   UNL     1       7.269  21.449  22.657  1.00  0.00     0.000 C 
BRANCH  16  17
ATOM     17  C   UNL     1       6.323  21.148  21.481  1.00  0.00    -0.000 C 
BRANCH  17  18
ATOM     18  C   UNL     1       4.922  20.702  21.953  1.00  0.00    -0.000 C 
BRANCH  18  19
ATOM     19  C   UNL     1       4.761  20.684  23.481  1.00  0.00    -0.003 C 
ATOM     20  C   UNL     1       4.519  19.285  24.045  1.00  0.00     0.004 C 
ENDBRANCH  18  19
ENDBRANCH  17  18
ENDBRANCH  16  17
ENDBRANCH  15  16
ENDBRANCH  14  15
ENDBRANCH  13  14
ENDBRANCH   2  13
TORSDOF 15
ENDMDL
MODEL 8
REMARK VINA RESULT:    -3.443      0.929      2.860
REMARK INTER + INTRA:          -8.579
REMARK INTER:                  -6.529
REMARK INTRA:                  -2.050
REMARK UNBOUND:                -2.117
REMARK SMILES CCCCCCCCC=CCCCCCCCC(=O)[O-]
REMARK SMILES IDX 10 1 9 2 11 3 12 4 13 5 14 6 15 7 16 8 17 9 18 10 19 11
REMARK SMILES IDX 20 12 8 13 7 14 6 15 5 16 4 17 3 18 2 19 1 20
REMARK H PARENT
REMARK Flexibility Score: inf
ROOT
ATOM      1  C   UNL     1       9.158  19.267  18.129  1.00  0.00    -0.031 C 
ATOM      2  C   UNL     1      10.354  19.442  17.533  1.00  0.00    -0.031 C 
ENDROOT
BRANCH   1   3
ATOM      3  C   UNL     1       7.869  19.918  17.691  1.00  0.00     0.027 C 
BRANCH   3   4
ATOM      4  C   UNL     1       7.760  21.354  18.219  1.00  0.00     0.004 C 
BRANCH   4   5
ATOM      5  C   UNL     1       6.562  21.503  19.166  1.00  0.00     0.000 C 
BRANCH   5   6
ATOM      6  C   UNL     1       6.775  20.805  20.522  1.00  0.00     0.000 C 
BRANCH   6   7
ATOM      7  C   UNL     1       6.728  21.731  21.753  1.00  0.00     0.000 C 
BRANCH   7   8
ATOM      8  C   UNL     1       6.256  21.014  23.030  1.00  0.00     0.006 C 
BRANCH   8   9
ATOM      9  C   UNL     1       4.874  20.370  22.854  1.00  0.00     0.053 C 
BRANCH   9  10
ATOM     10  C   UNL     1       4.557  19.421  23.968  1.00  0.00     0.041 C 
ATOM     11  O   UNL     1       3.392  19.370  24.443  1.00  0.00    -0.550 OA
ATOM     12  O   UNL     1       5.540  18.573  24.462  1.00  0.00    -0.550 OA
ENDBRANCH   9  10
ENDBRANCH   8   9
ENDBRANCH   7   8
ENDBRANCH   6   7
ENDBRANCH   5   6
ENDBRANCH   4   5
ENDBRANCH   3   4
ENDBRANCH   1   3
BRANCH   2  13
ATOM     13  C   UNL     1      10.614  20.339  16.348  1.00  0.00     0.027 C 
BRANCH  13  14
ATOM     14  C   UNL     1      12.123  20.545  16.156  1.00  0.00     0.004 C 
BRANCH  14  15
ATOM     15  C   UNL     1      12.525  22.031  16.120  1.00  0.00     0.000 C 
BRANCH  15  16
ATOM     16  C   UNL     1      11.933  22.888  17.252  1.00  0.00     0.000 C 
BRANCH  16  17
ATOM     17  C   UNL     1      12.877  23.022  18.460  1.00  0.00    -0.000 C 
BRANCH  17  18
ATOM     18  C   UNL     1      12.435  22.145  19.651  1.00  0.00    -0.000 C 
BRANCH  18  19
ATOM     19  C   UNL     1      10.920  22.170  19.909  1.00  0.00    -0.003 C 
ATOM     20  C   UNL     1      10.487  21.241  21.041  1.00  0.00     0.004 C 
ENDBRANCH  18  19
ENDBRANCH  17  18
ENDBRANCH  16  17
ENDBRANCH  15  16
ENDBRANCH  14  15
ENDBRANCH  13  14
ENDBRANCH   2  13
TORSDOF 15
ENDMDL
MODEL 9
REMARK VINA RESULT:    -3.383     18.992     20.764
REMARK INTER + INTRA:          -8.466
REMARK INTER:                  -6.151
REMARK INTRA:                  -2.315
REMARK UNBOUND:                -2.117
REMARK SMILES CCCCCCCCC=CCCCCCCCC(=O)[O-]
REMARK SMILES IDX 10 1 9 2 11 3 12 4 13 5 14 6 15 7 16 8 17 9 18 10 19 11
REMARK SMILES IDX 20 12 8 13 7 14 6 15 5 16 4 17 3 18 2 19 1 20
REMARK H PARENT
REMARK Flexibility Score: inf
ROOT
ATOM      1  C   UNL     1      10.722   4.736  31.075  1.00  0.00    -0.031 C 
ATOM      2  C   UNL     1      11.652   4.345  31.967  1.00  0.00    -0.031 C 
ENDROOT
BRANCH   1   3
ATOM      3  C   UNL     1       9.313   4.201  31.003  1.00  0.00     0.027 C 
BRANCH   3   4
ATOM      4  C   UNL     1       8.866   3.994  29.550  1.00  0.00     0.004 C 
BRANCH   4   5
ATOM      5  C   UNL     1       7.394   3.564  29.483  1.00  0.00     0.000 C 
BRANCH   5   6
ATOM      6  C   UNL     1       6.447   4.716  29.102  1.00  0.00     0.000 C 
BRANCH   6   7
ATOM      7  C   UNL     1       5.271   4.947  30.071  1.00  0.00     0.000 C 
BRANCH   7   8
ATOM      8  C   UNL     1       5.534   4.393  31.482  1.00  0.00     0.006 C 
BRANCH   8   9
ATOM      9  C   UNL     1       6.065   5.472  32.437  1.00  0.00     0.053 C 
BRANCH   9  10
ATOM     10  C   UNL     1       5.071   5.808  33.505  1.00  0.00     0.041 C 
ATOM     11  O   UNL     1       5.464   6.193  34.637  1.00  0.00    -0.550 OA
ATOM     12  O   UNL     1       3.709   5.724  33.241  1.00  0.00    -0.550 OA
ENDBRANCH   9  10
ENDBRANCH   8   9
ENDBRANCH   7   8
ENDBRANCH   6   7
ENDBRANCH   5   6
ENDBRANCH   4   5
ENDBRANCH   3   4
ENDBRANCH   1   3
BRANCH   2  13
ATOM     13  C   UNL     1      11.455   3.286  33.026  1.00  0.00     0.027 C 
BRANCH  13  14
ATOM     14  C   UNL     1      12.627   3.299  34.017  1.00  0.00     0.004 C 
BRANCH  14  15
ATOM     15  C   UNL     1      12.236   3.853  35.399  1.00  0.00     0.000 C 
BRANCH  15  16
ATOM     16  C   UNL     1      10.722   3.945  35.655  1.00  0.00     0.000 C 
BRANCH  16  17
ATOM     17  C   UNL     1      10.202   5.393  35.663  1.00  0.00    -0.000 C 
BRANCH  17  18
ATOM     18  C   UNL     1       9.016   5.597  34.697  1.00  0.00    -0.000 C 
BRANCH  18  19
ATOM     19  C   UNL     1       8.970   6.996  34.060  1.00  0.00    -0.003 C 
ATOM     20  C   UNL     1      10.316   7.443  33.494  1.00  0.00     0.004 C 
ENDBRANCH  18  19
ENDBRANCH  17  18
ENDBRANCH  16  17
ENDBRANCH  15  16
ENDBRANCH  14  15
ENDBRANCH  13  14
ENDBRANCH   2  13
TORSDOF 15
ENDMDL
