MODEL 1
REMARK VINA RESULT:    -6.238      0.000      0.000
REMARK INTER + INTRA:         -12.551
REMARK INTER:                 -10.249
REMARK INTRA:                  -2.302
REMARK UNBOUND:                -2.302
REMARK SMILES C[C@H]1O[C@H](OC[C@H]2O[C@@H](Oc3c(-c4ccc(O)c(O)c4)oc4cc(O)cc(O)c4c3=O)[C@@H](O)[C@@H](O)[C@H]2O)[C@@H](O)[C@@H](O)[C@H]1O
REMARK SMILES IDX 7 1 36 2 34 3 32 4 9 5 8 6 6 7 5 8 4 9 1 10 2 11 42 12 3 13
REMARK SMILES IDX 40 14 38 15 43 16 41 18 39 20 37 22 35 24 10 26 11 27 12 28
REMARK SMILES IDX 30 29 21 30 29 31 31 32 22 33 27 34 23 35 26 36 24 37 13 38
REMARK SMILES IDX 20 39 14 40 18 41 15 42 16 43 19 44 17 46 28 48 25 50 33 52
REMARK H PARENT 43 17 41 19 39 21 37 23 35 25 19 45 17 47 28 49 25 51 33 53
REMARK Flexibility Score: inf
ROOT
ATOM      1  C   UNL     1     -35.850   3.896  81.425  1.00  0.00     0.180 C 
ATOM      2  C   UNL     1     -34.342   3.969  81.061  1.00  0.00     0.177 C 
ATOM      3  C   UNL     1     -34.074   4.885  79.859  1.00  0.00     0.180 C 
ATOM      4  C   UNL     1     -35.028   4.515  78.714  1.00  0.00     0.214 C 
ATOM      5  C   UNL     1     -36.491   4.482  79.197  1.00  0.00     0.339 C 
ATOM      6  O   UNL     1     -36.673   3.604  80.299  1.00  0.00    -0.332 OA
ENDROOT
BRANCH   1   7
ATOM      7  C   UNL     1     -36.407   5.084  82.253  1.00  0.00     0.198 C 
BRANCH   7   8
ATOM      8  O   UNL     1     -35.428   5.614  83.128  1.00  0.00    -0.347 OA
BRANCH   8   9
ATOM      9  C   UNL     1     -35.869   6.797  83.780  1.00  0.00     0.281 C 
ATOM     10  C   UNL     1     -32.735   8.697  83.401  1.00  0.00     0.041 C 
ATOM     11  C   UNL     1     -34.033   8.012  82.966  1.00  0.00     0.150 C 
ATOM     12  C   UNL     1     -34.896   8.947  82.097  1.00  0.00     0.174 C 
ATOM     13  O   UNL     1     -34.750   7.603  84.121  1.00  0.00    -0.344 OA
ATOM     14  C   UNL     1     -36.171   8.196  81.676  1.00  0.00     0.179 C 
ATOM     15  C   UNL     1     -36.878   7.575  82.898  1.00  0.00     0.202 C 
BRANCH  12  16
ATOM     16  O   UNL     1     -35.218  10.110  82.824  1.00  0.00    -0.388 OA
ATOM     17  H   UNL     1     -35.384  10.831  82.160  1.00  0.00     0.211 HD
ENDBRANCH  12  16
BRANCH  14  18
ATOM     18  O   UNL     1     -37.036   9.066  80.991  1.00  0.00    -0.387 OA
ATOM     19  H   UNL     1     -37.866   8.553  80.792  1.00  0.00     0.211 HD
ENDBRANCH  14  18
BRANCH  15  20
ATOM     20  O   UNL     1     -37.503   8.580  83.651  1.00  0.00    -0.385 OA
ATOM     21  H   UNL     1     -38.481   8.400  83.614  1.00  0.00     0.211 HD
ENDBRANCH  15  20
ENDBRANCH   8   9
ENDBRANCH   7   8
ENDBRANCH   1   7
BRANCH   2  22
ATOM     22  O   UNL     1     -33.585   4.373  82.173  1.00  0.00    -0.387 OA
ATOM     23  H   UNL     1     -33.815   5.323  82.346  1.00  0.00     0.211 HD
ENDBRANCH   2  22
BRANCH   3  24
ATOM     24  O   UNL     1     -34.224   6.233  80.226  1.00  0.00    -0.387 OA
ATOM     25  H   UNL     1     -34.499   6.730  79.411  1.00  0.00     0.211 HD
ENDBRANCH   3  24
BRANCH   5  26
ATOM     26  O   UNL     1     -36.984   5.792  79.504  1.00  0.00    -0.454 OA
BRANCH  26  27
ATOM     27  C   UNL     1     -37.921   6.486  78.723  1.00  0.00     0.214 A 
ATOM     28  C   UNL     1     -39.289   6.145  78.717  1.00  0.00     0.180 A 
ATOM     29  C   UNL     1     -37.489   7.563  77.941  1.00  0.00     0.239 A 
ATOM     30  O   UNL     1     -40.125   6.795  77.912  1.00  0.00    -0.452 OA
ATOM     31  C   UNL     1     -38.394   8.214  77.072  1.00  0.00     0.111 A 
ATOM     32  O   UNL     1     -36.295   7.939  78.052  1.00  0.00    -0.285 OA
ATOM     33  C   UNL     1     -39.748   7.790  77.117  1.00  0.00     0.146 A 
ATOM     34  C   UNL     1     -38.041   9.271  76.180  1.00  0.00     0.134 A 
ATOM     35  C   UNL     1     -40.718   8.427  76.339  1.00  0.00     0.094 A 
ATOM     36  C   UNL     1     -39.043   9.916  75.445  1.00  0.00     0.093 A 
ATOM     37  C   UNL     1     -40.373   9.495  75.515  1.00  0.00     0.123 A 
BRANCH  28  38
ATOM     38  C   UNL     1     -39.850   5.108  79.611  1.00  0.00     0.025 A 
ATOM     39  C   UNL     1     -40.559   4.029  79.065  1.00  0.00     0.062 A 
ATOM     40  C   UNL     1     -39.706   5.201  81.005  1.00  0.00     0.016 A 
ATOM     41  C   UNL     1     -41.081   3.025  79.890  1.00  0.00     0.158 A 
ATOM     42  C   UNL     1     -40.229   4.210  81.835  1.00  0.00     0.051 A 
ATOM     43  C   UNL     1     -40.910   3.113  81.292  1.00  0.00     0.157 A 
BRANCH  41  44
ATOM     44  O   UNL     1     -41.754   1.965  79.279  1.00  0.00    -0.504 OA
ATOM     45  H   UNL     1     -42.092   1.151  79.772  1.00  0.00     0.293 HD
ENDBRANCH  41  44
BRANCH  43  46
ATOM     46  O   UNL     1     -41.389   2.142  82.174  1.00  0.00    -0.504 OA
ATOM     47  H   UNL     1     -40.823   1.405  82.567  1.00  0.00     0.293 HD
ENDBRANCH  43  46
ENDBRANCH  28  38
BRANCH  34  48
ATOM     48  O   UNL     1     -36.730   9.703  75.960  1.00  0.00    -0.507 OA
ATOM     49  H   UNL     1     -36.356   9.978  75.063  1.00  0.00     0.293 HD
ENDBRANCH  34  48
BRANCH  37  50
ATOM     50  O   UNL     1     -41.359  10.125  74.760  1.00  0.00    -0.508 OA
ATOM     51  H   UNL     1     -41.788   9.670  73.961  1.00  0.00     0.293 HD
ENDBRANCH  37  50
ENDBRANCH  26  27
ENDBRANCH   5  26
BRANCH   4  52
ATOM     52  O   UNL     1     -34.896   5.412  77.640  1.00  0.00    -0.384 OA
ATOM     53  H   UNL     1     -35.631   6.074  77.727  1.00  0.00     0.211 HD
ENDBRANCH   4  52
TORSDOF 16
ENDMDL
MODEL 2
REMARK VINA RESULT:    -6.156      1.956      6.212
REMARK INTER + INTRA:         -12.417
REMARK INTER:                 -11.596
REMARK INTRA:                  -0.821
REMARK UNBOUND:                -2.302
REMARK SMILES C[C@H]1O[C@H](OC[C@H]2O[C@@H](Oc3c(-c4ccc(O)c(O)c4)oc4cc(O)cc(O)c4c3=O)[C@@H](O)[C@@H](O)[C@H]2O)[C@@H](O)[C@@H](O)[C@H]1O
REMARK SMILES IDX 7 1 36 2 34 3 32 4 9 5 8 6 6 7 5 8 4 9 1 10 2 11 42 12 3 13
REMARK SMILES IDX 40 14 38 15 43 16 41 18 39 20 37 22 35 24 10 26 11 27 12 28
REMARK SMILES IDX 30 29 21 30 29 31 31 32 22 33 27 34 23 35 26 36 24 37 13 38
REMARK SMILES IDX 20 39 14 40 18 41 15 42 16 43 19 44 17 46 28 48 25 50 33 52
REMARK H PARENT 43 17 41 19 39 21 37 23 35 25 19 45 17 47 28 49 25 51 33 53
REMARK Flexibility Score: inf
ROOT
ATOM      1  C   UNL     1     -38.375   8.265  82.568  1.00  0.00     0.180 C 
ATOM      2  C   UNL     1     -37.295   8.514  83.655  1.00  0.00     0.177 C 
ATOM      3  C   UNL     1     -36.386   7.295  83.866  1.00  0.00     0.180 C 
ATOM      4  C   UNL     1     -37.252   6.040  84.049  1.00  0.00     0.214 C 
ATOM      5  C   UNL     1     -38.278   5.900  82.908  1.00  0.00     0.339 C 
ATOM      6  O   UNL     1     -39.097   7.054  82.778  1.00  0.00    -0.332 OA
ENDROOT
BRANCH   1   7
ATOM      7  C   UNL     1     -37.904   8.408  81.097  1.00  0.00     0.198 C 
BRANCH   7   8
ATOM      8  O   UNL     1     -38.936   8.079  80.185  1.00  0.00    -0.347 OA
BRANCH   8   9
ATOM      9  C   UNL     1     -39.364   9.201  79.424  1.00  0.00     0.281 C 
ATOM     10  C   UNL     1     -36.050  10.121  78.102  1.00  0.00     0.041 C 
ATOM     11  C   UNL     1     -37.321   9.284  78.271  1.00  0.00     0.150 C 
ATOM     12  C   UNL     1     -37.950   8.939  76.907  1.00  0.00     0.174 C 
ATOM     13  O   UNL     1     -38.244  10.001  79.078  1.00  0.00    -0.344 OA
ATOM     14  C   UNL     1     -39.207   8.083  77.143  1.00  0.00     0.179 C 
ATOM     15  C   UNL     1     -40.149   8.751  78.166  1.00  0.00     0.202 C 
BRANCH  12  16
ATOM     16  O   UNL     1     -38.274  10.124  76.220  1.00  0.00    -0.388 OA
ATOM     17  H   UNL     1     -37.558  10.783  76.421  1.00  0.00     0.211 HD
ENDBRANCH  12  16
BRANCH  14  18
ATOM     18  O   UNL     1     -39.873   7.862  75.926  1.00  0.00    -0.387 OA
ATOM     19  H   UNL     1     -39.990   8.751  75.493  1.00  0.00     0.211 HD
ENDBRANCH  14  18
BRANCH  15  20
ATOM     20  O   UNL     1     -40.790   9.852  77.578  1.00  0.00    -0.385 OA
ATOM     21  H   UNL     1     -41.709   9.885  77.958  1.00  0.00     0.211 HD
ENDBRANCH  15  20
ENDBRANCH   8   9
ENDBRANCH   7   8
ENDBRANCH   1   7
BRANCH   2  22
ATOM     22  O   UNL     1     -36.535   9.653  83.344  1.00  0.00    -0.387 OA
ATOM     23  H   UNL     1     -35.612   9.479  83.669  1.00  0.00     0.211 HD
ENDBRANCH   2  22
BRANCH   3  24
ATOM     24  O   UNL     1     -35.504   7.147  82.783  1.00  0.00    -0.387 OA
ATOM     25  H   UNL     1     -35.496   6.184  82.541  1.00  0.00     0.211 HD
ENDBRANCH   3  24
BRANCH   5  26
ATOM     26  O   UNL     1     -37.652   5.577  81.660  1.00  0.00    -0.454 OA
BRANCH  26  27
ATOM     27  C   UNL     1     -38.296   4.924  80.599  1.00  0.00     0.214 A 
ATOM     28  C   UNL     1     -37.712   4.819  79.320  1.00  0.00     0.180 A 
ATOM     29  C   UNL     1     -39.549   4.340  80.821  1.00  0.00     0.239 A 
ATOM     30  O   UNL     1     -38.392   4.243  78.333  1.00  0.00    -0.452 OA
ATOM     31  C   UNL     1     -40.261   3.763  79.745  1.00  0.00     0.111 A 
ATOM     32  O   UNL     1     -40.001   4.327  81.994  1.00  0.00    -0.285 OA
ATOM     33  C   UNL     1     -39.604   3.720  78.488  1.00  0.00     0.146 A 
ATOM     34  C   UNL     1     -41.572   3.208  79.847  1.00  0.00     0.134 A 
ATOM     35  C   UNL     1     -40.212   3.107  77.389  1.00  0.00     0.094 A 
ATOM     36  C   UNL     1     -42.136   2.564  78.740  1.00  0.00     0.093 A 
ATOM     37  C   UNL     1     -41.467   2.519  77.514  1.00  0.00     0.123 A 
BRANCH  28  38
ATOM     38  C   UNL     1     -36.340   5.291  79.036  1.00  0.00     0.025 A 
ATOM     39  C   UNL     1     -36.099   6.093  77.912  1.00  0.00     0.062 A 
ATOM     40  C   UNL     1     -35.265   4.928  79.863  1.00  0.00     0.016 A 
ATOM     41  C   UNL     1     -34.812   6.569  77.634  1.00  0.00     0.158 A 
ATOM     42  C   UNL     1     -33.977   5.391  79.589  1.00  0.00     0.051 A 
ATOM     43  C   UNL     1     -33.739   6.218  78.486  1.00  0.00     0.157 A 
BRANCH  41  44
ATOM     44  O   UNL     1     -34.647   7.384  76.512  1.00  0.00    -0.504 OA
ATOM     45  H   UNL     1     -33.752   7.703  76.171  1.00  0.00     0.293 HD
ENDBRANCH  41  44
BRANCH  43  46
ATOM     46  O   UNL     1     -32.432   6.669  78.280  1.00  0.00    -0.504 OA
ATOM     47  H   UNL     1     -31.850   6.381  77.508  1.00  0.00     0.293 HD
ENDBRANCH  43  46
ENDBRANCH  28  38
BRANCH  34  48
ATOM     48  O   UNL     1     -42.367   3.287  80.994  1.00  0.00    -0.507 OA
ATOM     49  H   UNL     1     -42.520   2.529  81.643  1.00  0.00     0.293 HD
ENDBRANCH  34  48
BRANCH  37  50
ATOM     50  O   UNL     1     -42.048   1.899  76.411  1.00  0.00    -0.508 OA
ATOM     51  H   UNL     1     -42.009   2.316  75.487  1.00  0.00     0.293 HD
ENDBRANCH  37  50
ENDBRANCH  26  27
ENDBRANCH   5  26
BRANCH   4  52
ATOM     52  O   UNL     1     -36.453   4.886  84.123  1.00  0.00    -0.384 OA
ATOM     53  H   UNL     1     -37.059   4.134  84.356  1.00  0.00     0.211 HD
ENDBRANCH   4  52
TORSDOF 16
ENDMDL
MODEL 3
REMARK VINA RESULT:    -6.141      1.861      5.760
REMARK INTER + INTRA:         -12.392
REMARK INTER:                  -9.986
REMARK INTRA:                  -2.406
REMARK UNBOUND:                -2.302
REMARK SMILES C[C@H]1O[C@H](OC[C@H]2O[C@@H](Oc3c(-c4ccc(O)c(O)c4)oc4cc(O)cc(O)c4c3=O)[C@@H](O)[C@@H](O)[C@H]2O)[C@@H](O)[C@@H](O)[C@H]1O
REMARK SMILES IDX 7 1 36 2 34 3 32 4 9 5 8 6 6 7 5 8 4 9 1 10 2 11 42 12 3 13
REMARK SMILES IDX 40 14 38 15 43 16 41 18 39 20 37 22 35 24 10 26 11 27 12 28
REMARK SMILES IDX 30 29 21 30 29 31 31 32 22 33 27 34 23 35 26 36 24 37 13 38
REMARK SMILES IDX 20 39 14 40 18 41 15 42 16 43 19 44 17 46 28 48 25 50 33 52
REMARK H PARENT 43 17 41 19 39 21 37 23 35 25 19 45 17 47 28 49 25 51 33 53
REMARK Flexibility Score: inf
ROOT
ATOM      1  C   UNL     1     -35.818   5.925  82.216  1.00  0.00     0.180 C 
ATOM      2  C   UNL     1     -36.565   5.985  83.575  1.00  0.00     0.177 C 
ATOM      3  C   UNL     1     -37.936   6.668  83.459  1.00  0.00     0.180 C 
ATOM      4  C   UNL     1     -37.778   8.002  82.715  1.00  0.00     0.214 C 
ATOM      5  C   UNL     1     -37.028   7.812  81.383  1.00  0.00     0.339 C 
ATOM      6  O   UNL     1     -35.762   7.190  81.563  1.00  0.00    -0.332 OA
ENDROOT
BRANCH   1   7
ATOM      7  C   UNL     1     -36.257   4.795  81.248  1.00  0.00     0.198 C 
BRANCH   7   8
ATOM      8  O   UNL     1     -37.418   4.133  81.713  1.00  0.00    -0.347 OA
BRANCH   8   9
ATOM      9  C   UNL     1     -37.755   3.006  80.915  1.00  0.00     0.281 C 
ATOM     10  C   UNL     1     -41.181   2.570  82.202  1.00  0.00     0.041 C 
ATOM     11  C   UNL     1     -40.033   3.233  81.436  1.00  0.00     0.150 C 
ATOM     12  C   UNL     1     -40.445   3.566  79.988  1.00  0.00     0.174 C 
ATOM     13  O   UNL     1     -38.907   2.368  81.447  1.00  0.00    -0.344 OA
ATOM     14  C   UNL     1     -39.260   4.247  79.280  1.00  0.00     0.179 C 
ATOM     15  C   UNL     1     -37.969   3.417  79.436  1.00  0.00     0.202 C 
BRANCH  12  16
ATOM     16  O   UNL     1     -40.817   2.385  79.316  1.00  0.00    -0.388 OA
ATOM     17  H   UNL     1     -40.815   1.654  79.990  1.00  0.00     0.211 HD
ENDBRANCH  12  16
BRANCH  14  18
ATOM     18  O   UNL     1     -39.562   4.444  77.922  1.00  0.00    -0.387 OA
ATOM     19  H   UNL     1     -40.425   3.980  77.746  1.00  0.00     0.211 HD
ENDBRANCH  14  18
BRANCH  15  20
ATOM     20  O   UNL     1     -38.032   2.276  78.623  1.00  0.00    -0.385 OA
ATOM     21  H   UNL     1     -38.847   1.775  78.895  1.00  0.00     0.211 HD
ENDBRANCH  15  20
ENDBRANCH   8   9
ENDBRANCH   7   8
ENDBRANCH   1   7
BRANCH   2  22
ATOM     22  O   UNL     1     -36.696   4.699  84.125  1.00  0.00    -0.387 OA
ATOM     23  H   UNL     1     -37.443   4.257  83.643  1.00  0.00     0.211 HD
ENDBRANCH   2  22
BRANCH   3  24
ATOM     24  O   UNL     1     -38.849   5.827  82.801  1.00  0.00    -0.387 OA
ATOM     25  H   UNL     1     -38.318   5.178  82.270  1.00  0.00     0.211 HD
ENDBRANCH   3  24
BRANCH   5  26
ATOM     26  O   UNL     1     -37.814   7.095  80.423  1.00  0.00    -0.454 OA
BRANCH  26  27
ATOM     27  C   UNL     1     -38.234   7.624  79.193  1.00  0.00     0.214 A 
ATOM     28  C   UNL     1     -37.326   7.914  78.154  1.00  0.00     0.180 A 
ATOM     29  C   UNL     1     -39.598   7.854  78.983  1.00  0.00     0.239 A 
ATOM     30  O   UNL     1     -37.769   8.472  77.031  1.00  0.00    -0.452 OA
ATOM     31  C   UNL     1     -40.036   8.477  77.792  1.00  0.00     0.111 A 
ATOM     32  O   UNL     1     -40.410   7.473  79.864  1.00  0.00    -0.285 OA
ATOM     33  C   UNL     1     -39.048   8.753  76.810  1.00  0.00     0.146 A 
ATOM     34  C   UNL     1     -41.391   8.823  77.510  1.00  0.00     0.134 A 
ATOM     35  C   UNL     1     -39.407   9.306  75.578  1.00  0.00     0.094 A 
ATOM     36  C   UNL     1     -41.724   9.337  76.251  1.00  0.00     0.093 A 
ATOM     37  C   UNL     1     -40.741   9.587  75.291  1.00  0.00     0.123 A 
BRANCH  28  38
ATOM     38  C   UNL     1     -35.888   7.580  78.244  1.00  0.00     0.025 A 
ATOM     39  C   UNL     1     -35.490   6.240  78.344  1.00  0.00     0.062 A 
ATOM     40  C   UNL     1     -34.912   8.590  78.258  1.00  0.00     0.016 A 
ATOM     41  C   UNL     1     -34.133   5.899  78.410  1.00  0.00     0.158 A 
ATOM     42  C   UNL     1     -33.558   8.260  78.331  1.00  0.00     0.051 A 
ATOM     43  C   UNL     1     -33.155   6.921  78.398  1.00  0.00     0.157 A 
BRANCH  41  44
ATOM     44  O   UNL     1     -33.805   4.544  78.482  1.00  0.00    -0.504 OA
ATOM     45  H   UNL     1     -33.015   4.128  78.011  1.00  0.00     0.293 HD
ENDBRANCH  41  44
BRANCH  43  46
ATOM     46  O   UNL     1     -31.784   6.655  78.446  1.00  0.00    -0.504 OA
ATOM     47  H   UNL     1     -31.148   7.076  79.106  1.00  0.00     0.293 HD
ENDBRANCH  43  46
ENDBRANCH  28  38
BRANCH  34  48
ATOM     48  O   UNL     1     -42.435   8.708  78.432  1.00  0.00    -0.507 OA
ATOM     49  H   UNL     1     -42.609   9.352  79.191  1.00  0.00     0.293 HD
ENDBRANCH  34  48
BRANCH  37  50
ATOM     50  O   UNL     1     -41.077  10.124  74.052  1.00  0.00    -0.508 OA
ATOM     51  H   UNL     1     -41.425   9.541  73.297  1.00  0.00     0.293 HD
ENDBRANCH  37  50
ENDBRANCH  26  27
ENDBRANCH   5  26
BRANCH   4  52
ATOM     52  O   UNL     1     -39.030   8.598  82.483  1.00  0.00    -0.384 OA
ATOM     53  H   UNL     1     -39.361   8.919  83.362  1.00  0.00     0.211 HD
ENDBRANCH   4  52
TORSDOF 16
ENDMDL
MODEL 4
REMARK VINA RESULT:    -5.847      2.102      5.947
REMARK INTER + INTRA:         -11.909
REMARK INTER:                  -9.540
REMARK INTRA:                  -2.369
REMARK UNBOUND:                -2.302
REMARK SMILES C[C@H]1O[C@H](OC[C@H]2O[C@@H](Oc3c(-c4ccc(O)c(O)c4)oc4cc(O)cc(O)c4c3=O)[C@@H](O)[C@@H](O)[C@H]2O)[C@@H](O)[C@@H](O)[C@H]1O
REMARK SMILES IDX 7 1 36 2 34 3 32 4 9 5 8 6 6 7 5 8 4 9 1 10 2 11 42 12 3 13
REMARK SMILES IDX 40 14 38 15 43 16 41 18 39 20 37 22 35 24 10 26 11 27 12 28
REMARK SMILES IDX 30 29 21 30 29 31 31 32 22 33 27 34 23 35 26 36 24 37 13 38
REMARK SMILES IDX 20 39 14 40 18 41 15 42 16 43 19 44 17 46 28 48 25 50 33 52
REMARK H PARENT 43 17 41 19 39 21 37 23 35 25 19 45 17 47 28 49 25 51 33 53
REMARK Flexibility Score: inf
ROOT
ATOM      1  C   UNL     1     -36.412   9.162  81.100  1.00  0.00     0.180 C 
ATOM      2  C   UNL     1     -36.486   9.396  82.633  1.00  0.00     0.177 C 
ATOM      3  C   UNL     1     -37.387   8.373  83.339  1.00  0.00     0.180 C 
ATOM      4  C   UNL     1     -38.732   8.287  82.603  1.00  0.00     0.214 C 
ATOM      5  C   UNL     1     -38.528   8.047  81.095  1.00  0.00     0.339 C 
ATOM      6  O   UNL     1     -37.700   9.038  80.501  1.00  0.00    -0.332 OA
ENDROOT
BRANCH   1   7
ATOM      7  C   UNL     1     -35.447   8.042  80.630  1.00  0.00     0.198 C 
BRANCH   7   8
ATOM      8  O   UNL     1     -35.172   7.121  81.668  1.00  0.00    -0.347 OA
BRANCH   8   9
ATOM      9  C   UNL     1     -34.219   6.139  81.283  1.00  0.00     0.281 C 
ATOM     10  C   UNL     1     -31.924   6.620  84.125  1.00  0.00     0.041 C 
ATOM     11  C   UNL     1     -33.203   6.196  83.398  1.00  0.00     0.150 C 
ATOM     12  C   UNL     1     -33.591   4.747  83.747  1.00  0.00     0.174 C 
ATOM     13  O   UNL     1     -33.009   6.337  81.999  1.00  0.00    -0.344 OA
ATOM     14  C   UNL     1     -34.891   4.389  83.004  1.00  0.00     0.179 C 
ATOM     15  C   UNL     1     -34.777   4.709  81.500  1.00  0.00     0.202 C 
BRANCH  12  16
ATOM     16  O   UNL     1     -32.549   3.873  83.378  1.00  0.00    -0.388 OA
ATOM     17  H   UNL     1     -32.488   3.178  84.086  1.00  0.00     0.211 HD
ENDBRANCH  12  16
BRANCH  14  18
ATOM     18  O   UNL     1     -35.198   3.032  83.201  1.00  0.00    -0.387 OA
ATOM     19  H   UNL     1     -36.185   2.941  83.104  1.00  0.00     0.211 HD
ENDBRANCH  14  18
BRANCH  15  20
ATOM     20  O   UNL     1     -33.948   3.768  80.872  1.00  0.00    -0.385 OA
ATOM     21  H   UNL     1     -33.528   3.228  81.595  1.00  0.00     0.211 HD
ENDBRANCH  15  20
ENDBRANCH   8   9
ENDBRANCH   7   8
ENDBRANCH   1   7
BRANCH   2  22
ATOM     22  O   UNL     1     -35.199   9.396  83.196  1.00  0.00    -0.387 OA
ATOM     23  H   UNL     1     -35.161   8.627  83.823  1.00  0.00     0.211 HD
ENDBRANCH   2  22
BRANCH   3  24
ATOM     24  O   UNL     1     -36.758   7.118  83.390  1.00  0.00    -0.387 OA
ATOM     25  H   UNL     1     -36.840   6.713  82.487  1.00  0.00     0.211 HD
ENDBRANCH   3  24
BRANCH   5  26
ATOM     26  O   UNL     1     -38.025   6.734  80.824  1.00  0.00    -0.454 OA
BRANCH  26  27
ATOM     27  C   UNL     1     -38.642   5.813  79.963  1.00  0.00     0.214 A 
ATOM     28  C   UNL     1     -38.255   5.674  78.615  1.00  0.00     0.180 A 
ATOM     29  C   UNL     1     -39.660   4.993  80.463  1.00  0.00     0.239 A 
ATOM     30  O   UNL     1     -38.914   4.831  77.826  1.00  0.00    -0.452 OA
ATOM     31  C   UNL     1     -40.363   4.129  79.593  1.00  0.00     0.111 A 
ATOM     32  O   UNL     1     -39.908   5.034  81.695  1.00  0.00    -0.285 OA
ATOM     33  C   UNL     1     -39.918   4.070  78.247  1.00  0.00     0.146 A 
ATOM     34  C   UNL     1     -41.463   3.308  79.983  1.00  0.00     0.134 A 
ATOM     35  C   UNL     1     -40.516   3.192  77.339  1.00  0.00     0.094 A 
ATOM     36  C   UNL     1     -42.013   2.409  79.062  1.00  0.00     0.093 A 
ATOM     37  C   UNL     1     -41.551   2.353  77.745  1.00  0.00     0.123 A 
BRANCH  28  38
ATOM     38  C   UNL     1     -37.104   6.406  78.043  1.00  0.00     0.025 A 
ATOM     39  C   UNL     1     -37.285   7.702  77.541  1.00  0.00     0.062 A 
ATOM     40  C   UNL     1     -35.833   5.813  77.970  1.00  0.00     0.016 A 
ATOM     41  C   UNL     1     -36.206   8.423  77.013  1.00  0.00     0.158 A 
ATOM     42  C   UNL     1     -34.755   6.520  77.439  1.00  0.00     0.051 A 
ATOM     43  C   UNL     1     -34.924   7.826  76.966  1.00  0.00     0.157 A 
BRANCH  41  44
ATOM     44  O   UNL     1     -36.450   9.719  76.554  1.00  0.00    -0.504 OA
ATOM     45  H   UNL     1     -36.577  10.518  77.157  1.00  0.00     0.293 HD
ENDBRANCH  41  44
BRANCH  43  46
ATOM     46  O   UNL     1     -33.800   8.490  76.468  1.00  0.00    -0.504 OA
ATOM     47  H   UNL     1     -33.105   8.061  75.876  1.00  0.00     0.293 HD
ENDBRANCH  43  46
ENDBRANCH  28  38
BRANCH  34  48
ATOM     48  O   UNL     1     -42.066   3.355  81.244  1.00  0.00    -0.507 OA
ATOM     49  H   UNL     1     -42.165   4.189  81.804  1.00  0.00     0.293 HD
ENDBRANCH  34  48
BRANCH  37  50
ATOM     50  O   UNL     1     -42.122   1.475  76.828  1.00  0.00    -0.508 OA
ATOM     51  H   UNL     1     -43.008   1.017  77.012  1.00  0.00     0.293 HD
ENDBRANCH  37  50
ENDBRANCH  26  27
ENDBRANCH   5  26
BRANCH   4  52
ATOM     52  O   UNL     1     -39.538   7.272  83.148  1.00  0.00    -0.384 OA
ATOM     53  H   UNL     1     -39.555   7.417  84.130  1.00  0.00     0.211 HD
ENDBRANCH   4  52
TORSDOF 16
ENDMDL
MODEL 5
REMARK VINA RESULT:    -5.675      2.118      7.059
REMARK INTER + INTRA:         -11.627
REMARK INTER:                  -9.804
REMARK INTRA:                  -1.823
REMARK UNBOUND:                -2.302
REMARK SMILES C[C@H]1O[C@H](OC[C@H]2O[C@@H](Oc3c(-c4ccc(O)c(O)c4)oc4cc(O)cc(O)c4c3=O)[C@@H](O)[C@@H](O)[C@H]2O)[C@@H](O)[C@@H](O)[C@H]1O
REMARK SMILES IDX 7 1 36 2 34 3 32 4 9 5 8 6 6 7 5 8 4 9 1 10 2 11 42 12 3 13
REMARK SMILES IDX 40 14 38 15 43 16 41 18 39 20 37 22 35 24 10 26 11 27 12 28
REMARK SMILES IDX 30 29 21 30 29 31 31 32 22 33 27 34 23 35 26 36 24 37 13 38
REMARK SMILES IDX 20 39 14 40 18 41 15 42 16 43 19 44 17 46 28 48 25 50 33 52
REMARK H PARENT 43 17 41 19 39 21 37 23 35 25 19 45 17 47 28 49 25 51 33 53
REMARK Flexibility Score: inf
ROOT
ATOM      1  C   UNL     1     -38.832   6.399  78.690  1.00  0.00     0.180 C 
ATOM      2  C   UNL     1     -38.838   7.360  77.470  1.00  0.00     0.177 C 
ATOM      3  C   UNL     1     -37.630   8.308  77.468  1.00  0.00     0.180 C 
ATOM      4  C   UNL     1     -37.497   8.968  78.848  1.00  0.00     0.214 C 
ATOM      5  C   UNL     1     -37.498   7.914  79.972  1.00  0.00     0.339 C 
ATOM      6  O   UNL     1     -38.649   7.082  79.927  1.00  0.00    -0.332 OA
ENDROOT
BRANCH   1   7
ATOM      7  C   UNL     1     -37.906   5.159  78.574  1.00  0.00     0.198 C 
BRANCH   7   8
ATOM      8  O   UNL     1     -37.914   4.390  79.762  1.00  0.00    -0.347 OA
BRANCH   8   9
ATOM      9  C   UNL     1     -38.281   3.037  79.528  1.00  0.00     0.281 C 
ATOM     10  C   UNL     1     -41.400   3.087  81.490  1.00  0.00     0.041 C 
ATOM     11  C   UNL     1     -40.454   3.416  80.332  1.00  0.00     0.150 C 
ATOM     12  C   UNL     1     -41.124   3.154  78.969  1.00  0.00     0.174 C 
ATOM     13  O   UNL     1     -39.273   2.640  80.464  1.00  0.00    -0.344 OA
ATOM     14  C   UNL     1     -40.133   3.522  77.851  1.00  0.00     0.179 C 
ATOM     15  C   UNL     1     -38.768   2.838  78.071  1.00  0.00     0.202 C 
BRANCH  12  16
ATOM     16  O   UNL     1     -41.500   1.800  78.877  1.00  0.00    -0.388 OA
ATOM     17  H   UNL     1     -40.661   1.266  78.853  1.00  0.00     0.211 HD
ENDBRANCH  12  16
BRANCH  14  18
ATOM     18  O   UNL     1     -40.669   3.172  76.600  1.00  0.00    -0.387 OA
ATOM     19  H   UNL     1     -40.247   3.770  75.925  1.00  0.00     0.211 HD
ENDBRANCH  14  18
BRANCH  15  20
ATOM     20  O   UNL     1     -38.867   1.469  77.778  1.00  0.00    -0.385 OA
ATOM     21  H   UNL     1     -39.834   1.237  77.815  1.00  0.00     0.211 HD
ENDBRANCH  15  20
ENDBRANCH   8   9
ENDBRANCH   7   8
ENDBRANCH   1   7
BRANCH   2  22
ATOM     22  O   UNL     1     -38.903   6.634  76.270  1.00  0.00    -0.387 OA
ATOM     23  H   UNL     1     -39.865   6.557  76.035  1.00  0.00     0.211 HD
ENDBRANCH   2  22
BRANCH   3  24
ATOM     24  O   UNL     1     -36.459   7.610  77.127  1.00  0.00    -0.387 OA
ATOM     25  H   UNL     1     -36.491   7.445  76.148  1.00  0.00     0.211 HD
ENDBRANCH   3  24
BRANCH   5  26
ATOM     26  O   UNL     1     -36.301   7.127  79.969  1.00  0.00    -0.454 OA
BRANCH  26  27
ATOM     27  C   UNL     1     -35.225   7.323  80.847  1.00  0.00     0.214 A 
ATOM     28  C   UNL     1     -35.218   6.791  82.153  1.00  0.00     0.180 A 
ATOM     29  C   UNL     1     -34.113   8.051  80.408  1.00  0.00     0.239 A 
ATOM     30  O   UNL     1     -34.201   7.059  82.966  1.00  0.00    -0.452 OA
ATOM     31  C   UNL     1     -33.061   8.346  81.305  1.00  0.00     0.111 A 
ATOM     32  O   UNL     1     -34.073   8.409  79.203  1.00  0.00    -0.285 OA
ATOM     33  C   UNL     1     -33.150   7.787  82.607  1.00  0.00     0.146 A 
ATOM     34  C   UNL     1     -31.921   9.141  80.981  1.00  0.00     0.134 A 
ATOM     35  C   UNL     1     -32.119   7.975  83.532  1.00  0.00     0.094 A 
ATOM     36  C   UNL     1     -30.887   9.275  81.915  1.00  0.00     0.093 A 
ATOM     37  C   UNL     1     -30.985   8.705  83.187  1.00  0.00     0.123 A 
BRANCH  28  38
ATOM     38  C   UNL     1     -36.291   5.903  82.650  1.00  0.00     0.025 A 
ATOM     39  C   UNL     1     -36.134   4.512  82.573  1.00  0.00     0.062 A 
ATOM     40  C   UNL     1     -37.481   6.431  83.178  1.00  0.00     0.016 A 
ATOM     41  C   UNL     1     -37.127   3.651  83.057  1.00  0.00     0.158 A 
ATOM     42  C   UNL     1     -38.479   5.581  83.654  1.00  0.00     0.051 A 
ATOM     43  C   UNL     1     -38.312   4.192  83.609  1.00  0.00     0.157 A 
BRANCH  41  44
ATOM     44  O   UNL     1     -36.895   2.276  82.973  1.00  0.00    -0.504 OA
ATOM     45  H   UNL     1     -36.550   1.811  82.146  1.00  0.00     0.293 HD
ENDBRANCH  41  44
BRANCH  43  46
ATOM     46  O   UNL     1     -39.337   3.395  84.124  1.00  0.00    -0.504 OA
ATOM     47  H   UNL     1     -40.263   3.733  84.340  1.00  0.00     0.293 HD
ENDBRANCH  43  46
ENDBRANCH  28  38
BRANCH  34  48
ATOM     48  O   UNL     1     -31.769   9.836  79.778  1.00  0.00    -0.507 OA
ATOM     49  H   UNL     1     -31.203  10.663  79.658  1.00  0.00     0.293 HD
ENDBRANCH  34  48
BRANCH  37  50
ATOM     50  O   UNL     1     -29.963   8.866  84.119  1.00  0.00    -0.508 OA
ATOM     51  H   UNL     1     -29.608   8.083  84.658  1.00  0.00     0.293 HD
ENDBRANCH  37  50
ENDBRANCH  26  27
ENDBRANCH   5  26
BRANCH   4  52
ATOM     52  O   UNL     1     -36.331   9.750  78.920  1.00  0.00    -0.384 OA
ATOM     53  H   UNL     1     -35.785   9.380  79.662  1.00  0.00     0.211 HD
ENDBRANCH   4  52
TORSDOF 16
ENDMDL
MODEL 6
REMARK VINA RESULT:    -5.623      2.157      6.062
REMARK INTER + INTRA:         -11.541
REMARK INTER:                  -9.377
REMARK INTRA:                  -2.164
REMARK UNBOUND:                -2.302
REMARK SMILES C[C@H]1O[C@H](OC[C@H]2O[C@@H](Oc3c(-c4ccc(O)c(O)c4)oc4cc(O)cc(O)c4c3=O)[C@@H](O)[C@@H](O)[C@H]2O)[C@@H](O)[C@@H](O)[C@H]1O
REMARK SMILES IDX 7 1 36 2 34 3 32 4 9 5 8 6 6 7 5 8 4 9 1 10 2 11 42 12 3 13
REMARK SMILES IDX 40 14 38 15 43 16 41 18 39 20 37 22 35 24 10 26 11 27 12 28
REMARK SMILES IDX 30 29 21 30 29 31 31 32 22 33 27 34 23 35 26 36 24 37 13 38
REMARK SMILES IDX 20 39 14 40 18 41 15 42 16 43 19 44 17 46 28 48 25 50 33 52
REMARK H PARENT 43 17 41 19 39 21 37 23 35 25 19 45 17 47 28 49 25 51 33 53
REMARK Flexibility Score: inf
ROOT
ATOM      1  C   UNL     1     -35.597   9.463  81.624  1.00  0.00     0.180 C 
ATOM      2  C   UNL     1     -36.369  10.114  82.803  1.00  0.00     0.177 C 
ATOM      3  C   UNL     1     -37.802   9.577  82.930  1.00  0.00     0.180 C 
ATOM      4  C   UNL     1     -38.490   9.633  81.559  1.00  0.00     0.214 C 
ATOM      5  C   UNL     1     -37.632   8.952  80.476  1.00  0.00     0.339 C 
ATOM      6  O   UNL     1     -36.325   9.506  80.400  1.00  0.00    -0.332 OA
ENDROOT
BRANCH   1   7
ATOM      7  C   UNL     1     -35.006   8.054  81.894  1.00  0.00     0.198 C 
BRANCH   7   8
ATOM      8  O   UNL     1     -35.594   7.452  83.032  1.00  0.00    -0.347 OA
BRANCH   8   9
ATOM      9  C   UNL     1     -34.903   6.279  83.441  1.00  0.00     0.281 C 
ATOM     10  C   UNL     1     -37.889   4.231  84.125  1.00  0.00     0.041 C 
ATOM     11  C   UNL     1     -36.859   4.990  83.285  1.00  0.00     0.150 C 
ATOM     12  C   UNL     1     -36.325   4.118  82.132  1.00  0.00     0.174 C 
ATOM     13  O   UNL     1     -35.795   5.411  84.125  1.00  0.00    -0.344 OA
ATOM     14  C   UNL     1     -35.313   4.941  81.315  1.00  0.00     0.179 C 
ATOM     15  C   UNL     1     -34.243   5.572  82.230  1.00  0.00     0.202 C 
BRANCH  12  16
ATOM     16  O   UNL     1     -35.719   2.958  82.654  1.00  0.00    -0.388 OA
ATOM     17  H   UNL     1     -34.898   3.249  83.132  1.00  0.00     0.211 HD
ENDBRANCH  12  16
BRANCH  14  18
ATOM     18  O   UNL     1     -34.714   4.131  80.336  1.00  0.00    -0.387 OA
ATOM     19  H   UNL     1     -35.222   3.275  80.316  1.00  0.00     0.211 HD
ENDBRANCH  14  18
BRANCH  15  20
ATOM     20  O   UNL     1     -33.352   4.584  82.675  1.00  0.00    -0.385 OA
ATOM     21  H   UNL     1     -33.393   3.842  82.013  1.00  0.00     0.211 HD
ENDBRANCH  15  20
ENDBRANCH   8   9
ENDBRANCH   7   8
ENDBRANCH   1   7
BRANCH   2  22
ATOM     22  O   UNL     1     -35.666   9.945  84.007  1.00  0.00    -0.387 OA
ATOM     23  H   UNL     1     -36.222  10.352  84.722  1.00  0.00     0.211 HD
ENDBRANCH   2  22
BRANCH   3  24
ATOM     24  O   UNL     1     -37.793   8.267  83.437  1.00  0.00    -0.387 OA
ATOM     25  H   UNL     1     -38.063   7.664  82.696  1.00  0.00     0.211 HD
ENDBRANCH   3  24
BRANCH   5  26
ATOM     26  O   UNL     1     -37.572   7.532  80.654  1.00  0.00    -0.454 OA
BRANCH  26  27
ATOM     27  C   UNL     1     -38.181   6.602  79.797  1.00  0.00     0.214 A 
ATOM     28  C   UNL     1     -37.815   6.484  78.441  1.00  0.00     0.180 A 
ATOM     29  C   UNL     1     -39.168   5.751  80.308  1.00  0.00     0.239 A 
ATOM     30  O   UNL     1     -38.465   5.630  77.657  1.00  0.00    -0.452 OA
ATOM     31  C   UNL     1     -39.864   4.876  79.444  1.00  0.00     0.111 A 
ATOM     32  O   UNL     1     -39.394   5.776  81.545  1.00  0.00    -0.285 OA
ATOM     33  C   UNL     1     -39.442   4.839  78.089  1.00  0.00     0.146 A 
ATOM     34  C   UNL     1     -40.934   4.023  79.847  1.00  0.00     0.134 A 
ATOM     35  C   UNL     1     -40.033   3.953  77.185  1.00  0.00     0.094 A 
ATOM     36  C   UNL     1     -41.477   3.117  78.928  1.00  0.00     0.093 A 
ATOM     37  C   UNL     1     -41.038   3.084  77.602  1.00  0.00     0.123 A 
BRANCH  28  38
ATOM     38  C   UNL     1     -36.694   7.251  77.854  1.00  0.00     0.025 A 
ATOM     39  C   UNL     1     -35.375   6.831  78.072  1.00  0.00     0.062 A 
ATOM     40  C   UNL     1     -36.930   8.413  77.101  1.00  0.00     0.016 A 
ATOM     41  C   UNL     1     -34.299   7.529  77.509  1.00  0.00     0.158 A 
ATOM     42  C   UNL     1     -35.864   9.119  76.544  1.00  0.00     0.051 A 
ATOM     43  C   UNL     1     -34.547   8.685  76.732  1.00  0.00     0.157 A 
BRANCH  41  44
ATOM     44  O   UNL     1     -33.011   7.041  77.744  1.00  0.00    -0.504 OA
ATOM     45  H   UNL     1     -32.334   6.861  77.018  1.00  0.00     0.293 HD
ENDBRANCH  41  44
BRANCH  43  46
ATOM     46  O   UNL     1     -33.525   9.422  76.128  1.00  0.00    -0.504 OA
ATOM     47  H   UNL     1     -33.630   9.934  75.264  1.00  0.00     0.293 HD
ENDBRANCH  43  46
ENDBRANCH  28  38
BRANCH  34  48
ATOM     48  O   UNL     1     -41.515   4.044  81.118  1.00  0.00    -0.507 OA
ATOM     49  H   UNL     1     -42.285   3.461  81.411  1.00  0.00     0.293 HD
ENDBRANCH  34  48
BRANCH  37  50
ATOM     50  O   UNL     1     -41.602   2.198  76.688  1.00  0.00    -0.508 OA
ATOM     51  H   UNL     1     -41.743   2.455  75.717  1.00  0.00     0.293 HD
ENDBRANCH  37  50
ENDBRANCH  26  27
ENDBRANCH   5  26
BRANCH   4  52
ATOM     52  O   UNL     1     -39.763   9.037  81.611  1.00  0.00    -0.384 OA
ATOM     53  H   UNL     1     -39.855   8.488  80.789  1.00  0.00     0.211 HD
ENDBRANCH   4  52
TORSDOF 16
ENDMDL
MODEL 7
REMARK VINA RESULT:    -5.583      1.690      6.351
REMARK INTER + INTRA:         -11.474
REMARK INTER:                 -10.517
REMARK INTRA:                  -0.957
REMARK UNBOUND:                -2.302
REMARK SMILES C[C@H]1O[C@H](OC[C@H]2O[C@@H](Oc3c(-c4ccc(O)c(O)c4)oc4cc(O)cc(O)c4c3=O)[C@@H](O)[C@@H](O)[C@H]2O)[C@@H](O)[C@@H](O)[C@H]1O
REMARK SMILES IDX 7 1 36 2 34 3 32 4 9 5 8 6 6 7 5 8 4 9 1 10 2 11 42 12 3 13
REMARK SMILES IDX 40 14 38 15 43 16 41 18 39 20 37 22 35 24 10 26 11 27 12 28
REMARK SMILES IDX 30 29 21 30 29 31 31 32 22 33 27 34 23 35 26 36 24 37 13 38
REMARK SMILES IDX 20 39 14 40 18 41 15 42 16 43 19 44 17 46 28 48 25 50 33 52
REMARK H PARENT 43 17 41 19 39 21 37 23 35 25 19 45 17 47 28 49 25 51 33 53
REMARK Flexibility Score: inf
ROOT
ATOM      1  C   UNL     1     -38.473   3.309  78.546  1.00  0.00     0.180 C 
ATOM      2  C   UNL     1     -39.842   2.610  78.322  1.00  0.00     0.177 C 
ATOM      3  C   UNL     1     -40.959   3.225  79.177  1.00  0.00     0.180 C 
ATOM      4  C   UNL     1     -40.486   3.331  80.633  1.00  0.00     0.214 C 
ATOM      5  C   UNL     1     -39.124   4.046  80.726  1.00  0.00     0.339 C 
ATOM      6  O   UNL     1     -38.132   3.418  79.926  1.00  0.00    -0.332 OA
ENDROOT
BRANCH   1   7
ATOM      7  C   UNL     1     -38.262   4.648  77.793  1.00  0.00     0.198 C 
BRANCH   7   8
ATOM      8  O   UNL     1     -37.206   5.403  78.357  1.00  0.00    -0.347 OA
BRANCH   8   9
ATOM      9  C   UNL     1     -35.930   4.974  77.899  1.00  0.00     0.281 C 
ATOM     10  C   UNL     1     -34.631   8.315  77.042  1.00  0.00     0.041 C 
ATOM     11  C   UNL     1     -35.102   7.171  77.944  1.00  0.00     0.150 C 
ATOM     12  C   UNL     1     -34.078   6.880  79.059  1.00  0.00     0.174 C 
ATOM     13  O   UNL     1     -35.316   6.013  77.151  1.00  0.00    -0.344 OA
ATOM     14  C   UNL     1     -34.616   5.738  79.940  1.00  0.00     0.179 C 
ATOM     15  C   UNL     1     -35.037   4.527  79.084  1.00  0.00     0.202 C 
BRANCH  12  16
ATOM     16  O   UNL     1     -32.840   6.528  78.488  1.00  0.00    -0.388 OA
ATOM     17  H   UNL     1     -32.547   5.684  78.924  1.00  0.00     0.211 HD
ENDBRANCH  12  16
BRANCH  14  18
ATOM     18  O   UNL     1     -33.647   5.365  80.886  1.00  0.00    -0.387 OA
ATOM     19  H   UNL     1     -32.839   5.082  80.378  1.00  0.00     0.211 HD
ENDBRANCH  14  18
BRANCH  15  20
ATOM     20  O   UNL     1     -33.899   3.861  78.605  1.00  0.00    -0.385 OA
ATOM     21  H   UNL     1     -33.114   4.422  78.851  1.00  0.00     0.211 HD
ENDBRANCH  15  20
ENDBRANCH   8   9
ENDBRANCH   7   8
ENDBRANCH   1   7
BRANCH   2  22
ATOM     22  O   UNL     1     -40.189   2.630  76.961  1.00  0.00    -0.387 OA
ATOM     23  H   UNL     1     -39.640   3.340  76.536  1.00  0.00     0.211 HD
ENDBRANCH   2  22
BRANCH   3  24
ATOM     24  O   UNL     1     -41.327   4.484  78.672  1.00  0.00    -0.387 OA
ATOM     25  H   UNL     1     -41.852   4.941  79.380  1.00  0.00     0.211 HD
ENDBRANCH   3  24
BRANCH   5  26
ATOM     26  O   UNL     1     -39.227   5.439  80.408  1.00  0.00    -0.454 OA
BRANCH  26  27
ATOM     27  C   UNL     1     -38.304   6.414  80.817  1.00  0.00     0.214 A 
ATOM     28  C   UNL     1     -38.171   7.646  80.147  1.00  0.00     0.180 A 
ATOM     29  C   UNL     1     -37.504   6.163  81.938  1.00  0.00     0.239 A 
ATOM     30  O   UNL     1     -37.238   8.509  80.538  1.00  0.00    -0.452 OA
ATOM     31  C   UNL     1     -36.500   7.085  82.311  1.00  0.00     0.111 A 
ATOM     32  O   UNL     1     -37.721   5.119  82.603  1.00  0.00    -0.285 OA
ATOM     33  C   UNL     1     -36.425   8.291  81.565  1.00  0.00     0.146 A 
ATOM     34  C   UNL     1     -35.585   6.893  83.388  1.00  0.00     0.134 A 
ATOM     35  C   UNL     1     -35.504   9.284  81.911  1.00  0.00     0.094 A 
ATOM     36  C   UNL     1     -34.703   7.924  83.736  1.00  0.00     0.093 A 
ATOM     37  C   UNL     1     -34.654   9.109  83.000  1.00  0.00     0.123 A 
BRANCH  28  38
ATOM     38  C   UNL     1     -39.065   8.044  79.037  1.00  0.00     0.025 A 
ATOM     39  C   UNL     1     -38.515   8.496  77.829  1.00  0.00     0.062 A 
ATOM     40  C   UNL     1     -40.461   8.001  79.182  1.00  0.00     0.016 A 
ATOM     41  C   UNL     1     -39.341   8.858  76.758  1.00  0.00     0.158 A 
ATOM     42  C   UNL     1     -41.291   8.367  78.123  1.00  0.00     0.051 A 
ATOM     43  C   UNL     1     -40.747   8.788  76.905  1.00  0.00     0.157 A 
BRANCH  41  44
ATOM     44  O   UNL     1     -38.727   9.275  75.574  1.00  0.00    -0.504 OA
ATOM     45  H   UNL     1     -39.027   8.994  74.653  1.00  0.00     0.293 HD
ENDBRANCH  41  44
BRANCH  43  46
ATOM     46  O   UNL     1     -41.631   9.118  75.874  1.00  0.00    -0.504 OA
ATOM     47  H   UNL     1     -41.853  10.064  75.601  1.00  0.00     0.293 HD
ENDBRANCH  43  46
ENDBRANCH  28  38
BRANCH  34  48
ATOM     48  O   UNL     1     -35.482   5.710  84.125  1.00  0.00    -0.507 OA
ATOM     49  H   UNL     1     -34.909   4.918  83.868  1.00  0.00     0.293 HD
ENDBRANCH  34  48
BRANCH  37  50
ATOM     50  O   UNL     1     -33.755  10.118  83.336  1.00  0.00    -0.508 OA
ATOM     51  H   UNL     1     -33.914  10.727  84.132  1.00  0.00     0.293 HD
ENDBRANCH  37  50
ENDBRANCH  26  27
ENDBRANCH   5  26
BRANCH   4  52
ATOM     52  O   UNL     1     -41.437   4.001  81.423  1.00  0.00    -0.384 OA
ATOM     53  H   UNL     1     -41.552   3.463  82.250  1.00  0.00     0.211 HD
ENDBRANCH   4  52
TORSDOF 16
ENDMDL
MODEL 8
REMARK VINA RESULT:    -5.452     11.997     15.742
REMARK INTER + INTRA:         -11.259
REMARK INTER:                  -9.918
REMARK INTRA:                  -1.341
REMARK UNBOUND:                -2.302
REMARK SMILES C[C@H]1O[C@H](OC[C@H]2O[C@@H](Oc3c(-c4ccc(O)c(O)c4)oc4cc(O)cc(O)c4c3=O)[C@@H](O)[C@@H](O)[C@H]2O)[C@@H](O)[C@@H](O)[C@H]1O
REMARK SMILES IDX 7 1 36 2 34 3 32 4 9 5 8 6 6 7 5 8 4 9 1 10 2 11 42 12 3 13
REMARK SMILES IDX 40 14 38 15 43 16 41 18 39 20 37 22 35 24 10 26 11 27 12 28
REMARK SMILES IDX 30 29 21 30 29 31 31 32 22 33 27 34 23 35 26 36 24 37 13 38
REMARK SMILES IDX 20 39 14 40 18 41 15 42 16 43 19 44 17 46 28 48 25 50 33 52
REMARK H PARENT 43 17 41 19 39 21 37 23 35 25 19 45 17 47 28 49 25 51 33 53
REMARK Flexibility Score: inf
ROOT
ATOM      1  C   UNL     1     -42.666  -9.056  80.172  1.00  0.00     0.180 C 
ATOM      2  C   UNL     1     -43.639  -9.170  81.376  1.00  0.00     0.177 C 
ATOM      3  C   UNL     1     -42.977  -8.769  82.702  1.00  0.00     0.180 C 
ATOM      4  C   UNL     1     -41.636  -9.504  82.845  1.00  0.00     0.214 C 
ATOM      5  C   UNL     1     -40.759  -9.311  81.593  1.00  0.00     0.339 C 
ATOM      6  O   UNL     1     -41.425  -9.716  80.404  1.00  0.00    -0.332 OA
ENDROOT
BRANCH   1   7
ATOM      7  C   UNL     1     -42.462  -7.629  79.596  1.00  0.00     0.198 C 
BRANCH   7   8
ATOM      8  O   UNL     1     -43.454  -7.307  78.640  1.00  0.00    -0.347 OA
BRANCH   8   9
ATOM      9  C   UNL     1     -43.836  -5.939  78.696  1.00  0.00     0.281 C 
ATOM     10  C   UNL     1     -44.282  -5.461  75.069  1.00  0.00     0.041 C 
ATOM     11  C   UNL     1     -44.590  -5.987  76.474  1.00  0.00     0.150 C 
ATOM     12  C   UNL     1     -46.064  -5.742  76.852  1.00  0.00     0.174 C 
ATOM     13  O   UNL     1     -43.725  -5.356  77.406  1.00  0.00    -0.344 OA
ATOM     14  C   UNL     1     -46.316  -6.310  78.260  1.00  0.00     0.179 C 
ATOM     15  C   UNL     1     -45.269  -5.785  79.265  1.00  0.00     0.202 C 
BRANCH  12  16
ATOM     16  O   UNL     1     -46.342  -4.362  76.813  1.00  0.00    -0.388 OA
ATOM     17  H   UNL     1     -45.712  -3.920  77.443  1.00  0.00     0.211 HD
ENDBRANCH  12  16
BRANCH  14  18
ATOM     18  O   UNL     1     -47.616  -5.986  78.683  1.00  0.00    -0.387 OA
ATOM     19  H   UNL     1     -48.161  -5.841  77.862  1.00  0.00     0.211 HD
ENDBRANCH  14  18
BRANCH  15  20
ATOM     20  O   UNL     1     -45.527  -4.440  79.566  1.00  0.00    -0.385 OA
ATOM     21  H   UNL     1     -46.471  -4.392  79.878  1.00  0.00     0.211 HD
ENDBRANCH  15  20
ENDBRANCH   8   9
ENDBRANCH   7   8
ENDBRANCH   1   7
BRANCH   2  22
ATOM     22  O   UNL     1     -44.798  -8.410  81.149  1.00  0.00    -0.387 OA
ATOM     23  H   UNL     1     -44.514  -7.459  81.117  1.00  0.00     0.211 HD
ENDBRANCH   2  22
BRANCH   3  24
ATOM     24  O   UNL     1     -42.799  -7.377  82.761  1.00  0.00    -0.387 OA
ATOM     25  H   UNL     1     -41.844  -7.213  82.977  1.00  0.00     0.211 HD
ENDBRANCH   3  24
BRANCH   5  26
ATOM     26  O   UNL     1     -40.282  -7.965  81.475  1.00  0.00    -0.454 OA
BRANCH  26  27
ATOM     27  C   UNL     1     -39.005  -7.542  81.874  1.00  0.00     0.214 A 
ATOM     28  C   UNL     1     -38.772  -6.251  82.389  1.00  0.00     0.180 A 
ATOM     29  C   UNL     1     -37.933  -8.436  81.778  1.00  0.00     0.239 A 
ATOM     30  O   UNL     1     -37.532  -5.880  82.694  1.00  0.00    -0.452 OA
ATOM     31  C   UNL     1     -36.622  -8.004  82.080  1.00  0.00     0.111 A 
ATOM     32  O   UNL     1     -38.175  -9.623  81.441  1.00  0.00    -0.285 OA
ATOM     33  C   UNL     1     -36.478  -6.679  82.571  1.00  0.00     0.146 A 
ATOM     34  C   UNL     1     -35.452  -8.810  81.945  1.00  0.00     0.134 A 
ATOM     35  C   UNL     1     -35.225  -6.197  82.957  1.00  0.00     0.094 A 
ATOM     36  C   UNL     1     -34.218  -8.312  82.379  1.00  0.00     0.093 A 
ATOM     37  C   UNL     1     -34.099  -7.011  82.874  1.00  0.00     0.123 A 
BRANCH  28  38
ATOM     38  C   UNL     1     -39.868  -5.291  82.645  1.00  0.00     0.025 A 
ATOM     39  C   UNL     1     -40.778  -4.986  81.625  1.00  0.00     0.062 A 
ATOM     40  C   UNL     1     -39.997  -4.659  83.893  1.00  0.00     0.016 A 
ATOM     41  C   UNL     1     -41.836  -4.096  81.850  1.00  0.00     0.158 A 
ATOM     42  C   UNL     1     -41.043  -3.765  84.124  1.00  0.00     0.051 A 
ATOM     43  C   UNL     1     -41.973  -3.482  83.118  1.00  0.00     0.157 A 
BRANCH  41  44
ATOM     44  O   UNL     1     -42.722  -3.856  80.797  1.00  0.00    -0.504 OA
ATOM     45  H   UNL     1     -43.420  -4.515  80.485  1.00  0.00     0.293 HD
ENDBRANCH  41  44
BRANCH  43  46
ATOM     46  O   UNL     1     -43.011  -2.597  83.419  1.00  0.00    -0.504 OA
ATOM     47  H   UNL     1     -43.094  -1.669  83.033  1.00  0.00     0.293 HD
ENDBRANCH  43  46
ENDBRANCH  28  38
BRANCH  34  48
ATOM     48  O   UNL     1     -35.443 -10.084  81.371  1.00  0.00    -0.507 OA
ATOM     49  H   UNL     1     -34.615 -10.574  81.066  1.00  0.00     0.293 HD
ENDBRANCH  34  48
BRANCH  37  50
ATOM     50  O   UNL     1     -32.862  -6.515  83.278  1.00  0.00    -0.508 OA
ATOM     51  H   UNL     1     -32.037  -6.606  82.695  1.00  0.00     0.293 HD
ENDBRANCH  37  50
ENDBRANCH  26  27
ENDBRANCH   5  26
BRANCH   4  52
ATOM     52  O   UNL     1     -40.945  -9.070  83.989  1.00  0.00    -0.384 OA
ATOM     53  H   UNL     1     -41.622  -8.956  84.706  1.00  0.00     0.211 HD
ENDBRANCH   4  52
TORSDOF 16
ENDMDL
MODEL 9
REMARK VINA RESULT:    -5.270      2.333      7.229
REMARK INTER + INTRA:         -10.961
REMARK INTER:                  -9.040
REMARK INTRA:                  -1.921
REMARK UNBOUND:                -2.302
REMARK SMILES C[C@H]1O[C@H](OC[C@H]2O[C@@H](Oc3c(-c4ccc(O)c(O)c4)oc4cc(O)cc(O)c4c3=O)[C@@H](O)[C@@H](O)[C@H]2O)[C@@H](O)[C@@H](O)[C@H]1O
REMARK SMILES IDX 7 1 36 2 34 3 32 4 9 5 8 6 6 7 5 8 4 9 1 10 2 11 42 12 3 13
REMARK SMILES IDX 40 14 38 15 43 16 41 18 39 20 37 22 35 24 10 26 11 27 12 28
REMARK SMILES IDX 30 29 21 30 29 31 31 32 22 33 27 34 23 35 26 36 24 37 13 38
REMARK SMILES IDX 20 39 14 40 18 41 15 42 16 43 19 44 17 46 28 48 25 50 33 52
REMARK H PARENT 43 17 41 19 39 21 37 23 35 25 19 45 17 47 28 49 25 51 33 53
REMARK Flexibility Score: inf
ROOT
ATOM      1  C   UNL     1     -38.293   3.788  83.313  1.00  0.00     0.180 C 
ATOM      2  C   UNL     1     -39.587   4.603  83.578  1.00  0.00     0.177 C 
ATOM      3  C   UNL     1     -39.386   6.109  83.354  1.00  0.00     0.180 C 
ATOM      4  C   UNL     1     -38.129   6.572  84.104  1.00  0.00     0.214 C 
ATOM      5  C   UNL     1     -36.914   5.692  83.754  1.00  0.00     0.339 C 
ATOM      6  O   UNL     1     -37.161   4.314  84.001  1.00  0.00    -0.332 OA
ENDROOT
BRANCH   1   7
ATOM      7  C   UNL     1     -37.974   3.486  81.825  1.00  0.00     0.198 C 
BRANCH   7   8
ATOM      8  O   UNL     1     -39.143   3.156  81.098  1.00  0.00    -0.347 OA
BRANCH   8   9
ATOM      9  C   UNL     1     -39.332   3.997  79.967  1.00  0.00     0.281 C 
ATOM     10  C   UNL     1     -37.997   1.656  77.455  1.00  0.00     0.041 C 
ATOM     11  C   UNL     1     -38.980   2.206  78.491  1.00  0.00     0.150 C 
ATOM     12  C   UNL     1     -40.419   2.233  77.939  1.00  0.00     0.174 C 
ATOM     13  O   UNL     1     -38.569   3.510  78.874  1.00  0.00    -0.344 OA
ATOM     14  C   UNL     1     -41.359   2.775  79.031  1.00  0.00     0.179 C 
ATOM     15  C   UNL     1     -40.835   4.108  79.604  1.00  0.00     0.202 C 
BRANCH  12  16
ATOM     16  O   UNL     1     -40.471   3.044  76.788  1.00  0.00    -0.388 OA
ATOM     17  H   UNL     1     -41.311   2.814  76.309  1.00  0.00     0.211 HD
ENDBRANCH  12  16
BRANCH  14  18
ATOM     18  O   UNL     1     -42.655   2.933  78.513  1.00  0.00    -0.387 OA
ATOM     19  H   UNL     1     -43.225   3.272  79.256  1.00  0.00     0.211 HD
ENDBRANCH  14  18
BRANCH  15  20
ATOM     20  O   UNL     1     -41.031   5.138  78.672  1.00  0.00    -0.385 OA
ATOM     21  H   UNL     1     -40.206   5.695  78.683  1.00  0.00     0.211 HD
ENDBRANCH  15  20
ENDBRANCH   8   9
ENDBRANCH   7   8
ENDBRANCH   1   7
BRANCH   2  22
ATOM     22  O   UNL     1     -40.646   4.120  82.792  1.00  0.00    -0.387 OA
ATOM     23  H   UNL     1     -40.327   4.120  81.852  1.00  0.00     0.211 HD
ENDBRANCH   2  22
BRANCH   3  24
ATOM     24  O   UNL     1     -39.288   6.391  81.981  1.00  0.00    -0.387 OA
ATOM     25  H   UNL     1     -39.864   7.180  81.802  1.00  0.00     0.211 HD
ENDBRANCH   3  24
BRANCH   5  26
ATOM     26  O   UNL     1     -36.475   5.896  82.405  1.00  0.00    -0.454 OA
BRANCH  26  27
ATOM     27  C   UNL     1     -35.424   6.750  82.038  1.00  0.00     0.214 A 
ATOM     28  C   UNL     1     -35.518   7.620  80.934  1.00  0.00     0.180 A 
ATOM     29  C   UNL     1     -34.252   6.752  82.803  1.00  0.00     0.239 A 
ATOM     30  O   UNL     1     -34.470   8.363  80.592  1.00  0.00    -0.452 OA
ATOM     31  C   UNL     1     -33.144   7.529  82.398  1.00  0.00     0.111 A 
ATOM     32  O   UNL     1     -34.228   6.069  83.859  1.00  0.00    -0.285 OA
ATOM     33  C   UNL     1     -33.322   8.360  81.260  1.00  0.00     0.146 A 
ATOM     34  C   UNL     1     -31.881   7.547  83.062  1.00  0.00     0.134 A 
ATOM     35  C   UNL     1     -32.298   9.209  80.833  1.00  0.00     0.094 A 
ATOM     36  C   UNL     1     -30.890   8.439  82.635  1.00  0.00     0.093 A 
ATOM     37  C   UNL     1     -31.089   9.260  81.523  1.00  0.00     0.123 A 
BRANCH  28  38
ATOM     38  C   UNL     1     -36.765   7.775  80.152  1.00  0.00     0.025 A 
ATOM     39  C   UNL     1     -37.068   6.857  79.138  1.00  0.00     0.062 A 
ATOM     40  C   UNL     1     -37.641   8.846  80.394  1.00  0.00     0.016 A 
ATOM     41  C   UNL     1     -38.252   6.971  78.399  1.00  0.00     0.158 A 
ATOM     42  C   UNL     1     -38.818   8.973  79.657  1.00  0.00     0.051 A 
ATOM     43  C   UNL     1     -39.141   8.040  78.665  1.00  0.00     0.157 A 
BRANCH  41  44
ATOM     44  O   UNL     1     -38.505   6.008  77.420  1.00  0.00    -0.504 OA
ATOM     45  H   UNL     1     -38.350   5.019  77.547  1.00  0.00     0.293 HD
ENDBRANCH  41  44
BRANCH  43  46
ATOM     46  O   UNL     1     -40.347   8.207  77.980  1.00  0.00    -0.504 OA
ATOM     47  H   UNL     1     -41.106   8.789  78.303  1.00  0.00     0.293 HD
ENDBRANCH  43  46
ENDBRANCH  28  38
BRANCH  34  48
ATOM     48  O   UNL     1     -31.542   6.698  84.119  1.00  0.00    -0.507 OA
ATOM     49  H   UNL     1     -30.621   6.316  84.280  1.00  0.00     0.293 HD
ENDBRANCH  34  48
BRANCH  37  50
ATOM     50  O   UNL     1     -30.088  10.125  81.089  1.00  0.00    -0.508 OA
ATOM     51  H   UNL     1     -30.011  11.071  81.448  1.00  0.00     0.293 HD
ENDBRANCH  37  50
ENDBRANCH  26  27
ENDBRANCH   5  26
BRANCH   4  52
ATOM     52  O   UNL     1     -37.845   7.920  83.823  1.00  0.00    -0.384 OA
ATOM     53  H   UNL     1     -37.032   8.155  84.342  1.00  0.00     0.211 HD
ENDBRANCH   4  52
TORSDOF 16
ENDMDL
