MODEL 1
REMARK VINA RESULT:    64.962      0.000      0.000
REMARK INTER + INTRA:          71.504
REMARK INTER:                  70.658
REMARK INTRA:                   0.845
REMARK UNBOUND:                 0.845
REMARK SMILES C[C@@H]1[C@H](C)CC[C@@]2(C(=O)[O-])CC[C@@]3(C)C(=CC[C@H]4[C@@]5(C)CC[C@H](O)C(C)(C)[C@@H]5CC[C@]43C)[C@H]12
REMARK SMILES IDX 7 1 6 2 11 3 33 4 5 5 12 6 15 7 2 8 3 9 13 10 16 11 1 12
REMARK SMILES IDX 4 13 14 14 31 15 17 16 18 17 30 18 32 19 19 20 29 21 28 22
REMARK SMILES IDX 21 23 20 24 25 25 22 26 23 27 26 28 27 29 8 30 9 31 10 32
REMARK SMILES IDX 24 33
REMARK H PARENT 24 34
REMARK Flexibility Score: inf
ROOT
ATOM      1  C   UNL     1     -13.529  -4.840 -19.345  1.00  0.00     0.017 C 
ATOM      2  C   UNL     1     -13.862  -5.000 -20.859  1.00  0.00     0.014 C 
ATOM      3  C   UNL     1     -12.555  -3.657 -19.209  1.00  0.00     0.014 C 
ATOM      4  C   UNL     1     -14.843  -4.483 -18.573  1.00  0.00     0.030 C 
ATOM      5  C   UNL     1     -14.943  -6.053 -21.116  1.00  0.00     0.004 C 
ATOM      6  C   UNL     1     -12.206  -3.348 -17.748  1.00  0.00     0.013 C 
ATOM      7  C   UNL     1     -14.588  -4.035 -17.110  1.00  0.00    -0.063 C 
ATOM      8  C   UNL     1     -15.991  -5.529 -18.833  1.00  0.00    -0.003 C 
ATOM      9  C   UNL     1     -16.235  -5.702 -20.361  1.00  0.00    -0.011 C 
ATOM     10  C   UNL     1     -13.434  -3.066 -16.800  1.00  0.00    -0.006 C 
ATOM     11  C   UNL     1     -15.577  -4.145 -16.202  1.00  0.00    -0.027 C 
ATOM     12  C   UNL     1     -15.803  -6.875 -18.099  1.00  0.00     0.008 C 
ATOM     13  C   UNL     1     -17.345  -6.715 -20.682  1.00  0.00     0.008 C 
ATOM     14  C   UNL     1     -13.964  -1.642 -17.162  1.00  0.00     0.017 C 
ATOM     15  C   UNL     1     -13.008  -3.140 -15.236  1.00  0.00    -0.020 C 
ATOM     16  C   UNL     1     -15.530  -3.647 -14.791  1.00  0.00     0.032 C 
ATOM     17  C   UNL     1     -14.271  -2.850 -14.312  1.00  0.00     0.006 C 
ATOM     18  C   UNL     1     -12.457  -4.550 -14.842  1.00  0.00     0.008 C 
ATOM     19  C   UNL     1     -11.875  -2.086 -14.994  1.00  0.00     0.012 C 
ATOM     20  C   UNL     1     -14.031  -3.033 -12.733  1.00  0.00    -0.025 C 
ATOM     21  C   UNL     1     -12.190  -4.748 -13.333  1.00  0.00     0.005 C 
ATOM     22  C   UNL     1     -13.447  -4.474 -12.470  1.00  0.00     0.003 C 
ATOM     23  C   UNL     1     -15.380  -2.894 -11.942  1.00  0.00     0.010 C 
ATOM     24  C   UNL     1     -13.100  -1.884 -12.211  1.00  0.00     0.012 C 
ATOM     25  C   UNL     1     -13.333  -4.906 -10.949  1.00  0.00    -0.006 C 
ATOM     26  C   UNL     1     -15.272  -3.263 -10.453  1.00  0.00     0.033 C 
ATOM     27  C   UNL     1     -14.716  -4.682 -10.253  1.00  0.00     0.120 C 
ATOM     28  C   UNL     1     -12.202  -4.176 -10.177  1.00  0.00     0.014 C 
ATOM     29  C   UNL     1     -13.022  -6.429 -10.861  1.00  0.00     0.014 C 
ENDROOT
BRANCH   1  30
ATOM     30  C   UNL     1     -12.838  -6.100 -18.827  1.00  0.00     0.048 C 
ATOM     31  O   UNL     1     -13.199  -6.627 -17.740  1.00  0.00    -0.550 OA
ATOM     32  O   UNL     1     -11.876  -6.751 -19.588  1.00  0.00    -0.550 OA
ENDBRANCH   1  30
BRANCH  27  33
ATOM     33  O   UNL     1     -14.620  -4.956  -8.876  1.00  0.00    -0.393 OA
ATOM     34  H   UNL     1     -15.019  -4.184  -8.396  1.00  0.00     0.210 HD
ENDBRANCH  27  33
TORSDOF 2
ENDMDL
