MODEL 1
REMARK VINA RESULT:    -2.255      0.000      0.000
REMARK INTER + INTRA:          -4.510
REMARK INTER:                  -3.836
REMARK INTRA:                  -0.673
REMARK UNBOUND:                -0.673
REMARK SMILES CCCCCCCCCCCCCC(=O)[O-]
REMARK SMILES IDX 8 1 9 2 10 3 11 4 12 5 13 6 14 7 15 8 16 9 7 10 6 11 5 12
REMARK SMILES IDX 4 13 3 14 2 15 1 16
REMARK H PARENT
REMARK Flexibility Score: inf
ROOT
ATOM      1  C   UNL     1       0.579  60.389  -3.561  1.00  0.00     0.000 C 
ENDROOT
BRANCH   1   2
ATOM      2  C   UNL     1      -0.915  60.749  -3.516  1.00  0.00     0.000 C 
BRANCH   2   3
ATOM      3  C   UNL     1      -1.815  59.510  -3.373  1.00  0.00     0.000 C 
BRANCH   3   4
ATOM      4  C   UNL     1      -2.523  59.131  -4.688  1.00  0.00     0.000 C 
BRANCH   4   5
ATOM      5  C   UNL     1      -3.924  59.742  -4.868  1.00  0.00     0.006 C 
BRANCH   5   6
ATOM      6  C   UNL     1      -4.580  59.350  -6.198  1.00  0.00     0.053 C 
BRANCH   6   7
ATOM      7  C   UNL     1      -3.803  59.907  -7.349  1.00  0.00     0.041 C 
ATOM      8  O   UNL     1      -4.179  60.968  -7.912  1.00  0.00    -0.550 OA
ATOM      9  O   UNL     1      -2.691  59.228  -7.831  1.00  0.00    -0.550 OA
ENDBRANCH   6   7
ENDBRANCH   5   6
ENDBRANCH   4   5
ENDBRANCH   3   4
ENDBRANCH   2   3
ENDBRANCH   1   2
BRANCH   1  10
ATOM     10  C   UNL     1       1.200  60.626  -4.949  1.00  0.00     0.000 C 
BRANCH  10  11
ATOM     11  C   UNL     1       1.719  59.331  -5.593  1.00  0.00    -0.000 C 
BRANCH  11  12
ATOM     12  C   UNL     1       0.939  58.947  -6.859  1.00  0.00    -0.000 C 
BRANCH  12  13
ATOM     13  C   UNL     1       1.713  59.347  -8.124  1.00  0.00    -0.000 C 
BRANCH  13  14
ATOM     14  C   UNL     1       3.230  59.139  -7.981  1.00  0.00    -0.000 C 
BRANCH  14  15
ATOM     15  C   UNL     1       4.023  60.446  -8.125  1.00  0.00    -0.003 C 
ATOM     16  C   UNL     1       5.526  60.179  -8.125  1.00  0.00     0.004 C 
ENDBRANCH  14  15
ENDBRANCH  13  14
ENDBRANCH  12  13
ENDBRANCH  11  12
ENDBRANCH  10  11
ENDBRANCH   1  10
TORSDOF 12
ENDMDL
MODEL 2
REMARK VINA RESULT:    -2.224      2.742      6.628
REMARK INTER + INTRA:          -4.458
REMARK INTER:                  -4.292
REMARK INTRA:                  -0.166
REMARK UNBOUND:                -0.673
REMARK SMILES CCCCCCCCCCCCCC(=O)[O-]
REMARK SMILES IDX 8 1 9 2 10 3 11 4 12 5 13 6 14 7 15 8 16 9 7 10 6 11 5 12
REMARK SMILES IDX 4 13 3 14 2 15 1 16
REMARK H PARENT
REMARK Flexibility Score: inf
ROOT
ATOM      1  C   UNL     1       0.056  60.736  -4.842  1.00  0.00     0.000 C 
ENDROOT
BRANCH   1   2
ATOM      2  C   UNL     1       1.466  60.289  -4.424  1.00  0.00     0.000 C 
BRANCH   2   3
ATOM      3  C   UNL     1       2.199  59.530  -5.544  1.00  0.00     0.000 C 
BRANCH   3   4
ATOM      4  C   UNL     1       1.303  59.255  -6.766  1.00  0.00     0.000 C 
BRANCH   4   5
ATOM      5  C   UNL     1       2.020  59.334  -8.125  1.00  0.00     0.006 C 
BRANCH   5   6
ATOM      6  C   UNL     1       3.548  59.284  -7.999  1.00  0.00     0.053 C 
BRANCH   6   7
ATOM      7  C   UNL     1       4.125  60.662  -8.087  1.00  0.00     0.041 C 
ATOM      8  O   UNL     1       5.373  60.827  -8.082  1.00  0.00    -0.550 OA
ATOM      9  O   UNL     1       3.284  61.767  -8.125  1.00  0.00    -0.550 OA
ENDBRANCH   6   7
ENDBRANCH   5   6
ENDBRANCH   4   5
ENDBRANCH   3   4
ENDBRANCH   2   3
ENDBRANCH   1   2
BRANCH   1  10
ATOM     10  C   UNL     1      -1.000  59.639  -4.620  1.00  0.00     0.000 C 
BRANCH  10  11
ATOM     11  C   UNL     1      -1.852  59.884  -3.366  1.00  0.00    -0.000 C 
BRANCH  11  12
ATOM     12  C   UNL     1      -3.100  58.990  -3.314  1.00  0.00    -0.000 C 
BRANCH  12  13
ATOM     13  C   UNL     1      -3.861  59.032  -4.648  1.00  0.00    -0.000 C 
BRANCH  13  14
ATOM     14  C   UNL     1      -4.107  60.465  -5.146  1.00  0.00    -0.000 C 
BRANCH  14  15
ATOM     15  C   UNL     1      -4.464  60.521  -6.638  1.00  0.00    -0.003 C 
ATOM     16  C   UNL     1      -4.752  59.126  -7.186  1.00  0.00     0.004 C 
ENDBRANCH  14  15
ENDBRANCH  13  14
ENDBRANCH  12  13
ENDBRANCH  11  12
ENDBRANCH  10  11
ENDBRANCH   1  10
TORSDOF 12
ENDMDL
MODEL 3
REMARK VINA RESULT:    -2.129      2.706      6.094
REMARK INTER + INTRA:          -4.296
REMARK INTER:                  -4.222
REMARK INTRA:                  -0.073
REMARK UNBOUND:                -0.673
REMARK SMILES CCCCCCCCCCCCCC(=O)[O-]
REMARK SMILES IDX 8 1 9 2 10 3 11 4 12 5 13 6 14 7 15 8 16 9 7 10 6 11 5 12
REMARK SMILES IDX 4 13 3 14 2 15 1 16
REMARK H PARENT
REMARK Flexibility Score: inf
ROOT
ATOM      1  C   UNL     1      -0.493  60.464  -4.354  1.00  0.00     0.000 C 
ENDROOT
BRANCH   1   2
ATOM      2  C   UNL     1       0.886  60.400  -3.680  1.00  0.00     0.000 C 
BRANCH   2   3
ATOM      3  C   UNL     1       1.977  59.857  -4.620  1.00  0.00     0.000 C 
BRANCH   3   4
ATOM      4  C   UNL     1       1.782  60.302  -6.081  1.00  0.00     0.000 C 
BRANCH   4   5
ATOM      5  C   UNL     1       1.439  59.168  -7.063  1.00  0.00     0.006 C 
BRANCH   5   6
ATOM      6  C   UNL     1       2.524  58.947  -8.124  1.00  0.00     0.053 C 
BRANCH   6   7
ATOM      7  C   UNL     1       3.749  59.740  -7.792  1.00  0.00     0.041 C 
ATOM      8  O   UNL     1       3.671  60.986  -7.627  1.00  0.00    -0.550 OA
ATOM      9  O   UNL     1       4.985  59.111  -7.714  1.00  0.00    -0.550 OA
ENDBRANCH   6   7
ENDBRANCH   5   6
ENDBRANCH   4   5
ENDBRANCH   3   4
ENDBRANCH   2   3
ENDBRANCH   1   2
BRANCH   1  10
ATOM     10  C   UNL     1      -1.616  59.921  -3.452  1.00  0.00     0.000 C 
BRANCH  10  11
ATOM     11  C   UNL     1      -2.502  58.889  -4.167  1.00  0.00    -0.000 C 
BRANCH  11  12
ATOM     12  C   UNL     1      -3.989  59.273  -4.149  1.00  0.00    -0.000 C 
BRANCH  12  13
ATOM     13  C   UNL     1      -4.628  59.058  -5.530  1.00  0.00    -0.000 C 
BRANCH  13  14
ATOM     14  C   UNL     1      -4.028  59.973  -6.609  1.00  0.00    -0.000 C 
BRANCH  14  15
ATOM     15  C   UNL     1      -3.618  59.205  -7.874  1.00  0.00    -0.003 C 
ATOM     16  C   UNL     1      -2.128  58.875  -7.858  1.00  0.00     0.004 C 
ENDBRANCH  14  15
ENDBRANCH  13  14
ENDBRANCH  12  13
ENDBRANCH  11  12
ENDBRANCH  10  11
ENDBRANCH   1  10
TORSDOF 12
ENDMDL
MODEL 4
REMARK VINA RESULT:    -1.702     22.577     24.582
REMARK INTER + INTRA:          -3.570
REMARK INTER:                  -2.886
REMARK INTRA:                  -0.684
REMARK UNBOUND:                -0.673
REMARK SMILES CCCCCCCCCCCCCC(=O)[O-]
REMARK SMILES IDX 8 1 9 2 10 3 11 4 12 5 13 6 14 7 15 8 16 9 7 10 6 11 5 12
REMARK SMILES IDX 4 13 3 14 2 15 1 16
REMARK H PARENT
REMARK Flexibility Score: inf
ROOT
ATOM      1  C   UNL     1      13.870  77.877   2.522  1.00  0.00     0.000 C 
ENDROOT
BRANCH   1   2
ATOM      2  C   UNL     1      13.622  78.523   3.895  1.00  0.00     0.000 C 
BRANCH   2   3
ATOM      3  C   UNL     1      14.708  78.158   4.922  1.00  0.00     0.000 C 
BRANCH   3   4
ATOM      4  C   UNL     1      15.125  76.678   4.851  1.00  0.00     0.000 C 
BRANCH   4   5
ATOM      5  C   UNL     1      14.292  75.728   5.729  1.00  0.00     0.006 C 
BRANCH   5   6
ATOM      6  C   UNL     1      14.817  75.628   7.167  1.00  0.00     0.053 C 
BRANCH   6   7
ATOM      7  C   UNL     1      14.605  74.248   7.706  1.00  0.00     0.041 C 
ATOM      8  O   UNL     1      14.094  74.085   8.845  1.00  0.00    -0.550 OA
ATOM      9  O   UNL     1      15.017  73.144   6.971  1.00  0.00    -0.550 OA
ENDBRANCH   6   7
ENDBRANCH   5   6
ENDBRANCH   4   5
ENDBRANCH   3   4
ENDBRANCH   2   3
ENDBRANCH   1   2
BRANCH   1  10
ATOM     10  C   UNL     1      14.867  78.679   1.666  1.00  0.00     0.000 C 
BRANCH  10  11
ATOM     11  C   UNL     1      14.978  78.142   0.231  1.00  0.00    -0.000 C 
BRANCH  11  12
ATOM     12  C   UNL     1      14.946  76.607   0.169  1.00  0.00    -0.000 C 
BRANCH  12  13
ATOM     13  C   UNL     1      13.953  76.121  -0.898  1.00  0.00    -0.000 C 
BRANCH  13  14
ATOM     14  C   UNL     1      13.826  77.098  -2.078  1.00  0.00    -0.000 C 
BRANCH  14  15
ATOM     15  C   UNL     1      12.965  76.538  -3.219  1.00  0.00    -0.003 C 
ATOM     16  C   UNL     1      12.791  77.568  -4.332  1.00  0.00     0.004 C 
ENDBRANCH  14  15
ENDBRANCH  13  14
ENDBRANCH  12  13
ENDBRANCH  11  12
ENDBRANCH  10  11
ENDBRANCH   1  10
TORSDOF 12
ENDMDL
MODEL 5
REMARK VINA RESULT:    -0.982      3.264      6.971
REMARK INTER + INTRA:          -2.344
REMARK INTER:                  -1.845
REMARK INTRA:                  -0.499
REMARK UNBOUND:                -0.673
REMARK SMILES CCCCCCCCCCCCCC(=O)[O-]
REMARK SMILES IDX 8 1 9 2 10 3 11 4 12 5 13 6 14 7 15 8 16 9 7 10 6 11 5 12
REMARK SMILES IDX 4 13 3 14 2 15 1 16
REMARK H PARENT
REMARK Flexibility Score: inf
ROOT
ATOM      1  C   UNL     1       1.270  60.382  -3.999  1.00  0.00     0.000 C 
ENDROOT
BRANCH   1   2
ATOM      2  C   UNL     1       1.290  59.341  -5.129  1.00  0.00     0.000 C 
BRANCH   2   3
ATOM      3  C   UNL     1       0.920  59.946  -6.494  1.00  0.00     0.000 C 
BRANCH   3   4
ATOM      4  C   UNL     1       2.015  59.738  -7.556  1.00  0.00     0.000 C 
BRANCH   4   5
ATOM      5  C   UNL     1       3.346  59.188  -7.014  1.00  0.00     0.006 C 
BRANCH   5   6
ATOM      6  C   UNL     1       4.360  58.876  -8.122  1.00  0.00     0.053 C 
BRANCH   6   7
ATOM      7  C   UNL     1       5.498  59.846  -8.077  1.00  0.00     0.041 C 
ATOM      8  O   UNL     1       5.274  61.085  -8.072  1.00  0.00    -0.550 OA
ATOM      9  O   UNL     1       6.807  59.383  -8.092  1.00  0.00    -0.550 OA
ENDBRANCH   6   7
ENDBRANCH   5   6
ENDBRANCH   4   5
ENDBRANCH   3   4
ENDBRANCH   2   3
ENDBRANCH   1   2
BRANCH   1  10
ATOM     10  C   UNL     1      -0.160  60.779  -3.588  1.00  0.00     0.000 C 
BRANCH  10  11
ATOM     11  C   UNL     1      -1.202  59.721  -3.981  1.00  0.00    -0.000 C 
BRANCH  11  12
ATOM     12  C   UNL     1      -2.618  60.082  -3.506  1.00  0.00    -0.000 C 
BRANCH  12  13
ATOM     13  C   UNL     1      -3.664  59.162  -4.154  1.00  0.00    -0.000 C 
BRANCH  13  14
ATOM     14  C   UNL     1      -3.601  59.180  -5.689  1.00  0.00    -0.000 C 
BRANCH  14  15
ATOM     15  C   UNL     1      -3.800  60.587  -6.272  1.00  0.00    -0.003 C 
ATOM     16  C   UNL     1      -4.961  60.611  -7.264  1.00  0.00     0.004 C 
ENDBRANCH  14  15
ENDBRANCH  13  14
ENDBRANCH  12  13
ENDBRANCH  11  12
ENDBRANCH  10  11
ENDBRANCH   1  10
TORSDOF 12
ENDMDL
MODEL 6
REMARK VINA RESULT:    -0.874     22.168     24.245
REMARK INTER + INTRA:          -2.160
REMARK INTER:                  -1.708
REMARK INTRA:                  -0.452
REMARK UNBOUND:                -0.673
REMARK SMILES CCCCCCCCCCCCCC(=O)[O-]
REMARK SMILES IDX 8 1 9 2 10 3 11 4 12 5 13 6 14 7 15 8 16 9 7 10 6 11 5 12
REMARK SMILES IDX 4 13 3 14 2 15 1 16
REMARK H PARENT
REMARK Flexibility Score: inf
ROOT
ATOM      1  C   UNL     1      15.110  77.346   1.374  1.00  0.00     0.000 C 
ENDROOT
BRANCH   1   2
ATOM      2  C   UNL     1      14.538  76.454   0.260  1.00  0.00     0.000 C 
BRANCH   2   3
ATOM      3  C   UNL     1      14.405  77.197  -1.080  1.00  0.00     0.000 C 
BRANCH   3   4
ATOM      4  C   UNL     1      13.615  76.397  -2.132  1.00  0.00     0.000 C 
BRANCH   4   5
ATOM      5  C   UNL     1      12.932  77.251  -3.215  1.00  0.00     0.006 C 
BRANCH   5   6
ATOM      6  C   UNL     1      13.231  76.763  -4.638  1.00  0.00     0.053 C 
BRANCH   6   7
ATOM      7  C   UNL     1      13.364  77.924  -5.572  1.00  0.00     0.041 C 
ATOM      8  O   UNL     1      13.169  79.097  -5.155  1.00  0.00    -0.550 OA
ATOM      9  O   UNL     1      13.654  77.709  -6.913  1.00  0.00    -0.550 OA
ENDBRANCH   6   7
ENDBRANCH   5   6
ENDBRANCH   4   5
ENDBRANCH   3   4
ENDBRANCH   2   3
ENDBRANCH   1   2
BRANCH   1  10
ATOM     10  C   UNL     1      14.164  78.500   1.750  1.00  0.00     0.000 C 
BRANCH  10  11
ATOM     11  C   UNL     1      13.940  78.610   3.266  1.00  0.00    -0.000 C 
BRANCH  11  12
ATOM     12  C   UNL     1      15.023  77.883   4.078  1.00  0.00    -0.000 C 
BRANCH  12  13
ATOM     13  C   UNL     1      14.451  77.353   5.401  1.00  0.00    -0.000 C 
BRANCH  13  14
ATOM     14  C   UNL     1      14.843  75.891   5.672  1.00  0.00    -0.000 C 
BRANCH  14  15
ATOM     15  C   UNL     1      13.923  75.212   6.698  1.00  0.00    -0.003 C 
ATOM     16  C   UNL     1      14.726  74.356   7.673  1.00  0.00     0.004 C 
ENDBRANCH  14  15
ENDBRANCH  13  14
ENDBRANCH  12  13
ENDBRANCH  11  12
ENDBRANCH  10  11
ENDBRANCH   1  10
TORSDOF 12
ENDMDL
MODEL 7
REMARK VINA RESULT:    -0.044      1.888      3.974
REMARK INTER + INTRA:          -0.748
REMARK INTER:                  -0.652
REMARK INTRA:                  -0.096
REMARK UNBOUND:                -0.673
REMARK SMILES CCCCCCCCCCCCCC(=O)[O-]
REMARK SMILES IDX 8 1 9 2 10 3 11 4 12 5 13 6 14 7 15 8 16 9 7 10 6 11 5 12
REMARK SMILES IDX 4 13 3 14 2 15 1 16
REMARK H PARENT
REMARK Flexibility Score: inf
ROOT
ATOM      1  C   UNL     1       2.107  61.661  -5.942  1.00  0.00     0.000 C 
ENDROOT
BRANCH   1   2
ATOM      2  C   UNL     1       2.191  60.970  -4.571  1.00  0.00     0.000 C 
BRANCH   2   3
ATOM      3  C   UNL     1       0.833  60.925  -3.851  1.00  0.00     0.000 C 
BRANCH   3   4
ATOM      4  C   UNL     1      -0.119  59.865  -4.436  1.00  0.00     0.000 C 
BRANCH   4   5
ATOM      5  C   UNL     1      -1.426  59.664  -3.648  1.00  0.00     0.006 C 
BRANCH   5   6
ATOM      6  C   UNL     1      -2.383  60.858  -3.763  1.00  0.00     0.053 C 
BRANCH   6   7
ATOM      7  C   UNL     1      -3.771  60.388  -4.060  1.00  0.00     0.041 C 
ATOM      8  O   UNL     1      -4.413  60.879  -5.027  1.00  0.00    -0.550 OA
ATOM      9  O   UNL     1      -4.377  59.443  -3.241  1.00  0.00    -0.550 OA
ENDBRANCH   6   7
ENDBRANCH   5   6
ENDBRANCH   4   5
ENDBRANCH   3   4
ENDBRANCH   2   3
ENDBRANCH   1   2
BRANCH   1  10
ATOM     10  C   UNL     1       3.196  61.175  -6.915  1.00  0.00     0.000 C 
BRANCH  10  11
ATOM     11  C   UNL     1       2.644  60.234  -7.997  1.00  0.00    -0.000 C 
BRANCH  11  12
ATOM     12  C   UNL     1       1.859  59.052  -7.409  1.00  0.00    -0.000 C 
BRANCH  12  13
ATOM     13  C   UNL     1       0.509  58.881  -8.123  1.00  0.00    -0.000 C 
BRANCH  13  14
ATOM     14  C   UNL     1      -0.687  58.986  -7.163  1.00  0.00    -0.000 C 
BRANCH  14  15
ATOM     15  C   UNL     1      -2.037  58.939  -7.892  1.00  0.00    -0.003 C 
ATOM     16  C   UNL     1      -3.198  58.976  -6.902  1.00  0.00     0.004 C 
ENDBRANCH  14  15
ENDBRANCH  13  14
ENDBRANCH  12  13
ENDBRANCH  11  12
ENDBRANCH  10  11
ENDBRANCH   1  10
TORSDOF 12
ENDMDL
