MODEL 1
REMARK VINA RESULT:    -7.177      0.000      0.000
REMARK INTER + INTRA:          -7.600
REMARK INTER:                  -7.807
REMARK INTRA:                   0.207
REMARK UNBOUND:                 0.207
REMARK SMILES C[C@@H]1[C@H](C)CC[C@@]2(C(=O)[O-])CC[C@@]3(C)C(=CC[C@@H]4[C@@]5(C)CC[C@H](O)C(C)(C)[C@@H]5CC[C@@]43C)[C@H]12
REMARK SMILES IDX 7 1 6 2 11 3 33 4 5 5 12 6 15 7 2 8 3 9 13 10 16 11 1 12
REMARK SMILES IDX 4 13 14 14 31 15 17 16 18 17 30 18 32 19 19 20 29 21 28 22
REMARK SMILES IDX 21 23 20 24 25 25 22 26 23 27 26 28 27 29 8 30 9 31 10 32
REMARK SMILES IDX 24 33
REMARK H PARENT 24 34
REMARK Flexibility Score: inf
ROOT
ATOM      1  C   UNL     1      55.649 -41.834 -26.118  1.00  0.00     0.017 C 
ATOM      2  C   UNL     1      56.241 -43.128 -26.745  1.00  0.00     0.014 C 
ATOM      3  C   UNL     1      55.858 -41.899 -24.564  1.00  0.00     0.014 C 
ATOM      4  C   UNL     1      56.444 -40.579 -26.611  1.00  0.00     0.030 C 
ATOM      5  C   UNL     1      56.484 -43.020 -28.259  1.00  0.00     0.004 C 
ATOM      6  C   UNL     1      55.552 -40.570 -23.802  1.00  0.00     0.013 C 
ATOM      7  C   UNL     1      55.912 -39.333 -25.892  1.00  0.00    -0.063 C 
ATOM      8  C   UNL     1      56.875 -40.489 -28.124  1.00  0.00    -0.003 C 
ATOM      9  C   UNL     1      57.449 -41.868 -28.580  1.00  0.00    -0.011 C 
ATOM     10  C   UNL     1      56.215 -39.255 -24.388  1.00  0.00    -0.006 C 
ATOM     11  C   UNL     1      54.785 -38.765 -26.345  1.00  0.00    -0.027 C 
ATOM     12  C   UNL     1      55.873 -39.875 -29.123  1.00  0.00     0.008 C 
ATOM     13  C   UNL     1      57.881 -41.914 -30.055  1.00  0.00     0.008 C 
ATOM     14  C   UNL     1      57.770 -39.317 -24.170  1.00  0.00     0.017 C 
ATOM     15  C   UNL     1      55.635 -37.915 -23.671  1.00  0.00    -0.020 C 
ATOM     16  C   UNL     1      54.140 -37.591 -25.710  1.00  0.00     0.032 C 
ATOM     17  C   UNL     1      54.159 -37.575 -24.153  1.00  0.00     0.006 C 
ATOM     18  C   UNL     1      56.545 -36.666 -24.019  1.00  0.00     0.008 C 
ATOM     19  C   UNL     1      55.662 -38.196 -22.118  1.00  0.00     0.012 C 
ATOM     20  C   UNL     1      53.523 -36.199 -23.556  1.00  0.00    -0.025 C 
ATOM     21  C   UNL     1      55.866 -35.262 -23.993  1.00  0.00     0.005 C 
ATOM     22  C   UNL     1      54.656 -35.238 -23.045  1.00  0.00     0.003 C 
ATOM     23  C   UNL     1      52.614 -36.491 -22.326  1.00  0.00     0.010 C 
ATOM     24  C   UNL     1      52.609 -35.520 -24.631  1.00  0.00     0.012 C 
ATOM     25  C   UNL     1      54.207 -33.866 -22.406  1.00  0.00    -0.006 C 
ATOM     26  C   UNL     1      52.072 -35.208 -21.647  1.00  0.00     0.033 C 
ATOM     27  C   UNL     1      53.171 -34.190 -21.265  1.00  0.00     0.120 C 
ATOM     28  C   UNL     1      53.648 -32.844 -23.435  1.00  0.00     0.014 C 
ATOM     29  C   UNL     1      55.431 -33.187 -21.718  1.00  0.00     0.014 C 
ENDROOT
BRANCH   1  30
ATOM     30  C   UNL     1      54.151 -41.783 -26.426  1.00  0.00     0.048 C 
ATOM     31  O   UNL     1      53.737 -41.737 -27.611  1.00  0.00    -0.550 OA
ATOM     32  O   UNL     1      53.205 -41.863 -25.407  1.00  0.00    -0.550 OA
ENDBRANCH   1  30
BRANCH  27  33
ATOM     33  O   UNL     1      52.551 -33.010 -20.810  1.00  0.00    -0.393 OA
ATOM     34  H   UNL     1      52.086 -32.597 -21.583  1.00  0.00     0.210 HD
ENDBRANCH  27  33
TORSDOF 2
ENDMDL
MODEL 2
REMARK VINA RESULT:    -6.935      1.790      8.116
REMARK INTER + INTRA:          -7.336
REMARK INTER:                  -7.543
REMARK INTRA:                   0.207
REMARK UNBOUND:                 0.207
REMARK SMILES C[C@@H]1[C@H](C)CC[C@@]2(C(=O)[O-])CC[C@@]3(C)C(=CC[C@@H]4[C@@]5(C)CC[C@H](O)C(C)(C)[C@@H]5CC[C@@]43C)[C@H]12
REMARK SMILES IDX 7 1 6 2 11 3 33 4 5 5 12 6 15 7 2 8 3 9 13 10 16 11 1 12
REMARK SMILES IDX 4 13 14 14 31 15 17 16 18 17 30 18 32 19 19 20 29 21 28 22
REMARK SMILES IDX 21 23 20 24 25 25 22 26 23 27 26 28 27 29 8 30 9 31 10 32
REMARK SMILES IDX 24 33
REMARK H PARENT 24 34
REMARK Flexibility Score: inf
ROOT
ATOM      1  C   UNL     1      54.940 -34.863 -23.377  1.00  0.00     0.017 C 
ATOM      2  C   UNL     1      54.747 -33.643 -22.431  1.00  0.00     0.014 C 
ATOM      3  C   UNL     1      56.365 -35.467 -23.119  1.00  0.00     0.014 C 
ATOM      4  C   UNL     1      53.917 -35.993 -23.021  1.00  0.00     0.030 C 
ATOM      5  C   UNL     1      53.279 -33.217 -22.272  1.00  0.00     0.004 C 
ATOM      6  C   UNL     1      56.629 -36.847 -23.800  1.00  0.00     0.013 C 
ATOM      7  C   UNL     1      54.204 -37.222 -23.893  1.00  0.00    -0.063 C 
ATOM      8  C   UNL     1      52.430 -35.603 -22.677  1.00  0.00    -0.003 C 
ATOM      9  C   UNL     1      52.428 -34.371 -21.718  1.00  0.00    -0.011 C 
ATOM     10  C   UNL     1      55.517 -37.958 -23.590  1.00  0.00    -0.006 C 
ATOM     11  C   UNL     1      53.741 -37.235 -25.151  1.00  0.00    -0.027 C 
ATOM     12  C   UNL     1      51.430 -35.478 -23.845  1.00  0.00     0.008 C 
ATOM     13  C   UNL     1      51.025 -33.876 -21.330  1.00  0.00     0.008 C 
ATOM     14  C   UNL     1      55.519 -38.416 -22.087  1.00  0.00     0.017 C 
ATOM     15  C   UNL     1      55.774 -39.256 -24.538  1.00  0.00    -0.020 C 
ATOM     16  C   UNL     1      53.992 -38.337 -26.111  1.00  0.00     0.032 C 
ATOM     17  C   UNL     1      55.418 -38.962 -26.058  1.00  0.00     0.006 C 
ATOM     18  C   UNL     1      54.872 -40.469 -24.066  1.00  0.00     0.008 C 
ATOM     19  C   UNL     1      57.303 -39.620 -24.385  1.00  0.00     0.012 C 
ATOM     20  C   UNL     1      55.559 -40.229 -27.072  1.00  0.00    -0.025 C 
ATOM     21  C   UNL     1      54.483 -41.527 -25.145  1.00  0.00     0.005 C 
ATOM     22  C   UNL     1      55.520 -41.584 -26.279  1.00  0.00     0.003 C 
ATOM     23  C   UNL     1      56.927 -40.200 -27.815  1.00  0.00     0.010 C 
ATOM     24  C   UNL     1      54.452 -40.157 -28.178  1.00  0.00     0.012 C 
ATOM     25  C   UNL     1      55.675 -42.916 -27.112  1.00  0.00    -0.006 C 
ATOM     26  C   UNL     1      57.164 -41.442 -28.709  1.00  0.00     0.033 C 
ATOM     27  C   UNL     1      56.991 -42.789 -27.969  1.00  0.00     0.120 C 
ATOM     28  C   UNL     1      54.436 -43.260 -27.986  1.00  0.00     0.014 C 
ATOM     29  C   UNL     1      55.888 -44.116 -26.141  1.00  0.00     0.014 C 
ENDROOT
BRANCH   1  30
ATOM     30  C   UNL     1      54.851 -34.375 -24.825  1.00  0.00     0.048 C 
ATOM     31  O   UNL     1      53.802 -33.840 -25.262  1.00  0.00    -0.550 OA
ATOM     32  O   UNL     1      55.953 -34.442 -25.674  1.00  0.00    -0.550 OA
ENDBRANCH   1  30
BRANCH  27  33
ATOM     33  O   UNL     1      57.070 -43.833 -28.911  1.00  0.00    -0.393 OA
ATOM     34  H   UNL     1      57.496 -44.610 -28.464  1.00  0.00     0.210 HD
ENDBRANCH  27  33
TORSDOF 2
ENDMDL
MODEL 3
REMARK VINA RESULT:    -6.845      2.371      8.198
REMARK INTER + INTRA:          -7.238
REMARK INTER:                  -7.502
REMARK INTRA:                   0.264
REMARK UNBOUND:                 0.207
REMARK SMILES C[C@@H]1[C@H](C)CC[C@@]2(C(=O)[O-])CC[C@@]3(C)C(=CC[C@@H]4[C@@]5(C)CC[C@H](O)C(C)(C)[C@@H]5CC[C@@]43C)[C@H]12
REMARK SMILES IDX 7 1 6 2 11 3 33 4 5 5 12 6 15 7 2 8 3 9 13 10 16 11 1 12
REMARK SMILES IDX 4 13 14 14 31 15 17 16 18 17 30 18 32 19 19 20 29 21 28 22
REMARK SMILES IDX 21 23 20 24 25 25 22 26 23 27 26 28 27 29 8 30 9 31 10 32
REMARK SMILES IDX 24 33
REMARK H PARENT 24 34
REMARK Flexibility Score: inf
ROOT
ATOM      1  C   UNL     1      56.464 -34.605 -25.259  1.00  0.00     0.017 C 
ATOM      2  C   UNL     1      56.785 -33.308 -24.464  1.00  0.00     0.014 C 
ATOM      3  C   UNL     1      57.796 -35.138 -25.895  1.00  0.00     0.014 C 
ATOM      4  C   UNL     1      55.966 -35.728 -24.289  1.00  0.00     0.030 C 
ATOM      5  C   UNL     1      55.687 -32.914 -23.463  1.00  0.00     0.004 C 
ATOM      6  C   UNL     1      57.705 -36.568 -26.516  1.00  0.00     0.013 C 
ATOM      7  C   UNL     1      55.764 -37.024 -25.083  1.00  0.00    -0.063 C 
ATOM      8  C   UNL     1      54.967 -35.354 -23.129  1.00  0.00    -0.003 C 
ATOM      9  C   UNL     1      55.447 -34.036 -22.441  1.00  0.00    -0.011 C 
ATOM     10  C   UNL     1      57.047 -37.688 -25.608  1.00  0.00    -0.006 C 
ATOM     11  C   UNL     1      54.635 -37.172 -25.791  1.00  0.00    -0.027 C 
ATOM     12  C   UNL     1      53.458 -35.372 -23.444  1.00  0.00     0.008 C 
ATOM     13  C   UNL     1      54.533 -33.551 -21.303  1.00  0.00     0.008 C 
ATOM     14  C   UNL     1      57.999 -38.000 -24.398  1.00  0.00     0.017 C 
ATOM     15  C   UNL     1      56.781 -39.061 -26.439  1.00  0.00    -0.020 C 
ATOM     16  C   UNL     1      54.341 -38.352 -26.640  1.00  0.00     0.032 C 
ATOM     17  C   UNL     1      55.551 -38.924 -27.436  1.00  0.00     0.006 C 
ATOM     18  C   UNL     1      56.455 -40.251 -25.446  1.00  0.00     0.008 C 
ATOM     19  C   UNL     1      58.112 -39.361 -27.235  1.00  0.00     0.012 C 
ATOM     20  C   UNL     1      55.152 -40.277 -28.251  1.00  0.00    -0.025 C 
ATOM     21  C   UNL     1      55.580 -41.419 -26.000  1.00  0.00     0.005 C 
ATOM     22  C   UNL     1      55.715 -41.550 -27.525  1.00  0.00     0.003 C 
ATOM     23  C   UNL     1      55.779 -40.277 -29.676  1.00  0.00     0.010 C 
ATOM     24  C   UNL     1      53.599 -40.345 -28.450  1.00  0.00     0.012 C 
ATOM     25  C   UNL     1      55.441 -42.950 -28.203  1.00  0.00    -0.006 C 
ATOM     26  C   UNL     1      55.525 -41.590 -30.457  1.00  0.00     0.033 C 
ATOM     27  C   UNL     1      55.949 -42.865 -29.691  1.00  0.00     0.120 C 
ATOM     28  C   UNL     1      53.960 -43.414 -28.114  1.00  0.00     0.014 C 
ATOM     29  C   UNL     1      56.299 -44.046 -27.500  1.00  0.00     0.014 C 
ENDROOT
BRANCH   1  30
ATOM     30  C   UNL     1      55.473 -34.261 -26.375  1.00  0.00     0.048 C 
ATOM     31  O   UNL     1      54.280 -33.971 -26.110  1.00  0.00    -0.550 OA
ATOM     32  O   UNL     1      55.885 -34.185 -27.703  1.00  0.00    -0.550 OA
ENDBRANCH   1  30
BRANCH  27  33
ATOM     33  O   UNL     1      55.527 -43.990 -30.424  1.00  0.00    -0.393 OA
ATOM     34  H   UNL     1      54.741 -44.377 -29.956  1.00  0.00     0.210 HD
ENDBRANCH  27  33
TORSDOF 2
ENDMDL
MODEL 4
REMARK VINA RESULT:    -6.822      1.788      3.042
REMARK INTER + INTRA:          -7.214
REMARK INTER:                  -7.440
REMARK INTRA:                   0.226
REMARK UNBOUND:                 0.207
REMARK SMILES C[C@@H]1[C@H](C)CC[C@@]2(C(=O)[O-])CC[C@@]3(C)C(=CC[C@@H]4[C@@]5(C)CC[C@H](O)C(C)(C)[C@@H]5CC[C@@]43C)[C@H]12
REMARK SMILES IDX 7 1 6 2 11 3 33 4 5 5 12 6 15 7 2 8 3 9 13 10 16 11 1 12
REMARK SMILES IDX 4 13 14 14 31 15 17 16 18 17 30 18 32 19 19 20 29 21 28 22
REMARK SMILES IDX 21 23 20 24 25 25 22 26 23 27 26 28 27 29 8 30 9 31 10 32
REMARK SMILES IDX 24 33
REMARK H PARENT 24 34
REMARK Flexibility Score: inf
ROOT
ATOM      1  C   UNL     1      56.499 -40.000 -26.555  1.00  0.00     0.017 C 
ATOM      2  C   UNL     1      57.339 -40.527 -27.753  1.00  0.00     0.014 C 
ATOM      3  C   UNL     1      57.324 -38.882 -25.827  1.00  0.00     0.014 C 
ATOM      4  C   UNL     1      55.192 -39.310 -27.071  1.00  0.00     0.030 C 
ATOM      5  C   UNL     1      56.512 -41.307 -28.787  1.00  0.00     0.004 C 
ATOM      6  C   UNL     1      56.529 -38.068 -24.756  1.00  0.00     0.013 C 
ATOM      7  C   UNL     1      54.440 -38.704 -25.879  1.00  0.00    -0.063 C 
ATOM      8  C   UNL     1      54.387 -39.974 -28.252  1.00  0.00    -0.003 C 
ATOM      9  C   UNL     1      55.385 -40.434 -29.361  1.00  0.00    -0.011 C 
ATOM     10  C   UNL     1      55.120 -37.500 -25.209  1.00  0.00    -0.006 C 
ATOM     11  C   UNL     1      53.684 -39.511 -25.122  1.00  0.00    -0.027 C 
ATOM     12  C   UNL     1      53.328 -41.036 -27.894  1.00  0.00     0.008 C 
ATOM     13  C   UNL     1      54.719 -41.126 -30.562  1.00  0.00     0.008 C 
ATOM     14  C   UNL     1      55.336 -36.368 -26.276  1.00  0.00     0.017 C 
ATOM     15  C   UNL     1      54.283 -36.890 -23.954  1.00  0.00    -0.020 C 
ATOM     16  C   UNL     1      52.950 -39.062 -23.916  1.00  0.00     0.032 C 
ATOM     17  C   UNL     1      53.699 -38.034 -23.017  1.00  0.00     0.006 C 
ATOM     18  C   UNL     1      53.058 -36.032 -24.474  1.00  0.00     0.008 C 
ATOM     19  C   UNL     1      55.290 -35.975 -23.153  1.00  0.00     0.012 C 
ATOM     20  C   UNL     1      52.770 -37.523 -21.780  1.00  0.00    -0.025 C 
ATOM     21  C   UNL     1      51.823 -35.911 -23.528  1.00  0.00     0.005 C 
ATOM     22  C   UNL     1      52.224 -36.077 -22.053  1.00  0.00     0.003 C 
ATOM     23  C   UNL     1      53.595 -37.434 -20.462  1.00  0.00     0.010 C 
ATOM     24  C   UNL     1      51.619 -38.552 -21.513  1.00  0.00     0.012 C 
ATOM     25  C   UNL     1      51.326 -35.418 -20.934  1.00  0.00    -0.006 C 
ATOM     26  C   UNL     1      52.791 -36.847 -19.276  1.00  0.00     0.033 C 
ATOM     27  C   UNL     1      52.130 -35.483 -19.581  1.00  0.00     0.120 C 
ATOM     28  C   UNL     1      49.912 -36.052 -20.807  1.00  0.00     0.014 C 
ATOM     29  C   UNL     1      51.115 -33.908 -21.257  1.00  0.00     0.014 C 
ENDROOT
BRANCH   1  30
ATOM     30  C   UNL     1      56.250 -41.159 -25.586  1.00  0.00     0.048 C 
ATOM     31  O   UNL     1      55.758 -42.243 -25.989  1.00  0.00    -0.550 OA
ATOM     32  O   UNL     1      56.632 -41.073 -24.250  1.00  0.00    -0.550 OA
ENDBRANCH   1  30
BRANCH  27  33
ATOM     33  O   UNL     1      51.304 -35.131 -18.497  1.00  0.00    -0.393 OA
ATOM     34  H   UNL     1      50.406 -34.915 -18.860  1.00  0.00     0.210 HD
ENDBRANCH  27  33
TORSDOF 2
ENDMDL
MODEL 5
REMARK VINA RESULT:    -6.815      2.145      2.930
REMARK INTER + INTRA:          -7.206
REMARK INTER:                  -7.418
REMARK INTRA:                   0.212
REMARK UNBOUND:                 0.207
REMARK SMILES C[C@@H]1[C@H](C)CC[C@@]2(C(=O)[O-])CC[C@@]3(C)C(=CC[C@@H]4[C@@]5(C)CC[C@H](O)C(C)(C)[C@@H]5CC[C@@]43C)[C@H]12
REMARK SMILES IDX 7 1 6 2 11 3 33 4 5 5 12 6 15 7 2 8 3 9 13 10 16 11 1 12
REMARK SMILES IDX 4 13 14 14 31 15 17 16 18 17 30 18 32 19 19 20 29 21 28 22
REMARK SMILES IDX 21 23 20 24 25 25 22 26 23 27 26 28 27 29 8 30 9 31 10 32
REMARK SMILES IDX 24 33
REMARK H PARENT 24 34
REMARK Flexibility Score: inf
ROOT
ATOM      1  C   UNL     1      55.856 -40.826 -24.804  1.00  0.00     0.017 C 
ATOM      2  C   UNL     1      56.287 -42.320 -24.786  1.00  0.00     0.014 C 
ATOM      3  C   UNL     1      56.838 -40.017 -23.885  1.00  0.00     0.014 C 
ATOM      4  C   UNL     1      56.018 -40.232 -26.243  1.00  0.00     0.030 C 
ATOM      5  C   UNL     1      55.695 -43.144 -25.941  1.00  0.00     0.004 C 
ATOM      6  C   UNL     1      56.707 -38.464 -23.986  1.00  0.00     0.013 C 
ATOM      7  C   UNL     1      55.693 -38.733 -26.207  1.00  0.00    -0.063 C 
ATOM      8  C   UNL     1      55.587 -41.099 -27.486  1.00  0.00    -0.003 C 
ATOM      9  C   UNL     1      56.108 -42.559 -27.301  1.00  0.00    -0.011 C 
ATOM     10  C   UNL     1      56.701 -37.854 -25.449  1.00  0.00    -0.006 C 
ATOM     11  C   UNL     1      54.407 -38.356 -26.225  1.00  0.00    -0.027 C 
ATOM     12  C   UNL     1      54.116 -41.020 -27.944  1.00  0.00     0.008 C 
ATOM     13  C   UNL     1      55.725 -43.515 -28.443  1.00  0.00     0.008 C 
ATOM     14  C   UNL     1      58.124 -38.028 -26.091  1.00  0.00     0.017 C 
ATOM     15  C   UNL     1      56.315 -36.273 -25.442  1.00  0.00    -0.020 C 
ATOM     16  C   UNL     1      53.958 -36.946 -26.142  1.00  0.00     0.032 C 
ATOM     17  C   UNL     1      54.767 -36.040 -25.167  1.00  0.00     0.006 C 
ATOM     18  C   UNL     1      56.650 -35.618 -26.845  1.00  0.00     0.008 C 
ATOM     19  C   UNL     1      57.188 -35.609 -24.307  1.00  0.00     0.012 C 
ATOM     20  C   UNL     1      54.267 -34.491 -25.228  1.00  0.00    -0.025 C 
ATOM     21  C   UNL     1      55.815 -34.368 -27.264  1.00  0.00     0.005 C 
ATOM     22  C   UNL     1      55.284 -33.609 -26.037  1.00  0.00     0.003 C 
ATOM     23  C   UNL     1      54.194 -33.870 -23.802  1.00  0.00     0.010 C 
ATOM     24  C   UNL     1      52.818 -34.417 -25.818  1.00  0.00     0.012 C 
ATOM     25  C   UNL     1      54.963 -32.068 -26.167  1.00  0.00    -0.006 C 
ATOM     26  C   UNL     1      53.832 -32.365 -23.806  1.00  0.00     0.033 C 
ATOM     27  C   UNL     1      54.744 -31.504 -24.712  1.00  0.00     0.120 C 
ATOM     28  C   UNL     1      53.766 -31.751 -27.106  1.00  0.00     0.014 C 
ATOM     29  C   UNL     1      56.203 -31.326 -26.752  1.00  0.00     0.014 C 
ENDROOT
BRANCH   1  30
ATOM     30  C   UNL     1      54.435 -40.721 -24.244  1.00  0.00     0.048 C 
ATOM     31  O   UNL     1      53.475 -41.304 -24.806  1.00  0.00    -0.550 OA
ATOM     32  O   UNL     1      54.180 -40.041 -23.055  1.00  0.00    -0.550 OA
ENDBRANCH   1  30
BRANCH  27  33
ATOM     33  O   UNL     1      54.224 -30.197 -24.761  1.00  0.00    -0.393 OA
ATOM     34  H   UNL     1      53.850 -29.988 -23.867  1.00  0.00     0.210 HD
ENDBRANCH  27  33
TORSDOF 2
ENDMDL
MODEL 6
REMARK VINA RESULT:    -6.799      2.308      3.180
REMARK INTER + INTRA:          -7.189
REMARK INTER:                  -7.431
REMARK INTRA:                   0.242
REMARK UNBOUND:                 0.207
REMARK SMILES C[C@@H]1[C@H](C)CC[C@@]2(C(=O)[O-])CC[C@@]3(C)C(=CC[C@@H]4[C@@]5(C)CC[C@H](O)C(C)(C)[C@@H]5CC[C@@]43C)[C@H]12
REMARK SMILES IDX 7 1 6 2 11 3 33 4 5 5 12 6 15 7 2 8 3 9 13 10 16 11 1 12
REMARK SMILES IDX 4 13 14 14 31 15 17 16 18 17 30 18 32 19 19 20 29 21 28 22
REMARK SMILES IDX 21 23 20 24 25 25 22 26 23 27 26 28 27 29 8 30 9 31 10 32
REMARK SMILES IDX 24 33
REMARK H PARENT 24 34
REMARK Flexibility Score: inf
ROOT
ATOM      1  C   UNL     1      54.616 -41.791 -25.953  1.00  0.00     0.017 C 
ATOM      2  C   UNL     1      54.454 -43.302 -26.285  1.00  0.00     0.014 C 
ATOM      3  C   UNL     1      55.978 -41.595 -25.198  1.00  0.00     0.014 C 
ATOM      4  C   UNL     1      54.725 -40.955 -27.272  1.00  0.00     0.030 C 
ATOM      5  C   UNL     1      53.399 -43.583 -27.367  1.00  0.00     0.004 C 
ATOM      6  C   UNL     1      56.420 -40.108 -25.013  1.00  0.00     0.013 C 
ATOM      7  C   UNL     1      54.995 -39.487 -26.914  1.00  0.00    -0.063 C 
ATOM      8  C   UNL     1      53.784 -41.307 -28.486  1.00  0.00    -0.003 C 
ATOM      9  C   UNL     1      53.746 -42.856 -28.676  1.00  0.00    -0.011 C 
ATOM     10  C   UNL     1      56.377 -39.196 -26.309  1.00  0.00    -0.006 C 
ATOM     11  C   UNL     1      53.962 -38.719 -26.543  1.00  0.00    -0.027 C 
ATOM     12  C   UNL     1      52.393 -40.644 -28.534  1.00  0.00     0.008 C 
ATOM     13  C   UNL     1      52.835 -43.329 -29.820  1.00  0.00     0.008 C 
ATOM     14  C   UNL     1      57.491 -39.666 -27.312  1.00  0.00     0.017 C 
ATOM     15  C   UNL     1      56.618 -37.627 -25.951  1.00  0.00    -0.020 C 
ATOM     16  C   UNL     1      54.095 -37.303 -26.124  1.00  0.00     0.032 C 
ATOM     17  C   UNL     1      55.346 -36.974 -25.256  1.00  0.00     0.006 C 
ATOM     18  C   UNL     1      56.913 -36.800 -27.269  1.00  0.00     0.008 C 
ATOM     19  C   UNL     1      57.865 -37.579 -24.985  1.00  0.00     0.012 C 
ATOM     20  C   UNL     1      55.458 -35.380 -24.938  1.00  0.00    -0.025 C 
ATOM     21  C   UNL     1      56.544 -35.284 -27.255  1.00  0.00     0.005 C 
ATOM     22  C   UNL     1      56.566 -34.712 -25.828  1.00  0.00     0.003 C 
ATOM     23  C   UNL     1      55.881 -35.133 -23.460  1.00  0.00     0.010 C 
ATOM     24  C   UNL     1      54.060 -34.697 -25.119  1.00  0.00     0.012 C 
ATOM     25  C   UNL     1      56.826 -33.168 -25.624  1.00  0.00    -0.006 C 
ATOM     26  C   UNL     1      56.113 -33.638 -23.131  1.00  0.00     0.033 C 
ATOM     27  C   UNL     1      57.100 -32.932 -24.091  1.00  0.00     0.120 C 
ATOM     28  C   UNL     1      55.684 -32.261 -26.163  1.00  0.00     0.014 C 
ATOM     29  C   UNL     1      58.125 -32.754 -26.379  1.00  0.00     0.014 C 
ENDROOT
BRANCH   1  30
ATOM     30  C   UNL     1      53.464 -41.366 -25.039  1.00  0.00     0.048 C 
ATOM     31  O   UNL     1      52.272 -41.626 -25.340  1.00  0.00    -0.550 OA
ATOM     32  O   UNL     1      53.708 -40.749 -23.815  1.00  0.00    -0.550 OA
ENDBRANCH   1  30
BRANCH  27  33
ATOM     33  O   UNL     1      57.106 -31.555 -23.795  1.00  0.00    -0.393 OA
ATOM     34  H   UNL     1      57.128 -31.459 -22.808  1.00  0.00     0.210 HD
ENDBRANCH  27  33
TORSDOF 2
ENDMDL
MODEL 7
REMARK VINA RESULT:    -6.607      3.689      8.038
REMARK INTER + INTRA:          -6.979
REMARK INTER:                  -7.186
REMARK INTRA:                   0.206
REMARK UNBOUND:                 0.207
REMARK SMILES C[C@@H]1[C@H](C)CC[C@@]2(C(=O)[O-])CC[C@@]3(C)C(=CC[C@@H]4[C@@]5(C)CC[C@H](O)C(C)(C)[C@@H]5CC[C@@]43C)[C@H]12
REMARK SMILES IDX 7 1 6 2 11 3 33 4 5 5 12 6 15 7 2 8 3 9 13 10 16 11 1 12
REMARK SMILES IDX 4 13 14 14 31 15 17 16 18 17 30 18 32 19 19 20 29 21 28 22
REMARK SMILES IDX 21 23 20 24 25 25 22 26 23 27 26 28 27 29 8 30 9 31 10 32
REMARK SMILES IDX 24 33
REMARK H PARENT 24 34
REMARK Flexibility Score: inf
ROOT
ATOM      1  C   UNL     1      49.304 -37.418 -20.472  1.00  0.00     0.017 C 
ATOM      2  C   UNL     1      48.222 -37.205 -19.375  1.00  0.00     0.014 C 
ATOM      3  C   UNL     1      50.091 -36.073 -20.656  1.00  0.00     0.014 C 
ATOM      4  C   UNL     1      50.356 -38.476 -19.999  1.00  0.00     0.030 C 
ATOM      5  C   UNL     1      47.666 -38.517 -18.799  1.00  0.00     0.004 C 
ATOM      6  C   UNL     1      51.377 -36.177 -21.536  1.00  0.00     0.013 C 
ATOM      7  C   UNL     1      51.468 -38.583 -21.050  1.00  0.00    -0.063 C 
ATOM      8  C   UNL     1      49.861 -39.768 -19.245  1.00  0.00    -0.003 C 
ATOM      9  C   UNL     1      48.789 -39.367 -18.183  1.00  0.00    -0.011 C 
ATOM     10  C   UNL     1      52.379 -37.352 -21.178  1.00  0.00    -0.006 C 
ATOM     11  C   UNL     1      51.247 -39.328 -22.141  1.00  0.00    -0.027 C 
ATOM     12  C   UNL     1      49.459 -40.989 -20.097  1.00  0.00     0.008 C 
ATOM     13  C   UNL     1      48.206 -40.552 -17.396  1.00  0.00     0.008 C 
ATOM     14  C   UNL     1      53.049 -37.058 -19.788  1.00  0.00     0.017 C 
ATOM     15  C   UNL     1      53.546 -37.515 -22.301  1.00  0.00    -0.020 C 
ATOM     16  C   UNL     1      52.218 -39.472 -23.253  1.00  0.00     0.032 C 
ATOM     17  C   UNL     1      52.995 -38.178 -23.637  1.00  0.00     0.006 C 
ATOM     18  C   UNL     1      54.709 -38.442 -21.758  1.00  0.00     0.008 C 
ATOM     19  C   UNL     1      54.092 -36.062 -22.586  1.00  0.00     0.012 C 
ATOM     20  C   UNL     1      54.108 -38.463 -24.791  1.00  0.00    -0.025 C 
ATOM     21  C   UNL     1      55.549 -39.223 -22.816  1.00  0.00     0.005 C 
ATOM     22  C   UNL     1      55.552 -38.504 -24.175  1.00  0.00     0.003 C 
ATOM     23  C   UNL     1      54.121 -37.322 -25.850  1.00  0.00     0.010 C 
ATOM     24  C   UNL     1      53.755 -39.780 -25.564  1.00  0.00     0.012 C 
ATOM     25  C   UNL     1      56.757 -38.742 -25.167  1.00  0.00    -0.006 C 
ATOM     26  C   UNL     1      55.237 -37.483 -26.911  1.00  0.00     0.033 C 
ATOM     27  C   UNL     1      56.651 -37.664 -26.310  1.00  0.00     0.120 C 
ATOM     28  C   UNL     1      56.833 -40.189 -25.730  1.00  0.00     0.014 C 
ATOM     29  C   UNL     1      58.102 -38.476 -24.426  1.00  0.00     0.014 C 
ENDROOT
BRANCH   1  30
ATOM     30  C   UNL     1      48.603 -37.779 -21.784  1.00  0.00     0.048 C 
ATOM     31  O   UNL     1      47.854 -38.784 -21.860  1.00  0.00    -0.550 OA
ATOM     32  O   UNL     1      48.717 -36.963 -22.907  1.00  0.00    -0.550 OA
ENDBRANCH   1  30
BRANCH  27  33
ATOM     33  O   UNL     1      57.548 -37.960 -27.354  1.00  0.00    -0.393 OA
ATOM     34  H   UNL     1      58.432 -37.584 -27.108  1.00  0.00     0.210 HD
ENDBRANCH  27  33
TORSDOF 2
ENDMDL
MODEL 8
REMARK VINA RESULT:    -6.571      2.053      8.125
REMARK INTER + INTRA:          -6.940
REMARK INTER:                  -7.152
REMARK INTRA:                   0.212
REMARK UNBOUND:                 0.207
REMARK SMILES C[C@@H]1[C@H](C)CC[C@@]2(C(=O)[O-])CC[C@@]3(C)C(=CC[C@@H]4[C@@]5(C)CC[C@H](O)C(C)(C)[C@@H]5CC[C@@]43C)[C@H]12
REMARK SMILES IDX 7 1 6 2 11 3 33 4 5 5 12 6 15 7 2 8 3 9 13 10 16 11 1 12
REMARK SMILES IDX 4 13 14 14 31 15 17 16 18 17 30 18 32 19 19 20 29 21 28 22
REMARK SMILES IDX 21 23 20 24 25 25 22 26 23 27 26 28 27 29 8 30 9 31 10 32
REMARK SMILES IDX 24 33
REMARK H PARENT 24 34
REMARK Flexibility Score: inf
ROOT
ATOM      1  C   UNL     1      54.048 -36.225 -22.987  1.00  0.00     0.017 C 
ATOM      2  C   UNL     1      54.037 -35.186 -21.830  1.00  0.00     0.014 C 
ATOM      3  C   UNL     1      55.354 -36.013 -23.830  1.00  0.00     0.014 C 
ATOM      4  C   UNL     1      54.133 -37.678 -22.411  1.00  0.00     0.030 C 
ATOM      5  C   UNL     1      53.056 -35.537 -20.700  1.00  0.00     0.004 C 
ATOM      6  C   UNL     1      55.652 -37.131 -24.878  1.00  0.00     0.013 C 
ATOM      7  C   UNL     1      54.254 -38.672 -23.574  1.00  0.00    -0.063 C 
ATOM      8  C   UNL     1      53.278 -38.054 -21.143  1.00  0.00    -0.003 C 
ATOM      9  C   UNL     1      53.388 -36.907 -20.088  1.00  0.00    -0.011 C 
ATOM     10  C   UNL     1      55.578 -38.625 -24.351  1.00  0.00    -0.006 C 
ATOM     11  C   UNL     1      53.141 -39.026 -24.231  1.00  0.00    -0.027 C 
ATOM     12  C   UNL     1      51.834 -38.549 -21.368  1.00  0.00     0.008 C 
ATOM     13  C   UNL     1      52.570 -37.146 -18.809  1.00  0.00     0.008 C 
ATOM     14  C   UNL     1      56.770 -38.885 -23.361  1.00  0.00     0.017 C 
ATOM     15  C   UNL     1      55.660 -39.700 -25.571  1.00  0.00    -0.020 C 
ATOM     16  C   UNL     1      53.128 -39.936 -25.402  1.00  0.00     0.032 C 
ATOM     17  C   UNL     1      54.307 -39.759 -26.403  1.00  0.00     0.006 C 
ATOM     18  C   UNL     1      55.931 -41.154 -25.005  1.00  0.00     0.008 C 
ATOM     19  C   UNL     1      56.859 -39.237 -26.488  1.00  0.00     0.012 C 
ATOM     20  C   UNL     1      54.262 -40.871 -27.593  1.00  0.00    -0.025 C 
ATOM     21  C   UNL     1      55.426 -42.356 -25.862  1.00  0.00     0.005 C 
ATOM     22  C   UNL     1      55.339 -41.988 -27.353  1.00  0.00     0.003 C 
ATOM     23  C   UNL     1      54.601 -40.230 -28.971  1.00  0.00     0.010 C 
ATOM     24  C   UNL     1      52.815 -41.459 -27.722  1.00  0.00     0.012 C 
ATOM     25  C   UNL     1      55.448 -43.133 -28.434  1.00  0.00    -0.006 C 
ATOM     26  C   UNL     1      54.682 -41.261 -30.122  1.00  0.00     0.033 C 
ATOM     27  C   UNL     1      55.638 -42.444 -29.838  1.00  0.00     0.120 C 
ATOM     28  C   UNL     1      54.252 -44.125 -28.425  1.00  0.00     0.014 C 
ATOM     29  C   UNL     1      56.734 -43.975 -28.173  1.00  0.00     0.014 C 
ENDROOT
BRANCH   1  30
ATOM     30  C   UNL     1      52.826 -35.978 -23.876  1.00  0.00     0.048 C 
ATOM     31  O   UNL     1      51.664 -36.004 -23.397  1.00  0.00    -0.550 OA
ATOM     32  O   UNL     1      52.971 -35.643 -25.220  1.00  0.00    -0.550 OA
ENDBRANCH   1  30
BRANCH  27  33
ATOM     33  O   UNL     1      55.507 -43.387 -30.874  1.00  0.00    -0.393 OA
ATOM     34  H   UNL     1      54.579 -43.736 -30.848  1.00  0.00     0.210 HD
ENDBRANCH  27  33
TORSDOF 2
ENDMDL
MODEL 9
REMARK VINA RESULT:    -6.466      1.391      2.043
REMARK INTER + INTRA:          -6.827
REMARK INTER:                  -7.064
REMARK INTRA:                   0.237
REMARK UNBOUND:                 0.207
REMARK SMILES C[C@@H]1[C@H](C)CC[C@@]2(C(=O)[O-])CC[C@@]3(C)C(=CC[C@@H]4[C@@]5(C)CC[C@H](O)C(C)(C)[C@@H]5CC[C@@]43C)[C@H]12
REMARK SMILES IDX 7 1 6 2 11 3 33 4 5 5 12 6 15 7 2 8 3 9 13 10 16 11 1 12
REMARK SMILES IDX 4 13 14 14 31 15 17 16 18 17 30 18 32 19 19 20 29 21 28 22
REMARK SMILES IDX 21 23 20 24 25 25 22 26 23 27 26 28 27 29 8 30 9 31 10 32
REMARK SMILES IDX 24 33
REMARK H PARENT 24 34
REMARK Flexibility Score: inf
ROOT
ATOM      1  C   UNL     1      54.523 -42.390 -27.863  1.00  0.00     0.017 C 
ATOM      2  C   UNL     1      54.826 -43.603 -28.788  1.00  0.00     0.014 C 
ATOM      3  C   UNL     1      53.949 -42.935 -26.507  1.00  0.00     0.014 C 
ATOM      4  C   UNL     1      55.847 -41.638 -27.504  1.00  0.00     0.030 C 
ATOM      5  C   UNL     1      55.763 -43.263 -29.958  1.00  0.00     0.004 C 
ATOM      6  C   UNL     1      53.827 -41.872 -25.370  1.00  0.00     0.013 C 
ATOM      7  C   UNL     1      55.532 -40.517 -26.504  1.00  0.00    -0.063 C 
ATOM      8  C   UNL     1      56.930 -41.408 -28.625  1.00  0.00    -0.003 C 
ATOM      9  C   UNL     1      57.108 -42.724 -29.447  1.00  0.00    -0.011 C 
ATOM     10  C   UNL     1      55.110 -40.980 -25.101  1.00  0.00    -0.006 C 
ATOM     11  C   UNL     1      55.035 -39.364 -26.971  1.00  0.00    -0.027 C 
ATOM     12  C   UNL     1      56.802 -40.145 -29.501  1.00  0.00     0.008 C 
ATOM     13  C   UNL     1      58.125 -42.618 -30.595  1.00  0.00     0.008 C 
ATOM     14  C   UNL     1      56.245 -41.876 -24.487  1.00  0.00     0.017 C 
ATOM     15  C   UNL     1      54.791 -39.757 -24.076  1.00  0.00    -0.020 C 
ATOM     16  C   UNL     1      54.641 -38.225 -26.108  1.00  0.00     0.032 C 
ATOM     17  C   UNL     1      53.941 -38.606 -24.770  1.00  0.00     0.006 C 
ATOM     18  C   UNL     1      56.139 -39.104 -23.562  1.00  0.00     0.008 C 
ATOM     19  C   UNL     1      53.993 -40.387 -22.869  1.00  0.00     0.012 C 
ATOM     20  C   UNL     1      53.647 -37.296 -23.848  1.00  0.00    -0.025 C 
ATOM     21  C   UNL     1      56.084 -37.606 -23.127  1.00  0.00     0.005 C 
ATOM     22  C   UNL     1      54.673 -37.206 -22.664  1.00  0.00     0.003 C 
ATOM     23  C   UNL     1      52.235 -37.378 -23.195  1.00  0.00     0.010 C 
ATOM     24  C   UNL     1      53.649 -36.005 -24.735  1.00  0.00     0.012 C 
ATOM     25  C   UNL     1      54.509 -36.005 -21.652  1.00  0.00    -0.006 C 
ATOM     26  C   UNL     1      51.944 -36.213 -22.217  1.00  0.00     0.033 C 
ATOM     27  C   UNL     1      53.024 -36.026 -21.126  1.00  0.00     0.120 C 
ATOM     28  C   UNL     1      54.901 -34.623 -22.247  1.00  0.00     0.014 C 
ATOM     29  C   UNL     1      55.425 -36.238 -20.413  1.00  0.00     0.014 C 
ENDROOT
BRANCH   1  30
ATOM     30  C   UNL     1      53.471 -41.510 -28.542  1.00  0.00     0.048 C 
ATOM     31  O   UNL     1      53.740 -40.878 -29.594  1.00  0.00    -0.550 OA
ATOM     32  O   UNL     1      52.167 -41.446 -28.057  1.00  0.00    -0.550 OA
ENDBRANCH   1  30
BRANCH  27  33
ATOM     33  O   UNL     1      52.737 -34.851 -20.406  1.00  0.00    -0.393 OA
ATOM     34  H   UNL     1      52.775 -35.073 -19.440  1.00  0.00     0.210 HD
ENDBRANCH  27  33
TORSDOF 2
ENDMDL
