MODEL 1
REMARK VINA RESULT:    -4.821      0.000      0.000
REMARK INTER + INTRA:         -10.288
REMARK INTER:                  -9.048
REMARK INTRA:                  -1.240
REMARK UNBOUND:                -1.240
REMARK SMILES CCCCCCCCC=CCCCCCCCC(=O)[O-]
REMARK SMILES IDX 10 1 9 2 11 3 12 4 13 5 14 6 15 7 16 8 17 9 18 10 19 11
REMARK SMILES IDX 20 12 8 13 7 14 6 15 5 16 4 17 3 18 2 19 1 20
REMARK H PARENT
REMARK Flexibility Score: inf
ROOT
ATOM      1  C   UNL     1      16.996   5.675  20.134  1.00  0.00    -0.031 C 
ATOM      2  C   UNL     1      16.299   5.575  21.282  1.00  0.00    -0.031 C 
ENDROOT
BRANCH   1   3
ATOM      3  C   UNL     1      16.725   6.695  19.055  1.00  0.00     0.027 C 
BRANCH   3   4
ATOM      4  C   UNL     1      16.626   6.055  17.656  1.00  0.00     0.004 C 
BRANCH   4   5
ATOM      5  C   UNL     1      17.731   5.024  17.367  1.00  0.00     0.000 C 
BRANCH   5   6
ATOM      6  C   UNL     1      18.074   4.916  15.871  1.00  0.00     0.000 C 
BRANCH   6   7
ATOM      7  C   UNL     1      16.941   4.251  15.061  1.00  0.00     0.000 C 
BRANCH   7   8
ATOM      8  C   UNL     1      17.409   3.047  14.226  1.00  0.00     0.006 C 
BRANCH   8   9
ATOM      9  C   UNL     1      18.311   2.089  15.012  1.00  0.00     0.053 C 
BRANCH   9  10
ATOM     10  C   UNL     1      18.016   0.670  14.642  1.00  0.00     0.041 C 
ATOM     11  O   UNL     1      18.532  -0.276  15.293  1.00  0.00    -0.550 OA
ATOM     12  O   UNL     1      17.211   0.391  13.543  1.00  0.00    -0.550 OA
ENDBRANCH   9  10
ENDBRANCH   8   9
ENDBRANCH   7   8
ENDBRANCH   6   7
ENDBRANCH   5   6
ENDBRANCH   4   5
ENDBRANCH   3   4
ENDBRANCH   1   3
BRANCH   2  13
ATOM     13  C   UNL     1      15.093   6.413  21.622  1.00  0.00     0.027 C 
BRANCH  13  14
ATOM     14  C   UNL     1      15.398   7.340  22.807  1.00  0.00     0.004 C 
BRANCH  14  15
ATOM     15  C   UNL     1      16.561   6.824  23.671  1.00  0.00     0.000 C 
BRANCH  15  16
ATOM     16  C   UNL     1      17.407   7.971  24.253  1.00  0.00     0.000 C 
BRANCH  16  17
ATOM     17  C   UNL     1      18.917   7.735  24.095  1.00  0.00    -0.000 C 
BRANCH  17  18
ATOM     18  C   UNL     1      19.239   6.438  23.334  1.00  0.00    -0.000 C 
BRANCH  18  19
ATOM     19  C   UNL     1      20.744   6.128  23.309  1.00  0.00    -0.003 C 
ATOM     20  C   UNL     1      21.599   7.302  23.786  1.00  0.00     0.004 C 
ENDBRANCH  18  19
ENDBRANCH  17  18
ENDBRANCH  16  17
ENDBRANCH  15  16
ENDBRANCH  14  15
ENDBRANCH  13  14
ENDBRANCH   2  13
TORSDOF 15
ENDMDL
MODEL 2
REMARK VINA RESULT:    -4.762      1.185      1.906
REMARK INTER + INTRA:         -10.177
REMARK INTER:                  -8.961
REMARK INTRA:                  -1.216
REMARK UNBOUND:                -1.240
REMARK SMILES CCCCCCCCC=CCCCCCCCC(=O)[O-]
REMARK SMILES IDX 10 1 9 2 11 3 12 4 13 5 14 6 15 7 16 8 17 9 18 10 19 11
REMARK SMILES IDX 20 12 8 13 7 14 6 15 5 16 4 17 3 18 2 19 1 20
REMARK H PARENT
REMARK Flexibility Score: inf
ROOT
ATOM      1  C   UNL     1      17.859   5.769  18.485  1.00  0.00    -0.031 C 
ATOM      2  C   UNL     1      17.431   6.049  19.730  1.00  0.00    -0.031 C 
ENDROOT
BRANCH   1   3
ATOM      3  C   UNL     1      17.199   6.267  17.221  1.00  0.00     0.027 C 
BRANCH   3   4
ATOM      4  C   UNL     1      16.899   5.126  16.229  1.00  0.00     0.004 C 
BRANCH   4   5
ATOM      5  C   UNL     1      18.009   4.064  16.153  1.00  0.00     0.000 C 
BRANCH   5   6
ATOM      6  C   UNL     1      18.384   3.690  14.709  1.00  0.00     0.000 C 
BRANCH   6   7
ATOM      7  C   UNL     1      17.216   3.016  13.960  1.00  0.00     0.000 C 
BRANCH   7   8
ATOM      8  C   UNL     1      17.622   1.730  13.219  1.00  0.00     0.006 C 
BRANCH   8   9
ATOM      9  C   UNL     1      17.221   0.456  13.970  1.00  0.00     0.053 C 
BRANCH   9  10
ATOM     10  C   UNL     1      18.400  -0.119  14.691  1.00  0.00     0.041 C 
ATOM     11  O   UNL     1      18.973  -1.149  14.249  1.00  0.00    -0.550 OA
ATOM     12  O   UNL     1      18.833   0.453  15.881  1.00  0.00    -0.550 OA
ENDBRANCH   9  10
ENDBRANCH   8   9
ENDBRANCH   7   8
ENDBRANCH   6   7
ENDBRANCH   5   6
ENDBRANCH   4   5
ENDBRANCH   3   4
ENDBRANCH   1   3
BRANCH   2  13
ATOM     13  C   UNL     1      16.182   6.832  20.046  1.00  0.00     0.027 C 
BRANCH  13  14
ATOM     14  C   UNL     1      15.747   6.588  21.498  1.00  0.00     0.004 C 
BRANCH  14  15
ATOM     15  C   UNL     1      16.366   5.310  22.089  1.00  0.00     0.000 C 
BRANCH  15  16
ATOM     16  C   UNL     1      17.159   5.591  23.379  1.00  0.00     0.000 C 
BRANCH  16  17
ATOM     17  C   UNL     1      16.816   6.954  24.002  1.00  0.00    -0.000 C 
BRANCH  17  18
ATOM     18  C   UNL     1      18.030   7.894  24.079  1.00  0.00    -0.000 C 
BRANCH  18  19
ATOM     19  C   UNL     1      19.355   7.168  23.798  1.00  0.00    -0.003 C 
ATOM     20  C   UNL     1      20.575   8.073  23.972  1.00  0.00     0.004 C 
ENDBRANCH  18  19
ENDBRANCH  17  18
ENDBRANCH  16  17
ENDBRANCH  15  16
ENDBRANCH  14  15
ENDBRANCH  13  14
ENDBRANCH   2  13
TORSDOF 15
ENDMDL
MODEL 3
REMARK VINA RESULT:    -4.712      1.206      2.078
REMARK INTER + INTRA:         -10.083
REMARK INTER:                  -8.890
REMARK INTRA:                  -1.193
REMARK UNBOUND:                -1.240
REMARK SMILES CCCCCCCCC=CCCCCCCCC(=O)[O-]
REMARK SMILES IDX 10 1 9 2 11 3 12 4 13 5 14 6 15 7 16 8 17 9 18 10 19 11
REMARK SMILES IDX 20 12 8 13 7 14 6 15 5 16 4 17 3 18 2 19 1 20
REMARK H PARENT
REMARK Flexibility Score: inf
ROOT
ATOM      1  C   UNL     1      18.052   6.003  18.493  1.00  0.00    -0.031 C 
ATOM      2  C   UNL     1      17.607   6.132  19.757  1.00  0.00    -0.031 C 
ENDROOT
BRANCH   1   3
ATOM      3  C   UNL     1      17.187   5.617  17.317  1.00  0.00     0.027 C 
BRANCH   3   4
ATOM      4  C   UNL     1      17.834   4.520  16.450  1.00  0.00     0.004 C 
BRANCH   4   5
ATOM      5  C   UNL     1      17.187   4.362  15.064  1.00  0.00     0.000 C 
BRANCH   5   6
ATOM      6  C   UNL     1      17.423   2.973  14.446  1.00  0.00     0.000 C 
BRANCH   6   7
ATOM      7  C   UNL     1      18.626   2.249  15.084  1.00  0.00     0.000 C 
BRANCH   7   8
ATOM      8  C   UNL     1      18.486   0.717  15.091  1.00  0.00     0.006 C 
BRANCH   8   9
ATOM      9  C   UNL     1      17.389   0.213  14.147  1.00  0.00     0.053 C 
BRANCH   9  10
ATOM     10  C   UNL     1      17.992  -0.384  12.915  1.00  0.00     0.041 C 
ATOM     11  O   UNL     1      19.140  -0.902  12.959  1.00  0.00    -0.550 OA
ATOM     12  O   UNL     1      17.310  -0.323  11.707  1.00  0.00    -0.550 OA
ENDBRANCH   9  10
ENDBRANCH   8   9
ENDBRANCH   7   8
ENDBRANCH   6   7
ENDBRANCH   5   6
ENDBRANCH   4   5
ENDBRANCH   3   4
ENDBRANCH   1   3
BRANCH   2  13
ATOM     13  C   UNL     1      16.198   5.829  20.200  1.00  0.00     0.027 C 
BRANCH  13  14
ATOM     14  C   UNL     1      16.161   5.521  21.704  1.00  0.00     0.004 C 
BRANCH  14  15
ATOM     15  C   UNL     1      16.274   6.790  22.565  1.00  0.00     0.000 C 
BRANCH  15  16
ATOM     16  C   UNL     1      17.070   6.545  23.860  1.00  0.00     0.000 C 
BRANCH  16  17
ATOM     17  C   UNL     1      18.350   7.392  23.940  1.00  0.00    -0.000 C 
BRANCH  17  18
ATOM     18  C   UNL     1      19.604   6.616  23.506  1.00  0.00    -0.000 C 
BRANCH  18  19
ATOM     19  C   UNL     1      20.445   7.386  22.475  1.00  0.00    -0.003 C 
ATOM     20  C   UNL     1      20.871   6.518  21.290  1.00  0.00     0.004 C 
ENDBRANCH  18  19
ENDBRANCH  17  18
ENDBRANCH  16  17
ENDBRANCH  15  16
ENDBRANCH  14  15
ENDBRANCH  13  14
ENDBRANCH   2  13
TORSDOF 15
ENDMDL
MODEL 4
REMARK VINA RESULT:    -4.696      6.130      9.349
REMARK INTER + INTRA:         -10.054
REMARK INTER:                  -8.044
REMARK INTRA:                  -2.009
REMARK UNBOUND:                -1.240
REMARK SMILES CCCCCCCCC=CCCCCCCCC(=O)[O-]
REMARK SMILES IDX 10 1 9 2 11 3 12 4 13 5 14 6 15 7 16 8 17 9 18 10 19 11
REMARK SMILES IDX 20 12 8 13 7 14 6 15 5 16 4 17 3 18 2 19 1 20
REMARK H PARENT
REMARK Flexibility Score: inf
ROOT
ATOM      1  C   UNL     1      18.810   3.284  15.732  1.00  0.00    -0.031 C 
ATOM      2  C   UNL     1      17.744   4.041  15.410  1.00  0.00    -0.031 C 
ENDROOT
BRANCH   1   3
ATOM      3  C   UNL     1      19.298   2.106  14.923  1.00  0.00     0.027 C 
BRANCH   3   4
ATOM      4  C   UNL     1      18.859   0.758  15.529  1.00  0.00     0.004 C 
BRANCH   4   5
ATOM      5  C   UNL     1      18.294  -0.231  14.495  1.00  0.00     0.000 C 
BRANCH   5   6
ATOM      6  C   UNL     1      16.905   0.173  13.973  1.00  0.00     0.000 C 
BRANCH   6   7
ATOM      7  C   UNL     1      16.921   0.498  12.465  1.00  0.00     0.000 C 
BRANCH   7   8
ATOM      8  C   UNL     1      18.272   0.206  11.789  1.00  0.00     0.006 C 
BRANCH   8   9
ATOM      9  C   UNL     1      18.137  -0.663  10.534  1.00  0.00     0.053 C 
BRANCH   9  10
ATOM     10  C   UNL     1      18.444  -2.093  10.851  1.00  0.00     0.041 C 
ATOM     11  O   UNL     1      19.479  -2.389  11.505  1.00  0.00    -0.550 OA
ATOM     12  O   UNL     1      17.615  -3.104  10.380  1.00  0.00    -0.550 OA
ENDBRANCH   9  10
ENDBRANCH   8   9
ENDBRANCH   7   8
ENDBRANCH   6   7
ENDBRANCH   5   6
ENDBRANCH   4   5
ENDBRANCH   3   4
ENDBRANCH   1   3
BRANCH   2  13
ATOM     13  C   UNL     1      16.831   3.774  14.240  1.00  0.00     0.027 C 
BRANCH  13  14
ATOM     14  C   UNL     1      17.114   4.762  13.100  1.00  0.00     0.004 C 
BRANCH  14  15
ATOM     15  C   UNL     1      17.854   4.104  11.923  1.00  0.00     0.000 C 
BRANCH  15  16
ATOM     16  C   UNL     1      17.045   4.176  10.615  1.00  0.00     0.000 C 
BRANCH  16  17
ATOM     17  C   UNL     1      15.989   5.293  10.631  1.00  0.00    -0.000 C 
BRANCH  17  18
ATOM     18  C   UNL     1      14.711   4.913   9.864  1.00  0.00    -0.000 C 
BRANCH  18  19
ATOM     19  C   UNL     1      13.547   5.875  10.146  1.00  0.00    -0.003 C 
ATOM     20  C   UNL     1      13.738   7.244   9.492  1.00  0.00     0.004 C 
ENDBRANCH  18  19
ENDBRANCH  17  18
ENDBRANCH  16  17
ENDBRANCH  15  16
ENDBRANCH  14  15
ENDBRANCH  13  14
ENDBRANCH   2  13
TORSDOF 15
ENDMDL
MODEL 5
REMARK VINA RESULT:    -4.584     10.784     12.509
REMARK INTER + INTRA:          -9.844
REMARK INTER:                  -8.013
REMARK INTRA:                  -1.831
REMARK UNBOUND:                -1.240
REMARK SMILES CCCCCCCCC=CCCCCCCCC(=O)[O-]
REMARK SMILES IDX 10 1 9 2 11 3 12 4 13 5 14 6 15 7 16 8 17 9 18 10 19 11
REMARK SMILES IDX 20 12 8 13 7 14 6 15 5 16 4 17 3 18 2 19 1 20
REMARK H PARENT
REMARK Flexibility Score: inf
ROOT
ATOM      1  C   UNL     1       9.230  -4.711  19.255  1.00  0.00    -0.031 C 
ATOM      2  C   UNL     1       9.880  -5.889  19.292  1.00  0.00    -0.031 C 
ENDROOT
BRANCH   1   3
ATOM      3  C   UNL     1       9.866  -3.394  18.878  1.00  0.00     0.027 C 
BRANCH   3   4
ATOM      4  C   UNL     1       8.969  -2.558  17.943  1.00  0.00     0.004 C 
BRANCH   4   5
ATOM      5  C   UNL     1       9.433  -2.557  16.477  1.00  0.00     0.000 C 
BRANCH   5   6
ATOM      6  C   UNL     1      10.689  -3.413  16.244  1.00  0.00     0.000 C 
BRANCH   6   7
ATOM      7  C   UNL     1      10.374  -4.712  15.473  1.00  0.00     0.000 C 
BRANCH   7   8
ATOM      8  C   UNL     1       8.911  -4.809  15.008  1.00  0.00     0.006 C 
BRANCH   8   9
ATOM      9  C   UNL     1       8.776  -4.976  13.490  1.00  0.00     0.053 C 
BRANCH   9  10
ATOM     10  C   UNL     1       8.469  -3.661  12.846  1.00  0.00     0.041 C 
ATOM     11  O   UNL     1       7.684  -2.849  13.404  1.00  0.00    -0.550 OA
ATOM     12  O   UNL     1       9.008  -3.353  11.602  1.00  0.00    -0.550 OA
ENDBRANCH   9  10
ENDBRANCH   8   9
ENDBRANCH   7   8
ENDBRANCH   6   7
ENDBRANCH   5   6
ENDBRANCH   4   5
ENDBRANCH   3   4
ENDBRANCH   1   3
BRANCH   2  13
ATOM     13  C   UNL     1      11.358  -6.055  19.043  1.00  0.00     0.027 C 
BRANCH  13  14
ATOM     14  C   UNL     1      12.116  -6.189  20.371  1.00  0.00     0.004 C 
BRANCH  14  15
ATOM     15  C   UNL     1      11.288  -6.910  21.448  1.00  0.00     0.000 C 
BRANCH  15  16
ATOM     16  C   UNL     1      11.183  -6.090  22.746  1.00  0.00     0.000 C 
BRANCH  16  17
ATOM     17  C   UNL     1      11.856  -4.712  22.635  1.00  0.00    -0.000 C 
BRANCH  17  18
ATOM     18  C   UNL     1      12.073  -4.045  24.003  1.00  0.00    -0.000 C 
BRANCH  18  19
ATOM     19  C   UNL     1      13.542  -3.666  24.246  1.00  0.00    -0.003 C 
ATOM     20  C   UNL     1      13.766  -2.995  25.601  1.00  0.00     0.004 C 
ENDBRANCH  18  19
ENDBRANCH  17  18
ENDBRANCH  16  17
ENDBRANCH  15  16
ENDBRANCH  14  15
ENDBRANCH  13  14
ENDBRANCH   2  13
TORSDOF 15
ENDMDL
MODEL 6
REMARK VINA RESULT:    -4.574      1.282      2.880
REMARK INTER + INTRA:          -9.825
REMARK INTER:                  -8.127
REMARK INTRA:                  -1.698
REMARK UNBOUND:                -1.240
REMARK SMILES CCCCCCCCC=CCCCCCCCC(=O)[O-]
REMARK SMILES IDX 10 1 9 2 11 3 12 4 13 5 14 6 15 7 16 8 17 9 18 10 19 11
REMARK SMILES IDX 20 12 8 13 7 14 6 15 5 16 4 17 3 18 2 19 1 20
REMARK H PARENT
REMARK Flexibility Score: inf
ROOT
ATOM      1  C   UNL     1      19.548   6.167  19.210  1.00  0.00    -0.031 C 
ATOM      2  C   UNL     1      20.116   6.527  20.377  1.00  0.00    -0.031 C 
ENDROOT
BRANCH   1   3
ATOM      3  C   UNL     1      18.220   6.683  18.711  1.00  0.00     0.027 C 
BRANCH   3   4
ATOM      4  C   UNL     1      17.341   5.562  18.122  1.00  0.00     0.004 C 
BRANCH   4   5
ATOM      5  C   UNL     1      16.690   5.926  16.777  1.00  0.00     0.000 C 
BRANCH   5   6
ATOM      6  C   UNL     1      17.026   4.926  15.657  1.00  0.00     0.000 C 
BRANCH   6   7
ATOM      7  C   UNL     1      18.001   3.828  16.131  1.00  0.00     0.000 C 
BRANCH   7   8
ATOM      8  C   UNL     1      18.509   2.926  14.994  1.00  0.00     0.006 C 
BRANCH   8   9
ATOM      9  C   UNL     1      19.007   1.564  15.489  1.00  0.00     0.053 C 
BRANCH   9  10
ATOM     10  C   UNL     1      18.262   0.457  14.813  1.00  0.00     0.041 C 
ATOM     11  O   UNL     1      18.690  -0.726  14.874  1.00  0.00    -0.550 OA
ATOM     12  O   UNL     1      17.122   0.739  14.070  1.00  0.00    -0.550 OA
ENDBRANCH   9  10
ENDBRANCH   8   9
ENDBRANCH   7   8
ENDBRANCH   6   7
ENDBRANCH   5   6
ENDBRANCH   4   5
ENDBRANCH   3   4
ENDBRANCH   1   3
BRANCH   2  13
ATOM     13  C   UNL     1      19.472   7.433  21.395  1.00  0.00     0.027 C 
BRANCH  13  14
ATOM     14  C   UNL     1      19.496   6.783  22.785  1.00  0.00     0.004 C 
BRANCH  14  15
ATOM     15  C   UNL     1      19.369   7.816  23.918  1.00  0.00     0.000 C 
BRANCH  15  16
ATOM     16  C   UNL     1      17.900   8.111  24.273  1.00  0.00     0.000 C 
BRANCH  16  17
ATOM     17  C   UNL     1      16.970   6.920  23.994  1.00  0.00    -0.000 C 
BRANCH  17  18
ATOM     18  C   UNL     1      15.743   7.309  23.153  1.00  0.00    -0.000 C 
BRANCH  18  19
ATOM     19  C   UNL     1      15.837   6.803  21.705  1.00  0.00    -0.003 C 
ATOM     20  C   UNL     1      16.188   5.317  21.618  1.00  0.00     0.004 C 
ENDBRANCH  18  19
ENDBRANCH  17  18
ENDBRANCH  16  17
ENDBRANCH  15  16
ENDBRANCH  14  15
ENDBRANCH  13  14
ENDBRANCH   2  13
TORSDOF 15
ENDMDL
MODEL 7
REMARK VINA RESULT:    -4.536     12.004     13.996
REMARK INTER + INTRA:          -9.753
REMARK INTER:                  -7.100
REMARK INTRA:                  -2.654
REMARK UNBOUND:                -1.240
REMARK SMILES CCCCCCCCC=CCCCCCCCC(=O)[O-]
REMARK SMILES IDX 10 1 9 2 11 3 12 4 13 5 14 6 15 7 16 8 17 9 18 10 19 11
REMARK SMILES IDX 20 12 8 13 7 14 6 15 5 16 4 17 3 18 2 19 1 20
REMARK H PARENT
REMARK Flexibility Score: inf
ROOT
ATOM      1  C   UNL     1       8.530  -2.850  18.963  1.00  0.00    -0.031 C 
ATOM      2  C   UNL     1       9.644  -2.615  18.244  1.00  0.00    -0.031 C 
ENDROOT
BRANCH   1   3
ATOM      3  C   UNL     1       7.188  -3.203  18.369  1.00  0.00     0.027 C 
BRANCH   3   4
ATOM      4  C   UNL     1       6.224  -2.000  18.345  1.00  0.00     0.004 C 
BRANCH   4   5
ATOM      5  C   UNL     1       5.154  -2.085  17.244  1.00  0.00     0.000 C 
BRANCH   5   6
ATOM      6  C   UNL     1       5.688  -1.690  15.856  1.00  0.00     0.000 C 
BRANCH   6   7
ATOM      7  C   UNL     1       5.479  -2.807  14.813  1.00  0.00     0.000 C 
BRANCH   7   8
ATOM      8  C   UNL     1       6.770  -3.565  14.459  1.00  0.00     0.006 C 
BRANCH   8   9
ATOM      9  C   UNL     1       7.660  -2.801  13.471  1.00  0.00     0.053 C 
BRANCH   9  10
ATOM     10  C   UNL     1       8.019  -3.673  12.309  1.00  0.00     0.041 C 
ATOM     11  O   UNL     1       7.363  -4.722  12.077  1.00  0.00    -0.550 OA
ATOM     12  O   UNL     1       9.113  -3.355  11.513  1.00  0.00    -0.550 OA
ENDBRANCH   9  10
ENDBRANCH   8   9
ENDBRANCH   7   8
ENDBRANCH   6   7
ENDBRANCH   5   6
ENDBRANCH   4   5
ENDBRANCH   3   4
ENDBRANCH   1   3
BRANCH   2  13
ATOM     13  C   UNL     1       9.696  -2.588  16.737  1.00  0.00     0.027 C 
BRANCH  13  14
ATOM     14  C   UNL     1      10.773  -3.551  16.219  1.00  0.00     0.004 C 
BRANCH  14  15
ATOM     15  C   UNL     1      10.180  -4.706  15.394  1.00  0.00     0.000 C 
BRANCH  15  16
ATOM     16  C   UNL     1       9.309  -5.644  16.250  1.00  0.00     0.000 C 
BRANCH  16  17
ATOM     17  C   UNL     1      10.118  -6.782  16.893  1.00  0.00    -0.000 C 
BRANCH  17  18
ATOM     18  C   UNL     1      10.022  -6.785  18.428  1.00  0.00    -0.000 C 
BRANCH  18  19
ATOM     19  C   UNL     1      11.279  -6.209  19.097  1.00  0.00    -0.003 C 
ATOM     20  C   UNL     1      10.955  -5.288  20.274  1.00  0.00     0.004 C 
ENDBRANCH  18  19
ENDBRANCH  17  18
ENDBRANCH  16  17
ENDBRANCH  15  16
ENDBRANCH  14  15
ENDBRANCH  13  14
ENDBRANCH   2  13
TORSDOF 15
ENDMDL
MODEL 8
REMARK VINA RESULT:    -4.518      3.675      7.400
REMARK INTER + INTRA:          -9.720
REMARK INTER:                  -7.328
REMARK INTRA:                  -2.392
REMARK UNBOUND:                -1.240
REMARK SMILES CCCCCCCCC=CCCCCCCCC(=O)[O-]
REMARK SMILES IDX 10 1 9 2 11 3 12 4 13 5 14 6 15 7 16 8 17 9 18 10 19 11
REMARK SMILES IDX 20 12 8 13 7 14 6 15 5 16 4 17 3 18 2 19 1 20
REMARK H PARENT
REMARK Flexibility Score: inf
ROOT
ATOM      1  C   UNL     1      20.735   1.413  13.884  1.00  0.00    -0.031 C 
ATOM      2  C   UNL     1      20.768   2.660  13.377  1.00  0.00    -0.031 C 
ENDROOT
BRANCH   1   3
ATOM      3  C   UNL     1      20.417   1.083  15.323  1.00  0.00     0.027 C 
BRANCH   3   4
ATOM      4  C   UNL     1      18.902   0.957  15.573  1.00  0.00     0.004 C 
BRANCH   4   5
ATOM      5  C   UNL     1      18.193  -0.009  14.608  1.00  0.00     0.000 C 
BRANCH   5   6
ATOM      6  C   UNL     1      16.911   0.584  13.999  1.00  0.00     0.000 C 
BRANCH   6   7
ATOM      7  C   UNL     1      16.792   0.285  12.490  1.00  0.00     0.000 C 
BRANCH   7   8
ATOM      8  C   UNL     1      18.140   0.318  11.750  1.00  0.00     0.006 C 
BRANCH   8   9
ATOM      9  C   UNL     1      18.183  -0.629  10.545  1.00  0.00     0.053 C 
BRANCH   9  10
ATOM     10  C   UNL     1      18.558  -2.011  10.979  1.00  0.00     0.041 C 
ATOM     11  O   UNL     1      18.000  -3.012  10.458  1.00  0.00    -0.550 OA
ATOM     12  O   UNL     1      19.486  -2.192  11.998  1.00  0.00    -0.550 OA
ENDBRANCH   9  10
ENDBRANCH   8   9
ENDBRANCH   7   8
ENDBRANCH   6   7
ENDBRANCH   5   6
ENDBRANCH   4   5
ENDBRANCH   3   4
ENDBRANCH   1   3
BRANCH   2  13
ATOM     13  C   UNL     1      20.575   3.916  14.190  1.00  0.00     0.027 C 
BRANCH  13  14
ATOM     14  C   UNL     1      19.456   4.778  13.590  1.00  0.00     0.004 C 
BRANCH  14  15
ATOM     15  C   UNL     1      18.210   3.953  13.226  1.00  0.00     0.000 C 
BRANCH  15  16
ATOM     16  C   UNL     1      17.069   4.146  14.241  1.00  0.00     0.000 C 
BRANCH  16  17
ATOM     17  C   UNL     1      17.401   5.193  15.316  1.00  0.00    -0.000 C 
BRANCH  17  18
ATOM     18  C   UNL     1      17.791   4.559  16.662  1.00  0.00    -0.000 C 
BRANCH  18  19
ATOM     19  C   UNL     1      18.282   5.598  17.682  1.00  0.00    -0.003 C 
ATOM     20  C   UNL     1      17.475   5.584  18.980  1.00  0.00     0.004 C 
ENDBRANCH  18  19
ENDBRANCH  17  18
ENDBRANCH  16  17
ENDBRANCH  15  16
ENDBRANCH  14  15
ENDBRANCH  13  14
ENDBRANCH   2  13
TORSDOF 15
ENDMDL
MODEL 9
REMARK VINA RESULT:    -4.516      4.074      9.341
REMARK INTER + INTRA:          -9.717
REMARK INTER:                  -7.486
REMARK INTRA:                  -2.231
REMARK UNBOUND:                -1.240
REMARK SMILES CCCCCCCCC=CCCCCCCCC(=O)[O-]
REMARK SMILES IDX 10 1 9 2 11 3 12 4 13 5 14 6 15 7 16 8 17 9 18 10 19 11
REMARK SMILES IDX 20 12 8 13 7 14 6 15 5 16 4 17 3 18 2 19 1 20
REMARK H PARENT
REMARK Flexibility Score: inf
ROOT
ATOM      1  C   UNL     1      19.017   4.080  13.282  1.00  0.00    -0.031 C 
ATOM      2  C   UNL     1      19.386   3.147  12.385  1.00  0.00    -0.031 C 
ENDROOT
BRANCH   1   3
ATOM      3  C   UNL     1      17.589   4.496  13.547  1.00  0.00     0.027 C 
BRANCH   3   4
ATOM      4  C   UNL     1      17.070   3.974  14.901  1.00  0.00     0.004 C 
BRANCH   4   5
ATOM      5  C   UNL     1      18.118   4.021  16.026  1.00  0.00     0.000 C 
BRANCH   5   6
ATOM      6  C   UNL     1      18.176   5.384  16.737  1.00  0.00     0.000 C 
BRANCH   6   7
ATOM      7  C   UNL     1      16.894   5.674  17.544  1.00  0.00     0.000 C 
BRANCH   7   8
ATOM      8  C   UNL     1      17.142   5.834  19.053  1.00  0.00     0.006 C 
BRANCH   8   9
ATOM      9  C   UNL     1      16.041   6.635  19.758  1.00  0.00     0.053 C 
BRANCH   9  10
ATOM     10  C   UNL     1      15.432   5.828  20.862  1.00  0.00     0.041 C 
ATOM     11  O   UNL     1      14.199   5.912  21.102  1.00  0.00    -0.550 OA
ATOM     12  O   UNL     1      16.236   5.023  21.659  1.00  0.00    -0.550 OA
ENDBRANCH   9  10
ENDBRANCH   8   9
ENDBRANCH   7   8
ENDBRANCH   6   7
ENDBRANCH   5   6
ENDBRANCH   4   5
ENDBRANCH   3   4
ENDBRANCH   1   3
BRANCH   2  13
ATOM     13  C   UNL     1      18.436   2.438  11.453  1.00  0.00     0.027 C 
BRANCH  13  14
ATOM     14  C   UNL     1      18.932   1.015  11.160  1.00  0.00     0.004 C 
BRANCH  14  15
ATOM     15  C   UNL     1      17.992  -0.062  11.726  1.00  0.00     0.000 C 
BRANCH  15  16
ATOM     16  C   UNL     1      16.787   0.548  12.466  1.00  0.00     0.000 C 
BRANCH  16  17
ATOM     17  C   UNL     1      16.779   0.213  13.966  1.00  0.00    -0.000 C 
BRANCH  17  18
ATOM     18  C   UNL     1      18.144  -0.286  14.470  1.00  0.00    -0.000 C 
BRANCH  18  19
ATOM     19  C   UNL     1      18.813   0.705  15.435  1.00  0.00    -0.003 C 
ATOM     20  C   UNL     1      20.315   0.849  15.190  1.00  0.00     0.004 C 
ENDBRANCH  18  19
ENDBRANCH  17  18
ENDBRANCH  16  17
ENDBRANCH  15  16
ENDBRANCH  14  15
ENDBRANCH  13  14
ENDBRANCH   2  13
TORSDOF 15
ENDMDL
