MODEL 1
REMARK VINA RESULT:    22.974      0.000      0.000
REMARK INTER + INTRA:          51.919
REMARK INTER:                  52.520
REMARK INTRA:                  -0.602
REMARK UNBOUND:                -0.602
REMARK SMILES CCCCCCCCCCCCCCCCCCCCCCCC(=O)[O-]
REMARK SMILES IDX 13 1 14 2 15 3 16 4 17 5 18 6 19 7 20 8 21 9 22 10 23 11
REMARK SMILES IDX 24 12 25 13 26 14 12 15 11 16 10 17 9 18 8 19 7 20 6 21 5 22
REMARK SMILES IDX 4 23 3 24 2 25 1 26
REMARK H PARENT
REMARK Flexibility Score: inf
ROOT
ATOM      1  C   UNL     1      -8.545 -13.932  21.054  1.00  0.00     0.000 C 
ENDROOT
BRANCH   1   2
ATOM      2  C   UNL     1      -8.130 -12.747  21.938  1.00  0.00     0.000 C 
BRANCH   2   3
ATOM      3  C   UNL     1      -6.912 -13.060  22.824  1.00  0.00     0.000 C 
BRANCH   3   4
ATOM      4  C   UNL     1      -6.370 -11.833  23.588  1.00  0.00     0.000 C 
BRANCH   4   5
ATOM      5  C   UNL     1      -6.601 -11.950  25.106  1.00  0.00     0.000 C 
BRANCH   5   6
ATOM      6  C   UNL     1      -6.503 -13.398  25.612  1.00  0.00     0.000 C 
BRANCH   6   7
ATOM      7  C   UNL     1      -5.065 -13.797  25.984  1.00  0.00     0.000 C 
BRANCH   7   8
ATOM      8  C   UNL     1      -4.986 -15.170  26.676  1.00  0.00     0.000 C 
BRANCH   8   9
ATOM      9  C   UNL     1      -4.784 -16.372  25.731  1.00  0.00     0.000 C 
BRANCH   9  10
ATOM     10  C   UNL     1      -5.513 -17.665  26.153  1.00  0.00     0.006 C 
BRANCH  10  11
ATOM     11  C   UNL     1      -5.493 -18.777  25.094  1.00  0.00     0.053 C 
BRANCH  11  12
ATOM     12  C   UNL     1      -5.483 -18.224  23.702  1.00  0.00     0.041 C 
ATOM     13  O   UNL     1      -4.409 -17.804  23.194  1.00  0.00    -0.550 OA
ATOM     14  O   UNL     1      -6.655 -18.196  22.956  1.00  0.00    -0.550 OA
ENDBRANCH  11  12
ENDBRANCH  10  11
ENDBRANCH   9  10
ENDBRANCH   8   9
ENDBRANCH   7   8
ENDBRANCH   6   7
ENDBRANCH   5   6
ENDBRANCH   4   5
ENDBRANCH   3   4
ENDBRANCH   2   3
ENDBRANCH   1   2
BRANCH   1  15
ATOM     15  C   UNL     1      -9.160 -13.491  19.714  1.00  0.00     0.000 C 
BRANCH  15  16
ATOM     16  C   UNL     1      -8.389 -14.009  18.480  1.00  0.00     0.000 C 
BRANCH  16  17
ATOM     17  C   UNL     1      -9.337 -14.491  17.368  1.00  0.00     0.000 C 
BRANCH  17  18
ATOM     18  C   UNL     1      -9.256 -16.007  17.132  1.00  0.00    -0.000 C 
BRANCH  18  19
ATOM     19  C   UNL     1     -10.028 -16.814  18.186  1.00  0.00    -0.000 C 
BRANCH  19  20
ATOM     20  C   UNL     1     -10.166 -18.283  17.760  1.00  0.00    -0.000 C 
BRANCH  20  21
ATOM     21  C   UNL     1      -8.807 -18.968  17.527  1.00  0.00    -0.000 C 
BRANCH  21  22
ATOM     22  C   UNL     1      -8.283 -18.898  16.079  1.00  0.00    -0.000 C 
BRANCH  22  23
ATOM     23  C   UNL     1      -6.775 -19.172  15.914  1.00  0.00    -0.000 C 
BRANCH  23  24
ATOM     24  C   UNL     1      -6.429 -20.436  15.106  1.00  0.00    -0.000 C 
BRANCH  24  25
ATOM     25  C   UNL     1      -5.780 -20.118  13.751  1.00  0.00    -0.003 C 
ATOM     26  C   UNL     1      -6.377 -18.853  13.139  1.00  0.00     0.004 C 
ENDBRANCH  24  25
ENDBRANCH  23  24
ENDBRANCH  22  23
ENDBRANCH  21  22
ENDBRANCH  20  21
ENDBRANCH  19  20
ENDBRANCH  18  19
ENDBRANCH  17  18
ENDBRANCH  16  17
ENDBRANCH  15  16
ENDBRANCH   1  15
TORSDOF 22
ENDMDL
MODEL 2
REMARK VINA RESULT:    23.198      4.070     10.266
REMARK INTER + INTRA:          52.431
REMARK INTER:                  53.150
REMARK INTRA:                  -0.719
REMARK UNBOUND:                -0.602
REMARK SMILES CCCCCCCCCCCCCCCCCCCCCCCC(=O)[O-]
REMARK SMILES IDX 13 1 14 2 15 3 16 4 17 5 18 6 19 7 20 8 21 9 22 10 23 11
REMARK SMILES IDX 24 12 25 13 26 14 12 15 11 16 10 17 9 18 8 19 7 20 6 21 5 22
REMARK SMILES IDX 4 23 3 24 2 25 1 26
REMARK H PARENT
REMARK Flexibility Score: inf
ROOT
ATOM      1  C   UNL     1      -7.900 -12.320  21.603  1.00  0.00     0.000 C 
ENDROOT
BRANCH   1   2
ATOM      2  C   UNL     1      -9.038 -13.274  21.213  1.00  0.00     0.000 C 
BRANCH   2   3
ATOM      3  C   UNL     1      -8.657 -14.220  20.061  1.00  0.00     0.000 C 
BRANCH   3   4
ATOM      4  C   UNL     1      -8.897 -13.619  18.660  1.00  0.00     0.000 C 
BRANCH   4   5
ATOM      5  C   UNL     1      -8.646 -14.644  17.540  1.00  0.00     0.000 C 
BRANCH   5   6
ATOM      6  C   UNL     1      -9.808 -15.636  17.371  1.00  0.00     0.000 C 
BRANCH   6   7
ATOM      7  C   UNL     1      -9.643 -16.893  18.241  1.00  0.00     0.000 C 
BRANCH   7   8
ATOM      8  C   UNL     1     -10.147 -18.171  17.548  1.00  0.00     0.000 C 
BRANCH   8   9
ATOM      9  C   UNL     1      -9.065 -19.228  17.247  1.00  0.00     0.000 C 
BRANCH   9  10
ATOM     10  C   UNL     1      -8.360 -19.072  15.883  1.00  0.00     0.006 C 
BRANCH  10  11
ATOM     11  C   UNL     1      -6.829 -19.157  15.948  1.00  0.00     0.053 C 
BRANCH  11  12
ATOM     12  C   UNL     1      -6.270 -20.038  14.873  1.00  0.00     0.041 C 
ATOM     13  O   UNL     1      -6.184 -21.281  15.052  1.00  0.00    -0.550 OA
ATOM     14  O   UNL     1      -5.870 -19.487  13.662  1.00  0.00    -0.550 OA
ENDBRANCH  11  12
ENDBRANCH  10  11
ENDBRANCH   9  10
ENDBRANCH   8   9
ENDBRANCH   7   8
ENDBRANCH   6   7
ENDBRANCH   5   6
ENDBRANCH   4   5
ENDBRANCH   3   4
ENDBRANCH   2   3
ENDBRANCH   1   2
BRANCH   1  15
ATOM     15  C   UNL     1      -7.729 -12.185  23.127  1.00  0.00     0.000 C 
BRANCH  15  16
ATOM     16  C   UNL     1      -6.265 -11.971  23.568  1.00  0.00     0.000 C 
BRANCH  16  17
ATOM     17  C   UNL     1      -5.966 -10.492  23.873  1.00  0.00     0.000 C 
BRANCH  17  18
ATOM     18  C   UNL     1      -5.806 -10.215  25.376  1.00  0.00    -0.000 C 
BRANCH  18  19
ATOM     19  C   UNL     1      -4.869  -9.034  25.665  1.00  0.00    -0.000 C 
BRANCH  19  20
ATOM     20  C   UNL     1      -4.114  -8.608  24.396  1.00  0.00    -0.000 C 
BRANCH  20  21
ATOM     21  C   UNL     1      -2.630  -9.018  24.418  1.00  0.00    -0.000 C 
BRANCH  21  22
ATOM     22  C   UNL     1      -1.650  -7.943  23.907  1.00  0.00    -0.000 C 
BRANCH  22  23
ATOM     23  C   UNL     1      -1.492  -7.874  22.375  1.00  0.00    -0.000 C 
BRANCH  23  24
ATOM     24  C   UNL     1      -2.773  -7.500  21.607  1.00  0.00    -0.000 C 
BRANCH  24  25
ATOM     25  C   UNL     1      -2.507  -7.171  20.131  1.00  0.00    -0.003 C 
ATOM     26  C   UNL     1      -3.761  -7.381  19.287  1.00  0.00     0.004 C 
ENDBRANCH  24  25
ENDBRANCH  23  24
ENDBRANCH  22  23
ENDBRANCH  21  22
ENDBRANCH  20  21
ENDBRANCH  19  20
ENDBRANCH  18  19
ENDBRANCH  17  18
ENDBRANCH  16  17
ENDBRANCH  15  16
ENDBRANCH   1  15
TORSDOF 22
ENDMDL
MODEL 3
REMARK VINA RESULT:    23.849      4.319     10.917
REMARK INTER + INTRA:          53.920
REMARK INTER:                  54.964
REMARK INTRA:                  -1.044
REMARK UNBOUND:                -0.602
REMARK SMILES CCCCCCCCCCCCCCCCCCCCCCCC(=O)[O-]
REMARK SMILES IDX 13 1 14 2 15 3 16 4 17 5 18 6 19 7 20 8 21 9 22 10 23 11
REMARK SMILES IDX 24 12 25 13 26 14 12 15 11 16 10 17 9 18 8 19 7 20 6 21 5 22
REMARK SMILES IDX 4 23 3 24 2 25 1 26
REMARK H PARENT
REMARK Flexibility Score: inf
ROOT
ATOM      1  C   UNL     1      -8.171 -13.866  21.163  1.00  0.00     0.000 C 
ENDROOT
BRANCH   1   2
ATOM      2  C   UNL     1      -8.883 -13.694  19.813  1.00  0.00     0.000 C 
BRANCH   2   3
ATOM      3  C   UNL     1      -8.143 -14.384  18.654  1.00  0.00     0.000 C 
BRANCH   3   4
ATOM      4  C   UNL     1      -8.901 -14.323  17.311  1.00  0.00     0.000 C 
BRANCH   4   5
ATOM      5  C   UNL     1     -10.130 -15.249  17.298  1.00  0.00     0.000 C 
BRANCH   5   6
ATOM      6  C   UNL     1      -9.927 -16.517  18.144  1.00  0.00     0.000 C 
BRANCH   6   7
ATOM      7  C   UNL     1     -10.003 -17.804  17.306  1.00  0.00     0.000 C 
BRANCH   7   8
ATOM      8  C   UNL     1      -8.964 -18.857  17.732  1.00  0.00     0.000 C 
BRANCH   8   9
ATOM      9  C   UNL     1      -7.626 -18.809  16.966  1.00  0.00     0.000 C 
BRANCH   9  10
ATOM     10  C   UNL     1      -7.679 -19.352  15.523  1.00  0.00     0.006 C 
BRANCH  10  11
ATOM     11  C   UNL     1      -6.457 -20.188  15.116  1.00  0.00     0.053 C 
BRANCH  11  12
ATOM     12  C   UNL     1      -5.966 -19.832  13.746  1.00  0.00     0.041 C 
ATOM     13  O   UNL     1      -5.161 -20.590  13.144  1.00  0.00    -0.550 OA
ATOM     14  O   UNL     1      -6.420 -18.675  13.124  1.00  0.00    -0.550 OA
ENDBRANCH  11  12
ENDBRANCH  10  11
ENDBRANCH   9  10
ENDBRANCH   8   9
ENDBRANCH   7   8
ENDBRANCH   6   7
ENDBRANCH   5   6
ENDBRANCH   4   5
ENDBRANCH   3   4
ENDBRANCH   2   3
ENDBRANCH   1   2
BRANCH   1  15
ATOM     15  C   UNL     1      -8.211 -12.593  22.026  1.00  0.00     0.000 C 
BRANCH  15  16
ATOM     16  C   UNL     1      -6.824 -12.152  22.541  1.00  0.00     0.000 C 
BRANCH  16  17
ATOM     17  C   UNL     1      -6.788 -12.039  24.076  1.00  0.00     0.000 C 
BRANCH  17  18
ATOM     18  C   UNL     1      -5.651 -11.136  24.580  1.00  0.00    -0.000 C 
BRANCH  18  19
ATOM     19  C   UNL     1      -6.049  -9.653  24.628  1.00  0.00    -0.000 C 
BRANCH  19  20
ATOM     20  C   UNL     1      -4.883  -8.788  25.129  1.00  0.00    -0.000 C 
BRANCH  20  21
ATOM     21  C   UNL     1      -3.511  -9.303  24.658  1.00  0.00    -0.000 C 
BRANCH  21  22
ATOM     22  C   UNL     1      -2.633  -8.257  23.941  1.00  0.00    -0.000 C 
BRANCH  22  23
ATOM     23  C   UNL     1      -1.139  -8.287  24.318  1.00  0.00    -0.000 C 
BRANCH  23  24
ATOM     24  C   UNL     1      -0.797  -9.142  25.552  1.00  0.00    -0.000 C 
BRANCH  24  25
ATOM     25  C   UNL     1       0.400  -8.595  26.343  1.00  0.00    -0.003 C 
ATOM     26  C   UNL     1       0.646  -7.123  26.019  1.00  0.00     0.004 C 
ENDBRANCH  24  25
ENDBRANCH  23  24
ENDBRANCH  22  23
ENDBRANCH  21  22
ENDBRANCH  20  21
ENDBRANCH  19  20
ENDBRANCH  18  19
ENDBRANCH  17  18
ENDBRANCH  16  17
ENDBRANCH  15  16
ENDBRANCH   1  15
TORSDOF 22
ENDMDL
MODEL 4
REMARK VINA RESULT:    24.156      2.856      8.869
REMARK INTER + INTRA:          54.623
REMARK INTER:                  55.472
REMARK INTRA:                  -0.849
REMARK UNBOUND:                -0.602
REMARK SMILES CCCCCCCCCCCCCCCCCCCCCCCC(=O)[O-]
REMARK SMILES IDX 13 1 14 2 15 3 16 4 17 5 18 6 19 7 20 8 21 9 22 10 23 11
REMARK SMILES IDX 24 12 25 13 26 14 12 15 11 16 10 17 9 18 8 19 7 20 6 21 5 22
REMARK SMILES IDX 4 23 3 24 2 25 1 26
REMARK H PARENT
REMARK Flexibility Score: inf
ROOT
ATOM      1  C   UNL     1      -8.766 -13.103  21.297  1.00  0.00     0.000 C 
ENDROOT
BRANCH   1   2
ATOM      2  C   UNL     1      -8.715 -14.238  20.262  1.00  0.00     0.000 C 
BRANCH   2   3
ATOM      3  C   UNL     1      -8.860 -13.734  18.816  1.00  0.00     0.000 C 
BRANCH   3   4
ATOM      4  C   UNL     1      -8.596 -14.821  17.752  1.00  0.00     0.000 C 
BRANCH   4   5
ATOM      5  C   UNL     1      -9.814 -15.741  17.550  1.00  0.00     0.000 C 
BRANCH   5   6
ATOM      6  C   UNL     1      -9.801 -16.959  18.488  1.00  0.00     0.000 C 
BRANCH   6   7
ATOM      7  C   UNL     1     -10.094 -18.275  17.750  1.00  0.00     0.000 C 
BRANCH   7   8
ATOM      8  C   UNL     1      -9.126 -18.535  16.582  1.00  0.00     0.000 C 
BRANCH   8   9
ATOM      9  C   UNL     1      -7.628 -18.407  16.927  1.00  0.00     0.000 C 
BRANCH   9  10
ATOM     10  C   UNL     1      -6.707 -19.434  16.236  1.00  0.00     0.006 C 
BRANCH  10  11
ATOM     11  C   UNL     1      -7.206 -19.907  14.863  1.00  0.00     0.053 C 
BRANCH  11  12
ATOM     12  C   UNL     1      -6.105 -19.934  13.847  1.00  0.00     0.041 C 
ATOM     13  O   UNL     1      -5.447 -20.990  13.653  1.00  0.00    -0.550 OA
ATOM     14  O   UNL     1      -5.824 -18.799  13.096  1.00  0.00    -0.550 OA
ENDBRANCH  11  12
ENDBRANCH  10  11
ENDBRANCH   9  10
ENDBRANCH   8   9
ENDBRANCH   7   8
ENDBRANCH   6   7
ENDBRANCH   5   6
ENDBRANCH   4   5
ENDBRANCH   3   4
ENDBRANCH   2   3
ENDBRANCH   1   2
BRANCH   1  15
ATOM     15  C   UNL     1      -7.416 -12.872  21.997  1.00  0.00     0.000 C 
BRANCH  15  16
ATOM     16  C   UNL     1      -7.540 -12.147  23.354  1.00  0.00     0.000 C 
BRANCH  16  17
ATOM     17  C   UNL     1      -6.242 -12.237  24.177  1.00  0.00     0.000 C 
BRANCH  17  18
ATOM     18  C   UNL     1      -6.338 -13.249  25.330  1.00  0.00    -0.000 C 
BRANCH  18  19
ATOM     19  C   UNL     1      -4.985 -13.889  25.671  1.00  0.00    -0.000 C 
BRANCH  19  20
ATOM     20  C   UNL     1      -5.175 -15.159  26.514  1.00  0.00    -0.000 C 
BRANCH  20  21
ATOM     21  C   UNL     1      -4.591 -16.415  25.843  1.00  0.00    -0.000 C 
BRANCH  21  22
ATOM     22  C   UNL     1      -5.060 -17.754  26.447  1.00  0.00    -0.000 C 
BRANCH  22  23
ATOM     23  C   UNL     1      -6.215 -18.444  25.694  1.00  0.00    -0.000 C 
BRANCH  23  24
ATOM     24  C   UNL     1      -5.846 -18.995  24.304  1.00  0.00    -0.000 C 
BRANCH  24  25
ATOM     25  C   UNL     1      -5.814 -17.907  23.222  1.00  0.00    -0.003 C 
ATOM     26  C   UNL     1      -4.407 -17.738  22.653  1.00  0.00     0.004 C 
ENDBRANCH  24  25
ENDBRANCH  23  24
ENDBRANCH  22  23
ENDBRANCH  21  22
ENDBRANCH  20  21
ENDBRANCH  19  20
ENDBRANCH  18  19
ENDBRANCH  17  18
ENDBRANCH  16  17
ENDBRANCH  15  16
ENDBRANCH   1  15
TORSDOF 22
ENDMDL
MODEL 5
REMARK VINA RESULT:    24.352      4.123     11.024
REMARK INTER + INTRA:          55.070
REMARK INTER:                  56.202
REMARK INTRA:                  -1.133
REMARK UNBOUND:                -0.602
REMARK SMILES CCCCCCCCCCCCCCCCCCCCCCCC(=O)[O-]
REMARK SMILES IDX 13 1 14 2 15 3 16 4 17 5 18 6 19 7 20 8 21 9 22 10 23 11
REMARK SMILES IDX 24 12 25 13 26 14 12 15 11 16 10 17 9 18 8 19 7 20 6 21 5 22
REMARK SMILES IDX 4 23 3 24 2 25 1 26
REMARK H PARENT
REMARK Flexibility Score: inf
ROOT
ATOM      1  C   UNL     1      -8.483 -13.779  21.137  1.00  0.00     0.000 C 
ENDROOT
BRANCH   1   2
ATOM      2  C   UNL     1      -9.004 -13.498  19.720  1.00  0.00     0.000 C 
BRANCH   2   3
ATOM      3  C   UNL     1      -8.162 -14.180  18.627  1.00  0.00     0.000 C 
BRANCH   3   4
ATOM      4  C   UNL     1      -8.937 -14.435  17.316  1.00  0.00     0.000 C 
BRANCH   4   5
ATOM      5  C   UNL     1      -9.996 -15.540  17.477  1.00  0.00     0.000 C 
BRANCH   5   6
ATOM      6  C   UNL     1      -9.421 -16.831  18.082  1.00  0.00     0.000 C 
BRANCH   6   7
ATOM      7  C   UNL     1     -10.265 -18.070  17.740  1.00  0.00     0.000 C 
BRANCH   7   8
ATOM      8  C   UNL     1      -9.430 -19.215  17.140  1.00  0.00     0.000 C 
BRANCH   8   9
ATOM      9  C   UNL     1      -9.925 -19.749  15.780  1.00  0.00     0.000 C 
BRANCH   9  10
ATOM     10  C   UNL     1      -8.842 -19.855  14.686  1.00  0.00     0.006 C 
BRANCH  10  11
ATOM     11  C   UNL     1      -7.541 -19.106  15.008  1.00  0.00     0.053 C 
BRANCH  11  12
ATOM     12  C   UNL     1      -6.358 -20.025  15.031  1.00  0.00     0.041 C 
ATOM     13  O   UNL     1      -5.721 -20.266  13.972  1.00  0.00    -0.550 OA
ATOM     14  O   UNL     1      -5.943 -20.594  16.229  1.00  0.00    -0.550 OA
ENDBRANCH  11  12
ENDBRANCH  10  11
ENDBRANCH   9  10
ENDBRANCH   8   9
ENDBRANCH   7   8
ENDBRANCH   6   7
ENDBRANCH   5   6
ENDBRANCH   4   5
ENDBRANCH   3   4
ENDBRANCH   2   3
ENDBRANCH   1   2
BRANCH   1  15
ATOM     15  C   UNL     1      -8.087 -12.498  21.891  1.00  0.00     0.000 C 
BRANCH  15  16
ATOM     16  C   UNL     1      -6.792 -12.644  22.720  1.00  0.00     0.000 C 
BRANCH  16  17
ATOM     17  C   UNL     1      -6.806 -11.753  23.975  1.00  0.00     0.000 C 
BRANCH  17  18
ATOM     18  C   UNL     1      -5.553 -10.871  24.093  1.00  0.00    -0.000 C 
BRANCH  18  19
ATOM     19  C   UNL     1      -5.777  -9.638  24.979  1.00  0.00    -0.000 C 
BRANCH  19  20
ATOM     20  C   UNL     1      -4.724  -8.557  24.693  1.00  0.00    -0.000 C 
BRANCH  20  21
ATOM     21  C   UNL     1      -3.313  -8.959  25.160  1.00  0.00    -0.000 C 
BRANCH  21  22
ATOM     22  C   UNL     1      -2.193  -8.721  24.127  1.00  0.00    -0.000 C 
BRANCH  22  23
ATOM     23  C   UNL     1      -0.761  -8.958  24.646  1.00  0.00    -0.000 C 
BRANCH  23  24
ATOM     24  C   UNL     1       0.003  -7.683  25.046  1.00  0.00    -0.000 C 
BRANCH  24  25
ATOM     25  C   UNL     1       0.537  -7.736  26.484  1.00  0.00    -0.003 C 
ATOM     26  C   UNL     1       0.597  -9.172  26.996  1.00  0.00     0.004 C 
ENDBRANCH  24  25
ENDBRANCH  23  24
ENDBRANCH  22  23
ENDBRANCH  21  22
ENDBRANCH  20  21
ENDBRANCH  19  20
ENDBRANCH  18  19
ENDBRANCH  17  18
ENDBRANCH  16  17
ENDBRANCH  15  16
ENDBRANCH   1  15
TORSDOF 22
ENDMDL
MODEL 6
REMARK VINA RESULT:    24.428      4.295      5.710
REMARK INTER + INTRA:          55.244
REMARK INTER:                  56.392
REMARK INTRA:                  -1.148
REMARK UNBOUND:                -0.602
REMARK SMILES CCCCCCCCCCCCCCCCCCCCCCCC(=O)[O-]
REMARK SMILES IDX 13 1 14 2 15 3 16 4 17 5 18 6 19 7 20 8 21 9 22 10 23 11
REMARK SMILES IDX 24 12 25 13 26 14 12 15 11 16 10 17 9 18 8 19 7 20 6 21 5 22
REMARK SMILES IDX 4 23 3 24 2 25 1 26
REMARK H PARENT
REMARK Flexibility Score: inf
ROOT
ATOM      1  C   UNL     1      -7.997 -13.641  21.511  1.00  0.00     0.000 C 
ENDROOT
BRANCH   1   2
ATOM      2  C   UNL     1      -7.998 -12.331  22.313  1.00  0.00     0.000 C 
BRANCH   2   3
ATOM      3  C   UNL     1      -6.698 -12.115  23.106  1.00  0.00     0.000 C 
BRANCH   3   4
ATOM      4  C   UNL     1      -6.903 -12.083  24.636  1.00  0.00     0.000 C 
BRANCH   4   5
ATOM      5  C   UNL     1      -6.230 -10.859  25.284  1.00  0.00     0.000 C 
BRANCH   5   6
ATOM      6  C   UNL     1      -5.137 -10.243  24.397  1.00  0.00     0.000 C 
BRANCH   6   7
ATOM      7  C   UNL     1      -4.448  -9.039  25.059  1.00  0.00     0.000 C 
BRANCH   7   8
ATOM      8  C   UNL     1      -3.369  -8.401  24.166  1.00  0.00     0.000 C 
BRANCH   8   9
ATOM      9  C   UNL     1      -2.258  -9.359  23.689  1.00  0.00     0.000 C 
BRANCH   9  10
ATOM     10  C   UNL     1      -0.896  -9.183  24.393  1.00  0.00     0.006 C 
BRANCH  10  11
ATOM     11  C   UNL     1      -0.982  -8.540  25.785  1.00  0.00     0.053 C 
BRANCH  11  12
ATOM     12  C   UNL     1       0.371  -8.362  26.403  1.00  0.00     0.041 C 
ATOM     13  O   UNL     1       0.911  -9.309  27.032  1.00  0.00    -0.550 OA
ATOM     14  O   UNL     1       1.047  -7.155  26.261  1.00  0.00    -0.550 OA
ENDBRANCH  11  12
ENDBRANCH  10  11
ENDBRANCH   9  10
ENDBRANCH   8   9
ENDBRANCH   7   8
ENDBRANCH   6   7
ENDBRANCH   5   6
ENDBRANCH   4   5
ENDBRANCH   3   4
ENDBRANCH   2   3
ENDBRANCH   1   2
BRANCH   1  15
ATOM     15  C   UNL     1      -8.988 -13.621  20.334  1.00  0.00     0.000 C 
BRANCH  15  16
ATOM     16  C   UNL     1      -8.303 -13.602  18.951  1.00  0.00     0.000 C 
BRANCH  16  17
ATOM     17  C   UNL     1      -9.324 -13.674  17.800  1.00  0.00     0.000 C 
BRANCH  17  18
ATOM     18  C   UNL     1      -9.230 -14.983  17.002  1.00  0.00    -0.000 C 
BRANCH  18  19
ATOM     19  C   UNL     1     -10.293 -16.009  17.420  1.00  0.00    -0.000 C 
BRANCH  19  20
ATOM     20  C   UNL     1      -9.655 -17.185  18.175  1.00  0.00    -0.000 C 
BRANCH  20  21
ATOM     21  C   UNL     1     -10.219 -18.550  17.743  1.00  0.00    -0.000 C 
BRANCH  21  22
ATOM     22  C   UNL     1      -9.221 -19.463  17.003  1.00  0.00    -0.000 C 
BRANCH  22  23
ATOM     23  C   UNL     1      -8.197 -18.731  16.115  1.00  0.00    -0.000 C 
BRANCH  23  24
ATOM     24  C   UNL     1      -6.771 -19.312  16.154  1.00  0.00    -0.000 C 
BRANCH  24  25
ATOM     25  C   UNL     1      -6.209 -19.602  14.755  1.00  0.00    -0.003 C 
ATOM     26  C   UNL     1      -6.110 -21.105  14.503  1.00  0.00     0.004 C 
ENDBRANCH  24  25
ENDBRANCH  23  24
ENDBRANCH  22  23
ENDBRANCH  21  22
ENDBRANCH  20  21
ENDBRANCH  19  20
ENDBRANCH  18  19
ENDBRANCH  17  18
ENDBRANCH  16  17
ENDBRANCH  15  16
ENDBRANCH   1  15
TORSDOF 22
ENDMDL
MODEL 7
REMARK VINA RESULT:    24.469      0.804      1.461
REMARK INTER + INTRA:          55.336
REMARK INTER:                  56.670
REMARK INTRA:                  -1.333
REMARK UNBOUND:                -0.602
REMARK SMILES CCCCCCCCCCCCCCCCCCCCCCCC(=O)[O-]
REMARK SMILES IDX 13 1 14 2 15 3 16 4 17 5 18 6 19 7 20 8 21 9 22 10 23 11
REMARK SMILES IDX 24 12 25 13 26 14 12 15 11 16 10 17 9 18 8 19 7 20 6 21 5 22
REMARK SMILES IDX 4 23 3 24 2 25 1 26
REMARK H PARENT
REMARK Flexibility Score: inf
ROOT
ATOM      1  C   UNL     1      -8.171 -13.632  21.771  1.00  0.00     0.000 C 
ENDROOT
BRANCH   1   2
ATOM      2  C   UNL     1      -7.776 -12.312  22.450  1.00  0.00     0.000 C 
BRANCH   2   3
ATOM      3  C   UNL     1      -6.438 -12.405  23.204  1.00  0.00     0.000 C 
BRANCH   3   4
ATOM      4  C   UNL     1      -6.526 -11.954  24.678  1.00  0.00     0.000 C 
BRANCH   4   5
ATOM      5  C   UNL     1      -6.455 -13.144  25.652  1.00  0.00     0.000 C 
BRANCH   5   6
ATOM      6  C   UNL     1      -5.109 -13.884  25.589  1.00  0.00     0.000 C 
BRANCH   6   7
ATOM      7  C   UNL     1      -4.827 -14.705  26.858  1.00  0.00     0.000 C 
BRANCH   7   8
ATOM      8  C   UNL     1      -5.739 -15.938  26.988  1.00  0.00     0.000 C 
BRANCH   8   9
ATOM      9  C   UNL     1      -5.012 -17.298  26.988  1.00  0.00     0.000 C 
BRANCH   9  10
ATOM     10  C   UNL     1      -5.174 -18.125  25.695  1.00  0.00     0.006 C 
BRANCH  10  11
ATOM     11  C   UNL     1      -4.761 -17.386  24.415  1.00  0.00     0.053 C 
BRANCH  11  12
ATOM     12  C   UNL     1      -5.433 -17.950  23.201  1.00  0.00     0.041 C 
ATOM     13  O   UNL     1      -6.593 -18.432  23.284  1.00  0.00    -0.550 OA
ATOM     14  O   UNL     1      -4.786 -17.920  21.971  1.00  0.00    -0.550 OA
ENDBRANCH  11  12
ENDBRANCH  10  11
ENDBRANCH   9  10
ENDBRANCH   8   9
ENDBRANCH   7   8
ENDBRANCH   6   7
ENDBRANCH   5   6
ENDBRANCH   4   5
ENDBRANCH   3   4
ENDBRANCH   2   3
ENDBRANCH   1   2
BRANCH   1  15
ATOM     15  C   UNL     1      -9.220 -13.443  20.662  1.00  0.00     0.000 C 
BRANCH  15  16
ATOM     16  C   UNL     1      -8.623 -13.457  19.238  1.00  0.00     0.000 C 
BRANCH  16  17
ATOM     17  C   UNL     1      -9.708 -13.307  18.156  1.00  0.00     0.000 C 
BRANCH  17  18
ATOM     18  C   UNL     1      -9.524 -14.290  16.989  1.00  0.00    -0.000 C 
BRANCH  18  19
ATOM     19  C   UNL     1      -8.947 -15.640  17.437  1.00  0.00    -0.000 C 
BRANCH  19  20
ATOM     20  C   UNL     1     -10.022 -16.497  18.123  1.00  0.00    -0.000 C 
BRANCH  20  21
ATOM     21  C   UNL     1     -10.016 -17.960  17.643  1.00  0.00    -0.000 C 
BRANCH  21  22
ATOM     22  C   UNL     1      -8.618 -18.552  17.375  1.00  0.00    -0.000 C 
BRANCH  22  23
ATOM     23  C   UNL     1      -8.546 -19.569  16.219  1.00  0.00    -0.000 C 
BRANCH  23  24
ATOM     24  C   UNL     1      -7.497 -19.250  15.138  1.00  0.00    -0.000 C 
BRANCH  24  25
ATOM     25  C   UNL     1      -6.278 -20.181  15.199  1.00  0.00    -0.003 C 
ATOM     26  C   UNL     1      -5.600 -20.289  13.835  1.00  0.00     0.004 C 
ENDBRANCH  24  25
ENDBRANCH  23  24
ENDBRANCH  22  23
ENDBRANCH  21  22
ENDBRANCH  20  21
ENDBRANCH  19  20
ENDBRANCH  18  19
ENDBRANCH  17  18
ENDBRANCH  16  17
ENDBRANCH  15  16
ENDBRANCH   1  15
TORSDOF 22
ENDMDL
MODEL 8
REMARK VINA RESULT:    24.531      1.108      1.983
REMARK INTER + INTRA:          55.479
REMARK INTER:                  56.994
REMARK INTRA:                  -1.514
REMARK UNBOUND:                -0.602
REMARK SMILES CCCCCCCCCCCCCCCCCCCCCCCC(=O)[O-]
REMARK SMILES IDX 13 1 14 2 15 3 16 4 17 5 18 6 19 7 20 8 21 9 22 10 23 11
REMARK SMILES IDX 24 12 25 13 26 14 12 15 11 16 10 17 9 18 8 19 7 20 6 21 5 22
REMARK SMILES IDX 4 23 3 24 2 25 1 26
REMARK H PARENT
REMARK Flexibility Score: inf
ROOT
ATOM      1  C   UNL     1      -8.280 -14.100  18.989  1.00  0.00     0.000 C 
ENDROOT
BRANCH   1   2
ATOM      2  C   UNL     1      -8.918 -13.467  20.234  1.00  0.00     0.000 C 
BRANCH   2   3
ATOM      3  C   UNL     1      -8.055 -13.630  21.497  1.00  0.00     0.000 C 
BRANCH   3   4
ATOM      4  C   UNL     1      -7.800 -12.306  22.249  1.00  0.00     0.000 C 
BRANCH   4   5
ATOM      5  C   UNL     1      -6.618 -12.416  23.229  1.00  0.00     0.000 C 
BRANCH   5   6
ATOM      6  C   UNL     1      -7.066 -12.442  24.699  1.00  0.00     0.000 C 
BRANCH   6   7
ATOM      7  C   UNL     1      -5.944 -12.892  25.650  1.00  0.00     0.000 C 
BRANCH   7   8
ATOM      8  C   UNL     1      -5.391 -14.286  25.305  1.00  0.00     0.000 C 
BRANCH   8   9
ATOM      9  C   UNL     1      -5.157 -15.218  26.512  1.00  0.00     0.000 C 
BRANCH   9  10
ATOM     10  C   UNL     1      -4.466 -16.557  26.180  1.00  0.00     0.006 C 
BRANCH  10  11
ATOM     11  C   UNL     1      -5.432 -17.706  25.858  1.00  0.00     0.053 C 
BRANCH  11  12
ATOM     12  C   UNL     1      -5.321 -18.148  24.431  1.00  0.00     0.041 C 
ATOM     13  O   UNL     1      -4.535 -17.559  23.643  1.00  0.00    -0.550 OA
ATOM     14  O   UNL     1      -6.067 -19.230  23.979  1.00  0.00    -0.550 OA
ENDBRANCH  11  12
ENDBRANCH  10  11
ENDBRANCH   9  10
ENDBRANCH   8   9
ENDBRANCH   7   8
ENDBRANCH   6   7
ENDBRANCH   5   6
ENDBRANCH   4   5
ENDBRANCH   3   4
ENDBRANCH   2   3
ENDBRANCH   1   2
BRANCH   1  15
ATOM     15  C   UNL     1      -9.143 -13.934  17.726  1.00  0.00     0.000 C 
BRANCH  15  16
ATOM     16  C   UNL     1      -9.894 -15.219  17.317  1.00  0.00     0.000 C 
BRANCH  16  17
ATOM     17  C   UNL     1      -9.412 -16.447  18.112  1.00  0.00     0.000 C 
BRANCH  17  18
ATOM     18  C   UNL     1     -10.340 -17.661  17.952  1.00  0.00    -0.000 C 
BRANCH  18  19
ATOM     19  C   UNL     1      -9.716 -18.777  17.103  1.00  0.00    -0.000 C 
BRANCH  19  20
ATOM     20  C   UNL     1      -8.296 -19.107  17.587  1.00  0.00    -0.000 C 
BRANCH  20  21
ATOM     21  C   UNL     1      -7.212 -18.729  16.562  1.00  0.00    -0.000 C 
BRANCH  21  22
ATOM     22  C   UNL     1      -6.610 -19.915  15.783  1.00  0.00    -0.000 C 
BRANCH  22  23
ATOM     23  C   UNL     1      -6.337 -19.648  14.289  1.00  0.00    -0.000 C 
BRANCH  23  24
ATOM     24  C   UNL     1      -7.595 -19.456  13.423  1.00  0.00    -0.000 C 
BRANCH  24  25
ATOM     25  C   UNL     1      -8.602 -20.605  13.575  1.00  0.00    -0.003 C 
ATOM     26  C   UNL     1     -10.008 -20.073  13.841  1.00  0.00     0.004 C 
ENDBRANCH  24  25
ENDBRANCH  23  24
ENDBRANCH  22  23
ENDBRANCH  21  22
ENDBRANCH  20  21
ENDBRANCH  19  20
ENDBRANCH  18  19
ENDBRANCH  17  18
ENDBRANCH  16  17
ENDBRANCH  15  16
ENDBRANCH   1  15
TORSDOF 22
ENDMDL
MODEL 9
REMARK VINA RESULT:    24.757      4.353      5.986
REMARK INTER + INTRA:          55.996
REMARK INTER:                  56.292
REMARK INTRA:                  -0.296
REMARK UNBOUND:                -0.602
REMARK SMILES CCCCCCCCCCCCCCCCCCCCCCCC(=O)[O-]
REMARK SMILES IDX 13 1 14 2 15 3 16 4 17 5 18 6 19 7 20 8 21 9 22 10 23 11
REMARK SMILES IDX 24 12 25 13 26 14 12 15 11 16 10 17 9 18 8 19 7 20 6 21 5 22
REMARK SMILES IDX 4 23 3 24 2 25 1 26
REMARK H PARENT
REMARK Flexibility Score: inf
ROOT
ATOM      1  C   UNL     1      -7.929 -13.062  21.954  1.00  0.00     0.000 C 
ENDROOT
BRANCH   1   2
ATOM      2  C   UNL     1      -7.010 -11.967  22.515  1.00  0.00     0.000 C 
BRANCH   2   3
ATOM      3  C   UNL     1      -6.275 -12.400  23.795  1.00  0.00     0.000 C 
BRANCH   3   4
ATOM      4  C   UNL     1      -6.316 -11.345  24.921  1.00  0.00     0.000 C 
BRANCH   4   5
ATOM      5  C   UNL     1      -5.752  -9.988  24.462  1.00  0.00     0.000 C 
BRANCH   5   6
ATOM      6  C   UNL     1      -5.061  -9.217  25.599  1.00  0.00     0.000 C 
BRANCH   6   7
ATOM      7  C   UNL     1      -3.722  -8.599  25.164  1.00  0.00     0.000 C 
BRANCH   7   8
ATOM      8  C   UNL     1      -3.423  -8.810  23.670  1.00  0.00     0.000 C 
BRANCH   8   9
ATOM      9  C   UNL     1      -2.092  -8.209  23.173  1.00  0.00     0.000 C 
BRANCH   9  10
ATOM     10  C   UNL     1      -1.093  -7.823  24.284  1.00  0.00     0.006 C 
BRANCH  10  11
ATOM     11  C   UNL     1      -0.733  -8.972  25.237  1.00  0.00     0.053 C 
BRANCH  11  12
ATOM     12  C   UNL     1       0.224  -8.535  26.304  1.00  0.00     0.041 C 
ATOM     13  O   UNL     1       0.440  -7.310  26.499  1.00  0.00    -0.550 OA
ATOM     14  O   UNL     1       0.855  -9.482  27.102  1.00  0.00    -0.550 OA
ENDBRANCH  11  12
ENDBRANCH  10  11
ENDBRANCH   9  10
ENDBRANCH   8   9
ENDBRANCH   7   8
ENDBRANCH   6   7
ENDBRANCH   5   6
ENDBRANCH   4   5
ENDBRANCH   3   4
ENDBRANCH   2   3
ENDBRANCH   1   2
BRANCH   1  15
ATOM     15  C   UNL     1      -9.238 -12.503  21.371  1.00  0.00     0.000 C 
BRANCH  15  16
ATOM     16  C   UNL     1      -9.766 -13.302  20.160  1.00  0.00     0.000 C 
BRANCH  16  17
ATOM     17  C   UNL     1      -8.823 -14.456  19.774  1.00  0.00     0.000 C 
BRANCH  17  18
ATOM     18  C   UNL     1      -8.321 -14.357  18.325  1.00  0.00    -0.000 C 
BRANCH  18  19
ATOM     19  C   UNL     1      -9.459 -14.437  17.298  1.00  0.00    -0.000 C 
BRANCH  19  20
ATOM     20  C   UNL     1     -10.280 -15.722  17.486  1.00  0.00    -0.000 C 
BRANCH  20  21
ATOM     21  C   UNL     1      -9.480 -16.847  18.166  1.00  0.00    -0.000 C 
BRANCH  21  22
ATOM     22  C   UNL     1      -9.941 -18.277  17.817  1.00  0.00    -0.000 C 
BRANCH  22  23
ATOM     23  C   UNL     1      -9.122 -18.980  16.717  1.00  0.00    -0.000 C 
BRANCH  23  24
ATOM     24  C   UNL     1      -7.621 -18.640  16.708  1.00  0.00    -0.000 C 
BRANCH  24  25
ATOM     25  C   UNL     1      -6.928 -19.036  15.396  1.00  0.00    -0.003 C 
ATOM     26  C   UNL     1      -6.640 -20.535  15.358  1.00  0.00     0.004 C 
ENDBRANCH  24  25
ENDBRANCH  23  24
ENDBRANCH  22  23
ENDBRANCH  21  22
ENDBRANCH  20  21
ENDBRANCH  19  20
ENDBRANCH  18  19
ENDBRANCH  17  18
ENDBRANCH  16  17
ENDBRANCH  15  16
ENDBRANCH   1  15
TORSDOF 22
ENDMDL
