MODEL 1
REMARK VINA RESULT:    -3.696      0.000      0.000
REMARK INTER + INTRA:         -16.011
REMARK INTER:                  -9.745
REMARK INTRA:                  -6.266
REMARK UNBOUND:                -6.266
REMARK SMILES CCCCCCCCCCCCCCCCCCCCCCCCCCCCCC(=O)[O-]
REMARK SMILES IDX 16 1 17 2 18 3 19 4 20 5 21 6 22 7 23 8 24 9 25 10 26 11
REMARK SMILES IDX 27 12 28 13 29 14 30 15 31 16 32 17 15 18 14 19 13 20 12 21
REMARK SMILES IDX 11 22 10 23 9 24 8 25 7 26 6 27 5 28 4 29 3 30 2 31 1 32
REMARK H PARENT
REMARK Flexibility Score: inf
ROOT
ATOM      1  C   UNL     1       3.569  -2.357 399.951  1.00  0.00     0.000 C 
ENDROOT
BRANCH   1   2
ATOM      2  C   UNL     1       4.207  -1.055 400.480  1.00  0.00     0.000 C 
BRANCH   2   3
ATOM      3  C   UNL     1       3.582   0.223 399.894  1.00  0.00     0.000 C 
BRANCH   3   4
ATOM      4  C   UNL     1       3.573   1.391 400.892  1.00  0.00     0.000 C 
BRANCH   4   5
ATOM      5  C   UNL     1       3.775   0.921 402.342  1.00  0.00     0.000 C 
BRANCH   5   6
ATOM      6  C   UNL     1       4.516   1.963 403.193  1.00  0.00     0.000 C 
BRANCH   6   7
ATOM      7  C   UNL     1       5.906   1.451 403.600  1.00  0.00     0.000 C 
BRANCH   7   8
ATOM      8  C   UNL     1       5.917  -0.061 403.879  1.00  0.00     0.000 C 
BRANCH   8   9
ATOM      9  C   UNL     1       6.766  -0.841 402.858  1.00  0.00     0.000 C 
BRANCH   9  10
ATOM     10  C   UNL     1       8.139  -0.180 402.605  1.00  0.00     0.000 C 
BRANCH  10  11
ATOM     11  C   UNL     1       8.430   0.094 401.115  1.00  0.00     0.000 C 
BRANCH  11  12
ATOM     12  C   UNL     1       7.344   0.899 400.382  1.00  0.00     0.000 C 
BRANCH  12  13
ATOM     13  C   UNL     1       7.053   0.356 398.971  1.00  0.00     0.006 C 
BRANCH  13  14
ATOM     14  C   UNL     1       7.917   1.034 397.900  1.00  0.00     0.053 C 
BRANCH  14  15
ATOM     15  C   UNL     1       8.841   0.061 397.233  1.00  0.00     0.041 C 
ATOM     16  O   UNL     1       8.505  -0.494 396.153  1.00  0.00    -0.550 OA
ATOM     17  O   UNL     1      10.058  -0.256 397.822  1.00  0.00    -0.550 OA
ENDBRANCH  14  15
ENDBRANCH  13  14
ENDBRANCH  12  13
ENDBRANCH  11  12
ENDBRANCH  10  11
ENDBRANCH   9  10
ENDBRANCH   8   9
ENDBRANCH   7   8
ENDBRANCH   6   7
ENDBRANCH   5   6
ENDBRANCH   4   5
ENDBRANCH   3   4
ENDBRANCH   2   3
ENDBRANCH   1   2
BRANCH   1  18
ATOM     18  C   UNL     1       3.226  -3.380 401.057  1.00  0.00     0.000 C 
BRANCH  18  19
ATOM     19  C   UNL     1       3.596  -2.918 402.480  1.00  0.00     0.000 C 
BRANCH  19  20
ATOM     20  C   UNL     1       3.078  -3.850 403.597  1.00  0.00     0.000 C 
BRANCH  20  21
ATOM     21  C   UNL     1       2.377  -3.093 404.748  1.00  0.00     0.000 C 
BRANCH  21  22
ATOM     22  C   UNL     1       3.253  -1.997 405.375  1.00  0.00     0.000 C 
BRANCH  22  23
ATOM     23  C   UNL     1       3.645  -2.313 406.827  1.00  0.00     0.000 C 
BRANCH  23  24
ATOM     24  C   UNL     1       4.784  -3.343 406.921  1.00  0.00    -0.000 C 
BRANCH  24  25
ATOM     25  C   UNL     1       5.910  -3.157 405.883  1.00  0.00    -0.000 C 
BRANCH  25  26
ATOM     26  C   UNL     1       6.451  -4.461 405.258  1.00  0.00    -0.000 C 
BRANCH  26  27
ATOM     27  C   UNL     1       6.763  -4.379 403.753  1.00  0.00    -0.000 C 
BRANCH  27  28
ATOM     28  C   UNL     1       6.437  -5.682 403.007  1.00  0.00    -0.000 C 
BRANCH  28  29
ATOM     29  C   UNL     1       6.180  -5.418 401.519  1.00  0.00    -0.000 C 
BRANCH  29  30
ATOM     30  C   UNL     1       6.831  -4.100 401.075  1.00  0.00    -0.000 C 
BRANCH  30  31
ATOM     31  C   UNL     1       7.222  -4.105 399.590  1.00  0.00    -0.003 C 
ATOM     32  C   UNL     1       8.291  -3.065 399.258  1.00  0.00     0.004 C 
ENDBRANCH  30  31
ENDBRANCH  29  30
ENDBRANCH  28  29
ENDBRANCH  27  28
ENDBRANCH  26  27
ENDBRANCH  25  26
ENDBRANCH  24  25
ENDBRANCH  23  24
ENDBRANCH  22  23
ENDBRANCH  21  22
ENDBRANCH  20  21
ENDBRANCH  19  20
ENDBRANCH  18  19
ENDBRANCH   1  18
TORSDOF 28
ENDMDL
MODEL 2
REMARK VINA RESULT:    -3.621      4.013      8.103
REMARK INTER + INTRA:         -15.815
REMARK INTER:                 -11.536
REMARK INTRA:                  -4.279
REMARK UNBOUND:                -6.266
REMARK SMILES CCCCCCCCCCCCCCCCCCCCCCCCCCCCCC(=O)[O-]
REMARK SMILES IDX 16 1 17 2 18 3 19 4 20 5 21 6 22 7 23 8 24 9 25 10 26 11
REMARK SMILES IDX 27 12 28 13 29 14 30 15 31 16 32 17 15 18 14 19 13 20 12 21
REMARK SMILES IDX 11 22 10 23 9 24 8 25 7 26 6 27 5 28 4 29 3 30 2 31 1 32
REMARK H PARENT
REMARK Flexibility Score: inf
ROOT
ATOM      1  C   UNL     1       4.349   1.861 403.114  1.00  0.00     0.000 C 
ENDROOT
BRANCH   1   2
ATOM      2  C   UNL     1       4.147   2.647 401.800  1.00  0.00     0.000 C 
BRANCH   2   3
ATOM      3  C   UNL     1       3.605   1.789 400.644  1.00  0.00     0.000 C 
BRANCH   3   4
ATOM      4  C   UNL     1       3.578   0.289 400.980  1.00  0.00     0.000 C 
BRANCH   4   5
ATOM      5  C   UNL     1       3.874  -0.589 399.751  1.00  0.00     0.000 C 
BRANCH   5   6
ATOM      6  C   UNL     1       4.394  -1.980 400.143  1.00  0.00     0.000 C 
BRANCH   6   7
ATOM      7  C   UNL     1       3.233  -2.918 400.502  1.00  0.00     0.000 C 
BRANCH   7   8
ATOM      8  C   UNL     1       3.450  -3.638 401.843  1.00  0.00     0.000 C 
BRANCH   8   9
ATOM      9  C   UNL     1       4.469  -4.787 401.736  1.00  0.00     0.000 C 
BRANCH   9  10
ATOM     10  C   UNL     1       5.573  -4.700 402.814  1.00  0.00     0.000 C 
BRANCH  10  11
ATOM     11  C   UNL     1       5.963  -3.256 403.187  1.00  0.00     0.000 C 
BRANCH  11  12
ATOM     12  C   UNL     1       5.983  -2.960 404.696  1.00  0.00     0.000 C 
BRANCH  12  13
ATOM     13  C   UNL     1       5.434  -1.562 405.035  1.00  0.00     0.006 C 
BRANCH  13  14
ATOM     14  C   UNL     1       3.961  -1.407 404.638  1.00  0.00     0.053 C 
BRANCH  14  15
ATOM     15  C   UNL     1       3.062  -2.238 405.501  1.00  0.00     0.041 C 
ATOM     16  O   UNL     1       3.192  -2.221 406.754  1.00  0.00    -0.550 OA
ATOM     17  O   UNL     1       2.101  -3.054 404.918  1.00  0.00    -0.550 OA
ENDBRANCH  14  15
ENDBRANCH  13  14
ENDBRANCH  12  13
ENDBRANCH  11  12
ENDBRANCH  10  11
ENDBRANCH   9  10
ENDBRANCH   8   9
ENDBRANCH   7   8
ENDBRANCH   6   7
ENDBRANCH   5   6
ENDBRANCH   4   5
ENDBRANCH   3   4
ENDBRANCH   2   3
ENDBRANCH   1   2
BRANCH   1  18
ATOM     18  C   UNL     1       5.801   1.885 403.640  1.00  0.00     0.000 C 
BRANCH  18  19
ATOM     19  C   UNL     1       6.870   1.657 402.553  1.00  0.00     0.000 C 
BRANCH  19  20
ATOM     20  C   UNL     1       7.161   0.170 402.262  1.00  0.00     0.000 C 
BRANCH  20  21
ATOM     21  C   UNL     1       7.507  -0.107 400.781  1.00  0.00     0.000 C 
BRANCH  21  22
ATOM     22  C   UNL     1       7.045   1.009 399.831  1.00  0.00     0.000 C 
BRANCH  22  23
ATOM     23  C   UNL     1       7.321   0.681 398.355  1.00  0.00     0.000 C 
BRANCH  23  24
ATOM     24  C   UNL     1       8.825   0.603 398.039  1.00  0.00    -0.000 C 
BRANCH  24  25
ATOM     25  C   UNL     1       9.555   1.962 398.032  1.00  0.00    -0.000 C 
BRANCH  25  26
ATOM     26  C   UNL     1      10.965   1.954 398.660  1.00  0.00    -0.000 C 
BRANCH  26  27
ATOM     27  C   UNL     1      12.125   2.014 397.650  1.00  0.00    -0.000 C 
BRANCH  27  28
ATOM     28  C   UNL     1      13.488   2.238 398.323  1.00  0.00    -0.000 C 
BRANCH  28  29
ATOM     29  C   UNL     1      14.636   2.066 397.321  1.00  0.00    -0.000 C 
BRANCH  29  30
ATOM     30  C   UNL     1      14.111   2.086 395.879  1.00  0.00    -0.000 C 
BRANCH  30  31
ATOM     31  C   UNL     1      14.167   3.486 395.249  1.00  0.00    -0.003 C 
ATOM     32  C   UNL     1      15.522   4.165 395.441  1.00  0.00     0.004 C 
ENDBRANCH  30  31
ENDBRANCH  29  30
ENDBRANCH  28  29
ENDBRANCH  27  28
ENDBRANCH  26  27
ENDBRANCH  25  26
ENDBRANCH  24  25
ENDBRANCH  23  24
ENDBRANCH  22  23
ENDBRANCH  21  22
ENDBRANCH  20  21
ENDBRANCH  19  20
ENDBRANCH  18  19
ENDBRANCH   1  18
TORSDOF 28
ENDMDL
MODEL 3
REMARK VINA RESULT:    -3.613      1.469      5.135
REMARK INTER + INTRA:         -15.794
REMARK INTER:                  -9.960
REMARK INTRA:                  -5.833
REMARK UNBOUND:                -6.266
REMARK SMILES CCCCCCCCCCCCCCCCCCCCCCCCCCCCCC(=O)[O-]
REMARK SMILES IDX 16 1 17 2 18 3 19 4 20 5 21 6 22 7 23 8 24 9 25 10 26 11
REMARK SMILES IDX 27 12 28 13 29 14 30 15 31 16 32 17 15 18 14 19 13 20 12 21
REMARK SMILES IDX 11 22 10 23 9 24 8 25 7 26 6 27 5 28 4 29 3 30 2 31 1 32
REMARK H PARENT
REMARK Flexibility Score: inf
ROOT
ATOM      1  C   UNL     1       4.143  -4.394 401.600  1.00  0.00     0.000 C 
ENDROOT
BRANCH   1   2
ATOM      2  C   UNL     1       5.242  -4.252 402.674  1.00  0.00     0.000 C 
BRANCH   2   3
ATOM      3  C   UNL     1       6.668  -4.206 402.097  1.00  0.00     0.000 C 
BRANCH   3   4
ATOM      4  C   UNL     1       6.691  -4.310 400.564  1.00  0.00     0.000 C 
BRANCH   4   5
ATOM      5  C   UNL     1       7.402  -3.114 399.909  1.00  0.00     0.000 C 
BRANCH   5   6
ATOM      6  C   UNL     1       7.669  -1.979 400.909  1.00  0.00     0.000 C 
BRANCH   6   7
ATOM      7  C   UNL     1       9.024  -1.312 400.632  1.00  0.00     0.000 C 
BRANCH   7   8
ATOM      8  C   UNL     1       8.899   0.204 400.409  1.00  0.00     0.000 C 
BRANCH   8   9
ATOM      9  C   UNL     1       7.441   0.649 400.197  1.00  0.00     0.000 C 
BRANCH   9  10
ATOM     10  C   UNL     1       7.100   0.865 398.706  1.00  0.00     0.000 C 
BRANCH  10  11
ATOM     11  C   UNL     1       8.341   0.972 397.796  1.00  0.00     0.000 C 
BRANCH  11  12
ATOM     12  C   UNL     1       8.621  -0.272 396.935  1.00  0.00     0.000 C 
BRANCH  12  13
ATOM     13  C   UNL     1      10.094  -0.716 396.995  1.00  0.00     0.006 C 
BRANCH  13  14
ATOM     14  C   UNL     1      10.350  -1.984 396.172  1.00  0.00     0.053 C 
BRANCH  14  15
ATOM     15  C   UNL     1       9.658  -3.177 396.759  1.00  0.00     0.041 C 
ATOM     16  O   UNL     1      10.126  -3.742 397.782  1.00  0.00    -0.550 OA
ATOM     17  O   UNL     1       8.514  -3.682 396.155  1.00  0.00    -0.550 OA
ENDBRANCH  14  15
ENDBRANCH  13  14
ENDBRANCH  12  13
ENDBRANCH  11  12
ENDBRANCH  10  11
ENDBRANCH   9  10
ENDBRANCH   8   9
ENDBRANCH   7   8
ENDBRANCH   6   7
ENDBRANCH   5   6
ENDBRANCH   4   5
ENDBRANCH   3   4
ENDBRANCH   2   3
ENDBRANCH   1   2
BRANCH   1  18
ATOM     18  C   UNL     1       3.289  -3.122 401.406  1.00  0.00     0.000 C 
BRANCH  18  19
ATOM     19  C   UNL     1       3.466  -2.446 400.031  1.00  0.00     0.000 C 
BRANCH  19  20
ATOM     20  C   UNL     1       4.268  -1.128 400.079  1.00  0.00     0.000 C 
BRANCH  20  21
ATOM     21  C   UNL     1       3.618  -0.048 400.973  1.00  0.00     0.000 C 
BRANCH  21  22
ATOM     22  C   UNL     1       3.441   1.302 400.259  1.00  0.00     0.000 C 
BRANCH  22  23
ATOM     23  C   UNL     1       3.876   2.492 401.130  1.00  0.00     0.000 C 
BRANCH  23  24
ATOM     24  C   UNL     1       4.231   2.073 402.567  1.00  0.00    -0.000 C 
BRANCH  24  25
ATOM     25  C   UNL     1       5.590   2.598 403.076  1.00  0.00    -0.000 C 
BRANCH  25  26
ATOM     26  C   UNL     1       6.584   1.510 403.536  1.00  0.00    -0.000 C 
BRANCH  26  27
ATOM     27  C   UNL     1       6.020   0.077 403.546  1.00  0.00    -0.000 C 
BRANCH  27  28
ATOM     28  C   UNL     1       6.749  -0.841 404.538  1.00  0.00    -0.000 C 
BRANCH  28  29
ATOM     29  C   UNL     1       5.755  -1.689 405.341  1.00  0.00    -0.000 C 
BRANCH  29  30
ATOM     30  C   UNL     1       4.308  -1.359 404.945  1.00  0.00    -0.000 C 
BRANCH  30  31
ATOM     31  C   UNL     1       3.277  -2.178 405.735  1.00  0.00    -0.003 C 
ATOM     32  C   UNL     1       2.384  -3.028 404.834  1.00  0.00     0.004 C 
ENDBRANCH  30  31
ENDBRANCH  29  30
ENDBRANCH  28  29
ENDBRANCH  27  28
ENDBRANCH  26  27
ENDBRANCH  25  26
ENDBRANCH  24  25
ENDBRANCH  23  24
ENDBRANCH  22  23
ENDBRANCH  21  22
ENDBRANCH  20  21
ENDBRANCH  19  20
ENDBRANCH  18  19
ENDBRANCH   1  18
TORSDOF 28
ENDMDL
MODEL 4
REMARK VINA RESULT:    -3.612      1.271      2.165
REMARK INTER + INTRA:         -15.790
REMARK INTER:                 -10.099
REMARK INTRA:                  -5.691
REMARK UNBOUND:                -6.266
REMARK SMILES CCCCCCCCCCCCCCCCCCCCCCCCCCCCCC(=O)[O-]
REMARK SMILES IDX 16 1 17 2 18 3 19 4 20 5 21 6 22 7 23 8 24 9 25 10 26 11
REMARK SMILES IDX 27 12 28 13 29 14 30 15 31 16 32 17 15 18 14 19 13 20 12 21
REMARK SMILES IDX 11 22 10 23 9 24 8 25 7 26 6 27 5 28 4 29 3 30 2 31 1 32
REMARK H PARENT
REMARK Flexibility Score: inf
ROOT
ATOM      1  C   UNL     1       3.257  -2.995 400.960  1.00  0.00     0.000 C 
ENDROOT
BRANCH   1   2
ATOM      2  C   UNL     1       4.271  -2.169 400.140  1.00  0.00     0.000 C 
BRANCH   2   3
ATOM      3  C   UNL     1       3.764  -0.768 399.760  1.00  0.00     0.000 C 
BRANCH   3   4
ATOM      4  C   UNL     1       3.682   0.181 400.966  1.00  0.00     0.000 C 
BRANCH   4   5
ATOM      5  C   UNL     1       3.883   1.652 400.566  1.00  0.00     0.000 C 
BRANCH   5   6
ATOM      6  C   UNL     1       4.183   2.548 401.777  1.00  0.00     0.000 C 
BRANCH   6   7
ATOM      7  C   UNL     1       4.156   1.736 403.080  1.00  0.00     0.000 C 
BRANCH   7   8
ATOM      8  C   UNL     1       5.446   1.897 403.900  1.00  0.00     0.000 C 
BRANCH   8   9
ATOM      9  C   UNL     1       5.923   0.567 404.512  1.00  0.00     0.000 C 
BRANCH   9  10
ATOM     10  C   UNL     1       6.404  -0.437 403.440  1.00  0.00     0.000 C 
BRANCH  10  11
ATOM     11  C   UNL     1       7.468   0.140 402.484  1.00  0.00     0.000 C 
BRANCH  11  12
ATOM     12  C   UNL     1       7.356  -0.340 401.026  1.00  0.00     0.000 C 
BRANCH  12  13
ATOM     13  C   UNL     1       7.617   0.786 400.009  1.00  0.00     0.006 C 
BRANCH  13  14
ATOM     14  C   UNL     1       7.013   0.475 398.634  1.00  0.00     0.053 C 
BRANCH  14  15
ATOM     15  C   UNL     1       7.870   0.993 397.520  1.00  0.00     0.041 C 
ATOM     16  O   UNL     1       8.321   2.169 397.560  1.00  0.00    -0.550 OA
ATOM     17  O   UNL     1       8.145   0.186 396.424  1.00  0.00    -0.550 OA
ENDBRANCH  14  15
ENDBRANCH  13  14
ENDBRANCH  12  13
ENDBRANCH  11  12
ENDBRANCH  10  11
ENDBRANCH   9  10
ENDBRANCH   8   9
ENDBRANCH   7   8
ENDBRANCH   6   7
ENDBRANCH   5   6
ENDBRANCH   4   5
ENDBRANCH   3   4
ENDBRANCH   2   3
ENDBRANCH   1   2
BRANCH   1  18
ATOM     18  C   UNL     1       3.847  -3.608 402.250  1.00  0.00     0.000 C 
BRANCH  18  19
ATOM     19  C   UNL     1       3.608  -2.762 403.517  1.00  0.00     0.000 C 
BRANCH  19  20
ATOM     20  C   UNL     1       2.559  -3.356 404.480  1.00  0.00     0.000 C 
BRANCH  20  21
ATOM     21  C   UNL     1       2.823  -3.010 405.963  1.00  0.00     0.000 C 
BRANCH  21  22
ATOM     22  C   UNL     1       3.960  -1.993 406.154  1.00  0.00     0.000 C 
BRANCH  22  23
ATOM     23  C   UNL     1       5.035  -2.487 407.135  1.00  0.00     0.000 C 
BRANCH  23  24
ATOM     24  C   UNL     1       6.461  -2.312 406.586  1.00  0.00    -0.000 C 
BRANCH  24  25
ATOM     25  C   UNL     1       7.077  -3.586 405.969  1.00  0.00    -0.000 C 
BRANCH  25  26
ATOM     26  C   UNL     1       6.152  -4.822 405.955  1.00  0.00    -0.000 C 
BRANCH  26  27
ATOM     27  C   UNL     1       5.926  -5.446 404.566  1.00  0.00    -0.000 C 
BRANCH  27  28
ATOM     28  C   UNL     1       6.885  -4.891 403.501  1.00  0.00    -0.000 C 
BRANCH  28  29
ATOM     29  C   UNL     1       6.902  -5.781 402.253  1.00  0.00    -0.000 C 
BRANCH  29  30
ATOM     30  C   UNL     1       6.148  -7.094 402.506  1.00  0.00    -0.000 C 
BRANCH  30  31
ATOM     31  C   UNL     1       5.058  -7.362 401.458  1.00  0.00    -0.003 C 
ATOM     32  C   UNL     1       3.647  -7.226 402.026  1.00  0.00     0.004 C 
ENDBRANCH  30  31
ENDBRANCH  29  30
ENDBRANCH  28  29
ENDBRANCH  27  28
ENDBRANCH  26  27
ENDBRANCH  25  26
ENDBRANCH  24  25
ENDBRANCH  23  24
ENDBRANCH  22  23
ENDBRANCH  21  22
ENDBRANCH  20  21
ENDBRANCH  19  20
ENDBRANCH  18  19
ENDBRANCH   1  18
TORSDOF 28
ENDMDL
MODEL 5
REMARK VINA RESULT:    -3.461      3.138      6.199
REMARK INTER + INTRA:         -15.392
REMARK INTER:                  -9.712
REMARK INTRA:                  -5.680
REMARK UNBOUND:                -6.266
REMARK SMILES CCCCCCCCCCCCCCCCCCCCCCCCCCCCCC(=O)[O-]
REMARK SMILES IDX 16 1 17 2 18 3 19 4 20 5 21 6 22 7 23 8 24 9 25 10 26 11
REMARK SMILES IDX 27 12 28 13 29 14 30 15 31 16 32 17 15 18 14 19 13 20 12 21
REMARK SMILES IDX 11 22 10 23 9 24 8 25 7 26 6 27 5 28 4 29 3 30 2 31 1 32
REMARK H PARENT
REMARK Flexibility Score: inf
ROOT
ATOM      1  C   UNL     1       3.661  -2.500 400.028  1.00  0.00     0.000 C 
ENDROOT
BRANCH   1   2
ATOM      2  C   UNL     1       3.229  -3.350 401.243  1.00  0.00     0.000 C 
BRANCH   2   3
ATOM      3  C   UNL     1       3.710  -2.789 402.592  1.00  0.00     0.000 C 
BRANCH   3   4
ATOM      4  C   UNL     1       2.919  -3.351 403.784  1.00  0.00     0.000 C 
BRANCH   4   5
ATOM      5  C   UNL     1       2.929  -2.398 404.991  1.00  0.00     0.000 C 
BRANCH   5   6
ATOM      6  C   UNL     1       3.773  -2.941 406.154  1.00  0.00     0.000 C 
BRANCH   6   7
ATOM      7  C   UNL     1       3.961  -4.460 406.031  1.00  0.00     0.000 C 
BRANCH   7   8
ATOM      8  C   UNL     1       5.433  -4.883 406.159  1.00  0.00     0.000 C 
BRANCH   8   9
ATOM      9  C   UNL     1       6.401  -3.810 405.628  1.00  0.00     0.000 C 
BRANCH   9  10
ATOM     10  C   UNL     1       6.846  -4.084 404.174  1.00  0.00     0.000 C 
BRANCH  10  11
ATOM     11  C   UNL     1       6.579  -5.529 403.706  1.00  0.00     0.000 C 
BRANCH  11  12
ATOM     12  C   UNL     1       5.959  -5.651 402.304  1.00  0.00     0.000 C 
BRANCH  12  13
ATOM     13  C   UNL     1       4.610  -6.393 402.314  1.00  0.00     0.006 C 
BRANCH  13  14
ATOM     14  C   UNL     1       4.619  -7.598 403.263  1.00  0.00     0.053 C 
BRANCH  14  15
ATOM     15  C   UNL     1       4.501  -8.893 402.519  1.00  0.00     0.041 C 
ATOM     16  O   UNL     1       4.376  -8.896 401.266  1.00  0.00    -0.550 OA
ATOM     17  O   UNL     1       4.498 -10.095 403.215  1.00  0.00    -0.550 OA
ENDBRANCH  14  15
ENDBRANCH  13  14
ENDBRANCH  12  13
ENDBRANCH  11  12
ENDBRANCH  10  11
ENDBRANCH   9  10
ENDBRANCH   8   9
ENDBRANCH   7   8
ENDBRANCH   6   7
ENDBRANCH   5   6
ENDBRANCH   4   5
ENDBRANCH   3   4
ENDBRANCH   2   3
ENDBRANCH   1   2
BRANCH   1  18
ATOM     18  C   UNL     1       4.202  -1.103 400.404  1.00  0.00     0.000 C 
BRANCH  18  19
ATOM     19  C   UNL     1       3.486   0.063 399.693  1.00  0.00     0.000 C 
BRANCH  19  20
ATOM     20  C   UNL     1       3.309   1.319 400.572  1.00  0.00     0.000 C 
BRANCH  20  21
ATOM     21  C   UNL     1       4.332   1.407 401.728  1.00  0.00     0.000 C 
BRANCH  21  22
ATOM     22  C   UNL     1       3.736   1.030 403.093  1.00  0.00     0.000 C 
BRANCH  22  23
ATOM     23  C   UNL     1       4.777   1.072 404.223  1.00  0.00     0.000 C 
BRANCH  23  24
ATOM     24  C   UNL     1       5.640  -0.200 404.279  1.00  0.00    -0.000 C 
BRANCH  24  25
ATOM     25  C   UNL     1       7.149   0.051 404.481  1.00  0.00    -0.000 C 
BRANCH  25  26
ATOM     26  C   UNL     1       8.077  -0.699 403.501  1.00  0.00    -0.000 C 
BRANCH  26  27
ATOM     27  C   UNL     1       7.403  -1.164 402.197  1.00  0.00    -0.000 C 
BRANCH  27  28
ATOM     28  C   UNL     1       8.074  -0.583 400.942  1.00  0.00    -0.000 C 
BRANCH  28  29
ATOM     29  C   UNL     1       7.458   0.767 400.559  1.00  0.00    -0.000 C 
BRANCH  29  30
ATOM     30  C   UNL     1       7.026   0.773 399.085  1.00  0.00    -0.000 C 
BRANCH  30  31
ATOM     31  C   UNL     1       8.220   0.749 398.120  1.00  0.00    -0.003 C 
ATOM     32  C   UNL     1       8.580   2.137 397.592  1.00  0.00     0.004 C 
ENDBRANCH  30  31
ENDBRANCH  29  30
ENDBRANCH  28  29
ENDBRANCH  27  28
ENDBRANCH  26  27
ENDBRANCH  25  26
ENDBRANCH  24  25
ENDBRANCH  23  24
ENDBRANCH  22  23
ENDBRANCH  21  22
ENDBRANCH  20  21
ENDBRANCH  19  20
ENDBRANCH  18  19
ENDBRANCH   1  18
TORSDOF 28
ENDMDL
MODEL 6
REMARK VINA RESULT:    -3.441      5.788     10.253
REMARK INTER + INTRA:         -15.339
REMARK INTER:                 -10.580
REMARK INTRA:                  -4.759
REMARK UNBOUND:                -6.266
REMARK SMILES CCCCCCCCCCCCCCCCCCCCCCCCCCCCCC(=O)[O-]
REMARK SMILES IDX 16 1 17 2 18 3 19 4 20 5 21 6 22 7 23 8 24 9 25 10 26 11
REMARK SMILES IDX 27 12 28 13 29 14 30 15 31 16 32 17 15 18 14 19 13 20 12 21
REMARK SMILES IDX 11 22 10 23 9 24 8 25 7 26 6 27 5 28 4 29 3 30 2 31 1 32
REMARK H PARENT
REMARK Flexibility Score: inf
ROOT
ATOM      1  C   UNL     1       7.473   4.729 404.390  1.00  0.00     0.000 C 
ENDROOT
BRANCH   1   2
ATOM      2  C   UNL     1       6.216   4.226 403.647  1.00  0.00     0.000 C 
BRANCH   2   3
ATOM      3  C   UNL     1       6.165   2.697 403.485  1.00  0.00     0.000 C 
BRANCH   3   4
ATOM      4  C   UNL     1       4.769   2.189 403.091  1.00  0.00     0.000 C 
BRANCH   4   5
ATOM      5  C   UNL     1       4.108   3.071 402.019  1.00  0.00     0.000 C 
BRANCH   5   6
ATOM      6  C   UNL     1       3.776   2.283 400.742  1.00  0.00     0.000 C 
BRANCH   6   7
ATOM      7  C   UNL     1       3.572   0.794 401.055  1.00  0.00     0.000 C 
BRANCH   7   8
ATOM      8  C   UNL     1       4.342  -0.121 400.088  1.00  0.00     0.000 C 
BRANCH   8   9
ATOM      9  C   UNL     1       5.754   0.408 399.777  1.00  0.00     0.000 C 
BRANCH   9  10
ATOM     10  C   UNL     1       6.763   0.095 400.905  1.00  0.00     0.000 C 
BRANCH  10  11
ATOM     11  C   UNL     1       6.553  -1.285 401.559  1.00  0.00     0.000 C 
BRANCH  11  12
ATOM     12  C   UNL     1       6.255  -1.248 403.068  1.00  0.00     0.000 C 
BRANCH  12  13
ATOM     13  C   UNL     1       5.088  -2.171 403.465  1.00  0.00     0.006 C 
BRANCH  13  14
ATOM     14  C   UNL     1       3.860  -1.381 403.933  1.00  0.00     0.053 C 
BRANCH  14  15
ATOM     15  C   UNL     1       3.145  -2.076 405.051  1.00  0.00     0.041 C 
ATOM     16  O   UNL     1       3.503  -1.891 406.245  1.00  0.00    -0.550 OA
ATOM     17  O   UNL     1       2.103  -2.951 404.771  1.00  0.00    -0.550 OA
ENDBRANCH  14  15
ENDBRANCH  13  14
ENDBRANCH  12  13
ENDBRANCH  11  12
ENDBRANCH  10  11
ENDBRANCH   9  10
ENDBRANCH   8   9
ENDBRANCH   7   8
ENDBRANCH   6   7
ENDBRANCH   5   6
ENDBRANCH   4   5
ENDBRANCH   3   4
ENDBRANCH   2   3
ENDBRANCH   1   2
BRANCH   1  18
ATOM     18  C   UNL     1       7.505   6.259 404.600  1.00  0.00     0.000 C 
BRANCH  18  19
ATOM     19  C   UNL     1       8.898   6.819 404.950  1.00  0.00     0.000 C 
BRANCH  19  20
ATOM     20  C   UNL     1       9.270   8.104 404.179  1.00  0.00     0.000 C 
BRANCH  20  21
ATOM     21  C   UNL     1       8.431   9.333 404.597  1.00  0.00     0.000 C 
BRANCH  21  22
ATOM     22  C   UNL     1       7.635   9.946 403.435  1.00  0.00     0.000 C 
BRANCH  22  23
ATOM     23  C   UNL     1       7.850   9.196 402.111  1.00  0.00     0.000 C 
BRANCH  23  24
ATOM     24  C   UNL     1       6.539   8.646 401.523  1.00  0.00    -0.000 C 
BRANCH  24  25
ATOM     25  C   UNL     1       5.314   8.765 402.454  1.00  0.00    -0.000 C 
BRANCH  25  26
ATOM     26  C   UNL     1       4.636   7.428 402.821  1.00  0.00    -0.000 C 
BRANCH  26  27
ATOM     27  C   UNL     1       3.874   7.432 404.159  1.00  0.00    -0.000 C 
BRANCH  27  28
ATOM     28  C   UNL     1       3.462   8.845 404.603  1.00  0.00    -0.000 C 
BRANCH  28  29
ATOM     29  C   UNL     1       4.163   9.241 405.908  1.00  0.00    -0.000 C 
BRANCH  29  30
ATOM     30  C   UNL     1       4.858   8.030 406.546  1.00  0.00    -0.000 C 
BRANCH  30  31
ATOM     31  C   UNL     1       6.129   8.417 407.318  1.00  0.00    -0.003 C 
ATOM     32  C   UNL     1       6.247   9.923 407.542  1.00  0.00     0.004 C 
ENDBRANCH  30  31
ENDBRANCH  29  30
ENDBRANCH  28  29
ENDBRANCH  27  28
ENDBRANCH  26  27
ENDBRANCH  25  26
ENDBRANCH  24  25
ENDBRANCH  23  24
ENDBRANCH  22  23
ENDBRANCH  21  22
ENDBRANCH  20  21
ENDBRANCH  19  20
ENDBRANCH  18  19
ENDBRANCH   1  18
TORSDOF 28
ENDMDL
MODEL 7
REMARK VINA RESULT:    -3.399      1.752      5.477
REMARK INTER + INTRA:         -15.228
REMARK INTER:                  -9.582
REMARK INTRA:                  -5.646
REMARK UNBOUND:                -6.266
REMARK SMILES CCCCCCCCCCCCCCCCCCCCCCCCCCCCCC(=O)[O-]
REMARK SMILES IDX 16 1 17 2 18 3 19 4 20 5 21 6 22 7 23 8 24 9 25 10 26 11
REMARK SMILES IDX 27 12 28 13 29 14 30 15 31 16 32 17 15 18 14 19 13 20 12 21
REMARK SMILES IDX 11 22 10 23 9 24 8 25 7 26 6 27 5 28 4 29 3 30 2 31 1 32
REMARK H PARENT
REMARK Flexibility Score: inf
ROOT
ATOM      1  C   UNL     1       3.577  -2.524 400.084  1.00  0.00     0.000 C 
ENDROOT
BRANCH   1   2
ATOM      2  C   UNL     1       3.242  -3.414 401.300  1.00  0.00     0.000 C 
BRANCH   2   3
ATOM      3  C   UNL     1       3.822  -2.892 402.626  1.00  0.00     0.000 C 
BRANCH   3   4
ATOM      4  C   UNL     1       3.050  -3.402 403.853  1.00  0.00     0.000 C 
BRANCH   4   5
ATOM      5  C   UNL     1       2.611  -2.258 404.782  1.00  0.00     0.000 C 
BRANCH   5   6
ATOM      6  C   UNL     1       3.297  -2.329 406.155  1.00  0.00     0.000 C 
BRANCH   6   7
ATOM      7  C   UNL     1       4.089  -3.636 406.305  1.00  0.00     0.000 C 
BRANCH   7   8
ATOM      8  C   UNL     1       5.609  -3.414 406.233  1.00  0.00     0.000 C 
BRANCH   8   9
ATOM      9  C   UNL     1       6.295  -4.366 405.236  1.00  0.00     0.000 C 
BRANCH   9  10
ATOM     10  C   UNL     1       5.748  -5.808 405.325  1.00  0.00     0.000 C 
BRANCH  10  11
ATOM     11  C   UNL     1       5.164  -6.332 403.998  1.00  0.00     0.000 C 
BRANCH  11  12
ATOM     12  C   UNL     1       5.929  -7.513 403.376  1.00  0.00     0.000 C 
BRANCH  12  13
ATOM     13  C   UNL     1       6.557  -7.161 402.014  1.00  0.00     0.006 C 
BRANCH  13  14
ATOM     14  C   UNL     1       5.883  -5.948 401.362  1.00  0.00     0.053 C 
BRANCH  14  15
ATOM     15  C   UNL     1       6.863  -4.846 401.093  1.00  0.00     0.041 C 
ATOM     16  O   UNL     1       7.785  -4.602 401.917  1.00  0.00    -0.550 OA
ATOM     17  O   UNL     1       6.737  -4.070 399.949  1.00  0.00    -0.550 OA
ENDBRANCH  14  15
ENDBRANCH  13  14
ENDBRANCH  12  13
ENDBRANCH  11  12
ENDBRANCH  10  11
ENDBRANCH   9  10
ENDBRANCH   8   9
ENDBRANCH   7   8
ENDBRANCH   6   7
ENDBRANCH   5   6
ENDBRANCH   4   5
ENDBRANCH   3   4
ENDBRANCH   2   3
ENDBRANCH   1   2
BRANCH   1  18
ATOM     18  C   UNL     1       4.162  -1.145 400.460  1.00  0.00     0.000 C 
BRANCH  18  19
ATOM     19  C   UNL     1       3.465   0.046 399.773  1.00  0.00     0.000 C 
BRANCH  19  20
ATOM     20  C   UNL     1       3.353   1.305 400.660  1.00  0.00     0.000 C 
BRANCH  20  21
ATOM     21  C   UNL     1       4.446   1.384 401.750  1.00  0.00     0.000 C 
BRANCH  21  22
ATOM     22  C   UNL     1       3.913   1.101 403.163  1.00  0.00     0.000 C 
BRANCH  22  23
ATOM     23  C   UNL     1       5.020   1.135 404.229  1.00  0.00     0.000 C 
BRANCH  23  24
ATOM     24  C   UNL     1       5.715  -0.226 404.403  1.00  0.00    -0.000 C 
BRANCH  24  25
ATOM     25  C   UNL     1       7.256  -0.177 404.352  1.00  0.00    -0.000 C 
BRANCH  25  26
ATOM     26  C   UNL     1       7.909  -1.108 403.309  1.00  0.00    -0.000 C 
BRANCH  26  27
ATOM     27  C   UNL     1       7.188  -1.167 401.950  1.00  0.00    -0.000 C 
BRANCH  27  28
ATOM     28  C   UNL     1       8.064  -0.665 400.791  1.00  0.00    -0.000 C 
BRANCH  28  29
ATOM     29  C   UNL     1       7.658   0.751 400.364  1.00  0.00    -0.000 C 
BRANCH  29  30
ATOM     30  C   UNL     1       6.949   0.731 399.003  1.00  0.00    -0.000 C 
BRANCH  30  31
ATOM     31  C   UNL     1       7.933   0.775 397.824  1.00  0.00    -0.003 C 
ATOM     32  C   UNL     1       8.860   1.988 397.875  1.00  0.00     0.004 C 
ENDBRANCH  30  31
ENDBRANCH  29  30
ENDBRANCH  28  29
ENDBRANCH  27  28
ENDBRANCH  26  27
ENDBRANCH  25  26
ENDBRANCH  24  25
ENDBRANCH  23  24
ENDBRANCH  22  23
ENDBRANCH  21  22
ENDBRANCH  20  21
ENDBRANCH  19  20
ENDBRANCH  18  19
ENDBRANCH   1  18
TORSDOF 28
ENDMDL
MODEL 8
REMARK VINA RESULT:    -3.398      3.976      8.153
REMARK INTER + INTRA:         -15.226
REMARK INTER:                  -9.567
REMARK INTRA:                  -5.659
REMARK UNBOUND:                -6.266
REMARK SMILES CCCCCCCCCCCCCCCCCCCCCCCCCCCCCC(=O)[O-]
REMARK SMILES IDX 16 1 17 2 18 3 19 4 20 5 21 6 22 7 23 8 24 9 25 10 26 11
REMARK SMILES IDX 27 12 28 13 29 14 30 15 31 16 32 17 15 18 14 19 13 20 12 21
REMARK SMILES IDX 11 22 10 23 9 24 8 25 7 26 6 27 5 28 4 29 3 30 2 31 1 32
REMARK H PARENT
REMARK Flexibility Score: inf
ROOT
ATOM      1  C   UNL     1       5.120  -4.316 401.555  1.00  0.00     0.000 C 
ENDROOT
BRANCH   1   2
ATOM      2  C   UNL     1       5.232  -5.855 401.597  1.00  0.00     0.000 C 
BRANCH   2   3
ATOM      3  C   UNL     1       3.910  -6.561 401.948  1.00  0.00     0.000 C 
BRANCH   3   4
ATOM      4  C   UNL     1       3.876  -8.024 401.476  1.00  0.00     0.000 C 
BRANCH   4   5
ATOM      5  C   UNL     1       5.009  -8.861 402.091  1.00  0.00     0.000 C 
BRANCH   5   6
ATOM      6  C   UNL     1       4.723  -9.242 403.552  1.00  0.00     0.000 C 
BRANCH   6   7
ATOM      7  C   UNL     1       5.810  -8.689 404.485  1.00  0.00     0.000 C 
BRANCH   7   8
ATOM      8  C   UNL     1       5.361  -7.417 405.223  1.00  0.00     0.000 C 
BRANCH   8   9
ATOM      9  C   UNL     1       6.353  -6.253 405.043  1.00  0.00     0.000 C 
BRANCH   9  10
ATOM     10  C   UNL     1       5.672  -4.872 405.170  1.00  0.00     0.000 C 
BRANCH  10  11
ATOM     11  C   UNL     1       6.189  -4.033 406.357  1.00  0.00     0.000 C 
BRANCH  11  12
ATOM     12  C   UNL     1       5.128  -3.684 407.414  1.00  0.00     0.000 C 
BRANCH  12  13
ATOM     13  C   UNL     1       4.469  -4.933 408.028  1.00  0.00     0.006 C 
BRANCH  13  14
ATOM     14  C   UNL     1       5.107  -5.326 409.365  1.00  0.00     0.053 C 
BRANCH  14  15
ATOM     15  C   UNL     1       6.151  -6.387 409.193  1.00  0.00     0.041 C 
ATOM     16  O   UNL     1       7.340  -6.172 409.550  1.00  0.00    -0.550 OA
ATOM     17  O   UNL     1       5.815  -7.602 408.610  1.00  0.00    -0.550 OA
ENDBRANCH  14  15
ENDBRANCH  13  14
ENDBRANCH  12  13
ENDBRANCH  11  12
ENDBRANCH  10  11
ENDBRANCH   9  10
ENDBRANCH   8   9
ENDBRANCH   7   8
ENDBRANCH   6   7
ENDBRANCH   5   6
ENDBRANCH   4   5
ENDBRANCH   3   4
ENDBRANCH   2   3
ENDBRANCH   1   2
BRANCH   1  18
ATOM     18  C   UNL     1       3.685  -3.799 401.312  1.00  0.00     0.000 C 
BRANCH  18  19
ATOM     19  C   UNL     1       3.615  -2.479 400.519  1.00  0.00     0.000 C 
BRANCH  19  20
ATOM     20  C   UNL     1       4.977  -1.772 400.356  1.00  0.00     0.000 C 
BRANCH  20  21
ATOM     21  C   UNL     1       4.849  -0.272 400.005  1.00  0.00     0.000 C 
BRANCH  21  22
ATOM     22  C   UNL     1       3.646   0.408 400.678  1.00  0.00     0.000 C 
BRANCH  22  23
ATOM     23  C   UNL     1       3.877   1.908 400.923  1.00  0.00     0.000 C 
BRANCH  23  24
ATOM     24  C   UNL     1       4.214   2.222 402.391  1.00  0.00    -0.000 C 
BRANCH  24  25
ATOM     25  C   UNL     1       5.719   2.389 402.687  1.00  0.00    -0.000 C 
BRANCH  25  26
ATOM     26  C   UNL     1       6.306   1.380 403.697  1.00  0.00    -0.000 C 
BRANCH  26  27
ATOM     27  C   UNL     1       6.844   0.078 403.075  1.00  0.00    -0.000 C 
BRANCH  27  28
ATOM     28  C   UNL     1       6.221  -1.180 403.700  1.00  0.00    -0.000 C 
BRANCH  28  29
ATOM     29  C   UNL     1       5.073  -0.816 404.649  1.00  0.00    -0.000 C 
BRANCH  29  30
ATOM     30  C   UNL     1       3.732  -1.332 404.109  1.00  0.00    -0.000 C 
BRANCH  30  31
ATOM     31  C   UNL     1       2.949  -2.146 405.151  1.00  0.00    -0.003 C 
ATOM     32  C   UNL     1       2.231  -3.349 404.541  1.00  0.00     0.004 C 
ENDBRANCH  30  31
ENDBRANCH  29  30
ENDBRANCH  28  29
ENDBRANCH  27  28
ENDBRANCH  26  27
ENDBRANCH  25  26
ENDBRANCH  24  25
ENDBRANCH  23  24
ENDBRANCH  22  23
ENDBRANCH  21  22
ENDBRANCH  20  21
ENDBRANCH  19  20
ENDBRANCH  18  19
ENDBRANCH   1  18
TORSDOF 28
ENDMDL
MODEL 9
REMARK VINA RESULT:    -3.389      3.386      6.485
REMARK INTER + INTRA:         -15.201
REMARK INTER:                  -9.789
REMARK INTRA:                  -5.412
REMARK UNBOUND:                -6.266
REMARK SMILES CCCCCCCCCCCCCCCCCCCCCCCCCCCCCC(=O)[O-]
REMARK SMILES IDX 16 1 17 2 18 3 19 4 20 5 21 6 22 7 23 8 24 9 25 10 26 11
REMARK SMILES IDX 27 12 28 13 29 14 30 15 31 16 32 17 15 18 14 19 13 20 12 21
REMARK SMILES IDX 11 22 10 23 9 24 8 25 7 26 6 27 5 28 4 29 3 30 2 31 1 32
REMARK H PARENT
REMARK Flexibility Score: inf
ROOT
ATOM      1  C   UNL     1       4.006   2.498 401.679  1.00  0.00     0.000 C 
ENDROOT
BRANCH   1   2
ATOM      2  C   UNL     1       4.843   2.346 402.967  1.00  0.00     0.000 C 
BRANCH   2   3
ATOM      3  C   UNL     1       4.392   1.179 403.863  1.00  0.00     0.000 C 
BRANCH   3   4
ATOM      4  C   UNL     1       5.488   0.119 404.053  1.00  0.00     0.000 C 
BRANCH   4   5
ATOM      5  C   UNL     1       4.954  -1.160 404.719  1.00  0.00     0.000 C 
BRANCH   5   6
ATOM      6  C   UNL     1       3.425  -1.272 404.617  1.00  0.00     0.000 C 
BRANCH   6   7
ATOM      7  C   UNL     1       2.924  -2.560 405.288  1.00  0.00     0.000 C 
BRANCH   7   8
ATOM      8  C   UNL     1       3.373  -2.673 406.754  1.00  0.00     0.000 C 
BRANCH   8   9
ATOM      9  C   UNL     1       3.900  -4.078 407.100  1.00  0.00     0.000 C 
BRANCH   9  10
ATOM     10  C   UNL     1       5.330  -4.319 406.566  1.00  0.00     0.000 C 
BRANCH  10  11
ATOM     11  C   UNL     1       5.384  -5.239 405.330  1.00  0.00     0.000 C 
BRANCH  11  12
ATOM     12  C   UNL     1       6.649  -6.107 405.224  1.00  0.00     0.000 C 
BRANCH  12  13
ATOM     13  C   UNL     1       6.341  -7.557 404.806  1.00  0.00     0.006 C 
BRANCH  13  14
ATOM     14  C   UNL     1       5.014  -7.671 404.047  1.00  0.00     0.053 C 
BRANCH  14  15
ATOM     15  C   UNL     1       4.766  -9.069 403.567  1.00  0.00     0.041 C 
ATOM     16  O   UNL     1       4.836  -9.339 402.339  1.00  0.00    -0.550 OA
ATOM     17  O   UNL     1       4.428 -10.064 404.474  1.00  0.00    -0.550 OA
ENDBRANCH  14  15
ENDBRANCH  13  14
ENDBRANCH  12  13
ENDBRANCH  11  12
ENDBRANCH  10  11
ENDBRANCH   9  10
ENDBRANCH   8   9
ENDBRANCH   7   8
ENDBRANCH   6   7
ENDBRANCH   5   6
ENDBRANCH   4   5
ENDBRANCH   3   4
ENDBRANCH   2   3
ENDBRANCH   1   2
BRANCH   1  18
ATOM     18  C   UNL     1       4.441   1.555 400.535  1.00  0.00     0.000 C 
BRANCH  18  19
ATOM     19  C   UNL     1       3.387   0.497 400.153  1.00  0.00     0.000 C 
BRANCH  19  20
ATOM     20  C   UNL     1       3.967  -0.918 399.940  1.00  0.00     0.000 C 
BRANCH  20  21
ATOM     21  C   UNL     1       4.025  -1.757 401.236  1.00  0.00     0.000 C 
BRANCH  21  22
ATOM     22  C   UNL     1       3.565  -3.210 401.038  1.00  0.00     0.000 C 
BRANCH  22  23
ATOM     23  C   UNL     1       4.226  -4.179 402.032  1.00  0.00     0.000 C 
BRANCH  23  24
ATOM     24  C   UNL     1       5.285  -5.076 401.367  1.00  0.00    -0.000 C 
BRANCH  24  25
ATOM     25  C   UNL     1       6.744  -4.737 401.737  1.00  0.00    -0.000 C 
BRANCH  25  26
ATOM     26  C   UNL     1       6.932  -3.430 402.537  1.00  0.00    -0.000 C 
BRANCH  26  27
ATOM     27  C   UNL     1       8.012  -2.481 401.986  1.00  0.00    -0.000 C 
BRANCH  27  28
ATOM     28  C   UNL     1       7.542  -1.701 400.748  1.00  0.00    -0.000 C 
BRANCH  28  29
ATOM     29  C   UNL     1       7.565  -0.190 401.006  1.00  0.00    -0.000 C 
BRANCH  29  30
ATOM     30  C   UNL     1       8.281   0.549 399.866  1.00  0.00    -0.000 C 
BRANCH  30  31
ATOM     31  C   UNL     1       7.411   0.680 398.607  1.00  0.00    -0.003 C 
ATOM     32  C   UNL     1       8.056   1.552 397.533  1.00  0.00     0.004 C 
ENDBRANCH  30  31
ENDBRANCH  29  30
ENDBRANCH  28  29
ENDBRANCH  27  28
ENDBRANCH  26  27
ENDBRANCH  25  26
ENDBRANCH  24  25
ENDBRANCH  23  24
ENDBRANCH  22  23
ENDBRANCH  21  22
ENDBRANCH  20  21
ENDBRANCH  19  20
ENDBRANCH  18  19
ENDBRANCH   1  18
TORSDOF 28
ENDMDL
