MODEL 1
REMARK VINA RESULT:    -6.417      0.000      0.000
REMARK INTER + INTRA:          -7.815
REMARK INTER:                  -7.543
REMARK INTRA:                  -0.272
REMARK UNBOUND:                -0.272
REMARK SMILES O=c1cc(-c2ccc(O)c(O)c2)oc2cc(O)cc(O)c12
REMARK SMILES IDX 4 1 3 2 2 3 1 4 21 5 19 6 18 7 16 8 15 9 14 10 13 11 5 12
REMARK SMILES IDX 6 13 7 14 8 15 12 16 10 17 9 18 11 20 20 22 17 24
REMARK H PARENT 9 19 11 21 20 23 17 25
REMARK Flexibility Score: inf
ROOT
ATOM      1  C   UNL     1     121.719 125.588 138.101  1.00  0.00     0.138 A 
ATOM      2  C   UNL     1     121.118 124.543 138.818  1.00  0.00     0.100 A 
ATOM      3  C   UNL     1     120.909 124.677 140.191  1.00  0.00     0.197 A 
ATOM      4  O   UNL     1     120.419 123.700 140.814  1.00  0.00    -0.289 OA
ATOM      5  C   UNL     1     121.272 125.880 140.844  1.00  0.00     0.107 A 
ATOM      6  C   UNL     1     121.076 126.142 142.233  1.00  0.00     0.134 A 
ATOM      7  C   UNL     1     121.566 127.332 142.786  1.00  0.00     0.093 A 
ATOM      8  C   UNL     1     122.193 128.292 141.991  1.00  0.00     0.123 A 
ATOM      9  C   UNL     1     122.345 128.067 140.623  1.00  0.00     0.094 A 
ATOM     10  C   UNL     1     121.898 126.876 140.048  1.00  0.00     0.146 A 
ATOM     11  O   UNL     1     122.079 126.694 138.744  1.00  0.00    -0.456 OA
ENDROOT
BRANCH   1  12
ATOM     12  C   UNL     1     121.962 125.500 136.639  1.00  0.00     0.021 A 
ATOM     13  C   UNL     1     123.253 125.738 136.139  1.00  0.00     0.016 A 
ATOM     14  C   UNL     1     123.510 125.655 134.767  1.00  0.00     0.051 A 
ATOM     15  C   UNL     1     122.484 125.322 133.876  1.00  0.00     0.157 A 
ATOM     16  C   UNL     1     120.937 125.152 135.738  1.00  0.00     0.062 A 
ATOM     17  C   UNL     1     121.196 125.067 134.361  1.00  0.00     0.158 A 
BRANCH  15  18
ATOM     18  O   UNL     1     122.736 125.239 132.507  1.00  0.00    -0.504 OA
ATOM     19  H   UNL     1     123.383 125.870 132.049  1.00  0.00     0.293 HD
ENDBRANCH  15  18
BRANCH  17  20
ATOM     20  O   UNL     1     120.179 124.724 133.472  1.00  0.00    -0.504 OA
ATOM     21  H   UNL     1     120.306 124.787 132.469  1.00  0.00     0.293 HD
ENDBRANCH  17  20
ENDBRANCH   1  12
BRANCH   6  22
ATOM     22  O   UNL     1     120.392 125.289 143.104  1.00  0.00    -0.507 OA
ATOM     23  H   UNL     1     119.648 125.569 143.724  1.00  0.00     0.293 HD
ENDBRANCH   6  22
BRANCH   8  24
ATOM     24  O   UNL     1     122.654 129.471 142.573  1.00  0.00    -0.508 OA
ATOM     25  H   UNL     1     123.643 129.643 142.710  1.00  0.00     0.293 HD
ENDBRANCH   8  24
TORSDOF 5
ENDMDL
MODEL 2
REMARK VINA RESULT:    -6.414      1.517      6.965
REMARK INTER + INTRA:          -7.812
REMARK INTER:                  -7.531
REMARK INTRA:                  -0.281
REMARK UNBOUND:                -0.272
REMARK SMILES O=c1cc(-c2ccc(O)c(O)c2)oc2cc(O)cc(O)c12
REMARK SMILES IDX 4 1 3 2 2 3 1 4 21 5 19 6 18 7 16 8 15 9 14 10 13 11 5 12
REMARK SMILES IDX 6 13 7 14 8 15 12 16 10 17 9 18 11 20 20 22 17 24
REMARK H PARENT 9 19 11 21 20 23 17 25
REMARK Flexibility Score: inf
ROOT
ATOM      1  C   UNL     1     121.772 125.801 138.013  1.00  0.00     0.138 A 
ATOM      2  C   UNL     1     120.858 125.466 137.004  1.00  0.00     0.100 A 
ATOM      3  C   UNL     1     121.275 125.444 135.672  1.00  0.00     0.197 A 
ATOM      4  O   UNL     1     120.417 125.194 134.787  1.00  0.00    -0.289 OA
ATOM      5  C   UNL     1     122.626 125.725 135.354  1.00  0.00     0.107 A 
ATOM      6  C   UNL     1     123.173 125.700 134.035  1.00  0.00     0.134 A 
ATOM      7  C   UNL     1     124.502 126.093 133.832  1.00  0.00     0.093 A 
ATOM      8  C   UNL     1     125.319 126.453 134.904  1.00  0.00     0.123 A 
ATOM      9  C   UNL     1     124.809 126.433 136.202  1.00  0.00     0.094 A 
ATOM     10  C   UNL     1     123.478 126.080 136.433  1.00  0.00     0.146 A 
ATOM     11  O   UNL     1     123.027 126.091 137.684  1.00  0.00    -0.456 OA
ENDROOT
BRANCH   1  12
ATOM     12  C   UNL     1     121.384 125.836 139.445  1.00  0.00     0.021 A 
ATOM     13  C   UNL     1     120.840 124.685 140.041  1.00  0.00     0.016 A 
ATOM     14  C   UNL     1     120.473 124.688 141.389  1.00  0.00     0.051 A 
ATOM     15  C   UNL     1     120.652 125.839 142.167  1.00  0.00     0.157 A 
ATOM     16  C   UNL     1     121.573 126.985 140.237  1.00  0.00     0.062 A 
ATOM     17  C   UNL     1     121.206 126.988 141.591  1.00  0.00     0.158 A 
BRANCH  15  18
ATOM     18  O   UNL     1     120.285 125.847 143.511  1.00  0.00    -0.504 OA
ATOM     19  H   UNL     1     120.838 125.368 144.214  1.00  0.00     0.293 HD
ENDBRANCH  15  18
BRANCH  17  20
ATOM     20  O   UNL     1     121.393 128.128 142.370  1.00  0.00    -0.504 OA
ATOM     21  H   UNL     1     122.014 128.128 143.171  1.00  0.00     0.293 HD
ENDBRANCH  17  20
ENDBRANCH   1  12
BRANCH   6  22
ATOM     22  O   UNL     1     122.470 125.280 132.902  1.00  0.00    -0.507 OA
ATOM     23  H   UNL     1     121.948 124.420 132.830  1.00  0.00     0.293 HD
ENDBRANCH   6  22
BRANCH   8  24
ATOM     24  O   UNL     1     126.641 126.823 134.665  1.00  0.00    -0.508 OA
ATOM     25  H   UNL     1     126.874 127.712 134.239  1.00  0.00     0.293 HD
ENDBRANCH   8  24
TORSDOF 5
ENDMDL
MODEL 3
REMARK VINA RESULT:    -6.406      4.779      7.623
REMARK INTER + INTRA:          -7.801
REMARK INTER:                  -7.500
REMARK INTRA:                  -0.301
REMARK UNBOUND:                -0.272
REMARK SMILES O=c1cc(-c2ccc(O)c(O)c2)oc2cc(O)cc(O)c12
REMARK SMILES IDX 4 1 3 2 2 3 1 4 21 5 19 6 18 7 16 8 15 9 14 10 13 11 5 12
REMARK SMILES IDX 6 13 7 14 8 15 12 16 10 17 9 18 11 20 20 22 17 24
REMARK H PARENT 9 19 11 21 20 23 17 25
REMARK Flexibility Score: inf
ROOT
ATOM      1  C   UNL     1     123.245 122.902 142.944  1.00  0.00     0.138 A 
ATOM      2  C   UNL     1     122.171 123.358 143.720  1.00  0.00     0.100 A 
ATOM      3  C   UNL     1     121.213 124.198 143.150  1.00  0.00     0.197 A 
ATOM      4  O   UNL     1     120.292 124.634 143.889  1.00  0.00    -0.289 OA
ATOM      5  C   UNL     1     121.314 124.553 141.783  1.00  0.00     0.107 A 
ATOM      6  C   UNL     1     120.378 125.376 141.086  1.00  0.00     0.134 A 
ATOM      7  C   UNL     1     120.635 125.740 139.758  1.00  0.00     0.093 A 
ATOM      8  C   UNL     1     121.762 125.266 139.086  1.00  0.00     0.123 A 
ATOM      9  C   UNL     1     122.657 124.422 139.743  1.00  0.00     0.094 A 
ATOM     10  C   UNL     1     122.446 124.068 141.078  1.00  0.00     0.146 A 
ATOM     11  O   UNL     1     123.333 123.276 141.672  1.00  0.00    -0.456 OA
ENDROOT
BRANCH   1  12
ATOM     12  C   UNL     1     124.290 122.005 143.498  1.00  0.00     0.021 A 
ATOM     13  C   UNL     1     124.679 122.146 144.842  1.00  0.00     0.016 A 
ATOM     14  C   UNL     1     125.654 121.309 145.391  1.00  0.00     0.051 A 
ATOM     15  C   UNL     1     126.250 120.311 144.609  1.00  0.00     0.157 A 
ATOM     16  C   UNL     1     124.883 120.990 142.722  1.00  0.00     0.062 A 
ATOM     17  C   UNL     1     125.862 120.149 143.274  1.00  0.00     0.158 A 
BRANCH  15  18
ATOM     18  O   UNL     1     127.224 119.476 145.153  1.00  0.00    -0.504 OA
ATOM     19  H   UNL     1     127.413 119.461 146.148  1.00  0.00     0.293 HD
ENDBRANCH  15  18
BRANCH  17  20
ATOM     20  O   UNL     1     126.448 119.148 142.502  1.00  0.00    -0.504 OA
ATOM     21  H   UNL     1     125.912 118.359 142.159  1.00  0.00     0.293 HD
ENDBRANCH  17  20
ENDBRANCH   1  12
BRANCH   6  22
ATOM     22  O   UNL     1     119.178 125.839 141.635  1.00  0.00    -0.507 OA
ATOM     23  H   UNL     1     118.726 126.705 141.389  1.00  0.00     0.293 HD
ENDBRANCH   6  22
BRANCH   8  24
ATOM     24  O   UNL     1     121.978 125.637 137.761  1.00  0.00    -0.508 OA
ATOM     25  H   UNL     1     121.625 126.513 137.391  1.00  0.00     0.293 HD
ENDBRANCH   8  24
TORSDOF 5
ENDMDL
MODEL 4
REMARK VINA RESULT:    -6.386      1.919      3.400
REMARK INTER + INTRA:          -7.778
REMARK INTER:                  -7.481
REMARK INTRA:                  -0.296
REMARK UNBOUND:                -0.272
REMARK SMILES O=c1cc(-c2ccc(O)c(O)c2)oc2cc(O)cc(O)c12
REMARK SMILES IDX 4 1 3 2 2 3 1 4 21 5 19 6 18 7 16 8 15 9 14 10 13 11 5 12
REMARK SMILES IDX 6 13 7 14 8 15 12 16 10 17 9 18 11 20 20 22 17 24
REMARK H PARENT 9 19 11 21 20 23 17 25
REMARK Flexibility Score: inf
ROOT
ATOM      1  C   UNL     1     121.015 125.097 138.458  1.00  0.00     0.138 A 
ATOM      2  C   UNL     1     120.718 126.214 139.251  1.00  0.00     0.100 A 
ATOM      3  C   UNL     1     120.518 126.054 140.623  1.00  0.00     0.197 A 
ATOM      4  O   UNL     1     120.199 127.067 141.297  1.00  0.00    -0.289 OA
ATOM      5  C   UNL     1     120.649 124.772 141.208  1.00  0.00     0.107 A 
ATOM      6  C   UNL     1     120.500 124.494 142.601  1.00  0.00     0.134 A 
ATOM      7  C   UNL     1     120.557 123.168 143.049  1.00  0.00     0.093 A 
ATOM      8  C   UNL     1     120.813 122.119 142.167  1.00  0.00     0.123 A 
ATOM      9  C   UNL     1     121.010 122.384 140.811  1.00  0.00     0.094 A 
ATOM     10  C   UNL     1     120.926 123.692 140.328  1.00  0.00     0.146 A 
ATOM     11  O   UNL     1     121.102 123.900 139.027  1.00  0.00    -0.456 OA
ENDROOT
BRANCH   1  12
ATOM     12  C   UNL     1     121.241 125.210 136.995  1.00  0.00     0.021 A 
ATOM     13  C   UNL     1     121.537 124.055 136.251  1.00  0.00     0.016 A 
ATOM     14  C   UNL     1     121.747 124.133 134.871  1.00  0.00     0.051 A 
ATOM     15  C   UNL     1     121.655 125.364 134.212  1.00  0.00     0.157 A 
ATOM     16  C   UNL     1     121.137 126.443 136.322  1.00  0.00     0.062 A 
ATOM     17  C   UNL     1     121.347 126.521 134.937  1.00  0.00     0.158 A 
BRANCH  15  18
ATOM     18  O   UNL     1     121.866 125.446 132.836  1.00  0.00    -0.504 OA
ATOM     19  H   UNL     1     121.859 126.336 132.351  1.00  0.00     0.293 HD
ENDBRANCH  15  18
BRANCH  17  20
ATOM     20  O   UNL     1     121.245 127.743 134.275  1.00  0.00    -0.504 OA
ATOM     21  H   UNL     1     121.102 127.795 133.274  1.00  0.00     0.293 HD
ENDBRANCH  17  20
ENDBRANCH   1  12
BRANCH   6  22
ATOM     22  O   UNL     1     120.320 125.474 143.582  1.00  0.00    -0.507 OA
ATOM     23  H   UNL     1     121.037 125.802 144.210  1.00  0.00     0.293 HD
ENDBRANCH   6  22
BRANCH   8  24
ATOM     24  O   UNL     1     120.878 120.814 142.652  1.00  0.00    -0.508 OA
ATOM     25  H   UNL     1     121.397 120.586 143.492  1.00  0.00     0.293 HD
ENDBRANCH   8  24
TORSDOF 5
ENDMDL
MODEL 5
REMARK VINA RESULT:    -6.354      4.650      7.302
REMARK INTER + INTRA:          -7.741
REMARK INTER:                  -7.466
REMARK INTRA:                  -0.275
REMARK UNBOUND:                -0.272
REMARK SMILES O=c1cc(-c2ccc(O)c(O)c2)oc2cc(O)cc(O)c12
REMARK SMILES IDX 4 1 3 2 2 3 1 4 21 5 19 6 18 7 16 8 15 9 14 10 13 11 5 12
REMARK SMILES IDX 6 13 7 14 8 15 12 16 10 17 9 18 11 20 20 22 17 24
REMARK H PARENT 9 19 11 21 20 23 17 25
REMARK Flexibility Score: inf
ROOT
ATOM      1  C   UNL     1     123.287 123.170 142.923  1.00  0.00     0.138 A 
ATOM      2  C   UNL     1     122.212 122.759 142.122  1.00  0.00     0.100 A 
ATOM      3  C   UNL     1     121.346 123.712 141.586  1.00  0.00     0.197 A 
ATOM      4  O   UNL     1     120.359 123.308 140.918  1.00  0.00    -0.289 OA
ATOM      5  C   UNL     1     121.579 125.089 141.825  1.00  0.00     0.107 A 
ATOM      6  C   UNL     1     120.782 126.151 141.302  1.00  0.00     0.134 A 
ATOM      7  C   UNL     1     121.052 127.471 141.687  1.00  0.00     0.093 A 
ATOM      8  C   UNL     1     122.123 127.770 142.529  1.00  0.00     0.123 A 
ATOM      9  C   UNL     1     122.939 126.744 143.006  1.00  0.00     0.094 A 
ATOM     10  C   UNL     1     122.674 125.415 142.667  1.00  0.00     0.146 A 
ATOM     11  O   UNL     1     123.465 124.466 143.157  1.00  0.00    -0.456 OA
ENDROOT
BRANCH   1  12
ATOM     12  C   UNL     1     124.241 122.199 143.516  1.00  0.00     0.021 A 
ATOM     13  C   UNL     1     124.542 122.277 144.887  1.00  0.00     0.016 A 
ATOM     14  C   UNL     1     125.431 121.370 145.471  1.00  0.00     0.051 A 
ATOM     15  C   UNL     1     126.025 120.366 144.698  1.00  0.00     0.157 A 
ATOM     16  C   UNL     1     124.833 121.178 142.747  1.00  0.00     0.062 A 
ATOM     17  C   UNL     1     125.724 120.267 143.335  1.00  0.00     0.158 A 
BRANCH  15  18
ATOM     18  O   UNL     1     126.914 119.462 145.277  1.00  0.00    -0.504 OA
ATOM     19  H   UNL     1     126.883 119.249 146.268  1.00  0.00     0.293 HD
ENDBRANCH  15  18
BRANCH  17  20
ATOM     20  O   UNL     1     126.308 119.260 142.570  1.00  0.00    -0.504 OA
ATOM     21  H   UNL     1     127.313 119.195 142.455  1.00  0.00     0.293 HD
ENDBRANCH  17  20
ENDBRANCH   1  12
BRANCH   6  22
ATOM     22  O   UNL     1     119.737 125.973 140.390  1.00  0.00    -0.507 OA
ATOM     23  H   UNL     1     119.781 126.197 139.408  1.00  0.00     0.293 HD
ENDBRANCH   6  22
BRANCH   8  24
ATOM     24  O   UNL     1     122.372 129.096 142.879  1.00  0.00    -0.508 OA
ATOM     25  H   UNL     1     122.821 129.738 142.237  1.00  0.00     0.293 HD
ENDBRANCH   8  24
TORSDOF 5
ENDMDL
MODEL 6
REMARK VINA RESULT:    -6.288      4.798      6.644
REMARK INTER + INTRA:          -7.663
REMARK INTER:                  -7.373
REMARK INTRA:                  -0.290
REMARK UNBOUND:                -0.272
REMARK SMILES O=c1cc(-c2ccc(O)c(O)c2)oc2cc(O)cc(O)c12
REMARK SMILES IDX 4 1 3 2 2 3 1 4 21 5 19 6 18 7 16 8 15 9 14 10 13 11 5 12
REMARK SMILES IDX 6 13 7 14 8 15 12 16 10 17 9 18 11 20 20 22 17 24
REMARK H PARENT 9 19 11 21 20 23 17 25
REMARK Flexibility Score: inf
ROOT
ATOM      1  C   UNL     1     123.224 124.142 142.717  1.00  0.00     0.138 A 
ATOM      2  C   UNL     1     123.245 124.860 143.921  1.00  0.00     0.100 A 
ATOM      3  C   UNL     1     124.029 124.406 144.983  1.00  0.00     0.197 A 
ATOM      4  O   UNL     1     123.982 125.042 146.068  1.00  0.00    -0.289 OA
ATOM      5  C   UNL     1     124.824 123.245 144.825  1.00  0.00     0.107 A 
ATOM      6  C   UNL     1     125.688 122.708 145.827  1.00  0.00     0.134 A 
ATOM      7  C   UNL     1     126.351 121.498 145.589  1.00  0.00     0.093 A 
ATOM      8  C   UNL     1     126.227 120.835 144.367  1.00  0.00     0.123 A 
ATOM      9  C   UNL     1     125.424 121.378 143.363  1.00  0.00     0.094 A 
ATOM     10  C   UNL     1     124.723 122.566 143.582  1.00  0.00     0.146 A 
ATOM     11  O   UNL     1     123.955 123.038 142.605  1.00  0.00    -0.456 OA
ENDROOT
BRANCH   1  12
ATOM     12  C   UNL     1     122.411 124.581 141.555  1.00  0.00     0.021 A 
ATOM     13  C   UNL     1     122.781 124.173 140.262  1.00  0.00     0.016 A 
ATOM     14  C   UNL     1     122.029 124.566 139.151  1.00  0.00     0.051 A 
ATOM     15  C   UNL     1     120.890 125.364 139.316  1.00  0.00     0.157 A 
ATOM     16  C   UNL     1     121.258 125.373 141.714  1.00  0.00     0.062 A 
ATOM     17  C   UNL     1     120.502 125.766 140.599  1.00  0.00     0.158 A 
BRANCH  15  18
ATOM     18  O   UNL     1     120.139 125.759 138.210  1.00  0.00    -0.504 OA
ATOM     19  H   UNL     1     119.375 126.419 138.298  1.00  0.00     0.293 HD
ENDBRANCH  15  18
BRANCH  17  20
ATOM     20  O   UNL     1     119.362 126.551 140.761  1.00  0.00    -0.504 OA
ATOM     21  H   UNL     1     119.381 127.552 140.610  1.00  0.00     0.293 HD
ENDBRANCH  17  20
ENDBRANCH   1  12
BRANCH   6  22
ATOM     22  O   UNL     1     125.948 123.328 147.053  1.00  0.00    -0.507 OA
ATOM     23  H   UNL     1     125.420 124.095 147.437  1.00  0.00     0.293 HD
ENDBRANCH   6  22
BRANCH   8  24
ATOM     24  O   UNL     1     126.914 119.641 144.161  1.00  0.00    -0.508 OA
ATOM     25  H   UNL     1     126.869 118.882 144.830  1.00  0.00     0.293 HD
ENDBRANCH   8  24
TORSDOF 5
ENDMDL
MODEL 7
REMARK VINA RESULT:    -6.264      2.662      3.920
REMARK INTER + INTRA:          -7.634
REMARK INTER:                  -7.369
REMARK INTRA:                  -0.266
REMARK UNBOUND:                -0.272
REMARK SMILES O=c1cc(-c2ccc(O)c(O)c2)oc2cc(O)cc(O)c12
REMARK SMILES IDX 4 1 3 2 2 3 1 4 21 5 19 6 18 7 16 8 15 9 14 10 13 11 5 12
REMARK SMILES IDX 6 13 7 14 8 15 12 16 10 17 9 18 11 20 20 22 17 24
REMARK H PARENT 9 19 11 21 20 23 17 25
REMARK Flexibility Score: inf
ROOT
ATOM      1  C   UNL     1     121.838 124.482 139.727  1.00  0.00     0.138 A 
ATOM      2  C   UNL     1     120.753 125.033 140.424  1.00  0.00     0.100 A 
ATOM      3  C   UNL     1     120.378 124.496 141.656  1.00  0.00     0.197 A 
ATOM      4  O   UNL     1     119.367 124.977 142.229  1.00  0.00    -0.289 OA
ATOM      5  C   UNL     1     121.117 123.421 142.208  1.00  0.00     0.107 A 
ATOM      6  C   UNL     1     120.847 122.814 143.472  1.00  0.00     0.134 A 
ATOM      7  C   UNL     1     121.586 121.693 143.870  1.00  0.00     0.093 A 
ATOM      8  C   UNL     1     122.620 121.192 143.079  1.00  0.00     0.123 A 
ATOM      9  C   UNL     1     122.924 121.809 141.864  1.00  0.00     0.094 A 
ATOM     10  C   UNL     1     122.183 122.908 141.424  1.00  0.00     0.146 A 
ATOM     11  O   UNL     1     122.495 123.454 140.253  1.00  0.00    -0.456 OA
ENDROOT
BRANCH   1  12
ATOM     12  C   UNL     1     122.282 125.017 138.415  1.00  0.00     0.021 A 
ATOM     13  C   UNL     1     123.531 125.654 138.317  1.00  0.00     0.016 A 
ATOM     14  C   UNL     1     123.977 126.160 137.092  1.00  0.00     0.051 A 
ATOM     15  C   UNL     1     123.186 126.028 135.945  1.00  0.00     0.157 A 
ATOM     16  C   UNL     1     121.498 124.877 137.253  1.00  0.00     0.062 A 
ATOM     17  C   UNL     1     121.946 125.383 136.024  1.00  0.00     0.158 A 
BRANCH  15  18
ATOM     18  O   UNL     1     123.626 126.533 134.722  1.00  0.00    -0.504 OA
ATOM     19  H   UNL     1     123.928 127.495 134.624  1.00  0.00     0.293 HD
ENDBRANCH  15  18
BRANCH  17  20
ATOM     20  O   UNL     1     121.166 125.244 134.877  1.00  0.00    -0.504 OA
ATOM     21  H   UNL     1     121.441 124.631 134.119  1.00  0.00     0.293 HD
ENDBRANCH  17  20
ENDBRANCH   1  12
BRANCH   6  22
ATOM     22  O   UNL     1     119.891 123.281 144.379  1.00  0.00    -0.507 OA
ATOM     23  H   UNL     1     119.732 124.251 144.605  1.00  0.00     0.293 HD
ENDBRANCH   6  22
BRANCH   8  24
ATOM     24  O   UNL     1     123.343 120.084 143.514  1.00  0.00    -0.508 OA
ATOM     25  H   UNL     1     123.702 120.024 144.460  1.00  0.00     0.293 HD
ENDBRANCH   8  24
TORSDOF 5
ENDMDL
MODEL 8
REMARK VINA RESULT:    -6.235      1.770      7.194
REMARK INTER + INTRA:          -7.601
REMARK INTER:                  -7.313
REMARK INTRA:                  -0.288
REMARK UNBOUND:                -0.272
REMARK SMILES O=c1cc(-c2ccc(O)c(O)c2)oc2cc(O)cc(O)c12
REMARK SMILES IDX 4 1 3 2 2 3 1 4 21 5 19 6 18 7 16 8 15 9 14 10 13 11 5 12
REMARK SMILES IDX 6 13 7 14 8 15 12 16 10 17 9 18 11 20 20 22 17 24
REMARK H PARENT 9 19 11 21 20 23 17 25
REMARK Flexibility Score: inf
ROOT
ATOM      1  C   UNL     1     121.566 126.069 139.232  1.00  0.00     0.138 A 
ATOM      2  C   UNL     1     122.482 127.127 139.141  1.00  0.00     0.100 A 
ATOM      3  C   UNL     1     122.840 127.626 137.888  1.00  0.00     0.197 A 
ATOM      4  O   UNL     1     123.706 128.537 137.838  1.00  0.00    -0.289 OA
ATOM      5  C   UNL     1     122.249 127.085 136.721  1.00  0.00     0.107 A 
ATOM      6  C   UNL     1     122.511 127.536 135.392  1.00  0.00     0.134 A 
ATOM      7  C   UNL     1     121.941 126.858 134.307  1.00  0.00     0.093 A 
ATOM      8  C   UNL     1     121.074 125.783 134.505  1.00  0.00     0.123 A 
ATOM      9  C   UNL     1     120.771 125.365 135.801  1.00  0.00     0.094 A 
ATOM     10  C   UNL     1     121.351 126.000 136.902  1.00  0.00     0.146 A 
ATOM     11  O   UNL     1     121.050 125.559 138.119  1.00  0.00    -0.456 OA
ENDROOT
BRANCH   1  12
ATOM     12  C   UNL     1     121.148 125.502 140.539  1.00  0.00     0.021 A 
ATOM     13  C   UNL     1     120.771 124.150 140.616  1.00  0.00     0.016 A 
ATOM     14  C   UNL     1     120.381 123.589 141.835  1.00  0.00     0.051 A 
ATOM     15  C   UNL     1     120.370 124.368 142.999  1.00  0.00     0.157 A 
ATOM     16  C   UNL     1     121.148 126.275 141.716  1.00  0.00     0.062 A 
ATOM     17  C   UNL     1     120.757 125.712 142.940  1.00  0.00     0.158 A 
BRANCH  15  18
ATOM     18  O   UNL     1     119.979 123.813 144.216  1.00  0.00    -0.504 OA
ATOM     19  H   UNL     1     120.422 122.979 144.584  1.00  0.00     0.293 HD
ENDBRANCH  15  18
BRANCH  17  20
ATOM     20  O   UNL     1     120.756 126.481 144.102  1.00  0.00    -0.504 OA
ATOM     21  H   UNL     1     120.482 127.456 144.094  1.00  0.00     0.293 HD
ENDBRANCH  17  20
ENDBRANCH   1  12
BRANCH   6  22
ATOM     22  O   UNL     1     123.298 128.650 135.083  1.00  0.00    -0.507 OA
ATOM     23  H   UNL     1     123.312 129.512 135.605  1.00  0.00     0.293 HD
ENDBRANCH   6  22
BRANCH   8  24
ATOM     24  O   UNL     1     120.513 125.142 133.403  1.00  0.00    -0.508 OA
ATOM     25  H   UNL     1     119.769 125.570 132.862  1.00  0.00     0.293 HD
ENDBRANCH   8  24
TORSDOF 5
ENDMDL
MODEL 9
REMARK VINA RESULT:    -6.181      3.149      4.734
REMARK INTER + INTRA:          -7.537
REMARK INTER:                  -7.261
REMARK INTRA:                  -0.276
REMARK UNBOUND:                -0.272
REMARK SMILES O=c1cc(-c2ccc(O)c(O)c2)oc2cc(O)cc(O)c12
REMARK SMILES IDX 4 1 3 2 2 3 1 4 21 5 19 6 18 7 16 8 15 9 14 10 13 11 5 12
REMARK SMILES IDX 6 13 7 14 8 15 12 16 10 17 9 18 11 20 20 22 17 24
REMARK H PARENT 9 19 11 21 20 23 17 25
REMARK Flexibility Score: inf
ROOT
ATOM      1  C   UNL     1     122.346 124.774 140.560  1.00  0.00     0.138 A 
ATOM      2  C   UNL     1     122.050 125.527 141.704  1.00  0.00     0.100 A 
ATOM      3  C   UNL     1     122.253 124.973 142.969  1.00  0.00     0.197 A 
ATOM      4  O   UNL     1     121.926 125.654 143.974  1.00  0.00    -0.289 OA
ATOM      5  C   UNL     1     122.791 123.668 143.086  1.00  0.00     0.107 A 
ATOM      6  C   UNL     1     123.073 123.013 144.323  1.00  0.00     0.134 A 
ATOM      7  C   UNL     1     123.512 121.683 144.315  1.00  0.00     0.093 A 
ATOM      8  C   UNL     1     123.733 121.004 143.116  1.00  0.00     0.123 A 
ATOM      9  C   UNL     1     123.508 121.652 141.901  1.00  0.00     0.094 A 
ATOM     10  C   UNL     1     123.038 122.967 141.877  1.00  0.00     0.146 A 
ATOM     11  O   UNL     1     122.820 123.541 140.698  1.00  0.00    -0.456 OA
ENDROOT
BRANCH   1  12
ATOM     12  C   UNL     1     122.152 125.315 139.191  1.00  0.00     0.021 A 
ATOM     13  C   UNL     1     121.485 124.537 138.229  1.00  0.00     0.016 A 
ATOM     14  C   UNL     1     121.282 125.026 136.935  1.00  0.00     0.051 A 
ATOM     15  C   UNL     1     121.733 126.304 136.585  1.00  0.00     0.157 A 
ATOM     16  C   UNL     1     122.591 126.605 138.835  1.00  0.00     0.062 A 
ATOM     17  C   UNL     1     122.386 127.097 137.537  1.00  0.00     0.158 A 
BRANCH  15  18
ATOM     18  O   UNL     1     121.535 126.794 135.296  1.00  0.00    -0.504 OA
ATOM     19  H   UNL     1     122.284 126.808 134.613  1.00  0.00     0.293 HD
ENDBRANCH  15  18
BRANCH  17  20
ATOM     20  O   UNL     1     122.823 128.373 137.188  1.00  0.00    -0.504 OA
ATOM     21  H   UNL     1     122.834 128.686 136.225  1.00  0.00     0.293 HD
ENDBRANCH  17  20
ENDBRANCH   1  12
BRANCH   6  22
ATOM     22  O   UNL     1     122.963 123.623 145.577  1.00  0.00    -0.507 OA
ATOM     23  H   UNL     1     123.041 123.146 146.461  1.00  0.00     0.293 HD
ENDBRANCH   6  22
BRANCH   8  24
ATOM     24  O   UNL     1     124.185 119.687 143.147  1.00  0.00    -0.508 OA
ATOM     25  H   UNL     1     125.154 119.455 142.965  1.00  0.00     0.293 HD
ENDBRANCH   8  24
TORSDOF 5
ENDMDL
