MODEL 1
REMARK VINA RESULT:     1.903      0.000      0.000
REMARK INTER + INTRA:           2.066
REMARK INTER:                   2.293
REMARK INTRA:                  -0.226
REMARK UNBOUND:                -0.226
REMARK SMILES O=c1c(O)c(-c2ccc(O)c(O)c2)oc2cc(O)cc(O)c12
REMARK SMILES IDX 5 1 3 2 2 3 1 4 22 5 20 6 19 7 17 8 16 9 15 10 14 11 6 12
REMARK SMILES IDX 7 13 8 14 9 15 13 16 11 17 10 18 12 20 4 22 21 24 18 26
REMARK H PARENT 10 19 12 21 4 23 21 25 18 27
REMARK Flexibility Score: inf
ROOT
ATOM      1  C   UNL     1     -21.690 -15.733 -14.002  1.00  0.00     0.180 A 
ATOM      2  C   UNL     1     -22.350 -14.991 -14.996  1.00  0.00     0.208 A 
ATOM      3  C   UNL     1     -23.626 -15.400 -15.418  1.00  0.00     0.238 A 
ATOM      4  O   UNL     1     -24.241 -14.689 -16.253  1.00  0.00    -0.285 OA
ATOM      5  C   UNL     1     -24.202 -16.578 -14.882  1.00  0.00     0.111 A 
ATOM      6  C   UNL     1     -25.468 -17.111 -15.269  1.00  0.00     0.134 A 
ATOM      7  C   UNL     1     -25.983 -18.225 -14.594  1.00  0.00     0.093 A 
ATOM      8  C   UNL     1     -25.251 -18.862 -13.590  1.00  0.00     0.123 A 
ATOM      9  C   UNL     1     -23.990 -18.382 -13.243  1.00  0.00     0.094 A 
ATOM     10  C   UNL     1     -23.465 -17.251 -13.872  1.00  0.00     0.146 A 
ATOM     11  O   UNL     1     -22.270 -16.815 -13.495  1.00  0.00    -0.452 OA
ENDROOT
BRANCH   1  12
ATOM     12  C   UNL     1     -20.351 -15.357 -13.495  1.00  0.00     0.025 A 
ATOM     13  C   UNL     1     -20.160 -14.197 -12.723  1.00  0.00     0.016 A 
ATOM     14  C   UNL     1     -18.890 -13.875 -12.235  1.00  0.00     0.051 A 
ATOM     15  C   UNL     1     -17.798 -14.712 -12.498  1.00  0.00     0.157 A 
ATOM     16  C   UNL     1     -19.257 -16.204 -13.737  1.00  0.00     0.062 A 
ATOM     17  C   UNL     1     -17.985 -15.883 -13.251  1.00  0.00     0.158 A 
BRANCH  15  18
ATOM     18  O   UNL     1     -16.533 -14.387 -12.012  1.00  0.00    -0.504 OA
ATOM     19  H   UNL     1     -15.819 -15.094 -11.877  1.00  0.00     0.293 HD
ENDBRANCH  15  18
BRANCH  17  20
ATOM     20  O   UNL     1     -16.920 -16.742 -13.524  1.00  0.00    -0.504 OA
ATOM     21  H   UNL     1     -16.190 -16.500 -14.184  1.00  0.00     0.293 HD
ENDBRANCH  17  20
ENDBRANCH   1  12
BRANCH   2  22
ATOM     22  O   UNL     1     -21.732 -13.875 -15.567  1.00  0.00    -0.502 OA
ATOM     23  H   UNL     1     -21.201 -13.929 -16.429  1.00  0.00     0.293 HD
ENDBRANCH   2  22
BRANCH   6  24
ATOM     24  O   UNL     1     -26.243 -16.607 -16.317  1.00  0.00    -0.507 OA
ATOM     25  H   UNL     1     -27.152 -16.182 -16.213  1.00  0.00     0.293 HD
ENDBRANCH   6  24
BRANCH   8  26
ATOM     26  O   UNL     1     -25.764 -19.980 -12.935  1.00  0.00    -0.508 OA
ATOM     27  H   UNL     1     -26.724 -20.276 -13.068  1.00  0.00     0.293 HD
ENDBRANCH   8  26
TORSDOF 6
ENDMDL
MODEL 2
REMARK VINA RESULT:     4.620      0.724      1.442
REMARK INTER + INTRA:           5.339
REMARK INTER:                   5.606
REMARK INTRA:                  -0.268
REMARK UNBOUND:                -0.226
REMARK SMILES O=c1c(O)c(-c2ccc(O)c(O)c2)oc2cc(O)cc(O)c12
REMARK SMILES IDX 5 1 3 2 2 3 1 4 22 5 20 6 19 7 17 8 16 9 15 10 14 11 6 12
REMARK SMILES IDX 7 13 8 14 9 15 13 16 11 17 10 18 12 20 4 22 21 24 18 26
REMARK H PARENT 10 19 12 21 4 23 21 25 18 27
REMARK Flexibility Score: inf
ROOT
ATOM      1  C   UNL     1     -21.707 -16.036 -13.972  1.00  0.00     0.180 A 
ATOM      2  C   UNL     1     -22.377 -15.069 -14.740  1.00  0.00     0.208 A 
ATOM      3  C   UNL     1     -23.695 -15.320 -15.153  1.00  0.00     0.238 A 
ATOM      4  O   UNL     1     -24.314 -14.420 -15.776  1.00  0.00    -0.285 OA
ATOM      5  C   UNL     1     -24.308 -16.559 -14.841  1.00  0.00     0.111 A 
ATOM      6  C   UNL     1     -25.623 -16.939 -15.246  1.00  0.00     0.134 A 
ATOM      7  C   UNL     1     -26.163 -18.147 -14.789  1.00  0.00     0.093 A 
ATOM      8  C   UNL     1     -25.414 -19.017 -13.993  1.00  0.00     0.123 A 
ATOM      9  C   UNL     1     -24.111 -18.680 -13.638  1.00  0.00     0.094 A 
ATOM     10  C   UNL     1     -23.557 -17.465 -14.048  1.00  0.00     0.146 A 
ATOM     11  O   UNL     1     -22.318 -17.174 -13.667  1.00  0.00    -0.452 OA
ENDROOT
BRANCH   1  12
ATOM     12  C   UNL     1     -20.321 -15.838 -13.488  1.00  0.00     0.025 A 
ATOM     13  C   UNL     1     -19.229 -16.458 -14.121  1.00  0.00     0.016 A 
ATOM     14  C   UNL     1     -17.928 -16.237 -13.661  1.00  0.00     0.051 A 
ATOM     15  C   UNL     1     -17.697 -15.384 -12.575  1.00  0.00     0.157 A 
ATOM     16  C   UNL     1     -20.082 -14.966 -12.413  1.00  0.00     0.062 A 
ATOM     17  C   UNL     1     -18.780 -14.744 -11.950  1.00  0.00     0.158 A 
BRANCH  15  18
ATOM     18  O   UNL     1     -16.398 -15.167 -12.117  1.00  0.00    -0.504 OA
ATOM     19  H   UNL     1     -16.172 -15.198 -11.129  1.00  0.00     0.293 HD
ENDBRANCH  15  18
BRANCH  17  20
ATOM     20  O   UNL     1     -18.584 -13.883 -10.870  1.00  0.00    -0.504 OA
ATOM     21  H   UNL     1     -17.659 -13.658 -10.523  1.00  0.00     0.293 HD
ENDBRANCH  17  20
ENDBRANCH   1  12
BRANCH   2  22
ATOM     22  O   UNL     1     -21.728 -13.886 -15.103  1.00  0.00    -0.502 OA
ATOM     23  H   UNL     1     -22.232 -13.032 -15.315  1.00  0.00     0.293 HD
ENDBRANCH   2  22
BRANCH   6  24
ATOM     24  O   UNL     1     -26.424 -16.187 -16.110  1.00  0.00    -0.507 OA
ATOM     25  H   UNL     1     -27.104 -15.502 -15.819  1.00  0.00     0.293 HD
ENDBRANCH   6  24
BRANCH   8  26
ATOM     26  O   UNL     1     -25.955 -20.225 -13.556  1.00  0.00    -0.508 OA
ATOM     27  H   UNL     1     -26.030 -21.025 -14.174  1.00  0.00     0.293 HD
ENDBRANCH   8  26
TORSDOF 6
ENDMDL
