MODEL 1
REMARK VINA RESULT:    -3.451      0.000      0.000
REMARK INTER + INTRA:          -4.374
REMARK INTER:                  -4.157
REMARK INTRA:                  -0.217
REMARK UNBOUND:                -0.217
REMARK SMILES O=c1c(O)c(-c2ccc(O)c(O)c2)oc2cc(O)cc(O)c12
REMARK SMILES IDX 5 1 3 2 2 3 1 4 22 5 20 6 19 7 17 8 16 9 15 10 14 11 6 12
REMARK SMILES IDX 7 13 8 14 9 15 13 16 11 17 10 18 12 20 4 22 21 24 18 26
REMARK H PARENT 10 19 12 21 4 23 21 25 18 27
REMARK Flexibility Score: inf
ROOT
ATOM      1  C   UNL     1       4.843 -11.306  24.020  1.00  0.00     0.180 A 
ATOM      2  C   UNL     1       5.148 -11.566  22.673  1.00  0.00     0.208 A 
ATOM      3  C   UNL     1       5.257 -12.898  22.243  1.00  0.00     0.238 A 
ATOM      4  O   UNL     1       5.457 -13.123  21.022  1.00  0.00    -0.285 OA
ATOM      5  C   UNL     1       5.115 -13.954  23.177  1.00  0.00     0.111 A 
ATOM      6  C   UNL     1       5.250 -15.340  22.862  1.00  0.00     0.134 A 
ATOM      7  C   UNL     1       4.982 -16.301  23.845  1.00  0.00     0.093 A 
ATOM      8  C   UNL     1       4.647 -15.925  25.148  1.00  0.00     0.123 A 
ATOM      9  C   UNL     1       4.567 -14.575  25.480  1.00  0.00     0.094 A 
ATOM     10  C   UNL     1       4.791 -13.593  24.510  1.00  0.00     0.146 A 
ATOM     11  O   UNL     1       4.682 -12.318  24.865  1.00  0.00    -0.452 OA
ENDROOT
BRANCH   1  12
ATOM     12  C   UNL     1       4.697  -9.929  24.545  1.00  0.00     0.025 A 
ATOM     13  C   UNL     1       5.837  -9.124  24.693  1.00  0.00     0.016 A 
ATOM     14  C   UNL     1       5.725  -7.829  25.206  1.00  0.00     0.051 A 
ATOM     15  C   UNL     1       4.475  -7.327  25.592  1.00  0.00     0.157 A 
ATOM     16  C   UNL     1       3.447  -9.429  24.953  1.00  0.00     0.062 A 
ATOM     17  C   UNL     1       3.335  -8.130  25.470  1.00  0.00     0.158 A 
BRANCH  15  18
ATOM     18  O   UNL     1       4.361  -6.035  26.102  1.00  0.00    -0.504 OA
ATOM     19  H   UNL     1       3.575  -5.760  26.679  1.00  0.00     0.293 HD
ENDBRANCH  15  18
BRANCH  17  20
ATOM     20  O   UNL     1       2.096  -7.634  25.868  1.00  0.00    -0.504 OA
ATOM     21  H   UNL     1       1.253  -7.827  25.340  1.00  0.00     0.293 HD
ENDBRANCH  17  20
ENDBRANCH   1  12
BRANCH   2  22
ATOM     22  O   UNL     1       5.361 -10.508  21.784  1.00  0.00    -0.502 OA
ATOM     23  H   UNL     1       5.326  -9.538  22.074  1.00  0.00     0.293 HD
ENDBRANCH   2  22
BRANCH   6  24
ATOM     24  O   UNL     1       5.664 -15.825  21.618  1.00  0.00    -0.507 OA
ATOM     25  H   UNL     1       5.293 -15.525  20.728  1.00  0.00     0.293 HD
ENDBRANCH   6  24
BRANCH   8  26
ATOM     26  O   UNL     1       4.399 -16.887  26.125  1.00  0.00    -0.508 OA
ATOM     27  H   UNL     1       4.410 -16.656  27.111  1.00  0.00     0.293 HD
ENDBRANCH   8  26
TORSDOF 6
ENDMDL
MODEL 2
REMARK VINA RESULT:    -2.330      1.428      2.113
REMARK INTER + INTRA:          -3.023
REMARK INTER:                  -3.305
REMARK INTRA:                   0.282
REMARK UNBOUND:                -0.217
REMARK SMILES O=c1c(O)c(-c2ccc(O)c(O)c2)oc2cc(O)cc(O)c12
REMARK SMILES IDX 5 1 3 2 2 3 1 4 22 5 20 6 19 7 17 8 16 9 15 10 14 11 6 12
REMARK SMILES IDX 7 13 8 14 9 15 13 16 11 17 10 18 12 20 4 22 21 24 18 26
REMARK H PARENT 10 19 12 21 4 23 21 25 18 27
REMARK Flexibility Score: inf
ROOT
ATOM      1  C   UNL     1       4.967 -12.982  23.995  1.00  0.00     0.180 A 
ATOM      2  C   UNL     1       5.209 -13.227  22.633  1.00  0.00     0.208 A 
ATOM      3  C   UNL     1       5.377 -14.552  22.198  1.00  0.00     0.238 A 
ATOM      4  O   UNL     1       5.519 -14.769  20.967  1.00  0.00    -0.285 OA
ATOM      5  C   UNL     1       5.358 -15.611  23.139  1.00  0.00     0.111 A 
ATOM      6  C   UNL     1       5.563 -16.987  22.817  1.00  0.00     0.134 A 
ATOM      7  C   UNL     1       5.416 -17.958  23.815  1.00  0.00     0.093 A 
ATOM      8  C   UNL     1       5.135 -17.599  25.135  1.00  0.00     0.123 A 
ATOM      9  C   UNL     1       4.988 -16.256  25.470  1.00  0.00     0.094 A 
ATOM     10  C   UNL     1       5.091 -15.265  24.489  1.00  0.00     0.146 A 
ATOM     11  O   UNL     1       4.922 -13.999  24.849  1.00  0.00    -0.452 OA
ENDROOT
BRANCH   1  12
ATOM     12  C   UNL     1       4.764 -11.615  24.527  1.00  0.00     0.025 A 
ATOM     13  C   UNL     1       3.905 -11.421  25.620  1.00  0.00     0.016 A 
ATOM     14  C   UNL     1       3.683 -10.137  26.125  1.00  0.00     0.051 A 
ATOM     15  C   UNL     1       4.304  -9.028  25.535  1.00  0.00     0.157 A 
ATOM     16  C   UNL     1       5.370 -10.498  23.925  1.00  0.00     0.062 A 
ATOM     17  C   UNL     1       5.145  -9.209  24.430  1.00  0.00     0.158 A 
BRANCH  15  18
ATOM     18  O   UNL     1       4.086  -7.747  26.038  1.00  0.00    -0.504 OA
ATOM     19  H   UNL     1       4.659  -6.961  25.754  1.00  0.00     0.293 HD
ENDBRANCH  15  18
BRANCH  17  20
ATOM     20  O   UNL     1       5.750  -8.103  23.836  1.00  0.00    -0.504 OA
ATOM     21  H   UNL     1       6.351  -8.198  23.026  1.00  0.00     0.293 HD
ENDBRANCH  17  20
ENDBRANCH   1  12
BRANCH   2  22
ATOM     22  O   UNL     1       5.301 -12.162  21.732  1.00  0.00    -0.502 OA
ATOM     23  H   UNL     1       5.615 -12.284  20.776  1.00  0.00     0.293 HD
ENDBRANCH   2  22
BRANCH   6  24
ATOM     24  O   UNL     1       5.934 -17.449  21.551  1.00  0.00    -0.507 OA
ATOM     25  H   UNL     1       5.507 -17.161  20.683  1.00  0.00     0.293 HD
ENDBRANCH   6  24
BRANCH   8  26
ATOM     26  O   UNL     1       5.008 -18.571  26.125  1.00  0.00    -0.508 OA
ATOM     27  H   UNL     1       5.545 -19.430  26.096  1.00  0.00     0.293 HD
ENDBRANCH   8  26
TORSDOF 6
ENDMDL
MODEL 3
REMARK VINA RESULT:    -1.073      1.707      7.011
REMARK INTER + INTRA:          -1.509
REMARK INTER:                  -1.364
REMARK INTRA:                  -0.146
REMARK UNBOUND:                -0.217
REMARK SMILES O=c1c(O)c(-c2ccc(O)c(O)c2)oc2cc(O)cc(O)c12
REMARK SMILES IDX 5 1 3 2 2 3 1 4 22 5 20 6 19 7 17 8 16 9 15 10 14 11 6 12
REMARK SMILES IDX 7 13 8 14 9 15 13 16 11 17 10 18 12 20 4 22 21 24 18 26
REMARK H PARENT 10 19 12 21 4 23 21 25 18 27
REMARK Flexibility Score: inf
ROOT
ATOM      1  C   UNL     1       5.038 -14.759  24.053  1.00  0.00     0.180 A 
ATOM      2  C   UNL     1       5.306 -14.486  22.701  1.00  0.00     0.208 A 
ATOM      3  C   UNL     1       5.291 -13.153  22.260  1.00  0.00     0.238 A 
ATOM      4  O   UNL     1       5.606 -12.909  21.065  1.00  0.00    -0.285 OA
ATOM      5  C   UNL     1       4.953 -12.114  23.162  1.00  0.00     0.111 A 
ATOM      6  C   UNL     1       4.861 -10.733  22.813  1.00  0.00     0.134 A 
ATOM      7  C   UNL     1       4.622  -9.782  23.814  1.00  0.00     0.093 A 
ATOM      8  C   UNL     1       4.408 -10.169  25.139  1.00  0.00     0.123 A 
ATOM      9  C   UNL     1       4.439 -11.519  25.479  1.00  0.00     0.094 A 
ATOM     10  C   UNL     1       4.714 -12.488  24.510  1.00  0.00     0.146 A 
ATOM     11  O   UNL     1       4.756 -13.761  24.883  1.00  0.00    -0.452 OA
ENDROOT
BRANCH   1  12
ATOM     12  C   UNL     1       5.050 -16.136  24.597  1.00  0.00     0.025 A 
ATOM     13  C   UNL     1       6.021 -16.495  25.545  1.00  0.00     0.016 A 
ATOM     14  C   UNL     1       6.064 -17.794  26.056  1.00  0.00     0.051 A 
ATOM     15  C   UNL     1       5.147 -18.758  25.615  1.00  0.00     0.157 A 
ATOM     16  C   UNL     1       4.145 -17.112  24.141  1.00  0.00     0.062 A 
ATOM     17  C   UNL     1       4.190 -18.417  24.653  1.00  0.00     0.158 A 
BRANCH  15  18
ATOM     18  O   UNL     1       5.187 -20.054  26.125  1.00  0.00    -0.504 OA
ATOM     19  H   UNL     1       5.178 -20.864  25.516  1.00  0.00     0.293 HD
ENDBRANCH  15  18
BRANCH  17  20
ATOM     20  O   UNL     1       3.288 -19.381  24.205  1.00  0.00    -0.504 OA
ATOM     21  H   UNL     1       3.169 -19.578  23.219  1.00  0.00     0.293 HD
ENDBRANCH  17  20
ENDBRANCH   1  12
BRANCH   2  22
ATOM     22  O   UNL     1       5.563 -15.531  21.809  1.00  0.00    -0.502 OA
ATOM     23  H   UNL     1       6.227 -16.268  22.012  1.00  0.00     0.293 HD
ENDBRANCH   2  22
BRANCH   6  24
ATOM     24  O   UNL     1       4.972 -10.245  21.508  1.00  0.00    -0.507 OA
ATOM     25  H   UNL     1       4.904 -10.808  20.673  1.00  0.00     0.293 HD
ENDBRANCH   6  24
BRANCH   8  26
ATOM     26  O   UNL     1       4.153  -9.218  26.124  1.00  0.00    -0.508 OA
ATOM     27  H   UNL     1       4.480  -8.263  26.037  1.00  0.00     0.293 HD
ENDBRANCH   8  26
TORSDOF 6
ENDMDL
