MODEL 1
REMARK VINA RESULT:    13.506      0.000      0.000
REMARK INTER + INTRA:          16.013
REMARK INTER:                  16.269
REMARK INTRA:                  -0.256
REMARK UNBOUND:                -0.256
REMARK SMILES O=c1c(O)c(-c2ccc(O)c(O)c2)oc2cc(O)cc(O)c12
REMARK SMILES IDX 5 1 3 2 2 3 1 4 22 5 20 6 19 7 17 8 16 9 15 10 14 11 6 12
REMARK SMILES IDX 7 13 8 14 9 15 13 16 11 17 10 18 12 20 4 22 21 24 18 26
REMARK H PARENT 10 19 12 21 4 23 21 25 18 27
REMARK Flexibility Score: inf
ROOT
ATOM      1  C   UNL     1     -19.442  -7.070  12.035  1.00  0.00     0.180 A 
ATOM      2  C   UNL     1     -20.366  -7.802  12.806  1.00  0.00     0.208 A 
ATOM      3  C   UNL     1     -20.672  -9.118  12.428  1.00  0.00     0.238 A 
ATOM      4  O   UNL     1     -21.506  -9.780  13.105  1.00  0.00    -0.285 OA
ATOM      5  C   UNL     1     -20.038  -9.686  11.304  1.00  0.00     0.111 A 
ATOM      6  C   UNL     1     -20.288 -11.007  10.859  1.00  0.00     0.134 A 
ATOM      7  C   UNL     1     -19.609 -11.503   9.735  1.00  0.00     0.093 A 
ATOM      8  C   UNL     1     -18.689 -10.706   9.050  1.00  0.00     0.123 A 
ATOM      9  C   UNL     1     -18.438  -9.401   9.485  1.00  0.00     0.094 A 
ATOM     10  C   UNL     1     -19.105  -8.888  10.601  1.00  0.00     0.146 A 
ATOM     11  O   UNL     1     -18.853  -7.643  10.990  1.00  0.00    -0.452 OA
ENDROOT
BRANCH   1  12
ATOM     12  C   UNL     1     -19.082  -5.671  12.357  1.00  0.00     0.025 A 
ATOM     13  C   UNL     1     -19.986  -4.615  12.147  1.00  0.00     0.016 A 
ATOM     14  C   UNL     1     -19.615  -3.299  12.436  1.00  0.00     0.051 A 
ATOM     15  C   UNL     1     -18.337  -3.016  12.927  1.00  0.00     0.157 A 
ATOM     16  C   UNL     1     -17.792  -5.380  12.831  1.00  0.00     0.062 A 
ATOM     17  C   UNL     1     -17.418  -4.060  13.123  1.00  0.00     0.158 A 
BRANCH  15  18
ATOM     18  O   UNL     1     -17.996  -1.693  13.208  1.00  0.00    -0.504 OA
ATOM     19  H   UNL     1     -18.279  -0.925  12.611  1.00  0.00     0.293 HD
ENDBRANCH  15  18
BRANCH  17  20
ATOM     20  O   UNL     1     -16.139  -3.785  13.604  1.00  0.00    -0.504 OA
ATOM     21  H   UNL     1     -15.569  -3.047  13.207  1.00  0.00     0.293 HD
ENDBRANCH  17  20
ENDBRANCH   1  12
BRANCH   2  22
ATOM     22  O   UNL     1     -20.942  -7.233  13.944  1.00  0.00    -0.502 OA
ATOM     23  H   UNL     1     -21.940  -7.257  14.117  1.00  0.00     0.293 HD
ENDBRANCH   2  22
BRANCH   6  24
ATOM     24  O   UNL     1     -21.201 -11.828  11.522  1.00  0.00    -0.507 OA
ATOM     25  H   UNL     1     -22.145 -11.961  11.178  1.00  0.00     0.293 HD
ENDBRANCH   6  24
BRANCH   8  26
ATOM     26  O   UNL     1     -18.027 -11.223   7.938  1.00  0.00    -0.508 OA
ATOM     27  H   UNL     1     -18.111 -12.198   7.677  1.00  0.00     0.293 HD
ENDBRANCH   8  26
TORSDOF 6
ENDMDL
MODEL 2
REMARK VINA RESULT:    14.220      1.311      3.203
REMARK INTER + INTRA:          16.873
REMARK INTER:                  17.076
REMARK INTRA:                  -0.203
REMARK UNBOUND:                -0.256
REMARK SMILES O=c1c(O)c(-c2ccc(O)c(O)c2)oc2cc(O)cc(O)c12
REMARK SMILES IDX 5 1 3 2 2 3 1 4 22 5 20 6 19 7 17 8 16 9 15 10 14 11 6 12
REMARK SMILES IDX 7 13 8 14 9 15 13 16 11 17 10 18 12 20 4 22 21 24 18 26
REMARK H PARENT 10 19 12 21 4 23 21 25 18 27
REMARK Flexibility Score: inf
ROOT
ATOM      1  C   UNL     1     -18.811  -7.050  11.343  1.00  0.00     0.180 A 
ATOM      2  C   UNL     1     -17.964  -7.428  10.284  1.00  0.00     0.208 A 
ATOM      3  C   UNL     1     -18.086  -8.718   9.745  1.00  0.00     0.238 A 
ATOM      4  O   UNL     1     -17.325  -9.072   8.803  1.00  0.00    -0.285 OA
ATOM      5  C   UNL     1     -19.061  -9.599  10.258  1.00  0.00     0.111 A 
ATOM      6  C   UNL     1     -19.250 -10.914   9.769  1.00  0.00     0.134 A 
ATOM      7  C   UNL     1     -20.249 -11.726  10.327  1.00  0.00     0.093 A 
ATOM      8  C   UNL     1     -21.059 -11.251  11.360  1.00  0.00     0.123 A 
ATOM      9  C   UNL     1     -20.876  -9.952  11.847  1.00  0.00     0.094 A 
ATOM     10  C   UNL     1     -19.886  -9.128  11.307  1.00  0.00     0.146 A 
ATOM     11  O   UNL     1     -19.729  -7.901  11.791  1.00  0.00    -0.452 OA
ENDROOT
BRANCH   1  12
ATOM     12  C   UNL     1     -18.732  -5.714  11.976  1.00  0.00     0.025 A 
ATOM     13  C   UNL     1     -17.597  -5.316  12.705  1.00  0.00     0.016 A 
ATOM     14  C   UNL     1     -17.554  -4.059  13.314  1.00  0.00     0.051 A 
ATOM     15  C   UNL     1     -18.643  -3.189  13.217  1.00  0.00     0.157 A 
ATOM     16  C   UNL     1     -19.832  -4.845  11.899  1.00  0.00     0.062 A 
ATOM     17  C   UNL     1     -19.791  -3.583  12.508  1.00  0.00     0.158 A 
BRANCH  15  18
ATOM     18  O   UNL     1     -18.571  -1.940  13.834  1.00  0.00    -0.504 OA
ATOM     19  H   UNL     1     -19.341  -1.559  14.371  1.00  0.00     0.293 HD
ENDBRANCH  15  18
BRANCH  17  20
ATOM     20  O   UNL     1     -20.884  -2.723  12.414  1.00  0.00    -0.504 OA
ATOM     21  H   UNL     1     -21.731  -2.880  12.948  1.00  0.00     0.293 HD
ENDBRANCH  17  20
ENDBRANCH   1  12
BRANCH   2  22
ATOM     22  O   UNL     1     -17.040  -6.520   9.760  1.00  0.00    -0.502 OA
ATOM     23  H   UNL     1     -17.200  -5.520   9.765  1.00  0.00     0.293 HD
ENDBRANCH   2  22
BRANCH   6  24
ATOM     24  O   UNL     1     -18.457 -11.418   8.737  1.00  0.00    -0.507 OA
ATOM     25  H   UNL     1     -18.758 -12.200   8.167  1.00  0.00     0.293 HD
ENDBRANCH   6  24
BRANCH   8  26
ATOM     26  O   UNL     1     -22.044 -12.077  11.896  1.00  0.00    -0.508 OA
ATOM     27  H   UNL     1     -22.308 -12.023  12.873  1.00  0.00     0.293 HD
ENDBRANCH   8  26
TORSDOF 6
ENDMDL
MODEL 3
REMARK VINA RESULT:    15.998      8.812     11.658
REMARK INTER + INTRA:          19.016
REMARK INTER:                  19.287
REMARK INTRA:                  -0.271
REMARK UNBOUND:                -0.256
REMARK SMILES O=c1c(O)c(-c2ccc(O)c(O)c2)oc2cc(O)cc(O)c12
REMARK SMILES IDX 5 1 3 2 2 3 1 4 22 5 20 6 19 7 17 8 16 9 15 10 14 11 6 12
REMARK SMILES IDX 7 13 8 14 9 15 13 16 11 17 10 18 12 20 4 22 21 24 18 26
REMARK H PARENT 10 19 12 21 4 23 21 25 18 27
REMARK Flexibility Score: inf
ROOT
ATOM      1  C   UNL     1     -20.706   2.865  13.186  1.00  0.00     0.180 A 
ATOM      2  C   UNL     1     -20.214   4.008  13.843  1.00  0.00     0.208 A 
ATOM      3  C   UNL     1     -18.972   3.934  14.494  1.00  0.00     0.238 A 
ATOM      4  O   UNL     1     -18.525   4.950  15.095  1.00  0.00    -0.285 OA
ATOM      5  C   UNL     1     -18.237   2.731  14.460  1.00  0.00     0.111 A 
ATOM      6  C   UNL     1     -16.977   2.575  15.087  1.00  0.00     0.134 A 
ATOM      7  C   UNL     1     -16.305   1.347  15.000  1.00  0.00     0.093 A 
ATOM      8  C   UNL     1     -16.865   0.276  14.302  1.00  0.00     0.123 A 
ATOM      9  C   UNL     1     -18.110   0.424  13.680  1.00  0.00     0.094 A 
ATOM     10  C   UNL     1     -18.797   1.638  13.756  1.00  0.00     0.146 A 
ATOM     11  O   UNL     1     -19.980   1.751  13.163  1.00  0.00    -0.452 OA
ENDROOT
BRANCH   1  12
ATOM     12  C   UNL     1     -22.015   2.857  12.494  1.00  0.00     0.025 A 
ATOM     13  C   UNL     1     -22.103   2.968  11.095  1.00  0.00     0.016 A 
ATOM     14  C   UNL     1     -23.350   2.982  10.465  1.00  0.00     0.051 A 
ATOM     15  C   UNL     1     -24.525   2.898  11.218  1.00  0.00     0.157 A 
ATOM     16  C   UNL     1     -23.197   2.794  13.249  1.00  0.00     0.062 A 
ATOM     17  C   UNL     1     -24.450   2.806  12.618  1.00  0.00     0.158 A 
BRANCH  15  18
ATOM     18  O   UNL     1     -25.755   2.913  10.561  1.00  0.00    -0.504 OA
ATOM     19  H   UNL     1     -26.179   3.771  10.231  1.00  0.00     0.293 HD
ENDBRANCH  15  18
BRANCH  17  20
ATOM     20  O   UNL     1     -25.617   2.730  13.377  1.00  0.00    -0.504 OA
ATOM     21  H   UNL     1     -25.822   1.925  13.957  1.00  0.00     0.293 HD
ENDBRANCH  17  20
ENDBRANCH   1  12
BRANCH   2  22
ATOM     22  O   UNL     1     -20.937   5.203  13.819  1.00  0.00    -0.502 OA
ATOM     23  H   UNL     1     -20.701   5.992  14.408  1.00  0.00     0.293 HD
ENDBRANCH   2  22
BRANCH   6  24
ATOM     24  O   UNL     1     -16.391   3.627  15.792  1.00  0.00    -0.507 OA
ATOM     25  H   UNL     1     -15.632   4.173  15.400  1.00  0.00     0.293 HD
ENDBRANCH   6  24
BRANCH   8  26
ATOM     26  O   UNL     1     -16.176  -0.933  14.230  1.00  0.00    -0.508 OA
ATOM     27  H   UNL     1     -15.285  -1.008  13.755  1.00  0.00     0.293 HD
ENDBRANCH   8  26
TORSDOF 6
ENDMDL
