MODEL 1
REMARK VINA RESULT:    -7.045      0.000      0.000
REMARK INTER + INTRA:          -8.458
REMARK INTER:                  -8.281
REMARK INTRA:                  -0.177
REMARK UNBOUND:                -0.177
REMARK SMILES O=c1c(O)c(-c2ccc(O)cc2)oc2cc(O)cc(O)c12
REMARK SMILES IDX 5 1 3 2 2 3 1 4 21 5 19 6 18 7 16 8 15 9 14 10 13 11 6 12
REMARK SMILES IDX 7 13 8 14 9 15 12 16 11 17 10 18 4 20 20 22 17 24
REMARK H PARENT 10 19 4 21 20 23 17 25
REMARK Flexibility Score: inf
ROOT
ATOM      1  C   UNL     1      17.321  -1.607  10.224  1.00  0.00     0.180 A 
ATOM      2  C   UNL     1      16.091  -1.578  10.905  1.00  0.00     0.208 A 
ATOM      3  C   UNL     1      14.908  -1.807  10.183  1.00  0.00     0.238 A 
ATOM      4  O   UNL     1      13.815  -1.833  10.807  1.00  0.00    -0.285 OA
ATOM      5  C   UNL     1      14.968  -2.044   8.788  1.00  0.00     0.111 A 
ATOM      6  C   UNL     1      13.830  -2.248   7.952  1.00  0.00     0.134 A 
ATOM      7  C   UNL     1      14.015  -2.605   6.610  1.00  0.00     0.093 A 
ATOM      8  C   UNL     1      15.292  -2.700   6.060  1.00  0.00     0.123 A 
ATOM      9  C   UNL     1      16.410  -2.445   6.855  1.00  0.00     0.094 A 
ATOM     10  C   UNL     1      16.259  -2.123   8.205  1.00  0.00     0.146 A 
ATOM     11  O   UNL     1      17.350  -1.897   8.929  1.00  0.00    -0.452 OA
ENDROOT
BRANCH   1  12
ATOM     12  C   UNL     1      18.608  -1.351  10.911  1.00  0.00     0.021 A 
ATOM     13  C   UNL     1      19.140  -2.269  11.838  1.00  0.00     0.016 A 
ATOM     14  C   UNL     1      20.344  -1.993  12.491  1.00  0.00     0.047 A 
ATOM     15  C   UNL     1      21.025  -0.799  12.241  1.00  0.00     0.115 A 
ATOM     16  C   UNL     1      19.288  -0.144  10.680  1.00  0.00     0.016 A 
ATOM     17  C   UNL     1      20.493   0.128  11.335  1.00  0.00     0.047 A 
BRANCH  15  18
ATOM     18  O   UNL     1      22.225  -0.540  12.900  1.00  0.00    -0.508 OA
ATOM     19  H   UNL     1      22.983  -1.212  12.904  1.00  0.00     0.293 HD
ENDBRANCH  15  18
ENDBRANCH   1  12
BRANCH   2  20
ATOM     20  O   UNL     1      16.057  -1.363  12.286  1.00  0.00    -0.502 OA
ATOM     21  H   UNL     1      16.272  -0.465  12.702  1.00  0.00     0.293 HD
ENDBRANCH   2  20
BRANCH   6  22
ATOM     22  O   UNL     1      12.509  -2.087   8.379  1.00  0.00    -0.507 OA
ATOM     23  H   UNL     1      11.699  -2.424   7.882  1.00  0.00     0.293 HD
ENDBRANCH   6  22
BRANCH   8  24
ATOM     24  O   UNL     1      15.437  -3.042   4.717  1.00  0.00    -0.508 OA
ATOM     25  H   UNL     1      14.637  -3.275   4.140  1.00  0.00     0.293 HD
ENDBRANCH   8  24
TORSDOF 5
ENDMDL
MODEL 2
REMARK VINA RESULT:    -7.024      0.050      1.058
REMARK INTER + INTRA:          -8.433
REMARK INTER:                  -8.259
REMARK INTRA:                  -0.174
REMARK UNBOUND:                -0.177
REMARK SMILES O=c1c(O)c(-c2ccc(O)cc2)oc2cc(O)cc(O)c12
REMARK SMILES IDX 5 1 3 2 2 3 1 4 21 5 19 6 18 7 16 8 15 9 14 10 13 11 6 12
REMARK SMILES IDX 7 13 8 14 9 15 12 16 11 17 10 18 4 20 20 22 17 24
REMARK H PARENT 10 19 4 21 20 23 17 25
REMARK Flexibility Score: inf
ROOT
ATOM      1  C   UNL     1      17.280  -1.574  10.244  1.00  0.00     0.180 A 
ATOM      2  C   UNL     1      16.049  -1.571  10.925  1.00  0.00     0.208 A 
ATOM      3  C   UNL     1      14.871  -1.815  10.201  1.00  0.00     0.238 A 
ATOM      4  O   UNL     1      13.778  -1.865  10.825  1.00  0.00    -0.285 OA
ATOM      5  C   UNL     1      14.935  -2.042   8.805  1.00  0.00     0.111 A 
ATOM      6  C   UNL     1      13.801  -2.261   7.967  1.00  0.00     0.134 A 
ATOM      7  C   UNL     1      13.992  -2.606   6.623  1.00  0.00     0.093 A 
ATOM      8  C   UNL     1      15.271  -2.675   6.072  1.00  0.00     0.123 A 
ATOM      9  C   UNL     1      16.385  -2.405   6.869  1.00  0.00     0.094 A 
ATOM     10  C   UNL     1      16.227  -2.094   8.222  1.00  0.00     0.146 A 
ATOM     11  O   UNL     1      17.314  -1.855   8.947  1.00  0.00    -0.452 OA
ENDROOT
BRANCH   1  12
ATOM     12  C   UNL     1      18.561  -1.300  10.933  1.00  0.00     0.021 A 
ATOM     13  C   UNL     1      19.295  -0.125  10.678  1.00  0.00     0.016 A 
ATOM     14  C   UNL     1      20.515   0.099  11.323  1.00  0.00     0.047 A 
ATOM     15  C   UNL     1      21.024  -0.847  12.217  1.00  0.00     0.115 A 
ATOM     16  C   UNL     1      19.090  -2.255  11.817  1.00  0.00     0.016 A 
ATOM     17  C   UNL     1      20.310  -2.027  12.461  1.00  0.00     0.047 A 
BRANCH  15  18
ATOM     18  O   UNL     1      22.241  -0.608  12.852  1.00  0.00    -0.508 OA
ATOM     19  H   UNL     1      22.366  -0.789  13.842  1.00  0.00     0.293 HD
ENDBRANCH  15  18
ENDBRANCH   1  12
BRANCH   2  20
ATOM     20  O   UNL     1      16.011  -1.366  12.307  1.00  0.00    -0.502 OA
ATOM     21  H   UNL     1      15.991  -2.131  12.970  1.00  0.00     0.293 HD
ENDBRANCH   2  20
BRANCH   6  22
ATOM     22  O   UNL     1      12.477  -2.125   8.394  1.00  0.00    -0.507 OA
ATOM     23  H   UNL     1      12.177  -1.542   9.160  1.00  0.00     0.293 HD
ENDBRANCH   6  22
BRANCH   8  24
ATOM     24  O   UNL     1      15.422  -3.005   4.727  1.00  0.00    -0.508 OA
ATOM     25  H   UNL     1      16.313  -2.905   4.254  1.00  0.00     0.293 HD
ENDBRANCH   8  24
TORSDOF 5
ENDMDL
MODEL 3
REMARK VINA RESULT:    -6.506      1.576      6.838
REMARK INTER + INTRA:          -7.824
REMARK INTER:                  -7.614
REMARK INTRA:                  -0.210
REMARK UNBOUND:                -0.177
REMARK SMILES O=c1c(O)c(-c2ccc(O)cc2)oc2cc(O)cc(O)c12
REMARK SMILES IDX 5 1 3 2 2 3 1 4 21 5 19 6 18 7 16 8 15 9 14 10 13 11 6 12
REMARK SMILES IDX 7 13 8 14 9 15 12 16 11 17 10 18 4 20 20 22 17 24
REMARK H PARENT 10 19 4 21 20 23 17 25
REMARK Flexibility Score: inf
ROOT
ATOM      1  C   UNL     1      17.605  -1.550  10.691  1.00  0.00     0.180 A 
ATOM      2  C   UNL     1      17.686  -2.212  11.929  1.00  0.00     0.208 A 
ATOM      3  C   UNL     1      18.753  -1.911  12.792  1.00  0.00     0.238 A 
ATOM      4  O   UNL     1      18.792  -2.466  13.921  1.00  0.00    -0.285 OA
ATOM      5  C   UNL     1      19.733  -0.966  12.400  1.00  0.00     0.111 A 
ATOM      6  C   UNL     1      20.877  -0.616  13.178  1.00  0.00     0.134 A 
ATOM      7  C   UNL     1      21.708   0.427  12.751  1.00  0.00     0.093 A 
ATOM      8  C   UNL     1      21.476   1.085  11.544  1.00  0.00     0.123 A 
ATOM      9  C   UNL     1      20.394   0.709  10.746  1.00  0.00     0.094 A 
ATOM     10  C   UNL     1      19.525  -0.302  11.164  1.00  0.00     0.146 A 
ATOM     11  O   UNL     1      18.502  -0.622  10.380  1.00  0.00    -0.452 OA
ENDROOT
BRANCH   1  12
ATOM     12  C   UNL     1      16.525  -1.830   9.718  1.00  0.00     0.021 A 
ATOM     13  C   UNL     1      16.777  -2.536   8.525  1.00  0.00     0.016 A 
ATOM     14  C   UNL     1      15.746  -2.767   7.610  1.00  0.00     0.047 A 
ATOM     15  C   UNL     1      14.458  -2.289   7.864  1.00  0.00     0.115 A 
ATOM     16  C   UNL     1      15.232  -1.335   9.956  1.00  0.00     0.016 A 
ATOM     17  C   UNL     1      14.203  -1.569   9.039  1.00  0.00     0.047 A 
BRANCH  15  18
ATOM     18  O   UNL     1      13.440  -2.528   6.944  1.00  0.00    -0.508 OA
ATOM     19  H   UNL     1      13.102  -1.800   6.326  1.00  0.00     0.293 HD
ENDBRANCH  15  18
ENDBRANCH   1  12
BRANCH   2  20
ATOM     20  O   UNL     1      16.697  -3.124  12.305  1.00  0.00    -0.502 OA
ATOM     21  H   UNL     1      15.779  -2.833  12.618  1.00  0.00     0.293 HD
ENDBRANCH   2  20
BRANCH   6  22
ATOM     22  O   UNL     1      21.252  -1.272  14.353  1.00  0.00    -0.507 OA
ATOM     23  H   UNL     1      21.330  -0.833  15.257  1.00  0.00     0.293 HD
ENDBRANCH   6  22
BRANCH   8  24
ATOM     24  O   UNL     1      22.334   2.107  11.143  1.00  0.00    -0.508 OA
ATOM     25  H   UNL     1      23.116   2.398  11.718  1.00  0.00     0.293 HD
ENDBRANCH   8  24
TORSDOF 5
ENDMDL
MODEL 4
REMARK VINA RESULT:    -6.391      3.175      5.452
REMARK INTER + INTRA:          -7.688
REMARK INTER:                  -7.460
REMARK INTRA:                  -0.229
REMARK UNBOUND:                -0.177
REMARK SMILES O=c1c(O)c(-c2ccc(O)cc2)oc2cc(O)cc(O)c12
REMARK SMILES IDX 5 1 3 2 2 3 1 4 21 5 19 6 18 7 16 8 15 9 14 10 13 11 6 12
REMARK SMILES IDX 7 13 8 14 9 15 12 16 11 17 10 18 4 20 20 22 17 24
REMARK H PARENT 10 19 4 21 20 23 17 25
REMARK Flexibility Score: inf
ROOT
ATOM      1  C   UNL     1      13.671  -1.994  11.191  1.00  0.00     0.180 A 
ATOM      2  C   UNL     1      15.022  -1.662  10.984  1.00  0.00     0.208 A 
ATOM      3  C   UNL     1      15.544  -1.718   9.682  1.00  0.00     0.238 A 
ATOM      4  O   UNL     1      16.739  -1.367   9.495  1.00  0.00    -0.285 OA
ATOM      5  C   UNL     1      14.717  -2.122   8.606  1.00  0.00     0.111 A 
ATOM      6  C   UNL     1      15.153  -2.253   7.253  1.00  0.00     0.134 A 
ATOM      7  C   UNL     1      14.215  -2.532   6.251  1.00  0.00     0.093 A 
ATOM      8  C   UNL     1      12.873  -2.750   6.559  1.00  0.00     0.123 A 
ATOM      9  C   UNL     1      12.448  -2.682   7.887  1.00  0.00     0.094 A 
ATOM     10  C   UNL     1      13.352  -2.370   8.904  1.00  0.00     0.146 A 
ATOM     11  O   UNL     1      12.903  -2.305  10.153  1.00  0.00    -0.452 OA
ENDROOT
BRANCH   1  12
ATOM     12  C   UNL     1      13.054  -1.983  12.536  1.00  0.00     0.021 A 
ATOM     13  C   UNL     1      13.357  -2.973  13.491  1.00  0.00     0.016 A 
ATOM     14  C   UNL     1      12.743  -2.954  14.747  1.00  0.00     0.047 A 
ATOM     15  C   UNL     1      11.813  -1.961  15.061  1.00  0.00     0.115 A 
ATOM     16  C   UNL     1      12.103  -0.999  12.853  1.00  0.00     0.016 A 
ATOM     17  C   UNL     1      11.491  -0.983  14.111  1.00  0.00     0.047 A 
BRANCH  15  18
ATOM     18  O   UNL     1      11.210  -1.955  16.317  1.00  0.00    -0.508 OA
ATOM     19  H   UNL     1      10.818  -2.798  16.721  1.00  0.00     0.293 HD
ENDBRANCH  15  18
ENDBRANCH   1  12
BRANCH   2  20
ATOM     20  O   UNL     1      15.815  -1.245  12.056  1.00  0.00    -0.502 OA
ATOM     21  H   UNL     1      16.120  -1.879  12.785  1.00  0.00     0.293 HD
ENDBRANCH   2  20
BRANCH   6  22
ATOM     22  O   UNL     1      16.486  -2.147   6.850  1.00  0.00    -0.507 OA
ATOM     23  H   UNL     1      16.799  -1.670   6.018  1.00  0.00     0.293 HD
ENDBRANCH   6  22
BRANCH   8  24
ATOM     24  O   UNL     1      11.972  -3.041   5.537  1.00  0.00    -0.508 OA
ATOM     25  H   UNL     1      11.896  -2.453   4.715  1.00  0.00     0.293 HD
ENDBRANCH   8  24
TORSDOF 5
ENDMDL
MODEL 5
REMARK VINA RESULT:    -6.105      4.794      7.408
REMARK INTER + INTRA:          -7.353
REMARK INTER:                  -7.066
REMARK INTRA:                  -0.287
REMARK UNBOUND:                -0.177
REMARK SMILES O=c1c(O)c(-c2ccc(O)cc2)oc2cc(O)cc(O)c12
REMARK SMILES IDX 5 1 3 2 2 3 1 4 21 5 19 6 18 7 16 8 15 9 14 10 13 11 6 12
REMARK SMILES IDX 7 13 8 14 9 15 12 16 11 17 10 18 4 20 20 22 17 24
REMARK H PARENT 10 19 4 21 20 23 17 25
REMARK Flexibility Score: inf
ROOT
ATOM      1  C   UNL     1      20.969  -0.748  15.642  1.00  0.00     0.180 A 
ATOM      2  C   UNL     1      19.921  -1.566  15.182  1.00  0.00     0.208 A 
ATOM      3  C   UNL     1      19.467  -1.413  13.862  1.00  0.00     0.238 A 
ATOM      4  O   UNL     1      18.567  -2.185  13.439  1.00  0.00    -0.285 OA
ATOM      5  C   UNL     1      20.054  -0.434  13.024  1.00  0.00     0.111 A 
ATOM      6  C   UNL     1      19.645  -0.166  11.683  1.00  0.00     0.134 A 
ATOM      7  C   UNL     1      20.383   0.734  10.904  1.00  0.00     0.093 A 
ATOM      8  C   UNL     1      21.472   1.423  11.436  1.00  0.00     0.123 A 
ATOM      9  C   UNL     1      21.843   1.213  12.765  1.00  0.00     0.094 A 
ATOM     10  C   UNL     1      21.149   0.294  13.556  1.00  0.00     0.146 A 
ATOM     11  O   UNL     1      21.542   0.115  14.812  1.00  0.00    -0.452 OA
ENDROOT
BRANCH   1  12
ATOM     12  C   UNL     1      21.485  -0.833  17.027  1.00  0.00     0.021 A 
ATOM     13  C   UNL     1      20.842  -0.171  18.091  1.00  0.00     0.016 A 
ATOM     14  C   UNL     1      21.362  -0.246  19.386  1.00  0.00     0.047 A 
ATOM     15  C   UNL     1      22.533  -0.968  19.635  1.00  0.00     0.115 A 
ATOM     16  C   UNL     1      22.672  -1.539  17.281  1.00  0.00     0.016 A 
ATOM     17  C   UNL     1      23.189  -1.613  18.578  1.00  0.00     0.047 A 
BRANCH  15  18
ATOM     18  O   UNL     1      23.038  -1.035  20.931  1.00  0.00    -0.508 OA
ATOM     19  H   UNL     1      23.681  -1.766  21.212  1.00  0.00     0.293 HD
ENDBRANCH  15  18
ENDBRANCH   1  12
BRANCH   2  20
ATOM     20  O   UNL     1      19.371  -2.541  16.020  1.00  0.00    -0.502 OA
ATOM     21  H   UNL     1      19.266  -2.403  17.018  1.00  0.00     0.293 HD
ENDBRANCH   2  20
BRANCH   6  22
ATOM     22  O   UNL     1      18.516  -0.731  11.084  1.00  0.00    -0.507 OA
ATOM     23  H   UNL     1      17.689  -1.026  11.579  1.00  0.00     0.293 HD
ENDBRANCH   6  22
BRANCH   8  24
ATOM     24  O   UNL     1      22.173   2.323  10.636  1.00  0.00    -0.508 OA
ATOM     25  H   UNL     1      22.845   2.007   9.947  1.00  0.00     0.293 HD
ENDBRANCH   8  24
TORSDOF 5
ENDMDL
MODEL 6
REMARK VINA RESULT:    -5.994      1.538      2.223
REMARK INTER + INTRA:          -7.222
REMARK INTER:                  -7.253
REMARK INTRA:                   0.031
REMARK UNBOUND:                -0.177
REMARK SMILES O=c1c(O)c(-c2ccc(O)cc2)oc2cc(O)cc(O)c12
REMARK SMILES IDX 5 1 3 2 2 3 1 4 21 5 19 6 18 7 16 8 15 9 14 10 13 11 6 12
REMARK SMILES IDX 7 13 8 14 9 15 12 16 11 17 10 18 4 20 20 22 17 24
REMARK H PARENT 10 19 4 21 20 23 17 25
REMARK Flexibility Score: inf
ROOT
ATOM      1  C   UNL     1      18.400  -1.148  11.586  1.00  0.00     0.180 A 
ATOM      2  C   UNL     1      17.552  -1.596  12.614  1.00  0.00     0.208 A 
ATOM      3  C   UNL     1      16.314  -2.165  12.275  1.00  0.00     0.238 A 
ATOM      4  O   UNL     1      15.583  -2.613  13.197  1.00  0.00    -0.285 OA
ATOM      5  C   UNL     1      15.932  -2.265  10.916  1.00  0.00     0.111 A 
ATOM      6  C   UNL     1      14.684  -2.788  10.461  1.00  0.00     0.134 A 
ATOM      7  C   UNL     1      14.468  -2.960   9.088  1.00  0.00     0.093 A 
ATOM      8  C   UNL     1      15.425  -2.568   8.153  1.00  0.00     0.123 A 
ATOM      9  C   UNL     1      16.624  -2.001   8.585  1.00  0.00     0.094 A 
ATOM     10  C   UNL     1      16.884  -1.850   9.949  1.00  0.00     0.146 A 
ATOM     11  O   UNL     1      18.043  -1.315  10.318  1.00  0.00    -0.452 OA
ENDROOT
BRANCH   1  12
ATOM     12  C   UNL     1      19.709  -0.514  11.864  1.00  0.00     0.021 A 
ATOM     13  C   UNL     1      20.656  -1.126  12.709  1.00  0.00     0.016 A 
ATOM     14  C   UNL     1      21.875  -0.496  12.975  1.00  0.00     0.047 A 
ATOM     15  C   UNL     1      22.160   0.752  12.417  1.00  0.00     0.115 A 
ATOM     16  C   UNL     1      19.995   0.750  11.323  1.00  0.00     0.016 A 
ATOM     17  C   UNL     1      21.216   1.377  11.591  1.00  0.00     0.047 A 
BRANCH  15  18
ATOM     18  O   UNL     1      23.380   1.367  12.691  1.00  0.00    -0.508 OA
ATOM     19  H   UNL     1      23.451   2.131  13.353  1.00  0.00     0.293 HD
ENDBRANCH  15  18
ENDBRANCH   1  12
BRANCH   2  20
ATOM     20  O   UNL     1      17.958  -1.507  13.949  1.00  0.00    -0.502 OA
ATOM     21  H   UNL     1      18.389  -2.282  14.439  1.00  0.00     0.293 HD
ENDBRANCH   2  20
BRANCH   6  22
ATOM     22  O   UNL     1      13.625  -3.125  11.308  1.00  0.00    -0.507 OA
ATOM     23  H   UNL     1      13.678  -3.147  12.314  1.00  0.00     0.293 HD
ENDBRANCH   6  22
BRANCH   8  24
ATOM     24  O   UNL     1      15.168  -2.740   6.794  1.00  0.00    -0.508 OA
ATOM     25  H   UNL     1      14.380  -2.291   6.344  1.00  0.00     0.293 HD
ENDBRANCH   8  24
TORSDOF 5
ENDMDL
MODEL 7
REMARK VINA RESULT:    -5.946      3.167      6.554
REMARK INTER + INTRA:          -7.165
REMARK INTER:                  -7.598
REMARK INTRA:                   0.433
REMARK UNBOUND:                -0.177
REMARK SMILES O=c1c(O)c(-c2ccc(O)cc2)oc2cc(O)cc(O)c12
REMARK SMILES IDX 5 1 3 2 2 3 1 4 21 5 19 6 18 7 16 8 15 9 14 10 13 11 6 12
REMARK SMILES IDX 7 13 8 14 9 15 12 16 11 17 10 18 4 20 20 22 17 24
REMARK H PARENT 10 19 4 21 20 23 17 25
REMARK Flexibility Score: inf
ROOT
ATOM      1  C   UNL     1      14.177  -2.140   9.952  1.00  0.00     0.180 A 
ATOM      2  C   UNL     1      15.076  -1.561  10.865  1.00  0.00     0.208 A 
ATOM      3  C   UNL     1      14.658  -1.348  12.189  1.00  0.00     0.238 A 
ATOM      4  O   UNL     1      15.484  -0.879  13.016  1.00  0.00    -0.285 OA
ATOM      5  C   UNL     1      13.343  -1.700  12.578  1.00  0.00     0.111 A 
ATOM      6  C   UNL     1      12.801  -1.491  13.882  1.00  0.00     0.134 A 
ATOM      7  C   UNL     1      11.533  -1.999  14.191  1.00  0.00     0.093 A 
ATOM      8  C   UNL     1      10.762  -2.647  13.228  1.00  0.00     0.123 A 
ATOM      9  C   UNL     1      11.258  -2.804  11.933  1.00  0.00     0.094 A 
ATOM     10  C   UNL     1      12.535  -2.341  11.604  1.00  0.00     0.146 A 
ATOM     11  O   UNL     1      12.974  -2.520  10.364  1.00  0.00    -0.452 OA
ENDROOT
BRANCH   1  12
ATOM     12  C   UNL     1      14.536  -2.373   8.534  1.00  0.00     0.021 A 
ATOM     13  C   UNL     1      15.879  -2.387   8.110  1.00  0.00     0.016 A 
ATOM     14  C   UNL     1      16.191  -2.586   6.762  1.00  0.00     0.047 A 
ATOM     15  C   UNL     1      15.173  -2.757   5.821  1.00  0.00     0.115 A 
ATOM     16  C   UNL     1      13.518  -2.526   7.579  1.00  0.00     0.016 A 
ATOM     17  C   UNL     1      13.834  -2.725   6.231  1.00  0.00     0.047 A 
BRANCH  15  18
ATOM     18  O   UNL     1      15.500  -2.955   4.481  1.00  0.00    -0.508 OA
ATOM     19  H   UNL     1      16.270  -2.461   4.045  1.00  0.00     0.293 HD
ENDBRANCH  15  18
ENDBRANCH   1  12
BRANCH   2  20
ATOM     20  O   UNL     1      16.376  -1.240  10.465  1.00  0.00    -0.502 OA
ATOM     21  H   UNL     1      17.056  -1.947  10.209  1.00  0.00     0.293 HD
ENDBRANCH   2  20
BRANCH   6  22
ATOM     22  O   UNL     1      13.450  -0.775  14.891  1.00  0.00    -0.507 OA
ATOM     23  H   UNL     1      13.910   0.113  14.762  1.00  0.00     0.293 HD
ENDBRANCH   6  22
BRANCH   8  24
ATOM     24  O   UNL     1       9.498  -3.125  13.567  1.00  0.00    -0.508 OA
ATOM     25  H   UNL     1       8.798  -3.318  12.860  1.00  0.00     0.293 HD
ENDBRANCH   8  24
TORSDOF 5
ENDMDL
MODEL 8
REMARK VINA RESULT:    -5.825      3.469      5.063
REMARK INTER + INTRA:          -7.024
REMARK INTER:                  -6.724
REMARK INTRA:                  -0.300
REMARK UNBOUND:                -0.177
REMARK SMILES O=c1c(O)c(-c2ccc(O)cc2)oc2cc(O)cc(O)c12
REMARK SMILES IDX 5 1 3 2 2 3 1 4 21 5 19 6 18 7 16 8 15 9 14 10 13 11 6 12
REMARK SMILES IDX 7 13 8 14 9 15 12 16 11 17 10 18 4 20 20 22 17 24
REMARK H PARENT 10 19 4 21 20 23 17 25
REMARK Flexibility Score: inf
ROOT
ATOM      1  C   UNL     1      17.132  -1.103  13.545  1.00  0.00     0.180 A 
ATOM      2  C   UNL     1      16.949  -1.714  12.291  1.00  0.00     0.208 A 
ATOM      3  C   UNL     1      15.645  -2.007  11.862  1.00  0.00     0.238 A 
ATOM      4  O   UNL     1      15.484  -2.503  10.715  1.00  0.00    -0.285 OA
ATOM      5  C   UNL     1      14.542  -1.702  12.696  1.00  0.00     0.111 A 
ATOM      6  C   UNL     1      13.181  -1.992  12.377  1.00  0.00     0.134 A 
ATOM      7  C   UNL     1      12.162  -1.527  13.218  1.00  0.00     0.093 A 
ATOM      8  C   UNL     1      12.456  -0.842  14.396  1.00  0.00     0.123 A 
ATOM      9  C   UNL     1      13.786  -0.606  14.747  1.00  0.00     0.094 A 
ATOM     10  C   UNL     1      14.823  -1.025  13.910  1.00  0.00     0.146 A 
ATOM     11  O   UNL     1      16.074  -0.770  14.276  1.00  0.00    -0.452 OA
ENDROOT
BRANCH   1  12
ATOM     12  C   UNL     1      18.476  -0.787  14.078  1.00  0.00     0.021 A 
ATOM     13  C   UNL     1      19.211  -1.729  14.824  1.00  0.00     0.016 A 
ATOM     14  C   UNL     1      20.468  -1.397  15.338  1.00  0.00     0.047 A 
ATOM     15  C   UNL     1      21.002  -0.124  15.128  1.00  0.00     0.115 A 
ATOM     16  C   UNL     1      19.011   0.498  13.889  1.00  0.00     0.016 A 
ATOM     17  C   UNL     1      20.269   0.826  14.404  1.00  0.00     0.047 A 
BRANCH  15  18
ATOM     18  O   UNL     1      22.256   0.191  15.645  1.00  0.00    -0.508 OA
ATOM     19  H   UNL     1      22.943   0.697  15.098  1.00  0.00     0.293 HD
ENDBRANCH  15  18
ENDBRANCH   1  12
BRANCH   2  20
ATOM     20  O   UNL     1      18.050  -1.986  11.475  1.00  0.00    -0.502 OA
ATOM     21  H   UNL     1      17.960  -2.442  10.575  1.00  0.00     0.293 HD
ENDBRANCH   2  20
BRANCH   6  22
ATOM     22  O   UNL     1      12.783  -2.749  11.272  1.00  0.00    -0.507 OA
ATOM     23  H   UNL     1      12.522  -2.366  10.377  1.00  0.00     0.293 HD
ENDBRANCH   6  22
BRANCH   8  24
ATOM     24  O   UNL     1      11.416  -0.408  15.216  1.00  0.00    -0.508 OA
ATOM     25  H   UNL     1      10.587   0.030  14.832  1.00  0.00     0.293 HD
ENDBRANCH   8  24
TORSDOF 5
ENDMDL
MODEL 9
REMARK VINA RESULT:    -5.790      4.044      7.491
REMARK INTER + INTRA:          -6.982
REMARK INTER:                  -6.734
REMARK INTRA:                  -0.248
REMARK UNBOUND:                -0.177
REMARK SMILES O=c1c(O)c(-c2ccc(O)cc2)oc2cc(O)cc(O)c12
REMARK SMILES IDX 5 1 3 2 2 3 1 4 21 5 19 6 18 7 16 8 15 9 14 10 13 11 6 12
REMARK SMILES IDX 7 13 8 14 9 15 12 16 11 17 10 18 4 20 20 22 17 24
REMARK H PARENT 10 19 4 21 20 23 17 25
REMARK Flexibility Score: inf
ROOT
ATOM      1  C   UNL     1      17.266  -0.962  13.781  1.00  0.00     0.180 A 
ATOM      2  C   UNL     1      17.540  -1.511  12.515  1.00  0.00     0.208 A 
ATOM      3  C   UNL     1      18.680  -1.079  11.818  1.00  0.00     0.238 A 
ATOM      4  O   UNL     1      18.949  -1.614  10.710  1.00  0.00    -0.285 OA
ATOM      5  C   UNL     1      19.522  -0.093  12.386  1.00  0.00     0.111 A 
ATOM      6  C   UNL     1      20.681   0.447  11.751  1.00  0.00     0.134 A 
ATOM      7  C   UNL     1      21.513   1.321  12.461  1.00  0.00     0.093 A 
ATOM      8  C   UNL     1      21.194   1.727  13.756  1.00  0.00     0.123 A 
ATOM      9  C   UNL     1      20.031   1.252  14.365  1.00  0.00     0.094 A 
ATOM     10  C   UNL     1      19.201   0.349  13.696  1.00  0.00     0.146 A 
ATOM     11  O   UNL     1      18.110  -0.087  14.315  1.00  0.00    -0.452 OA
ENDROOT
BRANCH   1  12
ATOM     12  C   UNL     1      16.071  -1.347  14.565  1.00  0.00     0.021 A 
ATOM     13  C   UNL     1      14.788  -0.876  14.226  1.00  0.00     0.016 A 
ATOM     14  C   UNL     1      13.678  -1.235  14.997  1.00  0.00     0.047 A 
ATOM     15  C   UNL     1      13.834  -2.054  16.119  1.00  0.00     0.115 A 
ATOM     16  C   UNL     1      16.222  -2.153  15.706  1.00  0.00     0.016 A 
ATOM     17  C   UNL     1      15.110  -2.511  16.474  1.00  0.00     0.047 A 
BRANCH  15  18
ATOM     18  O   UNL     1      12.719  -2.404  16.877  1.00  0.00    -0.508 OA
ATOM     19  H   UNL     1      12.501  -3.372  17.083  1.00  0.00     0.293 HD
ENDBRANCH  15  18
ENDBRANCH   1  12
BRANCH   2  20
ATOM     20  O   UNL     1      16.707  -2.499  11.983  1.00  0.00    -0.502 OA
ATOM     21  H   UNL     1      16.935  -3.485  12.028  1.00  0.00     0.293 HD
ENDBRANCH   2  20
BRANCH   6  22
ATOM     22  O   UNL     1      21.040   0.179  10.427  1.00  0.00    -0.507 OA
ATOM     23  H   UNL     1      21.603   0.785   9.851  1.00  0.00     0.293 HD
ENDBRANCH   6  22
BRANCH   8  24
ATOM     24  O   UNL     1      22.037   2.611  14.426  1.00  0.00    -0.508 OA
ATOM     25  H   UNL     1      22.847   2.284  14.939  1.00  0.00     0.293 HD
ENDBRANCH   8  24
TORSDOF 5
ENDMDL
