MODEL 1
REMARK VINA RESULT:    -4.226      0.000      0.000
REMARK INTER + INTRA:         -12.512
REMARK INTER:                  -9.167
REMARK INTRA:                  -3.345
REMARK UNBOUND:                -3.345
REMARK SMILES CCCCCCCCCCCCCCCCCCCCCC(=O)[O-]
REMARK SMILES IDX 12 1 11 2 10 3 9 4 8 5 7 6 6 7 5 8 4 9 3 10 2 11 1 12 13 13
REMARK SMILES IDX 14 14 15 15 16 16 17 17 18 18 19 19 20 20 21 21 22 22 23 23
REMARK SMILES IDX 24 24
REMARK H PARENT
REMARK Flexibility Score: inf
ROOT
ATOM      1  C   UNL     1      -1.751  44.608  21.857  1.00  0.00     0.000 C 
ENDROOT
BRANCH   1   2
ATOM      2  C   UNL     1      -2.294  44.235  20.468  1.00  0.00     0.000 C 
BRANCH   2   3
ATOM      3  C   UNL     1      -3.574  45.005  20.101  1.00  0.00     0.000 C 
BRANCH   3   4
ATOM      4  C   UNL     1      -4.849  44.229  20.493  1.00  0.00    -0.000 C 
BRANCH   4   5
ATOM      5  C   UNL     1      -4.747  42.713  20.256  1.00  0.00    -0.000 C 
BRANCH   5   6
ATOM      6  C   UNL     1      -5.236  41.884  21.454  1.00  0.00    -0.000 C 
BRANCH   6   7
ATOM      7  C   UNL     1      -4.203  41.815  22.594  1.00  0.00    -0.000 C 
BRANCH   7   8
ATOM      8  C   UNL     1      -4.760  42.267  23.961  1.00  0.00    -0.000 C 
BRANCH   8   9
ATOM      9  C   UNL     1      -4.054  43.530  24.486  1.00  0.00    -0.000 C 
BRANCH   9  10
ATOM     10  C   UNL     1      -4.761  44.825  24.059  1.00  0.00    -0.000 C 
BRANCH  10  11
ATOM     11  C   UNL     1      -3.916  46.079  24.323  1.00  0.00    -0.003 C 
ATOM     12  C   UNL     1      -4.099  47.109  23.213  1.00  0.00     0.004 C 
ENDBRANCH  10  11
ENDBRANCH   9  10
ENDBRANCH   8   9
ENDBRANCH   7   8
ENDBRANCH   6   7
ENDBRANCH   5   6
ENDBRANCH   4   5
ENDBRANCH   3   4
ENDBRANCH   2   3
ENDBRANCH   1   2
BRANCH   1  13
ATOM     13  C   UNL     1      -0.870  43.508  22.489  1.00  0.00     0.000 C 
BRANCH  13  14
ATOM     14  C   UNL     1      -0.378  43.897  23.891  1.00  0.00     0.000 C 
BRANCH  14  15
ATOM     15  C   UNL     1      -0.661  42.782  24.908  1.00  0.00     0.000 C 
BRANCH  15  16
ATOM     16  C   UNL     1      -0.867  41.434  24.201  1.00  0.00     0.000 C 
BRANCH  16  17
ATOM     17  C   UNL     1      -1.559  40.395  25.096  1.00  0.00     0.000 C 
BRANCH  17  18
ATOM     18  C   UNL     1      -1.376  40.693  26.593  1.00  0.00     0.000 C 
BRANCH  18  19
ATOM     19  C   UNL     1      -2.167  39.732  27.498  1.00  0.00     0.000 C 
BRANCH  19  20
ATOM     20  C   UNL     1      -1.495  39.403  28.848  1.00  0.00     0.006 C 
BRANCH  20  21
ATOM     21  C   UNL     1      -2.153  38.253  29.626  1.00  0.00     0.053 C 
BRANCH  21  22
ATOM     22  C   UNL     1      -1.293  37.027  29.654  1.00  0.00     0.041 C 
ATOM     23  O   UNL     1      -0.054  37.125  29.856  1.00  0.00    -0.550 OA
ATOM     24  O   UNL     1      -1.865  35.772  29.488  1.00  0.00    -0.550 OA
ENDBRANCH  21  22
ENDBRANCH  20  21
ENDBRANCH  19  20
ENDBRANCH  18  19
ENDBRANCH  17  18
ENDBRANCH  16  17
ENDBRANCH  15  16
ENDBRANCH  14  15
ENDBRANCH  13  14
ENDBRANCH   1  13
TORSDOF 20
ENDMDL
MODEL 2
REMARK VINA RESULT:    -4.222      2.157      2.942
REMARK INTER + INTRA:         -12.504
REMARK INTER:                  -8.741
REMARK INTRA:                  -3.763
REMARK UNBOUND:                -3.345
REMARK SMILES CCCCCCCCCCCCCCCCCCCCCC(=O)[O-]
REMARK SMILES IDX 12 1 11 2 10 3 9 4 8 5 7 6 6 7 5 8 4 9 3 10 2 11 1 12 13 13
REMARK SMILES IDX 14 14 15 15 16 16 17 17 18 18 19 19 20 20 21 21 22 22 23 23
REMARK SMILES IDX 24 24
REMARK H PARENT
REMARK Flexibility Score: inf
ROOT
ATOM      1  C   UNL     1      -2.655  44.827  20.246  1.00  0.00     0.000 C 
ENDROOT
BRANCH   1   2
ATOM      2  C   UNL     1      -3.995  45.050  19.526  1.00  0.00     0.000 C 
BRANCH   2   3
ATOM      3  C   UNL     1      -4.723  43.735  19.201  1.00  0.00     0.000 C 
BRANCH   3   4
ATOM      4  C   UNL     1      -5.527  43.205  20.407  1.00  0.00    -0.000 C 
BRANCH   4   5
ATOM      5  C   UNL     1      -4.998  41.871  20.962  1.00  0.00    -0.000 C 
BRANCH   5   6
ATOM      6  C   UNL     1      -3.972  42.056  22.091  1.00  0.00    -0.000 C 
BRANCH   6   7
ATOM      7  C   UNL     1      -4.542  41.713  23.479  1.00  0.00    -0.000 C 
BRANCH   7   8
ATOM      8  C   UNL     1      -4.851  42.954  24.345  1.00  0.00    -0.000 C 
BRANCH   8   9
ATOM      9  C   UNL     1      -4.382  44.259  23.676  1.00  0.00    -0.000 C 
BRANCH   9  10
ATOM     10  C   UNL     1      -3.724  45.230  24.668  1.00  0.00    -0.000 C 
BRANCH  10  11
ATOM     11  C   UNL     1      -3.349  46.572  24.025  1.00  0.00    -0.003 C 
ATOM     12  C   UNL     1      -4.316  46.933  22.903  1.00  0.00     0.004 C 
ENDBRANCH  10  11
ENDBRANCH   9  10
ENDBRANCH   8   9
ENDBRANCH   7   8
ENDBRANCH   6   7
ENDBRANCH   5   6
ENDBRANCH   4   5
ENDBRANCH   3   4
ENDBRANCH   2   3
ENDBRANCH   1   2
BRANCH   1  13
ATOM     13  C   UNL     1      -1.743  43.797  19.545  1.00  0.00     0.000 C 
BRANCH  13  14
ATOM     14  C   UNL     1      -0.624  43.293  20.468  1.00  0.00     0.000 C 
BRANCH  14  15
ATOM     15  C   UNL     1      -0.820  43.798  21.904  1.00  0.00     0.000 C 
BRANCH  15  16
ATOM     16  C   UNL     1       0.475  43.654  22.718  1.00  0.00     0.000 C 
BRANCH  16  17
ATOM     17  C   UNL     1       0.213  43.497  24.224  1.00  0.00     0.000 C 
BRANCH  17  18
ATOM     18  C   UNL     1      -1.086  42.729  24.519  1.00  0.00     0.000 C 
BRANCH  18  19
ATOM     19  C   UNL     1      -1.454  42.723  26.013  1.00  0.00     0.000 C 
BRANCH  19  20
ATOM     20  C   UNL     1      -1.925  41.361  26.565  1.00  0.00     0.006 C 
BRANCH  20  21
ATOM     21  C   UNL     1      -1.492  40.148  25.727  1.00  0.00     0.053 C 
BRANCH  21  22
ATOM     22  C   UNL     1      -2.598  39.151  25.563  1.00  0.00     0.041 C 
ATOM     23  O   UNL     1      -3.343  38.864  26.537  1.00  0.00    -0.550 OA
ATOM     24  O   UNL     1      -2.827  38.563  24.326  1.00  0.00    -0.550 OA
ENDBRANCH  21  22
ENDBRANCH  20  21
ENDBRANCH  19  20
ENDBRANCH  18  19
ENDBRANCH  17  18
ENDBRANCH  16  17
ENDBRANCH  15  16
ENDBRANCH  14  15
ENDBRANCH  13  14
ENDBRANCH   1  13
TORSDOF 20
ENDMDL
MODEL 3
REMARK VINA RESULT:    -4.192      5.468      8.608
REMARK INTER + INTRA:         -12.438
REMARK INTER:                  -9.971
REMARK INTRA:                  -2.466
REMARK UNBOUND:                -3.345
REMARK SMILES CCCCCCCCCCCCCCCCCCCCCC(=O)[O-]
REMARK SMILES IDX 12 1 11 2 10 3 9 4 8 5 7 6 6 7 5 8 4 9 3 10 2 11 1 12 13 13
REMARK SMILES IDX 14 14 15 15 16 16 17 17 18 18 19 19 20 20 21 21 22 22 23 23
REMARK SMILES IDX 24 24
REMARK H PARENT
REMARK Flexibility Score: inf
ROOT
ATOM      1  C   UNL     1      -2.196  44.369  18.809  1.00  0.00     0.000 C 
ENDROOT
BRANCH   1   2
ATOM      2  C   UNL     1      -3.502  45.003  19.315  1.00  0.00     0.000 C 
BRANCH   2   3
ATOM      3  C   UNL     1      -4.730  44.108  19.081  1.00  0.00     0.000 C 
BRANCH   3   4
ATOM      4  C   UNL     1      -5.436  43.735  20.402  1.00  0.00    -0.000 C 
BRANCH   4   5
ATOM      5  C   UNL     1      -5.378  42.234  20.731  1.00  0.00    -0.000 C 
BRANCH   5   6
ATOM      6  C   UNL     1      -3.965  41.754  21.096  1.00  0.00    -0.000 C 
BRANCH   6   7
ATOM      7  C   UNL     1      -3.391  42.469  22.333  1.00  0.00    -0.000 C 
BRANCH   7   8
ATOM      8  C   UNL     1      -1.922  42.914  22.164  1.00  0.00    -0.000 C 
BRANCH   8   9
ATOM      9  C   UNL     1      -1.721  44.398  22.521  1.00  0.00    -0.000 C 
BRANCH   9  10
ATOM     10  C   UNL     1      -2.802  44.930  23.475  1.00  0.00    -0.000 C 
BRANCH  10  11
ATOM     11  C   UNL     1      -3.779  45.892  22.788  1.00  0.00    -0.003 C 
ATOM     12  C   UNL     1      -3.919  47.190  23.577  1.00  0.00     0.004 C 
ENDBRANCH  10  11
ENDBRANCH   9  10
ENDBRANCH   8   9
ENDBRANCH   7   8
ENDBRANCH   6   7
ENDBRANCH   5   6
ENDBRANCH   4   5
ENDBRANCH   3   4
ENDBRANCH   2   3
ENDBRANCH   1   2
BRANCH   1  13
ATOM     13  C   UNL     1      -2.382  43.506  17.543  1.00  0.00     0.000 C 
BRANCH  13  14
ATOM     14  C   UNL     1      -1.130  43.510  16.652  1.00  0.00     0.000 C 
BRANCH  14  15
ATOM     15  C   UNL     1      -0.069  44.478  17.192  1.00  0.00     0.000 C 
BRANCH  15  16
ATOM     16  C   UNL     1       0.890  44.919  16.076  1.00  0.00     0.000 C 
BRANCH  16  17
ATOM     17  C   UNL     1       1.228  46.417  16.142  1.00  0.00     0.000 C 
BRANCH  17  18
ATOM     18  C   UNL     1       2.738  46.674  16.279  1.00  0.00     0.000 C 
BRANCH  18  19
ATOM     19  C   UNL     1       3.064  47.843  17.226  1.00  0.00     0.000 C 
BRANCH  19  20
ATOM     20  C   UNL     1       3.903  47.464  18.465  1.00  0.00     0.006 C 
BRANCH  20  21
ATOM     21  C   UNL     1       4.618  46.108  18.363  1.00  0.00     0.053 C 
BRANCH  21  22
ATOM     22  C   UNL     1       4.033  45.091  19.294  1.00  0.00     0.041 C 
ATOM     23  O   UNL     1       3.054  44.386  18.932  1.00  0.00    -0.550 OA
ATOM     24  O   UNL     1       4.589  44.898  20.552  1.00  0.00    -0.550 OA
ENDBRANCH  21  22
ENDBRANCH  20  21
ENDBRANCH  19  20
ENDBRANCH  18  19
ENDBRANCH  17  18
ENDBRANCH  16  17
ENDBRANCH  15  16
ENDBRANCH  14  15
ENDBRANCH  13  14
ENDBRANCH   1  13
TORSDOF 20
ENDMDL
MODEL 4
REMARK VINA RESULT:    -4.147      4.253      5.815
REMARK INTER + INTRA:         -12.342
REMARK INTER:                  -8.289
REMARK INTRA:                  -4.053
REMARK UNBOUND:                -3.345
REMARK SMILES CCCCCCCCCCCCCCCCCCCCCC(=O)[O-]
REMARK SMILES IDX 12 1 11 2 10 3 9 4 8 5 7 6 6 7 5 8 4 9 3 10 2 11 1 12 13 13
REMARK SMILES IDX 14 14 15 15 16 16 17 17 18 18 19 19 20 20 21 21 22 22 23 23
REMARK SMILES IDX 24 24
REMARK H PARENT
REMARK Flexibility Score: inf
ROOT
ATOM      1  C   UNL     1      -1.740  41.569  18.222  1.00  0.00     0.000 C 
ENDROOT
BRANCH   1   2
ATOM      2  C   UNL     1      -3.268  41.400  18.180  1.00  0.00     0.000 C 
BRANCH   2   3
ATOM      3  C   UNL     1      -3.935  42.263  17.097  1.00  0.00     0.000 C 
BRANCH   3   4
ATOM      4  C   UNL     1      -3.533  43.749  17.211  1.00  0.00    -0.000 C 
BRANCH   4   5
ATOM      5  C   UNL     1      -4.422  44.557  18.171  1.00  0.00    -0.000 C 
BRANCH   5   6
ATOM      6  C   UNL     1      -3.646  45.129  19.368  1.00  0.00    -0.000 C 
BRANCH   6   7
ATOM      7  C   UNL     1      -3.886  44.341  20.668  1.00  0.00    -0.000 C 
BRANCH   7   8
ATOM      8  C   UNL     1      -5.335  43.829  20.822  1.00  0.00    -0.000 C 
BRANCH   8   9
ATOM      9  C   UNL     1      -5.396  42.298  20.971  1.00  0.00    -0.000 C 
BRANCH   9  10
ATOM     10  C   UNL     1      -4.633  41.792  22.205  1.00  0.00    -0.000 C 
BRANCH  10  11
ATOM     11  C   UNL     1      -3.647  40.664  21.872  1.00  0.00    -0.003 C 
ATOM     12  C   UNL     1      -2.460  40.671  22.830  1.00  0.00     0.004 C 
ENDBRANCH  10  11
ENDBRANCH   9  10
ENDBRANCH   8   9
ENDBRANCH   7   8
ENDBRANCH   6   7
ENDBRANCH   5   6
ENDBRANCH   4   5
ENDBRANCH   3   4
ENDBRANCH   2   3
ENDBRANCH   1   2
BRANCH   1  13
ATOM     13  C   UNL     1      -1.221  42.142  19.559  1.00  0.00     0.000 C 
BRANCH  13  14
ATOM     14  C   UNL     1      -0.340  43.383  19.353  1.00  0.00     0.000 C 
BRANCH  14  15
ATOM     15  C   UNL     1       1.071  43.161  19.915  1.00  0.00     0.000 C 
BRANCH  15  16
ATOM     16  C   UNL     1       1.014  42.473  21.287  1.00  0.00     0.000 C 
BRANCH  16  17
ATOM     17  C   UNL     1       1.463  43.394  22.431  1.00  0.00     0.000 C 
BRANCH  17  18
ATOM     18  C   UNL     1       0.367  43.591  23.493  1.00  0.00     0.000 C 
BRANCH  18  19
ATOM     19  C   UNL     1      -0.984  44.013  22.889  1.00  0.00     0.000 C 
BRANCH  19  20
ATOM     20  C   UNL     1      -1.904  44.809  23.839  1.00  0.00     0.006 C 
BRANCH  20  21
ATOM     21  C   UNL     1      -2.957  43.960  24.569  1.00  0.00     0.053 C 
BRANCH  21  22
ATOM     22  C   UNL     1      -4.159  44.765  24.957  1.00  0.00     0.041 C 
ATOM     23  O   UNL     1      -5.089  44.958  24.129  1.00  0.00    -0.550 OA
ATOM     24  O   UNL     1      -4.268  45.276  26.244  1.00  0.00    -0.550 OA
ENDBRANCH  21  22
ENDBRANCH  20  21
ENDBRANCH  19  20
ENDBRANCH  18  19
ENDBRANCH  17  18
ENDBRANCH  16  17
ENDBRANCH  15  16
ENDBRANCH  14  15
ENDBRANCH  13  14
ENDBRANCH   1  13
TORSDOF 20
ENDMDL
MODEL 5
REMARK VINA RESULT:    -4.119      2.041      4.545
REMARK INTER + INTRA:         -12.280
REMARK INTER:                  -9.063
REMARK INTRA:                  -3.217
REMARK UNBOUND:                -3.345
REMARK SMILES CCCCCCCCCCCCCCCCCCCCCC(=O)[O-]
REMARK SMILES IDX 12 1 11 2 10 3 9 4 8 5 7 6 6 7 5 8 4 9 3 10 2 11 1 12 13 13
REMARK SMILES IDX 14 14 15 15 16 16 17 17 18 18 19 19 20 20 21 21 22 22 23 23
REMARK SMILES IDX 24 24
REMARK H PARENT
REMARK Flexibility Score: inf
ROOT
ATOM      1  C   UNL     1      -5.073  43.720  20.031  1.00  0.00     0.000 C 
ENDROOT
BRANCH   1   2
ATOM      2  C   UNL     1      -4.383  44.613  18.987  1.00  0.00     0.000 C 
BRANCH   2   3
ATOM      3  C   UNL     1      -3.319  43.861  18.169  1.00  0.00     0.000 C 
BRANCH   3   4
ATOM      4  C   UNL     1      -1.888  44.318  18.522  1.00  0.00    -0.000 C 
BRANCH   4   5
ATOM      5  C   UNL     1      -0.954  43.166  18.930  1.00  0.00    -0.000 C 
BRANCH   5   6
ATOM      6  C   UNL     1      -1.651  42.112  19.805  1.00  0.00    -0.000 C 
BRANCH   6   7
ATOM      7  C   UNL     1      -1.383  42.311  21.308  1.00  0.00    -0.000 C 
BRANCH   7   8
ATOM      8  C   UNL     1      -0.333  43.403  21.609  1.00  0.00    -0.000 C 
BRANCH   8   9
ATOM      9  C   UNL     1       0.919  42.829  22.298  1.00  0.00    -0.000 C 
BRANCH   9  10
ATOM     10  C   UNL     1       1.233  43.525  23.631  1.00  0.00    -0.000 C 
BRANCH  10  11
ATOM     11  C   UNL     1       2.710  43.921  23.761  1.00  0.00    -0.003 C 
ATOM     12  C   UNL     1       3.398  43.931  22.400  1.00  0.00     0.004 C 
ENDBRANCH  10  11
ENDBRANCH   9  10
ENDBRANCH   8   9
ENDBRANCH   7   8
ENDBRANCH   6   7
ENDBRANCH   5   6
ENDBRANCH   4   5
ENDBRANCH   3   4
ENDBRANCH   2   3
ENDBRANCH   1   2
BRANCH   1  13
ATOM     13  C   UNL     1      -4.678  44.056  21.486  1.00  0.00     0.000 C 
BRANCH  13  14
ATOM     14  C   UNL     1      -3.858  45.352  21.577  1.00  0.00     0.000 C 
BRANCH  14  15
ATOM     15  C   UNL     1      -2.999  45.377  22.849  1.00  0.00     0.000 C 
BRANCH  15  16
ATOM     16  C   UNL     1      -3.879  45.491  24.103  1.00  0.00     0.000 C 
BRANCH  16  17
ATOM     17  C   UNL     1      -3.604  44.376  25.123  1.00  0.00     0.000 C 
BRANCH  17  18
ATOM     18  C   UNL     1      -2.258  43.674  24.879  1.00  0.00     0.000 C 
BRANCH  18  19
ATOM     19  C   UNL     1      -2.392  42.146  24.753  1.00  0.00     0.000 C 
BRANCH  19  20
ATOM     20  C   UNL     1      -1.353  41.330  25.550  1.00  0.00     0.006 C 
BRANCH  20  21
ATOM     21  C   UNL     1      -1.469  41.467  27.077  1.00  0.00     0.053 C 
BRANCH  21  22
ATOM     22  C   UNL     1      -1.129  40.190  27.784  1.00  0.00     0.041 C 
ATOM     23  O   UNL     1      -1.727  39.122  27.488  1.00  0.00    -0.550 OA
ATOM     24  O   UNL     1      -0.130  40.174  28.749  1.00  0.00    -0.550 OA
ENDBRANCH  21  22
ENDBRANCH  20  21
ENDBRANCH  19  20
ENDBRANCH  18  19
ENDBRANCH  17  18
ENDBRANCH  16  17
ENDBRANCH  15  16
ENDBRANCH  14  15
ENDBRANCH  13  14
ENDBRANCH   1  13
TORSDOF 20
ENDMDL
MODEL 6
REMARK VINA RESULT:    -4.100      1.632      3.794
REMARK INTER + INTRA:         -12.239
REMARK INTER:                  -8.857
REMARK INTRA:                  -3.381
REMARK UNBOUND:                -3.345
REMARK SMILES CCCCCCCCCCCCCCCCCCCCCC(=O)[O-]
REMARK SMILES IDX 12 1 11 2 10 3 9 4 8 5 7 6 6 7 5 8 4 9 3 10 2 11 1 12 13 13
REMARK SMILES IDX 14 14 15 15 16 16 17 17 18 18 19 19 20 20 21 21 22 22 23 23
REMARK SMILES IDX 24 24
REMARK H PARENT
REMARK Flexibility Score: inf
ROOT
ATOM      1  C   UNL     1      -4.722  44.208  19.205  1.00  0.00     0.000 C 
ENDROOT
BRANCH   1   2
ATOM      2  C   UNL     1      -3.411  45.010  19.245  1.00  0.00     0.000 C 
BRANCH   2   3
ATOM      3  C   UNL     1      -2.162  44.115  19.176  1.00  0.00     0.000 C 
BRANCH   3   4
ATOM      4  C   UNL     1      -1.426  44.042  20.530  1.00  0.00    -0.000 C 
BRANCH   4   5
ATOM      5  C   UNL     1      -0.743  42.689  20.790  1.00  0.00    -0.000 C 
BRANCH   5   6
ATOM      6  C   UNL     1      -0.203  42.555  22.222  1.00  0.00    -0.000 C 
BRANCH   6   7
ATOM      7  C   UNL     1      -0.300  43.867  23.022  1.00  0.00    -0.000 C 
BRANCH   7   8
ATOM      8  C   UNL     1      -0.914  43.689  24.428  1.00  0.00    -0.000 C 
BRANCH   8   9
ATOM      9  C   UNL     1      -2.329  44.289  24.523  1.00  0.00    -0.000 C 
BRANCH   9  10
ATOM     10  C   UNL     1      -2.714  45.100  23.276  1.00  0.00    -0.000 C 
BRANCH  10  11
ATOM     11  C   UNL     1      -4.153  45.630  23.332  1.00  0.00    -0.003 C 
ATOM     12  C   UNL     1      -4.177  47.155  23.321  1.00  0.00     0.004 C 
ENDBRANCH  10  11
ENDBRANCH   9  10
ENDBRANCH   8   9
ENDBRANCH   7   8
ENDBRANCH   6   7
ENDBRANCH   5   6
ENDBRANCH   4   5
ENDBRANCH   3   4
ENDBRANCH   2   3
ENDBRANCH   1   2
BRANCH   1  13
ATOM     13  C   UNL     1      -5.298  43.901  20.604  1.00  0.00     0.000 C 
BRANCH  13  14
ATOM     14  C   UNL     1      -5.592  42.405  20.792  1.00  0.00     0.000 C 
BRANCH  14  15
ATOM     15  C   UNL     1      -4.353  41.553  20.484  1.00  0.00     0.000 C 
BRANCH  15  16
ATOM     16  C   UNL     1      -3.751  40.973  21.773  1.00  0.00     0.000 C 
BRANCH  16  17
ATOM     17  C   UNL     1      -4.393  41.556  23.042  1.00  0.00     0.000 C 
BRANCH  17  18
ATOM     18  C   UNL     1      -3.693  41.082  24.327  1.00  0.00     0.000 C 
BRANCH  18  19
ATOM     19  C   UNL     1      -2.409  40.281  24.050  1.00  0.00     0.000 C 
BRANCH  19  20
ATOM     20  C   UNL     1      -1.669  39.778  25.307  1.00  0.00     0.006 C 
BRANCH  20  21
ATOM     21  C   UNL     1      -2.566  39.576  26.538  1.00  0.00     0.053 C 
BRANCH  21  22
ATOM     22  C   UNL     1      -1.830  39.825  27.819  1.00  0.00     0.041 C 
ATOM     23  O   UNL     1      -2.141  39.193  28.864  1.00  0.00    -0.550 OA
ATOM     24  O   UNL     1      -0.778  40.732  27.852  1.00  0.00    -0.550 OA
ENDBRANCH  21  22
ENDBRANCH  20  21
ENDBRANCH  19  20
ENDBRANCH  18  19
ENDBRANCH  17  18
ENDBRANCH  16  17
ENDBRANCH  15  16
ENDBRANCH  14  15
ENDBRANCH  13  14
ENDBRANCH   1  13
TORSDOF 20
ENDMDL
MODEL 7
REMARK VINA RESULT:    -4.088      4.973      6.675
REMARK INTER + INTRA:         -12.213
REMARK INTER:                  -8.013
REMARK INTRA:                  -4.200
REMARK UNBOUND:                -3.345
REMARK SMILES CCCCCCCCCCCCCCCCCCCCCC(=O)[O-]
REMARK SMILES IDX 12 1 11 2 10 3 9 4 8 5 7 6 6 7 5 8 4 9 3 10 2 11 1 12 13 13
REMARK SMILES IDX 14 14 15 15 16 16 17 17 18 18 19 19 20 20 21 21 22 22 23 23
REMARK SMILES IDX 24 24
REMARK H PARENT
REMARK Flexibility Score: inf
ROOT
ATOM      1  C   UNL     1      -4.763  44.227  21.417  1.00  0.00     0.000 C 
ENDROOT
BRANCH   1   2
ATOM      2  C   UNL     1      -5.238  43.800  20.019  1.00  0.00     0.000 C 
BRANCH   2   3
ATOM      3  C   UNL     1      -4.498  44.534  18.888  1.00  0.00     0.000 C 
BRANCH   3   4
ATOM      4  C   UNL     1      -4.227  43.612  17.680  1.00  0.00    -0.000 C 
BRANCH   4   5
ATOM      5  C   UNL     1      -2.739  43.507  17.304  1.00  0.00    -0.000 C 
BRANCH   5   6
ATOM      6  C   UNL     1      -1.825  44.301  18.249  1.00  0.00    -0.000 C 
BRANCH   6   7
ATOM      7  C   UNL     1      -0.657  43.460  18.797  1.00  0.00    -0.000 C 
BRANCH   7   8
ATOM      8  C   UNL     1      -0.677  43.302  20.333  1.00  0.00    -0.000 C 
BRANCH   8   9
ATOM      9  C   UNL     1      -0.963  41.853  20.764  1.00  0.00    -0.000 C 
BRANCH   9  10
ATOM     10  C   UNL     1      -2.466  41.547  20.855  1.00  0.00    -0.000 C 
BRANCH  10  11
ATOM     11  C   UNL     1      -2.961  40.652  19.711  1.00  0.00    -0.003 C 
ATOM     12  C   UNL     1      -4.400  40.205  19.946  1.00  0.00     0.004 C 
ENDBRANCH  10  11
ENDBRANCH   9  10
ENDBRANCH   8   9
ENDBRANCH   7   8
ENDBRANCH   6   7
ENDBRANCH   5   6
ENDBRANCH   4   5
ENDBRANCH   3   4
ENDBRANCH   2   3
ENDBRANCH   1   2
BRANCH   1  13
ATOM     13  C   UNL     1      -3.629  45.275  21.389  1.00  0.00     0.000 C 
BRANCH  13  14
ATOM     14  C   UNL     1      -2.780  45.241  22.669  1.00  0.00     0.000 C 
BRANCH  14  15
ATOM     15  C   UNL     1      -3.302  44.187  23.654  1.00  0.00     0.000 C 
BRANCH  15  16
ATOM     16  C   UNL     1      -2.155  43.315  24.185  1.00  0.00     0.000 C 
BRANCH  16  17
ATOM     17  C   UNL     1      -0.805  44.048  24.187  1.00  0.00     0.000 C 
BRANCH  17  18
ATOM     18  C   UNL     1       0.377  43.105  23.906  1.00  0.00     0.000 C 
BRANCH  18  19
ATOM     19  C   UNL     1       1.607  43.837  23.339  1.00  0.00     0.000 C 
BRANCH  19  20
ATOM     20  C   UNL     1       2.868  42.962  23.170  1.00  0.00     0.006 C 
BRANCH  20  21
ATOM     21  C   UNL     1       3.172  42.553  21.720  1.00  0.00     0.053 C 
BRANCH  21  22
ATOM     22  C   UNL     1       3.361  43.741  20.827  1.00  0.00     0.041 C 
ATOM     23  O   UNL     1       2.720  43.832  19.747  1.00  0.00    -0.550 OA
ATOM     24  O   UNL     1       4.223  44.764  21.203  1.00  0.00    -0.550 OA
ENDBRANCH  21  22
ENDBRANCH  20  21
ENDBRANCH  19  20
ENDBRANCH  18  19
ENDBRANCH  17  18
ENDBRANCH  16  17
ENDBRANCH  15  16
ENDBRANCH  14  15
ENDBRANCH  13  14
ENDBRANCH   1  13
TORSDOF 20
ENDMDL
MODEL 8
REMARK VINA RESULT:    -4.067      3.501      5.854
REMARK INTER + INTRA:         -12.167
REMARK INTER:                  -8.560
REMARK INTRA:                  -3.607
REMARK UNBOUND:                -3.345
REMARK SMILES CCCCCCCCCCCCCCCCCCCCCC(=O)[O-]
REMARK SMILES IDX 12 1 11 2 10 3 9 4 8 5 7 6 6 7 5 8 4 9 3 10 2 11 1 12 13 13
REMARK SMILES IDX 14 14 15 15 16 16 17 17 18 18 19 19 20 20 21 21 22 22 23 23
REMARK SMILES IDX 24 24
REMARK H PARENT
REMARK Flexibility Score: inf
ROOT
ATOM      1  C   UNL     1      -5.503  43.480  20.149  1.00  0.00     0.000 C 
ENDROOT
BRANCH   1   2
ATOM      2  C   UNL     1      -4.594  44.063  19.054  1.00  0.00     0.000 C 
BRANCH   2   3
ATOM      3  C   UNL     1      -3.628  45.134  19.589  1.00  0.00     0.000 C 
BRANCH   3   4
ATOM      4  C   UNL     1      -2.478  44.517  20.412  1.00  0.00    -0.000 C 
BRANCH   4   5
ATOM      5  C   UNL     1      -2.469  44.957  21.886  1.00  0.00    -0.000 C 
BRANCH   5   6
ATOM      6  C   UNL     1      -3.735  45.727  22.290  1.00  0.00    -0.000 C 
BRANCH   6   7
ATOM      7  C   UNL     1      -3.865  45.909  23.813  1.00  0.00    -0.000 C 
BRANCH   7   8
ATOM      8  C   UNL     1      -4.339  44.637  24.549  1.00  0.00    -0.000 C 
BRANCH   8   9
ATOM      9  C   UNL     1      -3.351  44.199  25.645  1.00  0.00    -0.000 C 
BRANCH   9  10
ATOM     10  C   UNL     1      -2.106  43.500  25.077  1.00  0.00    -0.000 C 
BRANCH  10  11
ATOM     11  C   UNL     1      -1.460  42.532  26.077  1.00  0.00    -0.003 C 
ATOM     12  C   UNL     1      -2.227  41.215  26.142  1.00  0.00     0.004 C 
ENDBRANCH  10  11
ENDBRANCH   9  10
ENDBRANCH   8   9
ENDBRANCH   7   8
ENDBRANCH   6   7
ENDBRANCH   5   6
ENDBRANCH   4   5
ENDBRANCH   3   4
ENDBRANCH   2   3
ENDBRANCH   1   2
BRANCH   1  13
ATOM     13  C   UNL     1      -5.213  41.996  20.462  1.00  0.00     0.000 C 
BRANCH  13  14
ATOM     14  C   UNL     1      -5.138  41.729  21.973  1.00  0.00     0.000 C 
BRANCH  14  15
ATOM     15  C   UNL     1      -3.685  41.742  22.468  1.00  0.00     0.000 C 
BRANCH  15  16
ATOM     16  C   UNL     1      -3.136  40.313  22.598  1.00  0.00     0.000 C 
BRANCH  16  17
ATOM     17  C   UNL     1      -1.602  40.271  22.662  1.00  0.00     0.000 C 
BRANCH  17  18
ATOM     18  C   UNL     1      -0.952  41.515  22.033  1.00  0.00     0.000 C 
BRANCH  18  19
ATOM     19  C   UNL     1       0.357  41.926  22.729  1.00  0.00     0.000 C 
BRANCH  19  20
ATOM     20  C   UNL     1       0.777  43.396  22.517  1.00  0.00     0.006 C 
BRANCH  20  21
ATOM     21  C   UNL     1       2.186  43.579  21.931  1.00  0.00     0.053 C 
BRANCH  21  22
ATOM     22  C   UNL     1       3.210  43.832  22.995  1.00  0.00     0.041 C 
ATOM     23  O   UNL     1       4.423  43.979  22.686  1.00  0.00    -0.550 OA
ATOM     24  O   UNL     1       2.822  43.937  24.324  1.00  0.00    -0.550 OA
ENDBRANCH  21  22
ENDBRANCH  20  21
ENDBRANCH  19  20
ENDBRANCH  18  19
ENDBRANCH  17  18
ENDBRANCH  16  17
ENDBRANCH  15  16
ENDBRANCH  14  15
ENDBRANCH  13  14
ENDBRANCH   1  13
TORSDOF 20
ENDMDL
MODEL 9
REMARK VINA RESULT:    -4.064      1.192      2.022
REMARK INTER + INTRA:         -12.162
REMARK INTER:                  -9.166
REMARK INTRA:                  -2.996
REMARK UNBOUND:                -3.345
REMARK SMILES CCCCCCCCCCCCCCCCCCCCCC(=O)[O-]
REMARK SMILES IDX 12 1 11 2 10 3 9 4 8 5 7 6 6 7 5 8 4 9 3 10 2 11 1 12 13 13
REMARK SMILES IDX 14 14 15 15 16 16 17 17 18 18 19 19 20 20 21 21 22 22 23 23
REMARK SMILES IDX 24 24
REMARK H PARENT
REMARK Flexibility Score: inf
ROOT
ATOM      1  C   UNL     1      -0.579  43.599  22.351  1.00  0.00     0.000 C 
ENDROOT
BRANCH   1   2
ATOM      2  C   UNL     1      -1.351  44.246  21.189  1.00  0.00     0.000 C 
BRANCH   2   3
ATOM      3  C   UNL     1      -1.094  43.550  19.842  1.00  0.00     0.000 C 
BRANCH   3   4
ATOM      4  C   UNL     1      -2.175  43.897  18.796  1.00  0.00    -0.000 C 
BRANCH   4   5
ATOM      5  C   UNL     1      -3.229  44.895  19.305  1.00  0.00    -0.000 C 
BRANCH   5   6
ATOM      6  C   UNL     1      -4.647  44.305  19.337  1.00  0.00    -0.000 C 
BRANCH   6   7
ATOM      7  C   UNL     1      -4.689  42.880  19.918  1.00  0.00    -0.000 C 
BRANCH   7   8
ATOM      8  C   UNL     1      -5.266  42.813  21.348  1.00  0.00    -0.000 C 
BRANCH   8   9
ATOM      9  C   UNL     1      -4.240  43.250  22.409  1.00  0.00    -0.000 C 
BRANCH   9  10
ATOM     10  C   UNL     1      -4.749  44.406  23.285  1.00  0.00    -0.000 C 
BRANCH  10  11
ATOM     11  C   UNL     1      -4.370  45.785  22.728  1.00  0.00    -0.003 C 
ATOM     12  C   UNL     1      -3.632  46.615  23.773  1.00  0.00     0.004 C 
ENDBRANCH  10  11
ENDBRANCH   9  10
ENDBRANCH   8   9
ENDBRANCH   7   8
ENDBRANCH   6   7
ENDBRANCH   5   6
ENDBRANCH   4   5
ENDBRANCH   3   4
ENDBRANCH   2   3
ENDBRANCH   1   2
BRANCH   1  13
ATOM     13  C   UNL     1      -0.855  44.263  23.718  1.00  0.00     0.000 C 
BRANCH  13  14
ATOM     14  C   UNL     1      -0.689  43.276  24.884  1.00  0.00     0.000 C 
BRANCH  14  15
ATOM     15  C   UNL     1      -2.008  43.090  25.646  1.00  0.00     0.000 C 
BRANCH  15  16
ATOM     16  C   UNL     1      -2.617  41.710  25.361  1.00  0.00     0.000 C 
BRANCH  16  17
ATOM     17  C   UNL     1      -1.561  40.595  25.307  1.00  0.00     0.000 C 
BRANCH  17  18
ATOM     18  C   UNL     1      -1.949  39.375  26.160  1.00  0.00     0.000 C 
BRANCH  18  19
ATOM     19  C   UNL     1      -2.040  39.697  27.662  1.00  0.00     0.000 C 
BRANCH  19  20
ATOM     20  C   UNL     1      -0.697  40.038  28.340  1.00  0.00     0.006 C 
BRANCH  20  21
ATOM     21  C   UNL     1       0.312  38.879  28.378  1.00  0.00     0.053 C 
BRANCH  21  22
ATOM     22  C   UNL     1      -0.304  37.611  28.885  1.00  0.00     0.041 C 
ATOM     23  O   UNL     1      -0.356  36.591  28.147  1.00  0.00    -0.550 OA
ATOM     24  O   UNL     1      -0.793  37.546  30.183  1.00  0.00    -0.550 OA
ENDBRANCH  21  22
ENDBRANCH  20  21
ENDBRANCH  19  20
ENDBRANCH  18  19
ENDBRANCH  17  18
ENDBRANCH  16  17
ENDBRANCH  15  16
ENDBRANCH  14  15
ENDBRANCH  13  14
ENDBRANCH   1  13
TORSDOF 20
ENDMDL
