MODEL 1
REMARK VINA RESULT:    -5.204      0.000      0.000
REMARK INTER + INTRA:          -9.066
REMARK INTER:                  -7.638
REMARK INTRA:                  -1.427
REMARK UNBOUND:                -1.427
REMARK SMILES O=c1c(O[C@@H]2O[C@H](CO)[C@H](O)[C@@H](O)[C@@H]2O)c(-c2ccc(O)c(O)c2)oc2cc(O)cc(O)c12
REMARK SMILES IDX 4 1 3 2 16 3 25 4 2 5 26 6 1 7 33 8 27 9 31 10 28 11 30 12
REMARK SMILES IDX 17 13 18 14 19 15 20 16 24 17 22 18 21 19 23 21 32 23 29 25
REMARK SMILES IDX 5 27 14 28 6 29 12 30 7 31 10 32 15 33 13 35 8 37 9 38 11 40
REMARK H PARENT 21 20 23 22 32 24 29 26 15 34 13 36 9 39 11 41
REMARK Flexibility Score: inf
ROOT
ATOM      1  O   UNL     1       3.255  12.288  74.232  1.00  0.00    -0.454 OA
ENDROOT
BRANCH   1   2
ATOM      2  C   UNL     1       3.570  13.601  73.855  1.00  0.00     0.214 A 
ATOM      3  C   UNL     1       4.850  13.898  73.347  1.00  0.00     0.180 A 
ATOM      4  O   UNL     1       5.164  15.154  73.046  1.00  0.00    -0.452 OA
ATOM      5  C   UNL     1       2.633  14.639  73.981  1.00  0.00     0.239 A 
ATOM      6  C   UNL     1       4.322  16.172  73.184  1.00  0.00     0.146 A 
ATOM      7  O   UNL     1       1.464  14.378  74.371  1.00  0.00    -0.285 OA
ATOM      8  C   UNL     1       3.007  15.959  73.657  1.00  0.00     0.111 A 
ATOM      9  C   UNL     1       4.754  17.460  72.854  1.00  0.00     0.094 A 
ATOM     10  C   UNL     1       2.131  17.065  73.780  1.00  0.00     0.134 A 
ATOM     11  C   UNL     1       3.886  18.550  72.987  1.00  0.00     0.123 A 
ATOM     12  C   UNL     1       2.582  18.350  73.446  1.00  0.00     0.093 A 
BRANCH   3  13
ATOM     13  C   UNL     1       5.898  12.857  73.197  1.00  0.00     0.025 A 
ATOM     14  C   UNL     1       6.198  12.278  71.953  1.00  0.00     0.016 A 
ATOM     15  C   UNL     1       7.136  11.245  71.864  1.00  0.00     0.051 A 
ATOM     16  C   UNL     1       7.816  10.798  73.001  1.00  0.00     0.157 A 
ATOM     17  C   UNL     1       6.607  12.432  74.332  1.00  0.00     0.062 A 
ATOM     18  C   UNL     1       7.563  11.412  74.248  1.00  0.00     0.158 A 
BRANCH  16  19
ATOM     19  O   UNL     1       8.721   9.747  72.848  1.00  0.00    -0.504 OA
ATOM     20  H   UNL     1       8.454   8.773  72.818  1.00  0.00     0.293 HD
ENDBRANCH  16  19
BRANCH  18  21
ATOM     21  O   UNL     1       8.228  11.042  75.419  1.00  0.00    -0.504 OA
ATOM     22  H   UNL     1       8.021  10.202  75.945  1.00  0.00     0.293 HD
ENDBRANCH  18  21
ENDBRANCH   3  13
BRANCH  10  23
ATOM     23  O   UNL     1       0.822  16.897  74.231  1.00  0.00    -0.507 OA
ATOM     24  H   UNL     1       0.131  17.635  74.148  1.00  0.00     0.293 HD
ENDBRANCH  10  23
BRANCH  11  25
ATOM     25  O   UNL     1       4.311  19.838  72.663  1.00  0.00    -0.508 OA
ATOM     26  H   UNL     1       4.825  20.407  73.324  1.00  0.00     0.293 HD
ENDBRANCH  11  25
ENDBRANCH   1   2
BRANCH   1  27
ATOM     27  C   UNL     1       2.384  11.430  73.493  1.00  0.00     0.339 C 
ATOM     28  C   UNL     1       3.156  10.189  72.992  1.00  0.00     0.214 C 
ATOM     29  O   UNL     1       1.334  11.025  74.346  1.00  0.00    -0.332 OA
ATOM     30  C   UNL     1       2.211   8.973  72.823  1.00  0.00     0.180 C 
ATOM     31  C   UNL     1       0.271  10.434  73.606  1.00  0.00     0.179 C 
ATOM     32  C   UNL     1       0.775   9.440  72.501  1.00  0.00     0.177 C 
BRANCH  28  33
ATOM     33  O   UNL     1       4.181   9.862  73.897  1.00  0.00    -0.384 OA
ATOM     34  H   UNL     1       5.042  10.063  73.443  1.00  0.00     0.211 HD
ENDBRANCH  28  33
BRANCH  30  35
ATOM     35  O   UNL     1       2.687   8.154  71.784  1.00  0.00    -0.387 OA
ATOM     36  H   UNL     1       2.317   7.243  71.932  1.00  0.00     0.211 HD
ENDBRANCH  30  35
BRANCH  31  37
ATOM     37  C   UNL     1      -0.690   9.785  74.615  1.00  0.00     0.191 C 
BRANCH  37  38
ATOM     38  O   UNL     1      -2.020  10.006  74.231  1.00  0.00    -0.394 OA
ATOM     39  H   UNL     1      -2.350   9.147  73.857  1.00  0.00     0.210 HD
ENDBRANCH  37  38
ENDBRANCH  31  37
BRANCH  32  40
ATOM     40  O   UNL     1      -0.098   8.344  72.361  1.00  0.00    -0.387 OA
ATOM     41  H   UNL     1      -0.731   8.374  73.122  1.00  0.00     0.211 HD
ENDBRANCH  32  40
ENDBRANCH   1  27
TORSDOF 12
ENDMDL
MODEL 2
REMARK VINA RESULT:    -5.186      2.296      3.186
REMARK INTER + INTRA:          -9.038
REMARK INTER:                  -7.639
REMARK INTRA:                  -1.399
REMARK UNBOUND:                -1.427
REMARK SMILES O=c1c(O[C@@H]2O[C@H](CO)[C@H](O)[C@@H](O)[C@@H]2O)c(-c2ccc(O)c(O)c2)oc2cc(O)cc(O)c12
REMARK SMILES IDX 4 1 3 2 16 3 25 4 2 5 26 6 1 7 33 8 27 9 31 10 28 11 30 12
REMARK SMILES IDX 17 13 18 14 19 15 20 16 24 17 22 18 21 19 23 21 32 23 29 25
REMARK SMILES IDX 5 27 14 28 6 29 12 30 7 31 10 32 15 33 13 35 8 37 9 38 11 40
REMARK H PARENT 21 20 23 22 32 24 29 26 15 34 13 36 9 39 11 41
REMARK Flexibility Score: inf
ROOT
ATOM      1  O   UNL     1       4.870  13.411  73.808  1.00  0.00    -0.454 OA
ENDROOT
BRANCH   1   2
ATOM      2  C   UNL     1       5.777  14.178  73.064  1.00  0.00     0.214 A 
ATOM      3  C   UNL     1       6.980  13.601  72.611  1.00  0.00     0.180 A 
ATOM      4  O   UNL     1       7.864  14.349  71.958  1.00  0.00    -0.452 OA
ATOM      5  C   UNL     1       5.518  15.526  72.767  1.00  0.00     0.239 A 
ATOM      6  C   UNL     1       7.676  15.635  71.687  1.00  0.00     0.146 A 
ATOM      7  O   UNL     1       4.418  16.039  73.108  1.00  0.00    -0.285 OA
ATOM      8  C   UNL     1       6.484  16.287  72.077  1.00  0.00     0.111 A 
ATOM      9  C   UNL     1       8.674  16.339  71.007  1.00  0.00     0.094 A 
ATOM     10  C   UNL     1       6.310  17.655  71.760  1.00  0.00     0.134 A 
ATOM     11  C   UNL     1       8.501  17.694  70.705  1.00  0.00     0.123 A 
ATOM     12  C   UNL     1       7.324  18.345  71.080  1.00  0.00     0.093 A 
BRANCH   3  13
ATOM     13  C   UNL     1       7.331  12.188  72.897  1.00  0.00     0.025 A 
ATOM     14  C   UNL     1       7.196  11.177  71.931  1.00  0.00     0.016 A 
ATOM     15  C   UNL     1       7.461   9.845  72.262  1.00  0.00     0.051 A 
ATOM     16  C   UNL     1       7.901   9.502  73.544  1.00  0.00     0.157 A 
ATOM     17  C   UNL     1       7.806  11.846  74.175  1.00  0.00     0.062 A 
ATOM     18  C   UNL     1       8.094  10.517  74.508  1.00  0.00     0.158 A 
BRANCH  16  19
ATOM     19  O   UNL     1       8.124   8.151  73.818  1.00  0.00    -0.504 OA
ATOM     20  H   UNL     1       8.885   7.811  74.389  1.00  0.00     0.293 HD
ENDBRANCH  16  19
BRANCH  18  21
ATOM     21  O   UNL     1       8.563  10.254  75.797  1.00  0.00    -0.504 OA
ATOM     22  H   UNL     1       7.972  10.229  76.619  1.00  0.00     0.293 HD
ENDBRANCH  18  21
ENDBRANCH   3  13
BRANCH  10  23
ATOM     23  O   UNL     1       5.145  18.333  72.117  1.00  0.00    -0.507 OA
ATOM     24  H   UNL     1       5.154  19.093  72.789  1.00  0.00     0.293 HD
ENDBRANCH  10  23
BRANCH  11  25
ATOM     25  O   UNL     1       9.494  18.403  70.030  1.00  0.00    -0.508 OA
ATOM     26  H   UNL     1      10.404  17.997  69.849  1.00  0.00     0.293 HD
ENDBRANCH  11  25
ENDBRANCH   1   2
BRANCH   1  27
ATOM     27  C   UNL     1       3.581  13.016  73.335  1.00  0.00     0.339 C 
ATOM     28  C   UNL     1       3.502  11.477  73.225  1.00  0.00     0.214 C 
ATOM     29  O   UNL     1       2.612  13.477  74.253  1.00  0.00    -0.332 OA
ATOM     30  C   UNL     1       2.045  10.977  73.400  1.00  0.00     0.180 C 
ATOM     31  C   UNL     1       1.303  13.400  73.701  1.00  0.00     0.179 C 
ATOM     32  C   UNL     1       1.041  12.054  72.936  1.00  0.00     0.177 C 
BRANCH  28  33
ATOM     33  O   UNL     1       4.321  10.881  74.200  1.00  0.00    -0.384 OA
ATOM     34  H   UNL     1       3.820  10.914  75.057  1.00  0.00     0.211 HD
ENDBRANCH  28  33
BRANCH  30  35
ATOM     35  O   UNL     1       1.862   9.803  72.648  1.00  0.00    -0.387 OA
ATOM     36  H   UNL     1       0.944   9.472  72.835  1.00  0.00     0.211 HD
ENDBRANCH  30  35
BRANCH  31  37
ATOM     37  C   UNL     1       0.304  13.656  74.840  1.00  0.00     0.191 C 
BRANCH  37  38
ATOM     38  O   UNL     1       0.475  12.709  75.860  1.00  0.00    -0.394 OA
ATOM     39  H   UNL     1       1.392  12.846  76.217  1.00  0.00     0.210 HD
ENDBRANCH  37  38
ENDBRANCH  31  37
BRANCH  32  40
ATOM     40  O   UNL     1      -0.287  11.619  73.106  1.00  0.00    -0.387 OA
ATOM     41  H   UNL     1      -0.253  10.661  73.355  1.00  0.00     0.211 HD
ENDBRANCH  32  40
ENDBRANCH   1  27
TORSDOF 12
ENDMDL
MODEL 3
REMARK VINA RESULT:    -5.108     12.696     15.878
REMARK INTER + INTRA:          -8.925
REMARK INTER:                  -7.427
REMARK INTRA:                  -1.498
REMARK UNBOUND:                -1.427
REMARK SMILES O=c1c(O[C@@H]2O[C@H](CO)[C@H](O)[C@@H](O)[C@@H]2O)c(-c2ccc(O)c(O)c2)oc2cc(O)cc(O)c12
REMARK SMILES IDX 4 1 3 2 16 3 25 4 2 5 26 6 1 7 33 8 27 9 31 10 28 11 30 12
REMARK SMILES IDX 17 13 18 14 19 15 20 16 24 17 22 18 21 19 23 21 32 23 29 25
REMARK SMILES IDX 5 27 14 28 6 29 12 30 7 31 10 32 15 33 13 35 8 37 9 38 11 40
REMARK H PARENT 21 20 23 22 32 24 29 26 15 34 13 36 9 39 11 41
REMARK Flexibility Score: inf
ROOT
ATOM      1  O   UNL     1      -1.341   9.811  59.978  1.00  0.00    -0.454 OA
ENDROOT
BRANCH   1   2
ATOM      2  C   UNL     1      -2.242   8.740  59.918  1.00  0.00     0.214 A 
ATOM      3  C   UNL     1      -2.146   7.687  60.850  1.00  0.00     0.180 A 
ATOM      4  O   UNL     1      -2.965   6.644  60.752  1.00  0.00    -0.452 OA
ATOM      5  C   UNL     1      -3.243   8.684  58.934  1.00  0.00     0.239 A 
ATOM      6  C   UNL     1      -3.901   6.534  59.817  1.00  0.00     0.146 A 
ATOM      7  O   UNL     1      -3.384   9.648  58.135  1.00  0.00    -0.285 OA
ATOM      8  C   UNL     1      -4.088   7.558  58.861  1.00  0.00     0.111 A 
ATOM      9  C   UNL     1      -4.702   5.389  59.790  1.00  0.00     0.094 A 
ATOM     10  C   UNL     1      -5.104   7.414  57.885  1.00  0.00     0.134 A 
ATOM     11  C   UNL     1      -5.699   5.248  58.817  1.00  0.00     0.123 A 
ATOM     12  C   UNL     1      -5.896   6.258  57.872  1.00  0.00     0.093 A 
BRANCH   3  13
ATOM     13  C   UNL     1      -1.107   7.667  61.909  1.00  0.00     0.025 A 
ATOM     14  C   UNL     1      -1.373   8.095  63.220  1.00  0.00     0.016 A 
ATOM     15  C   UNL     1      -0.348   8.137  64.170  1.00  0.00     0.051 A 
ATOM     16  C   UNL     1       0.945   7.717  63.844  1.00  0.00     0.157 A 
ATOM     17  C   UNL     1       0.184   7.212  61.592  1.00  0.00     0.062 A 
ATOM     18  C   UNL     1       1.212   7.231  62.544  1.00  0.00     0.158 A 
BRANCH  16  19
ATOM     19  O   UNL     1       1.929   7.807  64.831  1.00  0.00    -0.504 OA
ATOM     20  H   UNL     1       2.126   8.647  65.355  1.00  0.00     0.293 HD
ENDBRANCH  16  19
BRANCH  18  21
ATOM     21  O   UNL     1       2.469   6.764  62.157  1.00  0.00    -0.504 OA
ATOM     22  H   UNL     1       3.259   6.679  62.785  1.00  0.00     0.293 HD
ENDBRANCH  18  21
ENDBRANCH   3  13
BRANCH  10  23
ATOM     23  O   UNL     1      -5.329   8.406  56.931  1.00  0.00    -0.507 OA
ATOM     24  H   UNL     1      -4.564   8.892  56.477  1.00  0.00     0.293 HD
ENDBRANCH  10  23
BRANCH  11  25
ATOM     25  O   UNL     1      -6.500   4.107  58.782  1.00  0.00    -0.508 OA
ATOM     26  H   UNL     1      -7.510   4.169  58.811  1.00  0.00     0.293 HD
ENDBRANCH  11  25
ENDBRANCH   1   2
BRANCH   1  27
ATOM     27  C   UNL     1      -1.555  10.994  60.750  1.00  0.00     0.339 C 
ATOM     28  C   UNL     1      -0.321  11.287  61.632  1.00  0.00     0.214 C 
ATOM     29  O   UNL     1      -1.769  12.070  59.860  1.00  0.00    -0.332 OA
ATOM     30  C   UNL     1      -0.190  12.802  61.926  1.00  0.00     0.180 C 
ATOM     31  C   UNL     1      -2.295  13.202  60.542  1.00  0.00     0.179 C 
ATOM     32  C   UNL     1      -1.576  13.482  61.908  1.00  0.00     0.177 C 
BRANCH  28  33
ATOM     33  O   UNL     1       0.846  10.831  60.994  1.00  0.00    -0.384 OA
ATOM     34  H   UNL     1       0.577  10.078  60.404  1.00  0.00     0.211 HD
ENDBRANCH  28  33
BRANCH  30  35
ATOM     35  O   UNL     1       0.411  12.982  63.184  1.00  0.00    -0.387 OA
ATOM     36  H   UNL     1      -0.209  12.607  63.865  1.00  0.00     0.211 HD
ENDBRANCH  30  35
BRANCH  31  37
ATOM     37  C   UNL     1      -2.241  14.394  59.571  1.00  0.00     0.191 C 
BRANCH  37  38
ATOM     38  O   UNL     1      -0.968  14.492  58.992  1.00  0.00    -0.394 OA
ATOM     39  H   UNL     1      -0.315  14.378  59.732  1.00  0.00     0.210 HD
ENDBRANCH  37  38
ENDBRANCH  31  37
BRANCH  32  40
ATOM     40  O   UNL     1      -1.468  14.864  62.158  1.00  0.00    -0.387 OA
ATOM     41  H   UNL     1      -2.384  15.206  62.316  1.00  0.00     0.211 HD
ENDBRANCH  32  40
ENDBRANCH   1  27
TORSDOF 12
ENDMDL
MODEL 4
REMARK VINA RESULT:    -5.081      2.261      6.421
REMARK INTER + INTRA:          -8.885
REMARK INTER:                  -7.365
REMARK INTRA:                  -1.519
REMARK UNBOUND:                -1.427
REMARK SMILES O=c1c(O[C@@H]2O[C@H](CO)[C@H](O)[C@@H](O)[C@@H]2O)c(-c2ccc(O)c(O)c2)oc2cc(O)cc(O)c12
REMARK SMILES IDX 4 1 3 2 16 3 25 4 2 5 26 6 1 7 33 8 27 9 31 10 28 11 30 12
REMARK SMILES IDX 17 13 18 14 19 15 20 16 24 17 22 18 21 19 23 21 32 23 29 25
REMARK SMILES IDX 5 27 14 28 6 29 12 30 7 31 10 32 15 33 13 35 8 37 9 38 11 40
REMARK H PARENT 21 20 23 22 32 24 29 26 15 34 13 36 9 39 11 41
REMARK Flexibility Score: inf
ROOT
ATOM      1  O   UNL     1       2.378  14.050  74.464  1.00  0.00    -0.454 OA
ENDROOT
BRANCH   1   2
ATOM      2  C   UNL     1       3.688  13.946  73.978  1.00  0.00     0.214 A 
ATOM      3  C   UNL     1       4.392  15.107  73.600  1.00  0.00     0.180 A 
ATOM      4  O   UNL     1       5.612  14.998  73.084  1.00  0.00    -0.452 OA
ATOM      5  C   UNL     1       4.320  12.698  73.849  1.00  0.00     0.239 A 
ATOM      6  C   UNL     1       6.233  13.837  72.911  1.00  0.00     0.146 A 
ATOM      7  O   UNL     1       3.729  11.658  74.244  1.00  0.00    -0.285 OA
ATOM      8  C   UNL     1       5.613  12.625  73.292  1.00  0.00     0.111 A 
ATOM      9  C   UNL     1       7.511  13.827  72.345  1.00  0.00     0.094 A 
ATOM     10  C   UNL     1       6.308  11.406  73.105  1.00  0.00     0.134 A 
ATOM     11  C   UNL     1       8.189  12.618  72.155  1.00  0.00     0.123 A 
ATOM     12  C   UNL     1       7.588  11.416  72.534  1.00  0.00     0.093 A 
BRANCH   3  13
ATOM     13  C   UNL     1       3.787  16.459  73.694  1.00  0.00     0.025 A 
ATOM     14  C   UNL     1       3.645  17.126  74.922  1.00  0.00     0.016 A 
ATOM     15  C   UNL     1       2.999  18.364  74.981  1.00  0.00     0.051 A 
ATOM     16  C   UNL     1       2.519  18.975  73.819  1.00  0.00     0.157 A 
ATOM     17  C   UNL     1       3.337  17.090  72.523  1.00  0.00     0.062 A 
ATOM     18  C   UNL     1       2.707  18.340  72.571  1.00  0.00     0.158 A 
BRANCH  16  19
ATOM     19  O   UNL     1       1.862  20.200  73.949  1.00  0.00    -0.504 OA
ATOM     20  H   UNL     1       2.282  21.091  73.726  1.00  0.00     0.293 HD
ENDBRANCH  16  19
BRANCH  18  21
ATOM     21  O   UNL     1       2.285  18.905  71.366  1.00  0.00    -0.504 OA
ATOM     22  H   UNL     1       1.322  18.912  71.051  1.00  0.00     0.293 HD
ENDBRANCH  18  21
ENDBRANCH   3  13
BRANCH  10  23
ATOM     23  O   UNL     1       5.737  10.189  73.478  1.00  0.00    -0.507 OA
ATOM     24  H   UNL     1       5.294  10.063  74.382  1.00  0.00     0.293 HD
ENDBRANCH  10  23
BRANCH  11  25
ATOM     25  O   UNL     1       9.463  12.601  71.588  1.00  0.00    -0.508 OA
ATOM     26  H   UNL     1      10.269  12.956  72.087  1.00  0.00     0.293 HD
ENDBRANCH  11  25
ENDBRANCH   1   2
BRANCH   1  27
ATOM     27  C   UNL     1       1.222  14.151  73.630  1.00  0.00     0.339 C 
ATOM     28  C   UNL     1       0.229  13.012  73.955  1.00  0.00     0.214 C 
ATOM     29  O   UNL     1       0.608  15.399  73.872  1.00  0.00    -0.332 OA
ATOM     30  C   UNL     1      -1.228  13.431  73.636  1.00  0.00     0.180 C 
ATOM     31  C   UNL     1      -0.353  15.702  72.868  1.00  0.00     0.179 C 
ATOM     32  C   UNL     1      -1.258  14.474  72.498  1.00  0.00     0.177 C 
BRANCH  28  33
ATOM     33  O   UNL     1       0.329  12.659  75.312  1.00  0.00    -0.384 OA
ATOM     34  H   UNL     1      -0.312  13.235  75.808  1.00  0.00     0.211 HD
ENDBRANCH  28  33
BRANCH  30  35
ATOM     35  O   UNL     1      -1.968  12.296  73.261  1.00  0.00    -0.387 OA
ATOM     36  H   UNL     1      -1.703  11.556  73.869  1.00  0.00     0.211 HD
ENDBRANCH  30  35
BRANCH  31  37
ATOM     37  C   UNL     1      -1.154  16.924  73.347  1.00  0.00     0.191 C 
BRANCH  37  38
ATOM     38  O   UNL     1      -1.762  16.653  74.582  1.00  0.00    -0.394 OA
ATOM     39  H   UNL     1      -1.529  17.411  75.180  1.00  0.00     0.210 HD
ENDBRANCH  37  38
ENDBRANCH  31  37
BRANCH  32  40
ATOM     40  O   UNL     1      -2.576  14.876  72.210  1.00  0.00    -0.387 OA
ATOM     41  H   UNL     1      -3.145  14.579  72.964  1.00  0.00     0.211 HD
ENDBRANCH  32  40
ENDBRANCH   1  27
TORSDOF 12
ENDMDL
MODEL 5
REMARK VINA RESULT:    -5.033      2.193      6.151
REMARK INTER + INTRA:          -8.814
REMARK INTER:                  -7.318
REMARK INTRA:                  -1.496
REMARK UNBOUND:                -1.427
REMARK SMILES O=c1c(O[C@@H]2O[C@H](CO)[C@H](O)[C@@H](O)[C@@H]2O)c(-c2ccc(O)c(O)c2)oc2cc(O)cc(O)c12
REMARK SMILES IDX 4 1 3 2 16 3 25 4 2 5 26 6 1 7 33 8 27 9 31 10 28 11 30 12
REMARK SMILES IDX 17 13 18 14 19 15 20 16 24 17 22 18 21 19 23 21 32 23 29 25
REMARK SMILES IDX 5 27 14 28 6 29 12 30 7 31 10 32 15 33 13 35 8 37 9 38 11 40
REMARK H PARENT 21 20 23 22 32 24 29 26 15 34 13 36 9 39 11 41
REMARK Flexibility Score: inf
ROOT
ATOM      1  O   UNL     1       3.638  15.408  72.506  1.00  0.00    -0.454 OA
ENDROOT
BRANCH   1   2
ATOM      2  C   UNL     1       3.008  16.437  73.218  1.00  0.00     0.214 A 
ATOM      3  C   UNL     1       1.748  16.212  73.810  1.00  0.00     0.180 A 
ATOM      4  O   UNL     1       1.127  17.208  74.433  1.00  0.00    -0.452 OA
ATOM      5  C   UNL     1       3.601  17.703  73.348  1.00  0.00     0.239 A 
ATOM      6  C   UNL     1       1.635  18.430  74.548  1.00  0.00     0.146 A 
ATOM      7  O   UNL     1       4.755  17.900  72.881  1.00  0.00    -0.285 OA
ATOM      8  C   UNL     1       2.907  18.734  74.012  1.00  0.00     0.111 A 
ATOM      9  C   UNL     1       0.895  19.414  75.210  1.00  0.00     0.094 A 
ATOM     10  C   UNL     1       3.424  20.043  74.164  1.00  0.00     0.134 A 
ATOM     11  C   UNL     1       1.408  20.708  75.349  1.00  0.00     0.123 A 
ATOM     12  C   UNL     1       2.667  21.018  74.829  1.00  0.00     0.093 A 
BRANCH   3  13
ATOM     13  C   UNL     1       1.051  14.907  73.704  1.00  0.00     0.025 A 
ATOM     14  C   UNL     1       0.302  14.554  72.568  1.00  0.00     0.016 A 
ATOM     15  C   UNL     1      -0.406  13.349  72.537  1.00  0.00     0.051 A 
ATOM     16  C   UNL     1      -0.350  12.460  73.615  1.00  0.00     0.157 A 
ATOM     17  C   UNL     1       1.135  13.997  74.771  1.00  0.00     0.062 A 
ATOM     18  C   UNL     1       0.446  12.778  74.739  1.00  0.00     0.158 A 
BRANCH  16  19
ATOM     19  O   UNL     1      -1.099  11.285  73.532  1.00  0.00    -0.504 OA
ATOM     20  H   UNL     1      -0.781  10.445  73.068  1.00  0.00     0.293 HD
ENDBRANCH  16  19
BRANCH  18  21
ATOM     21  O   UNL     1       0.576  11.925  75.836  1.00  0.00    -0.504 OA
ATOM     22  H   UNL     1       1.371  11.315  75.987  1.00  0.00     0.293 HD
ENDBRANCH  18  21
ENDBRANCH   3  13
BRANCH  10  23
ATOM     23  O   UNL     1       4.680  20.382  73.660  1.00  0.00    -0.507 OA
ATOM     24  H   UNL     1       5.314  19.681  73.293  1.00  0.00     0.293 HD
ENDBRANCH  10  23
BRANCH  11  25
ATOM     25  O   UNL     1       0.673  21.696  76.005  1.00  0.00    -0.508 OA
ATOM     26  H   UNL     1       1.115  22.352  76.637  1.00  0.00     0.293 HD
ENDBRANCH  11  25
ENDBRANCH   1   2
BRANCH   1  27
ATOM     27  C   UNL     1       4.740  14.648  73.006  1.00  0.00     0.339 C 
ATOM     28  C   UNL     1       4.338  13.164  73.163  1.00  0.00     0.214 C 
ATOM     29  O   UNL     1       5.806  14.756  72.087  1.00  0.00    -0.332 OA
ATOM     30  C   UNL     1       5.568  12.233  73.021  1.00  0.00     0.180 C 
ATOM     31  C   UNL     1       7.025  14.295  72.658  1.00  0.00     0.179 C 
ATOM     32  C   UNL     1       6.855  12.960  73.465  1.00  0.00     0.177 C 
BRANCH  28  33
ATOM     33  O   UNL     1       3.377  12.821  72.196  1.00  0.00    -0.384 OA
ATOM     34  H   UNL     1       2.768  12.158  72.616  1.00  0.00     0.211 HD
ENDBRANCH  28  33
BRANCH  30  35
ATOM     35  O   UNL     1       5.375  11.084  73.809  1.00  0.00    -0.387 OA
ATOM     36  H   UNL     1       5.341  10.305  73.193  1.00  0.00     0.211 HD
ENDBRANCH  30  35
BRANCH  31  37
ATOM     37  C   UNL     1       8.058  14.192  71.524  1.00  0.00     0.191 C 
BRANCH  37  38
ATOM     38  O   UNL     1       9.341  14.494  72.006  1.00  0.00    -0.394 OA
ATOM     39  H   UNL     1       9.946  13.792  71.648  1.00  0.00     0.210 HD
ENDBRANCH  37  38
ENDBRANCH  31  37
BRANCH  32  40
ATOM     40  O   UNL     1       7.983  12.129  73.325  1.00  0.00    -0.387 OA
ATOM     41  H   UNL     1       7.722  11.375  72.738  1.00  0.00     0.211 HD
ENDBRANCH  32  40
ENDBRANCH   1  27
TORSDOF 12
ENDMDL
MODEL 6
REMARK VINA RESULT:    -4.981      1.779      2.235
REMARK INTER + INTRA:          -8.737
REMARK INTER:                  -7.184
REMARK INTRA:                  -1.553
REMARK UNBOUND:                -1.427
REMARK SMILES O=c1c(O[C@@H]2O[C@H](CO)[C@H](O)[C@@H](O)[C@@H]2O)c(-c2ccc(O)c(O)c2)oc2cc(O)cc(O)c12
REMARK SMILES IDX 4 1 3 2 16 3 25 4 2 5 26 6 1 7 33 8 27 9 31 10 28 11 30 12
REMARK SMILES IDX 17 13 18 14 19 15 20 16 24 17 22 18 21 19 23 21 32 23 29 25
REMARK SMILES IDX 5 27 14 28 6 29 12 30 7 31 10 32 15 33 13 35 8 37 9 38 11 40
REMARK H PARENT 21 20 23 22 32 24 29 26 15 34 13 36 9 39 11 41
REMARK Flexibility Score: inf
ROOT
ATOM      1  O   UNL     1       2.663  11.232  74.061  1.00  0.00    -0.454 OA
ENDROOT
BRANCH   1   2
ATOM      2  C   UNL     1       2.412  12.600  73.896  1.00  0.00     0.214 A 
ATOM      3  C   UNL     1       3.444  13.457  73.464  1.00  0.00     0.180 A 
ATOM      4  O   UNL     1       3.218  14.763  73.366  1.00  0.00    -0.452 OA
ATOM      5  C   UNL     1       1.146  13.146  74.162  1.00  0.00     0.239 A 
ATOM      6  C   UNL     1       2.048  15.326  73.642  1.00  0.00     0.146 A 
ATOM      7  O   UNL     1       0.195  12.385  74.486  1.00  0.00    -0.285 OA
ATOM      8  C   UNL     1       0.948  14.538  74.051  1.00  0.00     0.111 A 
ATOM      9  C   UNL     1       1.916  16.713  73.522  1.00  0.00     0.094 A 
ATOM     10  C   UNL     1      -0.289  15.169  74.325  1.00  0.00     0.134 A 
ATOM     11  C   UNL     1       0.693  17.331  73.803  1.00  0.00     0.123 A 
ATOM     12  C   UNL     1      -0.402  16.561  74.202  1.00  0.00     0.093 A 
BRANCH   3  13
ATOM     13  C   UNL     1       4.812  12.957  73.176  1.00  0.00     0.025 A 
ATOM     14  C   UNL     1       5.248  12.696  71.867  1.00  0.00     0.016 A 
ATOM     15  C   UNL     1       6.516  12.151  71.641  1.00  0.00     0.051 A 
ATOM     16  C   UNL     1       7.382  11.893  72.708  1.00  0.00     0.157 A 
ATOM     17  C   UNL     1       5.696  12.731  74.244  1.00  0.00     0.062 A 
ATOM     18  C   UNL     1       6.976  12.205  74.025  1.00  0.00     0.158 A 
BRANCH  16  19
ATOM     19  O   UNL     1       8.624  11.326  72.417  1.00  0.00    -0.504 OA
ATOM     20  H   UNL     1       9.077  10.634  72.997  1.00  0.00     0.293 HD
ENDBRANCH  16  19
BRANCH  18  21
ATOM     21  O   UNL     1       7.799  12.006  75.135  1.00  0.00    -0.504 OA
ATOM     22  H   UNL     1       8.094  12.747  75.760  1.00  0.00     0.293 HD
ENDBRANCH  18  21
ENDBRANCH   3  13
BRANCH  10  23
ATOM     23  O   UNL     1      -1.402  14.427  74.721  1.00  0.00    -0.507 OA
ATOM     24  H   UNL     1      -2.054  14.044  74.046  1.00  0.00     0.293 HD
ENDBRANCH  10  23
BRANCH  11  25
ATOM     25  O   UNL     1       0.555  18.715  73.689  1.00  0.00    -0.508 OA
ATOM     26  H   UNL     1       0.327  19.152  72.804  1.00  0.00     0.293 HD
ENDBRANCH  11  25
ENDBRANCH   1   2
BRANCH   1  27
ATOM     27  C   UNL     1       2.373  10.240  73.075  1.00  0.00     0.339 C 
ATOM     28  C   UNL     1       3.657   9.465  72.703  1.00  0.00     0.214 C 
ATOM     29  O   UNL     1       1.418   9.348  73.610  1.00  0.00    -0.332 OA
ATOM     30  C   UNL     1       3.326   8.029  72.225  1.00  0.00     0.180 C 
ATOM     31  C   UNL     1       0.851   8.531  72.593  1.00  0.00     0.179 C 
ATOM     32  C   UNL     1       1.921   7.978  71.586  1.00  0.00     0.177 C 
BRANCH  28  33
ATOM     33  O   UNL     1       4.519   9.402  73.812  1.00  0.00    -0.384 OA
ATOM     34  H   UNL     1       5.374   9.011  73.491  1.00  0.00     0.211 HD
ENDBRANCH  28  33
BRANCH  30  35
ATOM     35  O   UNL     1       4.289   7.617  71.288  1.00  0.00    -0.387 OA
ATOM     36  H   UNL     1       5.101   7.351  71.795  1.00  0.00     0.211 HD
ENDBRANCH  30  35
BRANCH  31  37
ATOM     37  C   UNL     1       0.040   7.423  73.286  1.00  0.00     0.191 C 
BRANCH  37  38
ATOM     38  O   UNL     1      -0.959   6.942  72.428  1.00  0.00    -0.394 OA
ATOM     39  H   UNL     1      -0.564   6.935  71.516  1.00  0.00     0.210 HD
ENDBRANCH  37  38
ENDBRANCH  31  37
BRANCH  32  40
ATOM     40  O   UNL     1       1.601   6.674  71.162  1.00  0.00    -0.387 OA
ATOM     41  H   UNL     1       2.176   6.470  70.382  1.00  0.00     0.211 HD
ENDBRANCH  32  40
ENDBRANCH   1  27
TORSDOF 12
ENDMDL
MODEL 7
REMARK VINA RESULT:    -4.932      2.321      6.651
REMARK INTER + INTRA:          -8.666
REMARK INTER:                  -7.280
REMARK INTRA:                  -1.386
REMARK UNBOUND:                -1.427
REMARK SMILES O=c1c(O[C@@H]2O[C@H](CO)[C@H](O)[C@@H](O)[C@@H]2O)c(-c2ccc(O)c(O)c2)oc2cc(O)cc(O)c12
REMARK SMILES IDX 4 1 3 2 16 3 25 4 2 5 26 6 1 7 33 8 27 9 31 10 28 11 30 12
REMARK SMILES IDX 17 13 18 14 19 15 20 16 24 17 22 18 21 19 23 21 32 23 29 25
REMARK SMILES IDX 5 27 14 28 6 29 12 30 7 31 10 32 15 33 13 35 8 37 9 38 11 40
REMARK H PARENT 21 20 23 22 32 24 29 26 15 34 13 36 9 39 11 41
REMARK Flexibility Score: inf
ROOT
ATOM      1  O   UNL     1       4.904  15.921  73.530  1.00  0.00    -0.454 OA
ENDROOT
BRANCH   1   2
ATOM      2  C   UNL     1       3.724  15.166  73.560  1.00  0.00     0.214 A 
ATOM      3  C   UNL     1       3.776  13.772  73.359  1.00  0.00     0.180 A 
ATOM      4  O   UNL     1       2.648  13.069  73.329  1.00  0.00    -0.452 OA
ATOM      5  C   UNL     1       2.477  15.773  73.777  1.00  0.00     0.239 A 
ATOM      6  C   UNL     1       1.445  13.607  73.493  1.00  0.00     0.146 A 
ATOM      7  O   UNL     1       2.420  17.008  74.023  1.00  0.00    -0.285 OA
ATOM      8  C   UNL     1       1.303  14.993  73.731  1.00  0.00     0.111 A 
ATOM      9  C   UNL     1       0.318  12.783  73.429  1.00  0.00     0.094 A 
ATOM     10  C   UNL     1       0.007  15.532  73.915  1.00  0.00     0.134 A 
ATOM     11  C   UNL     1      -0.961  13.324  73.602  1.00  0.00     0.123 A 
ATOM     12  C   UNL     1      -1.112  14.690  73.845  1.00  0.00     0.093 A 
BRANCH   3  13
ATOM     13  C   UNL     1       5.054  13.061  73.109  1.00  0.00     0.025 A 
ATOM     14  C   UNL     1       5.447  12.667  71.819  1.00  0.00     0.016 A 
ATOM     15  C   UNL     1       6.619  11.929  71.633  1.00  0.00     0.051 A 
ATOM     16  C   UNL     1       7.439  11.605  72.718  1.00  0.00     0.157 A 
ATOM     17  C   UNL     1       5.896  12.765  74.194  1.00  0.00     0.062 A 
ATOM     18  C   UNL     1       7.083  12.044  74.013  1.00  0.00     0.158 A 
BRANCH  16  19
ATOM     19  O   UNL     1       8.583  10.845  72.468  1.00  0.00    -0.504 OA
ATOM     20  H   UNL     1       9.460  10.972  72.952  1.00  0.00     0.293 HD
ENDBRANCH  16  19
BRANCH  18  21
ATOM     21  O   UNL     1       7.869  11.787  75.139  1.00  0.00    -0.504 OA
ATOM     22  H   UNL     1       8.308  10.895  75.329  1.00  0.00     0.293 HD
ENDBRANCH  18  21
ENDBRANCH   3  13
BRANCH  10  23
ATOM     23  O   UNL     1      -0.177  16.892  74.164  1.00  0.00    -0.507 OA
ATOM     24  H   UNL     1      -1.045  17.363  73.934  1.00  0.00     0.293 HD
ENDBRANCH  10  23
BRANCH  11  25
ATOM     25  O   UNL     1      -2.091  12.508  73.535  1.00  0.00    -0.508 OA
ATOM     26  H   UNL     1      -2.411  12.119  72.657  1.00  0.00     0.293 HD
ENDBRANCH  11  25
ENDBRANCH   1   2
BRANCH   1  27
ATOM     27  C   UNL     1       5.524  16.390  72.331  1.00  0.00     0.339 C 
ATOM     28  C   UNL     1       5.356  17.921  72.208  1.00  0.00     0.214 C 
ATOM     29  O   UNL     1       6.897  16.065  72.385  1.00  0.00    -0.332 OA
ATOM     30  C   UNL     1       6.513  18.546  71.389  1.00  0.00     0.180 C 
ATOM     31  C   UNL     1       7.511  16.214  71.110  1.00  0.00     0.179 C 
ATOM     32  C   UNL     1       7.073  17.528  70.372  1.00  0.00     0.177 C 
BRANCH  28  33
ATOM     33  O   UNL     1       5.319  18.505  73.486  1.00  0.00    -0.384 OA
ATOM     34  H   UNL     1       5.029  17.797  74.119  1.00  0.00     0.211 HD
ENDBRANCH  28  33
BRANCH  30  35
ATOM     35  O   UNL     1       6.042  19.684  70.711  1.00  0.00    -0.387 OA
ATOM     36  H   UNL     1       6.745  19.954  70.061  1.00  0.00     0.211 HD
ENDBRANCH  30  35
BRANCH  31  37
ATOM     37  C   UNL     1       9.031  16.109  71.313  1.00  0.00     0.191 C 
BRANCH  37  38
ATOM     38  O   UNL     1       9.351  14.919  71.982  1.00  0.00    -0.394 OA
ATOM     39  H   UNL     1       8.579  14.308  71.852  1.00  0.00     0.210 HD
ENDBRANCH  37  38
ENDBRANCH  31  37
BRANCH  32  40
ATOM     40  O   UNL     1       8.137  18.079  69.632  1.00  0.00    -0.387 OA
ATOM     41  H   UNL     1       7.784  18.305  68.734  1.00  0.00     0.211 HD
ENDBRANCH  32  40
ENDBRANCH   1  27
TORSDOF 12
ENDMDL
MODEL 8
REMARK VINA RESULT:    -4.916     11.953     13.438
REMARK INTER + INTRA:          -8.642
REMARK INTER:                  -7.078
REMARK INTRA:                  -1.564
REMARK UNBOUND:                -1.427
REMARK SMILES O=c1c(O[C@@H]2O[C@H](CO)[C@H](O)[C@@H](O)[C@@H]2O)c(-c2ccc(O)c(O)c2)oc2cc(O)cc(O)c12
REMARK SMILES IDX 4 1 3 2 16 3 25 4 2 5 26 6 1 7 33 8 27 9 31 10 28 11 30 12
REMARK SMILES IDX 17 13 18 14 19 15 20 16 24 17 22 18 21 19 23 21 32 23 29 25
REMARK SMILES IDX 5 27 14 28 6 29 12 30 7 31 10 32 15 33 13 35 8 37 9 38 11 40
REMARK H PARENT 21 20 23 22 32 24 29 26 15 34 13 36 9 39 11 41
REMARK Flexibility Score: inf
ROOT
ATOM      1  O   UNL     1      -0.212  12.640  62.439  1.00  0.00    -0.454 OA
ENDROOT
BRANCH   1   2
ATOM      2  C   UNL     1       0.849  13.542  62.597  1.00  0.00     0.214 A 
ATOM      3  C   UNL     1       0.719  14.868  62.137  1.00  0.00     0.180 A 
ATOM      4  O   UNL     1       1.749  15.703  62.234  1.00  0.00    -0.452 OA
ATOM      5  C   UNL     1       2.055  13.149  63.199  1.00  0.00     0.239 A 
ATOM      6  C   UNL     1       2.919  15.363  62.764  1.00  0.00     0.146 A 
ATOM      7  O   UNL     1       2.164  11.987  63.674  1.00  0.00    -0.285 OA
ATOM      8  C   UNL     1       3.126  14.063  63.279  1.00  0.00     0.111 A 
ATOM      9  C   UNL     1       3.945  16.311  62.807  1.00  0.00     0.094 A 
ATOM     10  C   UNL     1       4.381  13.739  63.848  1.00  0.00     0.134 A 
ATOM     11  C   UNL     1       5.187  15.981  63.362  1.00  0.00     0.123 A 
ATOM     12  C   UNL     1       5.399  14.702  63.880  1.00  0.00     0.093 A 
BRANCH   3  13
ATOM     13  C   UNL     1      -0.518  15.353  61.477  1.00  0.00     0.025 A 
ATOM     14  C   UNL     1      -1.677  15.666  62.207  1.00  0.00     0.016 A 
ATOM     15  C   UNL     1      -2.848  16.044  61.544  1.00  0.00     0.051 A 
ATOM     16  C   UNL     1      -2.875  16.155  60.150  1.00  0.00     0.157 A 
ATOM     17  C   UNL     1      -0.537  15.499  60.080  1.00  0.00     0.062 A 
ATOM     18  C   UNL     1      -1.700  15.898  59.409  1.00  0.00     0.158 A 
BRANCH  16  19
ATOM     19  O   UNL     1      -4.082  16.514  59.548  1.00  0.00    -0.504 OA
ATOM     20  H   UNL     1      -4.229  17.382  59.053  1.00  0.00     0.293 HD
ENDBRANCH  16  19
BRANCH  18  21
ATOM     21  O   UNL     1      -1.643  16.021  58.019  1.00  0.00    -0.504 OA
ATOM     22  H   UNL     1      -0.897  16.494  57.524  1.00  0.00     0.293 HD
ENDBRANCH  18  21
ENDBRANCH   3  13
BRANCH  10  23
ATOM     23  O   UNL     1       4.623  12.472  64.377  1.00  0.00    -0.507 OA
ATOM     24  H   UNL     1       4.655  11.646  63.790  1.00  0.00     0.293 HD
ENDBRANCH  10  23
BRANCH  11  25
ATOM     25  O   UNL     1       6.217  16.921  63.405  1.00  0.00    -0.508 OA
ATOM     26  H   UNL     1       6.085  17.865  63.064  1.00  0.00     0.293 HD
ENDBRANCH  11  25
ENDBRANCH   1   2
BRANCH   1  27
ATOM     27  C   UNL     1      -0.579  12.048  61.192  1.00  0.00     0.339 C 
ATOM     28  C   UNL     1      -0.014  10.614  61.094  1.00  0.00     0.214 C 
ATOM     29  O   UNL     1      -1.989  12.009  61.118  1.00  0.00    -0.332 OA
ATOM     30  C   UNL     1      -0.893   9.727  60.177  1.00  0.00     0.180 C 
ATOM     31  C   UNL     1      -2.427  11.729  59.794  1.00  0.00     0.179 C 
ATOM     32  C   UNL     1      -1.602  10.584  59.107  1.00  0.00     0.177 C 
BRANCH  28  33
ATOM     33  O   UNL     1       0.059  10.037  62.374  1.00  0.00    -0.384 OA
ATOM     34  H   UNL     1      -0.039   9.056  62.255  1.00  0.00     0.211 HD
ENDBRANCH  28  33
BRANCH  30  35
ATOM     35  O   UNL     1      -0.086   8.759  59.553  1.00  0.00    -0.387 OA
ATOM     36  H   UNL     1      -0.305   7.881  59.964  1.00  0.00     0.211 HD
ENDBRANCH  30  35
BRANCH  31  37
ATOM     37  C   UNL     1      -3.935  11.437  59.857  1.00  0.00     0.191 C 
BRANCH  37  38
ATOM     38  O   UNL     1      -4.189  10.373  60.734  1.00  0.00    -0.394 OA
ATOM     39  H   UNL     1      -3.822  10.644  61.616  1.00  0.00     0.210 HD
ENDBRANCH  37  38
ENDBRANCH  31  37
BRANCH  32  40
ATOM     40  O   UNL     1      -2.417   9.791  58.277  1.00  0.00    -0.387 OA
ATOM     41  H   UNL     1      -2.963   9.213  58.868  1.00  0.00     0.211 HD
ENDBRANCH  32  40
ENDBRANCH   1  27
TORSDOF 12
ENDMDL
MODEL 9
REMARK VINA RESULT:    -4.868      2.196      7.799
REMARK INTER + INTRA:          -8.571
REMARK INTER:                  -7.011
REMARK INTRA:                  -1.560
REMARK UNBOUND:                -1.427
REMARK SMILES O=c1c(O[C@@H]2O[C@H](CO)[C@H](O)[C@@H](O)[C@@H]2O)c(-c2ccc(O)c(O)c2)oc2cc(O)cc(O)c12
REMARK SMILES IDX 4 1 3 2 16 3 25 4 2 5 26 6 1 7 33 8 27 9 31 10 28 11 30 12
REMARK SMILES IDX 17 13 18 14 19 15 20 16 24 17 22 18 21 19 23 21 32 23 29 25
REMARK SMILES IDX 5 27 14 28 6 29 12 30 7 31 10 32 15 33 13 35 8 37 9 38 11 40
REMARK H PARENT 21 20 23 22 32 24 29 26 15 34 13 36 9 39 11 41
REMARK Flexibility Score: inf
ROOT
ATOM      1  O   UNL     1       4.439  12.108  71.951  1.00  0.00    -0.454 OA
ENDROOT
BRANCH   1   2
ATOM      2  C   UNL     1       4.787  10.834  72.418  1.00  0.00     0.214 A 
ATOM      3  C   UNL     1       3.815  10.025  73.043  1.00  0.00     0.180 A 
ATOM      4  O   UNL     1       4.164   8.842  73.538  1.00  0.00    -0.452 OA
ATOM      5  C   UNL     1       6.095  10.342  72.287  1.00  0.00     0.239 A 
ATOM      6  C   UNL     1       5.397   8.354  73.468  1.00  0.00     0.146 A 
ATOM      7  O   UNL     1       6.958  11.025  71.673  1.00  0.00    -0.285 OA
ATOM      8  C   UNL     1       6.426   9.084  72.831  1.00  0.00     0.111 A 
ATOM      9  C   UNL     1       5.666   7.104  74.033  1.00  0.00     0.094 A 
ATOM     10  C   UNL     1       7.726   8.528  72.763  1.00  0.00     0.134 A 
ATOM     11  C   UNL     1       6.955   6.564  73.971  1.00  0.00     0.123 A 
ATOM     12  C   UNL     1       7.977   7.274  73.337  1.00  0.00     0.093 A 
BRANCH   3  13
ATOM     13  C   UNL     1       2.416  10.481  73.231  1.00  0.00     0.025 A 
ATOM     14  C   UNL     1       1.432  10.288  72.247  1.00  0.00     0.016 A 
ATOM     15  C   UNL     1       0.144  10.801  72.427  1.00  0.00     0.051 A 
ATOM     16  C   UNL     1      -0.197  11.478  73.601  1.00  0.00     0.157 A 
ATOM     17  C   UNL     1       2.062  11.130  74.425  1.00  0.00     0.062 A 
ATOM     18  C   UNL     1       0.768  11.629  74.622  1.00  0.00     0.158 A 
BRANCH  16  19
ATOM     19  O   UNL     1      -1.492  11.987  73.709  1.00  0.00    -0.504 OA
ATOM     20  H   UNL     1      -1.704  12.934  73.989  1.00  0.00     0.293 HD
ENDBRANCH  16  19
BRANCH  18  21
ATOM     21  O   UNL     1       0.490  12.263  75.835  1.00  0.00    -0.504 OA
ATOM     22  H   UNL     1      -0.055  13.113  75.916  1.00  0.00     0.293 HD
ENDBRANCH  18  21
ENDBRANCH   3  13
BRANCH  10  23
ATOM     23  O   UNL     1       8.767   9.211  72.133  1.00  0.00    -0.507 OA
ATOM     24  H   UNL     1       8.662  10.169  71.818  1.00  0.00     0.293 HD
ENDBRANCH  10  23
BRANCH  11  25
ATOM     25  O   UNL     1       7.231   5.319  74.536  1.00  0.00    -0.508 OA
ATOM     26  H   UNL     1       6.851   5.051  75.435  1.00  0.00     0.293 HD
ENDBRANCH  11  25
ENDBRANCH   1   2
BRANCH   1  27
ATOM     27  C   UNL     1       4.433  13.284  72.763  1.00  0.00     0.339 C 
ATOM     28  C   UNL     1       5.445  14.315  72.217  1.00  0.00     0.214 C 
ATOM     29  O   UNL     1       3.132  13.835  72.735  1.00  0.00    -0.332 OA
ATOM     30  C   UNL     1       5.019  15.761  72.573  1.00  0.00     0.180 C 
ATOM     31  C   UNL     1       2.967  14.812  73.756  1.00  0.00     0.179 C 
ATOM     32  C   UNL     1       4.196  15.781  73.879  1.00  0.00     0.177 C 
BRANCH  28  33
ATOM     33  O   UNL     1       5.555  14.190  70.821  1.00  0.00    -0.384 OA
ATOM     34  H   UNL     1       4.766  14.648  70.427  1.00  0.00     0.211 HD
ENDBRANCH  28  33
BRANCH  30  35
ATOM     35  O   UNL     1       6.166  16.561  72.722  1.00  0.00    -0.387 OA
ATOM     36  H   UNL     1       6.168  17.218  71.976  1.00  0.00     0.211 HD
ENDBRANCH  30  35
BRANCH  31  37
ATOM     37  C   UNL     1       1.642  15.544  73.486  1.00  0.00     0.191 C 
BRANCH  37  38
ATOM     38  O   UNL     1       0.604  14.957  74.225  1.00  0.00    -0.394 OA
ATOM     39  H   UNL     1       0.138  15.700  74.691  1.00  0.00     0.210 HD
ENDBRANCH  37  38
ENDBRANCH  31  37
BRANCH  32  40
ATOM     40  O   UNL     1       3.788  17.088  74.205  1.00  0.00    -0.387 OA
ATOM     41  H   UNL     1       2.800  17.081  74.266  1.00  0.00     0.211 HD
ENDBRANCH  32  40
ENDBRANCH   1  27
TORSDOF 12
ENDMDL
