MODEL 1
REMARK VINA RESULT:     0.000      0.000      0.000
REMARK INTER + INTRA:          -0.065
REMARK INTER:                   0.000
REMARK INTRA:                  -0.065
REMARK UNBOUND:                -0.065
REMARK SMILES COc1cc2ccc(=O)oc2cc1O
REMARK SMILES IDX 3 1 13 2 12 3 11 4 5 5 4 6 6 7 7 8 8 9 9 10 10 11 2 12 1 13
REMARK SMILES IDX 14 14
REMARK H PARENT 14 15
REMARK Flexibility Score: inf
ROOT
ATOM      1  C   UNL     1       6.931  23.841  44.546  1.00  0.00     0.161 A 
ATOM      2  C   UNL     1       5.591  23.422  44.550  1.00  0.00     0.161 A 
ATOM      3  C   UNL     1       4.591  24.242  44.005  1.00  0.00     0.098 A 
ATOM      4  C   UNL     1       4.921  25.482  43.454  1.00  0.00     0.142 A 
ATOM      5  C   UNL     1       6.264  25.911  43.445  1.00  0.00     0.022 A 
ATOM      6  C   UNL     1       7.263  25.093  43.990  1.00  0.00     0.062 A 
ATOM      7  C   UNL     1       6.562  27.158  42.887  1.00  0.00     0.019 A 
ATOM      8  C   UNL     1       5.531  27.935  42.358  1.00  0.00     0.094 A 
ATOM      9  C   UNL     1       4.222  27.445  42.401  1.00  0.00     0.336 A 
ATOM     10  O   UNL     1       3.278  28.131  41.929  1.00  0.00    -0.246 OA
ATOM     11  O   UNL     1       3.967  26.254  42.938  1.00  0.00    -0.423 OA
ENDROOT
BRANCH   1  12
ATOM     12  O   UNL     1       7.899  22.990  45.102  1.00  0.00    -0.493 OA
ATOM     13  C   UNL     1       8.486  23.166  46.386  1.00  0.00     0.278 C 
ENDBRANCH   1  12
BRANCH   2  14
ATOM     14  O   UNL     1       5.260  22.185  45.100  1.00  0.00    -0.504 OA
ATOM     15  H   UNL     1       4.306  21.954  45.353  1.00  0.00     0.293 HD
ENDBRANCH   2  14
TORSDOF 2
ENDMDL
MODEL 2
REMARK VINA RESULT:     0.000     15.707     19.460
REMARK INTER + INTRA:          -0.065
REMARK INTER:                   0.000
REMARK INTRA:                  -0.065
REMARK UNBOUND:                -0.065
REMARK SMILES COc1cc2ccc(=O)oc2cc1O
REMARK SMILES IDX 3 1 13 2 12 3 11 4 5 5 4 6 6 7 7 8 8 9 9 10 10 11 2 12 1 13
REMARK SMILES IDX 14 14
REMARK H PARENT 14 15
REMARK Flexibility Score: inf
ROOT
ATOM      1  C   UNL     1      13.517  18.504  57.800  1.00  0.00     0.161 A 
ATOM      2  C   UNL     1      13.390  18.151  59.153  1.00  0.00     0.161 A 
ATOM      3  C   UNL     1      14.530  18.001  59.956  1.00  0.00     0.098 A 
ATOM      4  C   UNL     1      15.803  18.201  59.416  1.00  0.00     0.142 A 
ATOM      5  C   UNL     1      15.939  18.557  58.058  1.00  0.00     0.022 A 
ATOM      6  C   UNL     1      14.801  18.707  57.255  1.00  0.00     0.062 A 
ATOM      7  C   UNL     1      17.226  18.751  57.546  1.00  0.00     0.019 A 
ATOM      8  C   UNL     1      18.329  18.590  58.386  1.00  0.00     0.094 A 
ATOM      9  C   UNL     1      18.116  18.236  59.722  1.00  0.00     0.336 A 
ATOM     10  O   UNL     1      19.098  18.086  60.496  1.00  0.00    -0.246 OA
ATOM     11  O   UNL     1      16.881  18.058  60.183  1.00  0.00    -0.423 OA
ENDROOT
BRANCH   1  12
ATOM     12  O   UNL     1      12.349  18.643  57.035  1.00  0.00    -0.493 OA
ATOM     13  C   UNL     1      11.766  19.890  56.673  1.00  0.00     0.278 C 
ENDBRANCH   1  12
BRANCH   2  14
ATOM     14  O   UNL     1      12.121  17.949  59.695  1.00  0.00    -0.504 OA
ATOM     15  H   UNL     1      11.634  17.066  59.593  1.00  0.00     0.293 HD
ENDBRANCH   2  14
TORSDOF 2
ENDMDL
MODEL 3
REMARK VINA RESULT:     0.000     10.427     13.551
REMARK INTER + INTRA:          -0.065
REMARK INTER:                   0.000
REMARK INTRA:                  -0.065
REMARK UNBOUND:                -0.065
REMARK SMILES COc1cc2ccc(=O)oc2cc1O
REMARK SMILES IDX 3 1 13 2 12 3 11 4 5 5 4 6 6 7 7 8 8 9 9 10 10 11 2 12 1 13
REMARK SMILES IDX 14 14
REMARK H PARENT 14 15
REMARK Flexibility Score: inf
ROOT
ATOM      1  C   UNL     1      14.853  24.594  51.269  1.00  0.00     0.161 A 
ATOM      2  C   UNL     1      15.456  23.541  51.976  1.00  0.00     0.161 A 
ATOM      3  C   UNL     1      15.438  23.528  53.379  1.00  0.00     0.098 A 
ATOM      4  C   UNL     1      14.820  24.564  54.084  1.00  0.00     0.142 A 
ATOM      5  C   UNL     1      14.211  25.625  53.382  1.00  0.00     0.022 A 
ATOM      6  C   UNL     1      14.229  25.638  51.981  1.00  0.00     0.062 A 
ATOM      7  C   UNL     1      13.601  26.646  54.117  1.00  0.00     0.019 A 
ATOM      8  C   UNL     1      13.610  26.587  55.511  1.00  0.00     0.094 A 
ATOM      9  C   UNL     1      14.233  25.504  56.139  1.00  0.00     0.336 A 
ATOM     10  O   UNL     1      14.252  25.431  57.395  1.00  0.00    -0.246 OA
ATOM     11  O   UNL     1      14.806  24.545  55.415  1.00  0.00    -0.423 OA
ENDROOT
BRANCH   1  12
ATOM     12  O   UNL     1      14.895  24.566  49.866  1.00  0.00    -0.493 OA
ATOM     13  C   UNL     1      13.801  24.194  49.034  1.00  0.00     0.278 C 
ENDBRANCH   1  12
BRANCH   2  14
ATOM     14  O   UNL     1      16.074  22.508  51.275  1.00  0.00    -0.504 OA
ATOM     15  H   UNL     1      17.053  22.283  51.412  1.00  0.00     0.293 HD
ENDBRANCH   2  14
TORSDOF 2
ENDMDL
MODEL 4
REMARK VINA RESULT:     0.000     11.904     14.672
REMARK INTER + INTRA:          -0.065
REMARK INTER:                   0.000
REMARK INTRA:                  -0.065
REMARK UNBOUND:                -0.065
REMARK SMILES COc1cc2ccc(=O)oc2cc1O
REMARK SMILES IDX 3 1 13 2 12 3 11 4 5 5 4 6 6 7 7 8 8 9 9 10 10 11 2 12 1 13
REMARK SMILES IDX 14 14
REMARK H PARENT 14 15
REMARK Flexibility Score: inf
ROOT
ATOM      1  C   UNL     1      14.384  23.508  53.281  1.00  0.00     0.161 A 
ATOM      2  C   UNL     1      13.950  22.747  52.184  1.00  0.00     0.161 A 
ATOM      3  C   UNL     1      14.602  21.550  51.851  1.00  0.00     0.098 A 
ATOM      4  C   UNL     1      15.688  21.106  52.608  1.00  0.00     0.142 A 
ATOM      5  C   UNL     1      16.130  21.864  53.712  1.00  0.00     0.022 A 
ATOM      6  C   UNL     1      15.480  23.060  54.045  1.00  0.00     0.062 A 
ATOM      7  C   UNL     1      17.221  21.393  54.450  1.00  0.00     0.019 A 
ATOM      8  C   UNL     1      17.834  20.197  54.078  1.00  0.00     0.094 A 
ATOM      9  C   UNL     1      17.341  19.498  52.971  1.00  0.00     0.336 A 
ATOM     10  O   UNL     1      17.881  18.417  52.619  1.00  0.00    -0.246 OA
ATOM     11  O   UNL     1      16.302  19.969  52.286  1.00  0.00    -0.423 OA
ENDROOT
BRANCH   1  12
ATOM     12  O   UNL     1      13.702  24.699  53.578  1.00  0.00    -0.493 OA
ATOM     13  C   UNL     1      12.756  24.845  54.631  1.00  0.00     0.278 C 
ENDBRANCH   1  12
BRANCH   2  14
ATOM     14  O   UNL     1      12.867  23.188  51.426  1.00  0.00    -0.504 OA
ATOM     15  H   UNL     1      12.709  24.173  51.247  1.00  0.00     0.293 HD
ENDBRANCH   2  14
TORSDOF 2
ENDMDL
MODEL 5
REMARK VINA RESULT:     0.000      7.797      9.856
REMARK INTER + INTRA:          -0.065
REMARK INTER:                   0.000
REMARK INTRA:                  -0.065
REMARK UNBOUND:                -0.065
REMARK SMILES COc1cc2ccc(=O)oc2cc1O
REMARK SMILES IDX 3 1 13 2 12 3 11 4 5 5 4 6 6 7 7 8 8 9 9 10 10 11 2 12 1 13
REMARK SMILES IDX 14 14
REMARK H PARENT 14 15
REMARK Flexibility Score: inf
ROOT
ATOM      1  C   UNL     1       5.556  16.095  49.467  1.00  0.00     0.161 A 
ATOM      2  C   UNL     1       6.158  16.385  50.701  1.00  0.00     0.161 A 
ATOM      3  C   UNL     1       6.142  17.693  51.208  1.00  0.00     0.098 A 
ATOM      4  C   UNL     1       5.526  18.719  50.487  1.00  0.00     0.142 A 
ATOM      5  C   UNL     1       4.917  18.437  49.246  1.00  0.00     0.022 A 
ATOM      6  C   UNL     1       4.934  17.131  48.740  1.00  0.00     0.062 A 
ATOM      7  C   UNL     1       4.309  19.485  48.549  1.00  0.00     0.019 A 
ATOM      8  C   UNL     1       4.320  20.769  49.096  1.00  0.00     0.094 A 
ATOM      9  C   UNL     1       4.942  20.974  50.331  1.00  0.00     0.336 A 
ATOM     10  O   UNL     1       4.963  22.124  50.842  1.00  0.00    -0.246 OA
ATOM     11  O   UNL     1       5.514  19.958  50.974  1.00  0.00    -0.423 OA
ENDROOT
BRANCH   1  12
ATOM     12  O   UNL     1       5.596  14.773  48.998  1.00  0.00    -0.493 OA
ATOM     13  C   UNL     1       4.501  13.865  49.052  1.00  0.00     0.278 C 
ENDBRANCH   1  12
BRANCH   2  14
ATOM     14  O   UNL     1       6.775  15.363  51.422  1.00  0.00    -0.504 OA
ATOM     15  H   UNL     1       7.067  14.501  50.977  1.00  0.00     0.293 HD
ENDBRANCH   2  14
TORSDOF 2
ENDMDL
MODEL 6
REMARK VINA RESULT:     0.000     13.595     14.620
REMARK INTER + INTRA:          -0.065
REMARK INTER:                   0.000
REMARK INTRA:                  -0.065
REMARK UNBOUND:                -0.065
REMARK SMILES COc1cc2ccc(=O)oc2cc1O
REMARK SMILES IDX 3 1 13 2 12 3 11 4 5 5 4 6 6 7 7 8 8 9 9 10 10 11 2 12 1 13
REMARK SMILES IDX 14 14
REMARK H PARENT 14 15
REMARK Flexibility Score: inf
ROOT
ATOM      1  C   UNL     1       8.473  14.881  52.846  1.00  0.00     0.161 A 
ATOM      2  C   UNL     1       7.499  14.603  51.873  1.00  0.00     0.161 A 
ATOM      3  C   UNL     1       7.849  13.932  50.692  1.00  0.00     0.098 A 
ATOM      4  C   UNL     1       9.170  13.534  50.473  1.00  0.00     0.142 A 
ATOM      5  C   UNL     1      10.154  13.809  51.445  1.00  0.00     0.022 A 
ATOM      6  C   UNL     1       9.806  14.479  52.625  1.00  0.00     0.062 A 
ATOM      7  C   UNL     1      11.468  13.398  51.197  1.00  0.00     0.019 A 
ATOM      8  C   UNL     1      11.765  12.734  50.006  1.00  0.00     0.094 A 
ATOM      9  C   UNL     1      10.736  12.496  49.089  1.00  0.00     0.336 A 
ATOM     10  O   UNL     1      10.983  11.898  48.009  1.00  0.00    -0.246 OA
ATOM     11  O   UNL     1       9.495  12.897  49.350  1.00  0.00    -0.423 OA
ENDROOT
BRANCH   1  12
ATOM     12  O   UNL     1       8.078  15.554  54.012  1.00  0.00    -0.493 OA
ATOM     13  C   UNL     1       7.875  14.929  55.275  1.00  0.00     0.278 C 
ENDBRANCH   1  12
BRANCH   2  14
ATOM     14  O   UNL     1       6.180  14.999  52.089  1.00  0.00    -0.504 OA
ATOM     15  H   UNL     1       5.453  14.821  51.405  1.00  0.00     0.293 HD
ENDBRANCH   2  14
TORSDOF 2
ENDMDL
MODEL 7
REMARK VINA RESULT:     0.000     14.669     16.678
REMARK INTER + INTRA:          -0.065
REMARK INTER:                   0.000
REMARK INTRA:                  -0.065
REMARK UNBOUND:                -0.065
REMARK SMILES COc1cc2ccc(=O)oc2cc1O
REMARK SMILES IDX 3 1 13 2 12 3 11 4 5 5 4 6 6 7 7 8 8 9 9 10 10 11 2 12 1 13
REMARK SMILES IDX 14 14
REMARK H PARENT 14 15
REMARK Flexibility Score: inf
ROOT
ATOM      1  C   UNL     1      17.163  18.689  52.004  1.00  0.00     0.161 A 
ATOM      2  C   UNL     1      18.082  18.107  52.891  1.00  0.00     0.161 A 
ATOM      3  C   UNL     1      19.052  18.897  53.526  1.00  0.00     0.098 A 
ATOM      4  C   UNL     1      19.111  20.270  53.280  1.00  0.00     0.142 A 
ATOM      5  C   UNL     1      18.191  20.864  52.390  1.00  0.00     0.022 A 
ATOM      6  C   UNL     1      17.223  20.075  51.756  1.00  0.00     0.062 A 
ATOM      7  C   UNL     1      18.277  22.242  52.165  1.00  0.00     0.019 A 
ATOM      8  C   UNL     1      19.259  22.983  52.821  1.00  0.00     0.094 A 
ATOM      9  C   UNL     1      20.137  22.327  53.689  1.00  0.00     0.336 A 
ATOM     10  O   UNL     1      21.031  22.978  54.291  1.00  0.00    -0.246 OA
ATOM     11  O   UNL     1      20.034  21.015  53.886  1.00  0.00    -0.423 OA
ENDROOT
BRANCH   1  12
ATOM     12  O   UNL     1      16.210  17.860  51.391  1.00  0.00    -0.493 OA
ATOM     13  C   UNL     1      14.845  17.774  51.784  1.00  0.00     0.278 C 
ENDBRANCH   1  12
BRANCH   2  14
ATOM     14  O   UNL     1      18.026  16.736  53.137  1.00  0.00    -0.504 OA
ATOM     15  H   UNL     1      18.687  16.279  53.754  1.00  0.00     0.293 HD
ENDBRANCH   2  14
TORSDOF 2
ENDMDL
MODEL 8
REMARK VINA RESULT:     0.000     17.651     17.963
REMARK INTER + INTRA:          -0.065
REMARK INTER:                   0.000
REMARK INTRA:                  -0.065
REMARK UNBOUND:                -0.065
REMARK SMILES COc1cc2ccc(=O)oc2cc1O
REMARK SMILES IDX 3 1 13 2 12 3 11 4 5 5 4 6 6 7 7 8 8 9 9 10 10 11 2 12 1 13
REMARK SMILES IDX 14 14
REMARK H PARENT 14 15
REMARK Flexibility Score: inf
ROOT
ATOM      1  C   UNL     1      15.741  16.441  55.621  1.00  0.00     0.161 A 
ATOM      2  C   UNL     1      14.595  15.637  55.725  1.00  0.00     0.161 A 
ATOM      3  C   UNL     1      14.343  14.637  54.774  1.00  0.00     0.098 A 
ATOM      4  C   UNL     1      15.232  14.432  53.716  1.00  0.00     0.142 A 
ATOM      5  C   UNL     1      16.386  15.234  53.605  1.00  0.00     0.022 A 
ATOM      6  C   UNL     1      16.638  16.234  54.554  1.00  0.00     0.062 A 
ATOM      7  C   UNL     1      17.257  15.005  52.535  1.00  0.00     0.019 A 
ATOM      8  C   UNL     1      16.962  13.997  51.616  1.00  0.00     0.094 A 
ATOM      9  C   UNL     1      15.798  13.241  51.790  1.00  0.00     0.336 A 
ATOM     10  O   UNL     1      15.514  12.327  50.972  1.00  0.00    -0.246 OA
ATOM     11  O   UNL     1      14.987  13.480  52.818  1.00  0.00    -0.423 OA
ENDROOT
BRANCH   1  12
ATOM     12  O   UNL     1      15.953  17.430  56.595  1.00  0.00    -0.493 OA
ATOM     13  C   UNL     1      16.876  17.316  57.672  1.00  0.00     0.278 C 
ENDBRANCH   1  12
BRANCH   2  14
ATOM     14  O   UNL     1      13.706  15.840  56.779  1.00  0.00    -0.504 OA
ATOM     15  H   UNL     1      12.799  15.388  56.804  1.00  0.00     0.293 HD
ENDBRANCH   2  14
TORSDOF 2
ENDMDL
MODEL 9
REMARK VINA RESULT:     0.000     19.603     23.799
REMARK INTER + INTRA:          -0.065
REMARK INTER:                   0.000
REMARK INTRA:                  -0.065
REMARK UNBOUND:                -0.065
REMARK SMILES COc1cc2ccc(=O)oc2cc1O
REMARK SMILES IDX 3 1 13 2 12 3 11 4 5 5 4 6 6 7 7 8 8 9 9 10 10 11 2 12 1 13
REMARK SMILES IDX 14 14
REMARK H PARENT 14 15
REMARK Flexibility Score: inf
ROOT
ATOM      1  C   UNL     1      18.301  14.373  57.205  1.00  0.00     0.161 A 
ATOM      2  C   UNL     1      18.521  13.044  56.809  1.00  0.00     0.161 A 
ATOM      3  C   UNL     1      19.297  12.187  57.603  1.00  0.00     0.098 A 
ATOM      4  C   UNL     1      19.859  12.650  58.795  1.00  0.00     0.142 A 
ATOM      5  C   UNL     1      19.643  13.983  59.201  1.00  0.00     0.022 A 
ATOM      6  C   UNL     1      18.867  14.839  58.409  1.00  0.00     0.062 A 
ATOM      7  C   UNL     1      20.218  14.416  60.400  1.00  0.00     0.019 A 
ATOM      8  C   UNL     1      20.982  13.524  61.154  1.00  0.00     0.094 A 
ATOM      9  C   UNL     1      21.154  12.217  60.688  1.00  0.00     0.336 A 
ATOM     10  O   UNL     1      21.840  11.397  61.354  1.00  0.00    -0.246 OA
ATOM     11  O   UNL     1      20.595  11.831  59.544  1.00  0.00    -0.423 OA
ENDROOT
BRANCH   1  12
ATOM     12  O   UNL     1      17.517  15.195  56.380  1.00  0.00    -0.493 OA
ATOM     13  C   UNL     1      18.038  16.186  55.501  1.00  0.00     0.278 C 
ENDBRANCH   1  12
BRANCH   2  14
ATOM     14  O   UNL     1      17.962  12.581  55.618  1.00  0.00    -0.504 OA
ATOM     15  H   UNL     1      18.247  11.700  55.205  1.00  0.00     0.293 HD
ENDBRANCH   2  14
TORSDOF 2
ENDMDL
