MODEL 1
REMARK VINA RESULT:    -3.287      0.000      0.000
REMARK INTER + INTRA:          -6.495
REMARK INTER:                  -5.209
REMARK INTRA:                  -1.286
REMARK UNBOUND:                -1.286
REMARK SMILES CCCCCCCCCCCC(=O)[O-]
REMARK SMILES IDX 7 1 8 2 9 3 10 4 11 5 12 6 13 7 14 8 6 9 5 10 4 11 3 12 2 13
REMARK SMILES IDX 1 14
REMARK H PARENT
REMARK Flexibility Score: inf
ROOT
ATOM      1  C   UNL     1      56.670  26.654  51.762  1.00  0.00     0.000 C 
ENDROOT
BRANCH   1   2
ATOM      2  C   UNL     1      57.094  26.195  50.362  1.00  0.00     0.000 C 
BRANCH   2   3
ATOM      3  C   UNL     1      58.586  25.828  50.332  1.00  0.00     0.000 C 
BRANCH   3   4
ATOM      4  C   UNL     1      59.376  26.650  49.300  1.00  0.00     0.006 C 
BRANCH   4   5
ATOM      5  C   UNL     1      60.169  27.796  49.942  1.00  0.00     0.053 C 
BRANCH   5   6
ATOM      6  C   UNL     1      59.388  29.071  49.876  1.00  0.00     0.041 C 
ATOM      7  O   UNL     1      59.346  29.840  50.872  1.00  0.00    -0.550 OA
ATOM      8  O   UNL     1      58.748  29.435  48.698  1.00  0.00    -0.550 OA
ENDBRANCH   5   6
ENDBRANCH   4   5
ENDBRANCH   3   4
ENDBRANCH   2   3
ENDBRANCH   1   2
BRANCH   1   9
ATOM      9  C   UNL     1      56.296  28.144  51.763  1.00  0.00     0.000 C 
BRANCH   9  10
ATOM     10  C   UNL     1      55.740  28.617  50.412  1.00  0.00    -0.000 C 
BRANCH  10  11
ATOM     11  C   UNL     1      54.287  29.107  50.508  1.00  0.00    -0.000 C 
BRANCH  11  12
ATOM     12  C   UNL     1      53.354  28.222  49.668  1.00  0.00    -0.000 C 
BRANCH  12  13
ATOM     13  C   UNL     1      53.366  26.753  50.121  1.00  0.00    -0.003 C 
ATOM     14  C   UNL     1      53.631  25.782  48.970  1.00  0.00     0.004 C 
ENDBRANCH  12  13
ENDBRANCH  11  12
ENDBRANCH  10  11
ENDBRANCH   9  10
ENDBRANCH   1   9
TORSDOF 10
ENDMDL
MODEL 2
REMARK VINA RESULT:    -3.219     12.260     13.924
REMARK INTER + INTRA:          -6.388
REMARK INTER:                  -5.660
REMARK INTRA:                  -0.728
REMARK UNBOUND:                -1.286
REMARK SMILES CCCCCCCCCCCC(=O)[O-]
REMARK SMILES IDX 7 1 8 2 9 3 10 4 11 5 12 6 13 7 14 8 6 9 5 10 4 11 3 12 2 13
REMARK SMILES IDX 1 14
REMARK H PARENT
REMARK Flexibility Score: inf
ROOT
ATOM      1  C   UNL     1      61.143  31.439  59.905  1.00  0.00     0.000 C 
ENDROOT
BRANCH   1   2
ATOM      2  C   UNL     1      61.100  31.337  61.435  1.00  0.00     0.000 C 
BRANCH   2   3
ATOM      3  C   UNL     1      62.011  30.206  61.936  1.00  0.00     0.000 C 
BRANCH   3   4
ATOM      4  C   UNL     1      63.497  30.468  61.642  1.00  0.00     0.006 C 
BRANCH   4   5
ATOM      5  C   UNL     1      64.105  29.424  60.697  1.00  0.00     0.053 C 
BRANCH   5   6
ATOM      6  C   UNL     1      65.589  29.600  60.612  1.00  0.00     0.041 C 
ATOM      7  O   UNL     1      66.348  28.964  61.391  1.00  0.00    -0.550 OA
ATOM      8  O   UNL     1      66.137  30.426  59.641  1.00  0.00    -0.550 OA
ENDBRANCH   5   6
ENDBRANCH   4   5
ENDBRANCH   3   4
ENDBRANCH   2   3
ENDBRANCH   1   2
BRANCH   1   9
ATOM      9  C   UNL     1      61.525  32.858  59.459  1.00  0.00     0.000 C 
BRANCH   9  10
ATOM     10  C   UNL     1      61.958  33.752  60.631  1.00  0.00    -0.000 C 
BRANCH  10  11
ATOM     11  C   UNL     1      61.410  35.183  60.518  1.00  0.00    -0.000 C 
BRANCH  11  12
ATOM     12  C   UNL     1      62.443  36.206  61.014  1.00  0.00    -0.000 C 
BRANCH  12  13
ATOM     13  C   UNL     1      63.763  35.550  61.450  1.00  0.00    -0.003 C 
ATOM     14  C   UNL     1      64.696  36.522  62.172  1.00  0.00     0.004 C 
ENDBRANCH  12  13
ENDBRANCH  11  12
ENDBRANCH  10  11
ENDBRANCH   9  10
ENDBRANCH   1   9
TORSDOF 10
ENDMDL
MODEL 3
REMARK VINA RESULT:    -3.192     12.475     13.933
REMARK INTER + INTRA:          -6.345
REMARK INTER:                  -4.997
REMARK INTRA:                  -1.348
REMARK UNBOUND:                -1.286
REMARK SMILES CCCCCCCCCCCC(=O)[O-]
REMARK SMILES IDX 7 1 8 2 9 3 10 4 11 5 12 6 13 7 14 8 6 9 5 10 4 11 3 12 2 13
REMARK SMILES IDX 1 14
REMARK H PARENT
REMARK Flexibility Score: inf
ROOT
ATOM      1  C   UNL     1      60.689  32.188  60.174  1.00  0.00     0.000 C 
ENDROOT
BRANCH   1   2
ATOM      2  C   UNL     1      61.732  33.239  60.571  1.00  0.00     0.000 C 
BRANCH   2   3
ATOM      3  C   UNL     1      62.681  33.541  59.402  1.00  0.00     0.000 C 
BRANCH   3   4
ATOM      4  C   UNL     1      64.063  34.026  59.871  1.00  0.00     0.006 C 
BRANCH   4   5
ATOM      5  C   UNL     1      64.096  34.353  61.370  1.00  0.00     0.053 C 
BRANCH   5   6
ATOM      6  C   UNL     1      64.214  35.830  61.578  1.00  0.00     0.041 C 
ATOM      7  O   UNL     1      63.181  36.528  61.763  1.00  0.00    -0.550 OA
ATOM      8  O   UNL     1      65.465  36.430  61.618  1.00  0.00    -0.550 OA
ENDBRANCH   5   6
ENDBRANCH   4   5
ENDBRANCH   3   4
ENDBRANCH   2   3
ENDBRANCH   1   2
BRANCH   1   9
ATOM      9  C   UNL     1      60.509  31.143  61.285  1.00  0.00     0.000 C 
BRANCH   9  10
ATOM     10  C   UNL     1      61.841  30.723  61.926  1.00  0.00    -0.000 C 
BRANCH  10  11
ATOM     11  C   UNL     1      62.226  29.273  61.596  1.00  0.00    -0.000 C 
BRANCH  11  12
ATOM     12  C   UNL     1      63.532  29.224  60.788  1.00  0.00    -0.000 C 
BRANCH  12  13
ATOM     13  C   UNL     1      64.390  30.485  60.974  1.00  0.00    -0.003 C 
ATOM     14  C   UNL     1      65.521  30.587  59.950  1.00  0.00     0.004 C 
ENDBRANCH  12  13
ENDBRANCH  11  12
ENDBRANCH  10  11
ENDBRANCH   9  10
ENDBRANCH   1   9
TORSDOF 10
ENDMDL
MODEL 4
REMARK VINA RESULT:    -3.106      1.676      2.687
REMARK INTER + INTRA:          -6.209
REMARK INTER:                  -5.128
REMARK INTRA:                  -1.080
REMARK UNBOUND:                -1.286
REMARK SMILES CCCCCCCCCCCC(=O)[O-]
REMARK SMILES IDX 7 1 8 2 9 3 10 4 11 5 12 6 13 7 14 8 6 9 5 10 4 11 3 12 2 13
REMARK SMILES IDX 1 14
REMARK H PARENT
REMARK Flexibility Score: inf
ROOT
ATOM      1  C   UNL     1      56.604  27.233  51.341  1.00  0.00     0.000 C 
ENDROOT
BRANCH   1   2
ATOM      2  C   UNL     1      57.070  27.720  49.964  1.00  0.00     0.000 C 
BRANCH   2   3
ATOM      3  C   UNL     1      57.535  29.183  50.026  1.00  0.00     0.000 C 
BRANCH   3   4
ATOM      4  C   UNL     1      58.892  29.403  49.337  1.00  0.00     0.006 C 
BRANCH   4   5
ATOM      5  C   UNL     1      59.611  28.086  49.017  1.00  0.00     0.053 C 
BRANCH   5   6
ATOM      6  C   UNL     1      61.032  28.141  49.485  1.00  0.00     0.041 C 
ATOM      7  O   UNL     1      61.733  27.095  49.507  1.00  0.00    -0.550 OA
ATOM      8  O   UNL     1      61.597  29.356  49.850  1.00  0.00    -0.550 OA
ENDBRANCH   5   6
ENDBRANCH   4   5
ENDBRANCH   3   4
ENDBRANCH   2   3
ENDBRANCH   1   2
BRANCH   1   9
ATOM      9  C   UNL     1      55.273  26.474  51.236  1.00  0.00     0.000 C 
BRANCH   9  10
ATOM     10  C   UNL     1      54.909  26.114  49.787  1.00  0.00    -0.000 C 
BRANCH  10  11
ATOM     11  C   UNL     1      53.564  26.713  49.348  1.00  0.00    -0.000 C 
BRANCH  11  12
ATOM     12  C   UNL     1      53.046  27.718  50.389  1.00  0.00    -0.000 C 
BRANCH  12  13
ATOM     13  C   UNL     1      53.233  29.178  49.946  1.00  0.00    -0.003 C 
ATOM     14  C   UNL     1      53.879  30.045  51.026  1.00  0.00     0.004 C 
ENDBRANCH  12  13
ENDBRANCH  11  12
ENDBRANCH  10  11
ENDBRANCH   9  10
ENDBRANCH   1   9
TORSDOF 10
ENDMDL
MODEL 5
REMARK VINA RESULT:    -3.077      1.759      2.495
REMARK INTER + INTRA:          -6.162
REMARK INTER:                  -5.003
REMARK INTRA:                  -1.159
REMARK UNBOUND:                -1.286
REMARK SMILES CCCCCCCCCCCC(=O)[O-]
REMARK SMILES IDX 7 1 8 2 9 3 10 4 11 5 12 6 13 7 14 8 6 9 5 10 4 11 3 12 2 13
REMARK SMILES IDX 1 14
REMARK H PARENT
REMARK Flexibility Score: inf
ROOT
ATOM      1  C   UNL     1      56.058  29.727  52.731  1.00  0.00     0.000 C 
ENDROOT
BRANCH   1   2
ATOM      2  C   UNL     1      57.346  28.926  52.505  1.00  0.00     0.000 C 
BRANCH   2   3
ATOM      3  C   UNL     1      58.235  29.601  51.449  1.00  0.00     0.000 C 
BRANCH   3   4
ATOM      4  C   UNL     1      57.794  29.278  50.011  1.00  0.00     0.006 C 
BRANCH   4   5
ATOM      5  C   UNL     1      58.968  29.269  49.023  1.00  0.00     0.053 C 
BRANCH   5   6
ATOM      6  C   UNL     1      59.738  27.992  49.139  1.00  0.00     0.041 C 
ATOM      7  O   UNL     1      60.998  28.010  49.148  1.00  0.00    -0.550 OA
ATOM      8  O   UNL     1      59.067  26.786  49.290  1.00  0.00    -0.550 OA
ENDBRANCH   5   6
ENDBRANCH   4   5
ENDBRANCH   3   4
ENDBRANCH   2   3
ENDBRANCH   1   2
BRANCH   1   9
ATOM      9  C   UNL     1      54.877  28.795  53.042  1.00  0.00     0.000 C 
BRANCH   9  10
ATOM     10  C   UNL     1      53.708  28.970  52.060  1.00  0.00    -0.000 C 
BRANCH  10  11
ATOM     11  C   UNL     1      54.176  29.184  50.613  1.00  0.00    -0.000 C 
BRANCH  11  12
ATOM     12  C   UNL     1      53.500  28.183  49.665  1.00  0.00    -0.000 C 
BRANCH  12  13
ATOM     13  C   UNL     1      53.910  26.729  49.949  1.00  0.00    -0.003 C 
ATOM     14  C   UNL     1      55.420  26.512  49.853  1.00  0.00     0.004 C 
ENDBRANCH  12  13
ENDBRANCH  11  12
ENDBRANCH  10  11
ENDBRANCH   9  10
ENDBRANCH   1   9
TORSDOF 10
ENDMDL
MODEL 6
REMARK VINA RESULT:    -3.076     11.575     13.401
REMARK INTER + INTRA:          -6.160
REMARK INTER:                  -4.793
REMARK INTRA:                  -1.367
REMARK UNBOUND:                -1.286
REMARK SMILES CCCCCCCCCCCC(=O)[O-]
REMARK SMILES IDX 7 1 8 2 9 3 10 4 11 5 12 6 13 7 14 8 6 9 5 10 4 11 3 12 2 13
REMARK SMILES IDX 1 14
REMARK H PARENT
REMARK Flexibility Score: inf
ROOT
ATOM      1  C   UNL     1      60.632  33.929  57.656  1.00  0.00     0.000 C 
ENDROOT
BRANCH   1   2
ATOM      2  C   UNL     1      61.441  33.021  58.590  1.00  0.00     0.000 C 
BRANCH   2   3
ATOM      3  C   UNL     1      60.517  32.264  59.557  1.00  0.00     0.000 C 
BRANCH   3   4
ATOM      4  C   UNL     1      60.918  32.455  61.029  1.00  0.00     0.006 C 
BRANCH   4   5
ATOM      5  C   UNL     1      60.830  31.154  61.838  1.00  0.00     0.053 C 
BRANCH   5   6
ATOM      6  C   UNL     1      62.094  30.366  61.697  1.00  0.00     0.041 C 
ATOM      7  O   UNL     1      63.191  30.956  61.506  1.00  0.00    -0.550 OA
ATOM      8  O   UNL     1      62.070  28.983  61.825  1.00  0.00    -0.550 OA
ENDBRANCH   5   6
ENDBRANCH   4   5
ENDBRANCH   3   4
ENDBRANCH   2   3
ENDBRANCH   1   2
BRANCH   1   9
ATOM      9  C   UNL     1      60.052  35.128  58.420  1.00  0.00     0.000 C 
BRANCH   9  10
ATOM     10  C   UNL     1      61.140  36.055  58.984  1.00  0.00    -0.000 C 
BRANCH  10  11
ATOM     11  C   UNL     1      60.916  36.399  60.464  1.00  0.00    -0.000 C 
BRANCH  11  12
ATOM     12  C   UNL     1      62.235  36.332  61.249  1.00  0.00    -0.000 C 
BRANCH  12  13
ATOM     13  C   UNL     1      63.364  35.659  60.451  1.00  0.00    -0.003 C 
ATOM     14  C   UNL     1      64.002  34.490  61.201  1.00  0.00     0.004 C 
ENDBRANCH  12  13
ENDBRANCH  11  12
ENDBRANCH  10  11
ENDBRANCH   9  10
ENDBRANCH   1   9
TORSDOF 10
ENDMDL
MODEL 7
REMARK VINA RESULT:    -3.071     12.268     13.575
REMARK INTER + INTRA:          -6.152
REMARK INTER:                  -5.179
REMARK INTRA:                  -0.974
REMARK UNBOUND:                -1.286
REMARK SMILES CCCCCCCCCCCC(=O)[O-]
REMARK SMILES IDX 7 1 8 2 9 3 10 4 11 5 12 6 13 7 14 8 6 9 5 10 4 11 3 12 2 13
REMARK SMILES IDX 1 14
REMARK H PARENT
REMARK Flexibility Score: inf
ROOT
ATOM      1  C   UNL     1      60.955  30.110  60.936  1.00  0.00     0.000 C 
ENDROOT
BRANCH   1   2
ATOM      2  C   UNL     1      62.052  29.244  61.567  1.00  0.00     0.000 C 
BRANCH   2   3
ATOM      3  C   UNL     1      63.405  29.973  61.552  1.00  0.00     0.000 C 
BRANCH   3   4
ATOM      4  C   UNL     1      64.304  29.529  60.386  1.00  0.00     0.006 C 
BRANCH   4   5
ATOM      5  C   UNL     1      65.784  29.853  60.626  1.00  0.00     0.053 C 
BRANCH   5   6
ATOM      6  C   UNL     1      66.523  28.626  61.060  1.00  0.00     0.041 C 
ATOM      7  O   UNL     1      67.481  28.717  61.873  1.00  0.00    -0.550 OA
ATOM      8  O   UNL     1      66.121  27.376  60.606  1.00  0.00    -0.550 OA
ENDBRANCH   5   6
ENDBRANCH   4   5
ENDBRANCH   3   4
ENDBRANCH   2   3
ENDBRANCH   1   2
BRANCH   1   9
ATOM      9  C   UNL     1      60.744  31.403  61.739  1.00  0.00     0.000 C 
BRANCH   9  10
ATOM     10  C   UNL     1      60.843  32.665  60.868  1.00  0.00    -0.000 C 
BRANCH  10  11
ATOM     11  C   UNL     1      61.778  32.482  59.663  1.00  0.00    -0.000 C 
BRANCH  11  12
ATOM     12  C   UNL     1      63.050  33.328  59.825  1.00  0.00    -0.000 C 
BRANCH  12  13
ATOM     13  C   UNL     1      62.832  34.561  60.716  1.00  0.00    -0.003 C 
ATOM     14  C   UNL     1      64.091  34.966  61.483  1.00  0.00     0.004 C 
ENDBRANCH  12  13
ENDBRANCH  11  12
ENDBRANCH  10  11
ENDBRANCH   9  10
ENDBRANCH   1   9
TORSDOF 10
ENDMDL
MODEL 8
REMARK VINA RESULT:    -3.047     12.009     13.930
REMARK INTER + INTRA:          -6.114
REMARK INTER:                  -4.984
REMARK INTRA:                  -1.130
REMARK UNBOUND:                -1.286
REMARK SMILES CCCCCCCCCCCC(=O)[O-]
REMARK SMILES IDX 7 1 8 2 9 3 10 4 11 5 12 6 13 7 14 8 6 9 5 10 4 11 3 12 2 13
REMARK SMILES IDX 1 14
REMARK H PARENT
REMARK Flexibility Score: inf
ROOT
ATOM      1  C   UNL     1      61.861  33.462  58.936  1.00  0.00     0.000 C 
ENDROOT
BRANCH   1   2
ATOM      2  C   UNL     1      61.746  32.038  59.494  1.00  0.00     0.000 C 
BRANCH   2   3
ATOM      3  C   UNL     1      60.682  31.965  60.600  1.00  0.00     0.000 C 
BRANCH   3   4
ATOM      4  C   UNL     1      61.164  31.183  61.833  1.00  0.00     0.006 C 
BRANCH   4   5
ATOM      5  C   UNL     1      62.489  30.449  61.587  1.00  0.00     0.053 C 
BRANCH   5   6
ATOM      6  C   UNL     1      62.250  28.980  61.438  1.00  0.00     0.041 C 
ATOM      7  O   UNL     1      61.078  28.538  61.307  1.00  0.00    -0.550 OA
ATOM      8  O   UNL     1      63.325  28.101  61.393  1.00  0.00    -0.550 OA
ENDBRANCH   5   6
ENDBRANCH   4   5
ENDBRANCH   3   4
ENDBRANCH   2   3
ENDBRANCH   1   2
BRANCH   1   9
ATOM      9  C   UNL     1      63.328  33.910  58.867  1.00  0.00     0.000 C 
BRANCH   9  10
ATOM     10  C   UNL     1      64.139  33.479  60.100  1.00  0.00    -0.000 C 
BRANCH  10  11
ATOM     11  C   UNL     1      63.793  34.297  61.352  1.00  0.00    -0.000 C 
BRANCH  11  12
ATOM     12  C   UNL     1      64.395  35.708  61.268  1.00  0.00    -0.000 C 
BRANCH  12  13
ATOM     13  C   UNL     1      63.396  36.803  61.673  1.00  0.00    -0.003 C 
ATOM     14  C   UNL     1      62.003  36.579  61.084  1.00  0.00     0.004 C 
ENDBRANCH  12  13
ENDBRANCH  11  12
ENDBRANCH  10  11
ENDBRANCH   9  10
ENDBRANCH   1   9
TORSDOF 10
ENDMDL
MODEL 9
REMARK VINA RESULT:    -2.956      2.568      5.169
REMARK INTER + INTRA:          -5.971
REMARK INTER:                  -4.819
REMARK INTRA:                  -1.152
REMARK UNBOUND:                -1.286
REMARK SMILES CCCCCCCCCCCC(=O)[O-]
REMARK SMILES IDX 7 1 8 2 9 3 10 4 11 5 12 6 13 7 14 8 6 9 5 10 4 11 3 12 2 13
REMARK SMILES IDX 1 14
REMARK H PARENT
REMARK Flexibility Score: inf
ROOT
ATOM      1  C   UNL     1      56.773  26.062  50.996  1.00  0.00     0.000 C 
ENDROOT
BRANCH   1   2
ATOM      2  C   UNL     1      56.093  26.650  49.754  1.00  0.00     0.000 C 
BRANCH   2   3
ATOM      3  C   UNL     1      54.638  26.171  49.644  1.00  0.00     0.000 C 
BRANCH   3   4
ATOM      4  C   UNL     1      53.624  27.316  49.806  1.00  0.00     0.006 C 
BRANCH   4   5
ATOM      5  C   UNL     1      54.299  28.668  50.075  1.00  0.00     0.053 C 
BRANCH   5   6
ATOM      6  C   UNL     1      53.551  29.422  51.129  1.00  0.00     0.041 C 
ATOM      7  O   UNL     1      53.493  30.680  51.087  1.00  0.00    -0.550 OA
ATOM      8  O   UNL     1      52.875  28.736  52.129  1.00  0.00    -0.550 OA
ENDBRANCH   5   6
ENDBRANCH   4   5
ENDBRANCH   3   4
ENDBRANCH   2   3
ENDBRANCH   1   2
BRANCH   1   9
ATOM      9  C   UNL     1      58.283  25.892  50.770  1.00  0.00     0.000 C 
BRANCH   9  10
ATOM     10  C   UNL     1      58.731  26.368  49.380  1.00  0.00    -0.000 C 
BRANCH  10  11
ATOM     11  C   UNL     1      59.732  27.531  49.446  1.00  0.00    -0.000 C 
BRANCH  11  12
ATOM     12  C   UNL     1      59.009  28.883  49.347  1.00  0.00    -0.000 C 
BRANCH  12  13
ATOM     13  C   UNL     1      59.028  29.663  50.672  1.00  0.00    -0.003 C 
ATOM     14  C   UNL     1      57.679  29.643  51.389  1.00  0.00     0.004 C 
ENDBRANCH  12  13
ENDBRANCH  11  12
ENDBRANCH  10  11
ENDBRANCH   9  10
ENDBRANCH   1   9
TORSDOF 10
ENDMDL
