MODEL 1
REMARK VINA RESULT:    -4.324      0.000      0.000
REMARK INTER + INTRA:          -8.125
REMARK INTER:                  -6.852
REMARK INTRA:                  -1.274
REMARK UNBOUND:                -1.274
REMARK SMILES CCCCCCCCCCCC(=O)[O-]
REMARK SMILES IDX 7 1 8 2 9 3 10 4 11 5 12 6 13 7 14 8 6 9 5 10 4 11 3 12 2 13
REMARK SMILES IDX 1 14
REMARK H PARENT
REMARK Flexibility Score: inf
ROOT
ATOM      1  C   UNL     1      10.609  27.440 -15.177  1.00  0.00     0.000 C 
ENDROOT
BRANCH   1   2
ATOM      2  C   UNL     1       9.806  28.585 -14.538  1.00  0.00     0.000 C 
BRANCH   2   3
ATOM      3  C   UNL     1       9.083  28.105 -13.270  1.00  0.00     0.000 C 
BRANCH   3   4
ATOM      4  C   UNL     1       7.648  28.653 -13.158  1.00  0.00     0.006 C 
BRANCH   4   5
ATOM      5  C   UNL     1       6.675  28.104 -14.214  1.00  0.00     0.053 C 
BRANCH   5   6
ATOM      6  C   UNL     1       6.276  29.149 -15.209  1.00  0.00     0.041 C 
ATOM      7  O   UNL     1       6.437  28.944 -16.441  1.00  0.00    -0.550 OA
ATOM      8  O   UNL     1       5.696  30.335 -14.777  1.00  0.00    -0.550 OA
ENDBRANCH   5   6
ENDBRANCH   4   5
ENDBRANCH   3   4
ENDBRANCH   2   3
ENDBRANCH   1   2
BRANCH   1   9
ATOM      9  C   UNL     1      10.815  26.254 -14.220  1.00  0.00     0.000 C 
BRANCH   9  10
ATOM     10  C   UNL     1      10.321  24.923 -14.813  1.00  0.00    -0.000 C 
BRANCH  10  11
ATOM     11  C   UNL     1       9.263  24.241 -13.930  1.00  0.00    -0.000 C 
BRANCH  11  12
ATOM     12  C   UNL     1       9.477  24.508 -12.433  1.00  0.00    -0.000 C 
BRANCH  12  13
ATOM     13  C   UNL     1       8.137  24.566 -11.691  1.00  0.00    -0.003 C 
ATOM     14  C   UNL     1       6.991  24.892 -12.645  1.00  0.00     0.004 C 
ENDBRANCH  12  13
ENDBRANCH  11  12
ENDBRANCH  10  11
ENDBRANCH   9  10
ENDBRANCH   1   9
TORSDOF 10
ENDMDL
MODEL 2
REMARK VINA RESULT:    -4.254      1.540      2.095
REMARK INTER + INTRA:          -8.014
REMARK INTER:                  -7.166
REMARK INTRA:                  -0.848
REMARK UNBOUND:                -1.274
REMARK SMILES CCCCCCCCCCCC(=O)[O-]
REMARK SMILES IDX 7 1 8 2 9 3 10 4 11 5 12 6 13 7 14 8 6 9 5 10 4 11 3 12 2 13
REMARK SMILES IDX 1 14
REMARK H PARENT
REMARK Flexibility Score: inf
ROOT
ATOM      1  C   UNL     1       9.518  27.521 -13.701  1.00  0.00     0.000 C 
ENDROOT
BRANCH   1   2
ATOM      2  C   UNL     1       9.053  28.936 -13.320  1.00  0.00     0.000 C 
BRANCH   2   3
ATOM      3  C   UNL     1       7.530  28.978 -13.128  1.00  0.00     0.000 C 
BRANCH   3   4
ATOM      4  C   UNL     1       6.766  28.266 -14.261  1.00  0.00     0.006 C 
BRANCH   4   5
ATOM      5  C   UNL     1       6.584  29.111 -15.532  1.00  0.00     0.053 C 
BRANCH   5   6
ATOM      6  C   UNL     1       6.157  30.512 -15.220  1.00  0.00     0.041 C 
ATOM      7  O   UNL     1       5.003  30.736 -14.767  1.00  0.00    -0.550 OA
ATOM      8  O   UNL     1       7.044  31.566 -15.399  1.00  0.00    -0.550 OA
ENDBRANCH   5   6
ENDBRANCH   4   5
ENDBRANCH   3   4
ENDBRANCH   2   3
ENDBRANCH   1   2
BRANCH   1   9
ATOM      9  C   UNL     1      10.438  26.893 -12.641  1.00  0.00     0.000 C 
BRANCH   9  10
ATOM     10  C   UNL     1       9.900  25.553 -12.110  1.00  0.00    -0.000 C 
BRANCH  10  11
ATOM     11  C   UNL     1       8.458  25.273 -12.565  1.00  0.00    -0.000 C 
BRANCH  11  12
ATOM     12  C   UNL     1       7.794  24.139 -11.770  1.00  0.00    -0.000 C 
BRANCH  12  13
ATOM     13  C   UNL     1       8.493  23.935 -10.421  1.00  0.00    -0.003 C 
ATOM     14  C   UNL     1       7.792  22.861  -9.594  1.00  0.00     0.004 C 
ENDBRANCH  12  13
ENDBRANCH  11  12
ENDBRANCH  10  11
ENDBRANCH   9  10
ENDBRANCH   1   9
TORSDOF 10
ENDMDL
MODEL 3
REMARK VINA RESULT:    -4.170      1.835      2.746
REMARK INTER + INTRA:          -7.882
REMARK INTER:                  -7.224
REMARK INTRA:                  -0.658
REMARK UNBOUND:                -1.274
REMARK SMILES CCCCCCCCCCCC(=O)[O-]
REMARK SMILES IDX 7 1 8 2 9 3 10 4 11 5 12 6 13 7 14 8 6 9 5 10 4 11 3 12 2 13
REMARK SMILES IDX 1 14
REMARK H PARENT
REMARK Flexibility Score: inf
ROOT
ATOM      1  C   UNL     1       8.103  28.066 -13.431  1.00  0.00     0.000 C 
ENDROOT
BRANCH   1   2
ATOM      2  C   UNL     1       7.764  29.402 -12.751  1.00  0.00     0.000 C 
BRANCH   2   3
ATOM      3  C   UNL     1       8.668  30.528 -13.276  1.00  0.00     0.000 C 
BRANCH   3   4
ATOM      4  C   UNL     1       7.921  31.513 -14.195  1.00  0.00     0.006 C 
BRANCH   4   5
ATOM      5  C   UNL     1       6.436  31.179 -14.410  1.00  0.00     0.053 C 
BRANCH   5   6
ATOM      6  C   UNL     1       6.162  30.711 -15.806  1.00  0.00     0.041 C 
ATOM      7  O   UNL     1       5.880  31.544 -16.709  1.00  0.00    -0.550 OA
ATOM      8  O   UNL     1       6.250  29.361 -16.118  1.00  0.00    -0.550 OA
ENDBRANCH   5   6
ENDBRANCH   4   5
ENDBRANCH   3   4
ENDBRANCH   2   3
ENDBRANCH   1   2
BRANCH   1   9
ATOM      9  C   UNL     1       6.893  27.121 -13.520  1.00  0.00     0.000 C 
BRANCH   9  10
ATOM     10  C   UNL     1       7.111  25.806 -12.753  1.00  0.00    -0.000 C 
BRANCH  10  11
ATOM     11  C   UNL     1       8.596  25.521 -12.478  1.00  0.00    -0.000 C 
BRANCH  11  12
ATOM     12  C   UNL     1       8.844  24.090 -11.980  1.00  0.00    -0.000 C 
BRANCH  12  13
ATOM     13  C   UNL     1       8.634  23.994 -10.464  1.00  0.00    -0.003 C 
ATOM     14  C   UNL     1       7.653  22.880 -10.112  1.00  0.00     0.004 C 
ENDBRANCH  12  13
ENDBRANCH  11  12
ENDBRANCH  10  11
ENDBRANCH   9  10
ENDBRANCH   1   9
TORSDOF 10
ENDMDL
MODEL 4
REMARK VINA RESULT:    -4.139      3.597      6.236
REMARK INTER + INTRA:          -7.832
REMARK INTER:                  -7.248
REMARK INTRA:                  -0.584
REMARK UNBOUND:                -1.274
REMARK SMILES CCCCCCCCCCCC(=O)[O-]
REMARK SMILES IDX 7 1 8 2 9 3 10 4 11 5 12 6 13 7 14 8 6 9 5 10 4 11 3 12 2 13
REMARK SMILES IDX 1 14
REMARK H PARENT
REMARK Flexibility Score: inf
ROOT
ATOM      1  C   UNL     1       7.365  28.246 -13.092  1.00  0.00     0.000 C 
ENDROOT
BRANCH   1   2
ATOM      2  C   UNL     1       7.474  26.713 -13.077  1.00  0.00     0.000 C 
BRANCH   2   3
ATOM      3  C   UNL     1       8.937  26.270 -12.919  1.00  0.00     0.000 C 
BRANCH   3   4
ATOM      4  C   UNL     1       9.075  24.775 -12.577  1.00  0.00     0.006 C 
BRANCH   4   5
ATOM      5  C   UNL     1       8.886  24.445 -11.088  1.00  0.00     0.053 C 
BRANCH   5   6
ATOM      6  C   UNL     1       7.674  23.599 -10.848  1.00  0.00     0.041 C 
ATOM      7  O   UNL     1       6.564  23.927 -11.345  1.00  0.00    -0.550 OA
ATOM      8  O   UNL     1       7.777  22.431 -10.104  1.00  0.00    -0.550 OA
ENDBRANCH   5   6
ENDBRANCH   4   5
ENDBRANCH   3   4
ENDBRANCH   2   3
ENDBRANCH   1   2
BRANCH   1   9
ATOM      9  C   UNL     1       8.737  28.938 -13.152  1.00  0.00     0.000 C 
BRANCH   9  10
ATOM     10  C   UNL     1       8.671  30.418 -12.736  1.00  0.00    -0.000 C 
BRANCH  10  11
ATOM     11  C   UNL     1       7.253  31.001 -12.848  1.00  0.00    -0.000 C 
BRANCH  11  12
ATOM     12  C   UNL     1       6.950  31.559 -14.247  1.00  0.00    -0.000 C 
BRANCH  12  13
ATOM     13  C   UNL     1       5.568  31.103 -14.730  1.00  0.00    -0.003 C 
ATOM     14  C   UNL     1       4.460  31.956 -14.119  1.00  0.00     0.004 C 
ENDBRANCH  12  13
ENDBRANCH  11  12
ENDBRANCH  10  11
ENDBRANCH   9  10
ENDBRANCH   1   9
TORSDOF 10
ENDMDL
MODEL 5
REMARK VINA RESULT:    -4.115      1.632      3.309
REMARK INTER + INTRA:          -7.795
REMARK INTER:                  -6.795
REMARK INTRA:                  -1.001
REMARK UNBOUND:                -1.274
REMARK SMILES CCCCCCCCCCCC(=O)[O-]
REMARK SMILES IDX 7 1 8 2 9 3 10 4 11 5 12 6 13 7 14 8 6 9 5 10 4 11 3 12 2 13
REMARK SMILES IDX 1 14
REMARK H PARENT
REMARK Flexibility Score: inf
ROOT
ATOM      1  C   UNL     1       7.083  27.284 -13.130  1.00  0.00     0.000 C 
ENDROOT
BRANCH   1   2
ATOM      2  C   UNL     1       8.078  28.442 -12.953  1.00  0.00     0.000 C 
BRANCH   2   3
ATOM      3  C   UNL     1       7.485  29.758 -13.478  1.00  0.00     0.000 C 
BRANCH   3   4
ATOM      4  C   UNL     1       6.771  29.592 -14.833  1.00  0.00     0.006 C 
BRANCH   4   5
ATOM      5  C   UNL     1       5.707  30.661 -15.124  1.00  0.00     0.053 C 
BRANCH   5   6
ATOM      6  C   UNL     1       6.236  31.761 -15.991  1.00  0.00     0.041 C 
ATOM      7  O   UNL     1       6.991  32.644 -15.504  1.00  0.00    -0.550 OA
ATOM      8  O   UNL     1       5.924  31.792 -17.345  1.00  0.00    -0.550 OA
ENDBRANCH   5   6
ENDBRANCH   4   5
ENDBRANCH   3   4
ENDBRANCH   2   3
ENDBRANCH   1   2
BRANCH   1   9
ATOM      9  C   UNL     1       7.708  25.913 -12.822  1.00  0.00     0.000 C 
BRANCH   9  10
ATOM     10  C   UNL     1       9.242  25.921 -12.941  1.00  0.00    -0.000 C 
BRANCH  10  11
ATOM     11  C   UNL     1       9.749  25.047 -14.099  1.00  0.00    -0.000 C 
BRANCH  11  12
ATOM     12  C   UNL     1      10.960  25.659 -14.819  1.00  0.00    -0.000 C 
BRANCH  12  13
ATOM     13  C   UNL     1      11.020  27.175 -14.597  1.00  0.00    -0.003 C 
ATOM     14  C   UNL     1      10.428  27.930 -15.784  1.00  0.00     0.004 C 
ENDBRANCH  12  13
ENDBRANCH  11  12
ENDBRANCH  10  11
ENDBRANCH   9  10
ENDBRANCH   1   9
TORSDOF 10
ENDMDL
MODEL 6
REMARK VINA RESULT:    -4.106      8.422      9.931
REMARK INTER + INTRA:          -7.781
REMARK INTER:                  -7.232
REMARK INTRA:                  -0.549
REMARK UNBOUND:                -1.274
REMARK SMILES CCCCCCCCCCCC(=O)[O-]
REMARK SMILES IDX 7 1 8 2 9 3 10 4 11 5 12 6 13 7 14 8 6 9 5 10 4 11 3 12 2 13
REMARK SMILES IDX 1 14
REMARK H PARENT
REMARK Flexibility Score: inf
ROOT
ATOM      1  C   UNL     1       3.184  22.839 -17.374  1.00  0.00     0.000 C 
ENDROOT
BRANCH   1   2
ATOM      2  C   UNL     1       1.652  22.941 -17.290  1.00  0.00     0.000 C 
BRANCH   2   3
ATOM      3  C   UNL     1       0.994  22.315 -18.529  1.00  0.00     0.000 C 
BRANCH   3   4
ATOM      4  C   UNL     1       2.008  21.616 -19.455  1.00  0.00     0.006 C 
BRANCH   4   5
ATOM      5  C   UNL     1       1.554  20.242 -19.971  1.00  0.00     0.053 C 
BRANCH   5   6
ATOM      6  C   UNL     1       2.580  19.607 -20.858  1.00  0.00     0.041 C 
ATOM      7  O   UNL     1       2.460  18.402 -21.204  1.00  0.00    -0.550 OA
ATOM      8  O   UNL     1       3.650  20.356 -21.331  1.00  0.00    -0.550 OA
ENDBRANCH   5   6
ENDBRANCH   4   5
ENDBRANCH   3   4
ENDBRANCH   2   3
ENDBRANCH   1   2
BRANCH   1   9
ATOM      9  C   UNL     1       3.786  22.011 -16.227  1.00  0.00     0.000 C 
BRANCH   9  10
ATOM     10  C   UNL     1       2.874  21.964 -14.988  1.00  0.00    -0.000 C 
BRANCH  10  11
ATOM     11  C   UNL     1       2.501  20.528 -14.584  1.00  0.00    -0.000 C 
BRANCH  11  12
ATOM     12  C   UNL     1       2.134  20.407 -13.097  1.00  0.00    -0.000 C 
BRANCH  12  13
ATOM     13  C   UNL     1       2.051  18.937 -12.672  1.00  0.00    -0.003 C 
ATOM     14  C   UNL     1       3.123  18.599 -11.640  1.00  0.00     0.004 C 
ENDBRANCH  12  13
ENDBRANCH  11  12
ENDBRANCH  10  11
ENDBRANCH   9  10
ENDBRANCH   1   9
TORSDOF 10
ENDMDL
MODEL 7
REMARK VINA RESULT:    -4.101      2.687      3.647
REMARK INTER + INTRA:          -7.773
REMARK INTER:                  -7.287
REMARK INTRA:                  -0.486
REMARK UNBOUND:                -1.274
REMARK SMILES CCCCCCCCCCCC(=O)[O-]
REMARK SMILES IDX 7 1 8 2 9 3 10 4 11 5 12 6 13 7 14 8 6 9 5 10 4 11 3 12 2 13
REMARK SMILES IDX 1 14
REMARK H PARENT
REMARK Flexibility Score: inf
ROOT
ATOM      1  C   UNL     1       7.806  28.613 -13.086  1.00  0.00     0.000 C 
ENDROOT
BRANCH   1   2
ATOM      2  C   UNL     1       9.055  29.509 -13.053  1.00  0.00     0.000 C 
BRANCH   2   3
ATOM      3  C   UNL     1       8.684  30.951 -12.679  1.00  0.00     0.000 C 
BRANCH   3   4
ATOM      4  C   UNL     1       7.164  31.201 -12.698  1.00  0.00     0.006 C 
BRANCH   4   5
ATOM      5  C   UNL     1       6.737  32.559 -12.119  1.00  0.00     0.053 C 
BRANCH   5   6
ATOM      6  C   UNL     1       5.300  32.565 -11.699  1.00  0.00     0.041 C 
ATOM      7  O   UNL     1       4.997  32.492 -10.478  1.00  0.00    -0.550 OA
ATOM      8  O   UNL     1       4.297  32.683 -12.652  1.00  0.00    -0.550 OA
ENDBRANCH   5   6
ENDBRANCH   4   5
ENDBRANCH   3   4
ENDBRANCH   2   3
ENDBRANCH   1   2
BRANCH   1   9
ATOM      9  C   UNL     1       8.151  27.114 -13.082  1.00  0.00     0.000 C 
BRANCH   9  10
ATOM     10  C   UNL     1       6.901  26.221 -12.996  1.00  0.00    -0.000 C 
BRANCH  10  11
ATOM     11  C   UNL     1       7.242  24.760 -12.659  1.00  0.00    -0.000 C 
BRANCH  11  12
ATOM     12  C   UNL     1       8.666  24.594 -12.109  1.00  0.00    -0.000 C 
BRANCH  12  13
ATOM     13  C   UNL     1       8.638  24.146 -10.643  1.00  0.00    -0.003 C 
ATOM     14  C   UNL     1       7.411  23.286 -10.352  1.00  0.00     0.004 C 
ENDBRANCH  12  13
ENDBRANCH  11  12
ENDBRANCH  10  11
ENDBRANCH   9  10
ENDBRANCH   1   9
TORSDOF 10
ENDMDL
MODEL 8
REMARK VINA RESULT:    -4.040      2.638      5.202
REMARK INTER + INTRA:          -7.676
REMARK INTER:                  -6.769
REMARK INTRA:                  -0.907
REMARK UNBOUND:                -1.274
REMARK SMILES CCCCCCCCCCCC(=O)[O-]
REMARK SMILES IDX 7 1 8 2 9 3 10 4 11 5 12 6 13 7 14 8 6 9 5 10 4 11 3 12 2 13
REMARK SMILES IDX 1 14
REMARK H PARENT
REMARK Flexibility Score: inf
ROOT
ATOM      1  C   UNL     1       9.627  28.214 -14.097  1.00  0.00     0.000 C 
ENDROOT
BRANCH   1   2
ATOM      2  C   UNL     1      10.056  26.748 -13.919  1.00  0.00     0.000 C 
BRANCH   2   3
ATOM      3  C   UNL     1      10.377  26.448 -12.447  1.00  0.00     0.000 C 
BRANCH   3   4
ATOM      4  C   UNL     1       9.683  25.172 -11.933  1.00  0.00     0.006 C 
BRANCH   4   5
ATOM      5  C   UNL     1       8.645  24.581 -12.901  1.00  0.00     0.053 C 
BRANCH   5   6
ATOM      6  C   UNL     1       7.265  24.592 -12.321  1.00  0.00     0.041 C 
ATOM      7  O   UNL     1       6.363  25.298 -12.846  1.00  0.00    -0.550 OA
ATOM      8  O   UNL     1       6.966  23.799 -11.221  1.00  0.00    -0.550 OA
ENDBRANCH   5   6
ENDBRANCH   4   5
ENDBRANCH   3   4
ENDBRANCH   2   3
ENDBRANCH   1   2
BRANCH   1   9
ATOM      9  C   UNL     1       8.804  28.740 -12.909  1.00  0.00     0.000 C 
BRANCH   9  10
ATOM     10  C   UNL     1       7.389  29.182 -13.319  1.00  0.00    -0.000 C 
BRANCH  10  11
ATOM     11  C   UNL     1       6.810  28.329 -14.460  1.00  0.00    -0.000 C 
BRANCH  11  12
ATOM     12  C   UNL     1       6.237  29.178 -15.604  1.00  0.00    -0.000 C 
BRANCH  12  13
ATOM     13  C   UNL     1       5.815  30.563 -15.099  1.00  0.00    -0.003 C 
ATOM     14  C   UNL     1       5.975  31.620 -16.188  1.00  0.00     0.004 C 
ENDBRANCH  12  13
ENDBRANCH  11  12
ENDBRANCH  10  11
ENDBRANCH   9  10
ENDBRANCH   1   9
TORSDOF 10
ENDMDL
MODEL 9
REMARK VINA RESULT:    -4.002      9.998     12.140
REMARK INTER + INTRA:          -7.616
REMARK INTER:                  -6.233
REMARK INTRA:                  -1.383
REMARK UNBOUND:                -1.274
REMARK SMILES CCCCCCCCCCCC(=O)[O-]
REMARK SMILES IDX 7 1 8 2 9 3 10 4 11 5 12 6 13 7 14 8 6 9 5 10 4 11 3 12 2 13
REMARK SMILES IDX 1 14
REMARK H PARENT
REMARK Flexibility Score: inf
ROOT
ATOM      1  C   UNL     1       1.290  21.364  -7.854  1.00  0.00     0.000 C 
ENDROOT
BRANCH   1   2
ATOM      2  C   UNL     1       2.730  20.874  -7.633  1.00  0.00     0.000 C 
BRANCH   2   3
ATOM      3  C   UNL     1       3.029  19.644  -8.503  1.00  0.00     0.000 C 
BRANCH   3   4
ATOM      4  C   UNL     1       3.041  19.966 -10.009  1.00  0.00     0.006 C 
BRANCH   4   5
ATOM      5  C   UNL     1       2.047  19.141 -10.842  1.00  0.00     0.053 C 
BRANCH   5   6
ATOM      6  C   UNL     1       0.996  19.999 -11.476  1.00  0.00     0.041 C 
ATOM      7  O   UNL     1       0.022  19.469 -12.073  1.00  0.00    -0.550 OA
ATOM      8  O   UNL     1       1.075  21.382 -11.378  1.00  0.00    -0.550 OA
ENDBRANCH   5   6
ENDBRANCH   4   5
ENDBRANCH   3   4
ENDBRANCH   2   3
ENDBRANCH   1   2
BRANCH   1   9
ATOM      9  C   UNL     1       0.403  21.178  -6.612  1.00  0.00     0.000 C 
BRANCH   9  10
ATOM     10  C   UNL     1       1.182  20.624  -5.406  1.00  0.00    -0.000 C 
BRANCH  10  11
ATOM     11  C   UNL     1       0.611  19.291  -4.897  1.00  0.00    -0.000 C 
BRANCH  11  12
ATOM     12  C   UNL     1       0.953  18.109  -5.816  1.00  0.00    -0.000 C 
BRANCH  12  13
ATOM     13  C   UNL     1      -0.294  17.615  -6.559  1.00  0.00    -0.003 C 
ATOM     14  C   UNL     1      -0.124  17.743  -8.070  1.00  0.00     0.004 C 
ENDBRANCH  12  13
ENDBRANCH  11  12
ENDBRANCH  10  11
ENDBRANCH   9  10
ENDBRANCH   1   9
TORSDOF 10
ENDMDL
