MODEL 1
REMARK VINA RESULT:    -1.458      0.000      0.000
REMARK INTER + INTRA:          -4.437
REMARK INTER:                  -2.736
REMARK INTRA:                  -1.701
REMARK UNBOUND:                -1.701
REMARK SMILES CCCCCCCCC=CCCCCCCCC(=O)[O-]
REMARK SMILES IDX 10 1 9 2 11 3 12 4 13 5 14 6 15 7 16 8 17 9 18 10 19 11
REMARK SMILES IDX 20 12 8 13 7 14 6 15 5 16 4 17 3 18 2 19 1 20
REMARK H PARENT
REMARK Flexibility Score: inf
ROOT
ATOM      1  C   UNL     1     -56.752 121.246  -8.701  1.00  0.00    -0.031 C 
ATOM      2  C   UNL     1     -55.734 122.036  -8.307  1.00  0.00    -0.031 C 
ENDROOT
BRANCH   1   3
ATOM      3  C   UNL     1     -56.645 120.128  -9.708  1.00  0.00     0.027 C 
BRANCH   3   4
ATOM      4  C   UNL     1     -57.141 120.573 -11.093  1.00  0.00     0.004 C 
BRANCH   4   5
ATOM      5  C   UNL     1     -56.003 121.070 -11.998  1.00  0.00     0.000 C 
BRANCH   5   6
ATOM      6  C   UNL     1     -55.833 122.599 -11.948  1.00  0.00     0.000 C 
BRANCH   6   7
ATOM      7  C   UNL     1     -54.368 123.036 -12.114  1.00  0.00     0.000 C 
BRANCH   7   8
ATOM      8  C   UNL     1     -53.391 121.847 -12.125  1.00  0.00     0.006 C 
BRANCH   8   9
ATOM      9  C   UNL     1     -51.927 122.301 -12.090  1.00  0.00     0.053 C 
BRANCH   9  10
ATOM     10  C   UNL     1     -51.051 121.303 -11.395  1.00  0.00     0.041 C 
ATOM     11  O   UNL     1     -51.397 120.821 -10.284  1.00  0.00    -0.550 OA
ATOM     12  O   UNL     1     -49.865 120.890 -11.986  1.00  0.00    -0.550 OA
ENDBRANCH   9  10
ENDBRANCH   8   9
ENDBRANCH   7   8
ENDBRANCH   6   7
ENDBRANCH   5   6
ENDBRANCH   4   5
ENDBRANCH   3   4
ENDBRANCH   1   3
BRANCH   2  13
ATOM     13  C   UNL     1     -54.312 121.951  -8.814  1.00  0.00     0.027 C 
BRANCH  13  14
ATOM     14  C   UNL     1     -53.583 123.301  -8.707  1.00  0.00     0.004 C 
BRANCH  14  15
ATOM     15  C   UNL     1     -52.242 123.256  -7.946  1.00  0.00     0.000 C 
BRANCH  15  16
ATOM     16  C   UNL     1     -50.990 123.538  -8.800  1.00  0.00     0.000 C 
BRANCH  16  17
ATOM     17  C   UNL     1     -50.146 124.742  -8.344  1.00  0.00    -0.000 C 
BRANCH  17  18
ATOM     18  C   UNL     1     -48.877 124.936  -9.191  1.00  0.00    -0.000 C 
BRANCH  18  19
ATOM     19  C   UNL     1     -48.875 124.065 -10.457  1.00  0.00    -0.003 C 
ATOM     20  C   UNL     1     -48.991 124.885 -11.742  1.00  0.00     0.004 C 
ENDBRANCH  18  19
ENDBRANCH  17  18
ENDBRANCH  16  17
ENDBRANCH  15  16
ENDBRANCH  14  15
ENDBRANCH  13  14
ENDBRANCH   2  13
TORSDOF 15
ENDMDL
MODEL 2
REMARK VINA RESULT:    -1.174      1.538      1.903
REMARK INTER + INTRA:          -3.905
REMARK INTER:                  -2.242
REMARK INTRA:                  -1.663
REMARK UNBOUND:                -1.701
REMARK SMILES CCCCCCCCC=CCCCCCCCC(=O)[O-]
REMARK SMILES IDX 10 1 9 2 11 3 12 4 13 5 14 6 15 7 16 8 17 9 18 10 19 11
REMARK SMILES IDX 20 12 8 13 7 14 6 15 5 16 4 17 3 18 2 19 1 20
REMARK H PARENT
REMARK Flexibility Score: inf
ROOT
ATOM      1  C   UNL     1     -56.441 121.382  -8.406  1.00  0.00    -0.031 C 
ATOM      2  C   UNL     1     -55.207 121.801  -8.065  1.00  0.00    -0.031 C 
ENDROOT
BRANCH   1   3
ATOM      3  C   UNL     1     -57.127 121.674  -9.717  1.00  0.00     0.027 C 
BRANCH   3   4
ATOM      4  C   UNL     1     -56.914 120.536 -10.726  1.00  0.00     0.004 C 
BRANCH   4   5
ATOM      5  C   UNL     1     -56.437 121.041 -12.098  1.00  0.00     0.000 C 
BRANCH   5   6
ATOM      6  C   UNL     1     -55.596 122.326 -11.994  1.00  0.00     0.000 C 
BRANCH   6   7
ATOM      7  C   UNL     1     -54.087 122.055 -12.123  1.00  0.00     0.000 C 
BRANCH   7   8
ATOM      8  C   UNL     1     -53.751 120.553 -12.120  1.00  0.00     0.006 C 
BRANCH   8   9
ATOM      9  C   UNL     1     -52.621 120.216 -11.139  1.00  0.00     0.053 C 
BRANCH   9  10
ATOM     10  C   UNL     1     -53.146 119.622  -9.869  1.00  0.00     0.041 C 
ATOM     11  O   UNL     1     -54.276 119.067  -9.847  1.00  0.00    -0.550 OA
ATOM     12  O   UNL     1     -52.376 119.661  -8.713  1.00  0.00    -0.550 OA
ENDBRANCH   9  10
ENDBRANCH   8   9
ENDBRANCH   7   8
ENDBRANCH   6   7
ENDBRANCH   5   6
ENDBRANCH   4   5
ENDBRANCH   3   4
ENDBRANCH   1   3
BRANCH   2  13
ATOM     13  C   UNL     1     -54.299 122.647  -8.929  1.00  0.00     0.027 C 
BRANCH  13  14
ATOM     14  C   UNL     1     -52.920 122.856  -8.280  1.00  0.00     0.004 C 
BRANCH  14  15
ATOM     15  C   UNL     1     -51.922 123.672  -9.127  1.00  0.00     0.000 C 
BRANCH  15  16
ATOM     16  C   UNL     1     -50.580 123.992  -8.437  1.00  0.00     0.000 C 
BRANCH  16  17
ATOM     17  C   UNL     1     -49.333 123.813  -9.320  1.00  0.00    -0.000 C 
BRANCH  17  18
ATOM     18  C   UNL     1     -49.041 122.339  -9.650  1.00  0.00    -0.000 C 
BRANCH  18  19
ATOM     19  C   UNL     1     -49.223 122.023 -11.143  1.00  0.00    -0.003 C 
ATOM     20  C   UNL     1     -49.343 123.278 -12.006  1.00  0.00     0.004 C 
ENDBRANCH  18  19
ENDBRANCH  17  18
ENDBRANCH  16  17
ENDBRANCH  15  16
ENDBRANCH  14  15
ENDBRANCH  13  14
ENDBRANCH   2  13
TORSDOF 15
ENDMDL
MODEL 3
REMARK VINA RESULT:    -0.729      2.108      4.509
REMARK INTER + INTRA:          -3.068
REMARK INTER:                  -2.909
REMARK INTRA:                  -0.159
REMARK UNBOUND:                -1.701
REMARK SMILES CCCCCCCCC=CCCCCCCCC(=O)[O-]
REMARK SMILES IDX 10 1 9 2 11 3 12 4 13 5 14 6 15 7 16 8 17 9 18 10 19 11
REMARK SMILES IDX 20 12 8 13 7 14 6 15 5 16 4 17 3 18 2 19 1 20
REMARK H PARENT
REMARK Flexibility Score: inf
ROOT
ATOM      1  C   UNL     1     -52.454 120.065 -11.202  1.00  0.00    -0.031 C 
ATOM      2  C   UNL     1     -51.429 120.559 -11.923  1.00  0.00    -0.031 C 
ENDROOT
BRANCH   1   3
ATOM      3  C   UNL     1     -53.489 120.893 -10.483  1.00  0.00     0.027 C 
BRANCH   3   4
ATOM      4  C   UNL     1     -54.012 122.032 -11.372  1.00  0.00     0.004 C 
BRANCH   4   5
ATOM      5  C   UNL     1     -55.341 121.683 -12.062  1.00  0.00     0.000 C 
BRANCH   5   6
ATOM      6  C   UNL     1     -55.594 120.166 -12.124  1.00  0.00     0.000 C 
BRANCH   6   7
ATOM      7  C   UNL     1     -57.050 119.796 -11.798  1.00  0.00     0.000 C 
BRANCH   7   8
ATOM      8  C   UNL     1     -57.618 120.606 -10.619  1.00  0.00     0.006 C 
BRANCH   8   9
ATOM      9  C   UNL     1     -56.899 120.290  -9.301  1.00  0.00     0.053 C 
BRANCH   9  10
ATOM     10  C   UNL     1     -56.449 121.536  -8.601  1.00  0.00     0.041 C 
ATOM     11  O   UNL     1     -57.271 122.227  -7.944  1.00  0.00    -0.550 OA
ATOM     12  O   UNL     1     -55.115 121.920  -8.655  1.00  0.00    -0.550 OA
ENDBRANCH   9  10
ENDBRANCH   8   9
ENDBRANCH   7   8
ENDBRANCH   6   7
ENDBRANCH   5   6
ENDBRANCH   4   5
ENDBRANCH   3   4
ENDBRANCH   1   3
BRANCH   2  13
ATOM     13  C   UNL     1     -51.126 122.027 -12.125  1.00  0.00     0.027 C 
BRANCH  13  14
ATOM     14  C   UNL     1     -49.628 122.333 -11.955  1.00  0.00     0.004 C 
BRANCH  14  15
ATOM     15  C   UNL     1     -48.908 121.477 -10.893  1.00  0.00     0.000 C 
BRANCH  15  16
ATOM     16  C   UNL     1     -48.899 122.066  -9.468  1.00  0.00     0.000 C 
BRANCH  16  17
ATOM     17  C   UNL     1     -48.879 123.603  -9.395  1.00  0.00    -0.000 C 
BRANCH  17  18
ATOM     18  C   UNL     1     -50.122 124.184  -8.702  1.00  0.00    -0.000 C 
BRANCH  18  19
ATOM     19  C   UNL     1     -51.327 123.231  -8.758  1.00  0.00    -0.003 C 
ATOM     20  C   UNL     1     -52.540 123.761  -7.993  1.00  0.00     0.004 C 
ENDBRANCH  18  19
ENDBRANCH  17  18
ENDBRANCH  16  17
ENDBRANCH  15  16
ENDBRANCH  14  15
ENDBRANCH  13  14
ENDBRANCH   2  13
TORSDOF 15
ENDMDL
MODEL 4
REMARK VINA RESULT:    -0.724      1.784      3.595
REMARK INTER + INTRA:          -3.059
REMARK INTER:                  -2.638
REMARK INTRA:                  -0.421
REMARK UNBOUND:                -1.701
REMARK SMILES CCCCCCCCC=CCCCCCCCC(=O)[O-]
REMARK SMILES IDX 10 1 9 2 11 3 12 4 13 5 14 6 15 7 16 8 17 9 18 10 19 11
REMARK SMILES IDX 20 12 8 13 7 14 6 15 5 16 4 17 3 18 2 19 1 20
REMARK H PARENT
REMARK Flexibility Score: inf
ROOT
ATOM      1  C   UNL     1     -54.456 119.840 -10.893  1.00  0.00    -0.031 C 
ATOM      2  C   UNL     1     -53.119 119.966 -10.791  1.00  0.00    -0.031 C 
ENDROOT
BRANCH   1   3
ATOM      3  C   UNL     1     -55.267 120.159 -12.125  1.00  0.00     0.027 C 
BRANCH   3   4
ATOM      4  C   UNL     1     -56.689 119.588 -12.022  1.00  0.00     0.004 C 
BRANCH   4   5
ATOM      5  C   UNL     1     -57.664 120.547 -11.321  1.00  0.00     0.000 C 
BRANCH   5   6
ATOM      6  C   UNL     1     -56.943 121.589 -10.447  1.00  0.00     0.000 C 
BRANCH   6   7
ATOM      7  C   UNL     1     -56.865 121.168  -8.970  1.00  0.00     0.000 C 
BRANCH   7   8
ATOM      8  C   UNL     1     -55.669 121.799  -8.236  1.00  0.00     0.006 C 
BRANCH   8   9
ATOM      9  C   UNL     1     -54.727 122.540  -9.194  1.00  0.00     0.053 C 
BRANCH   9  10
ATOM     10  C   UNL     1     -53.631 123.248  -8.460  1.00  0.00     0.041 C 
ATOM     11  O   UNL     1     -52.623 122.611  -8.054  1.00  0.00    -0.550 OA
ATOM     12  O   UNL     1     -53.712 124.618  -8.243  1.00  0.00    -0.550 OA
ENDBRANCH   9  10
ENDBRANCH   8   9
ENDBRANCH   7   8
ENDBRANCH   6   7
ENDBRANCH   5   6
ENDBRANCH   4   5
ENDBRANCH   3   4
ENDBRANCH   1   3
BRANCH   2  13
ATOM     13  C   UNL     1     -52.198 120.461 -11.883  1.00  0.00     0.027 C 
BRANCH  13  14
ATOM     14  C   UNL     1     -51.368 121.674 -11.429  1.00  0.00     0.004 C 
BRANCH  14  15
ATOM     15  C   UNL     1     -50.328 121.373 -10.330  1.00  0.00     0.000 C 
BRANCH  15  16
ATOM     16  C   UNL     1     -48.958 122.056 -10.514  1.00  0.00     0.000 C 
BRANCH  16  17
ATOM     17  C   UNL     1     -48.932 123.201 -11.542  1.00  0.00    -0.000 C 
BRANCH  17  18
ATOM     18  C   UNL     1     -49.188 124.579 -10.908  1.00  0.00    -0.000 C 
BRANCH  18  19
ATOM     19  C   UNL     1     -48.875 124.602  -9.404  1.00  0.00    -0.003 C 
ATOM     20  C   UNL     1     -50.117 124.403  -8.535  1.00  0.00     0.004 C 
ENDBRANCH  18  19
ENDBRANCH  17  18
ENDBRANCH  16  17
ENDBRANCH  15  16
ENDBRANCH  14  15
ENDBRANCH  13  14
ENDBRANCH   2  13
TORSDOF 15
ENDMDL
MODEL 5
REMARK VINA RESULT:    -0.696      1.578      4.668
REMARK INTER + INTRA:          -3.007
REMARK INTER:                  -1.395
REMARK INTRA:                  -1.612
REMARK UNBOUND:                -1.701
REMARK SMILES CCCCCCCCC=CCCCCCCCC(=O)[O-]
REMARK SMILES IDX 10 1 9 2 11 3 12 4 13 5 14 6 15 7 16 8 17 9 18 10 19 11
REMARK SMILES IDX 20 12 8 13 7 14 6 15 5 16 4 17 3 18 2 19 1 20
REMARK H PARENT
REMARK Flexibility Score: inf
ROOT
ATOM      1  C   UNL     1     -55.957 121.225  -8.871  1.00  0.00    -0.031 C 
ATOM      2  C   UNL     1     -56.677 120.817  -9.933  1.00  0.00    -0.031 C 
ENDROOT
BRANCH   1   3
ATOM      3  C   UNL     1     -55.163 122.505  -8.800  1.00  0.00     0.027 C 
BRANCH   3   4
ATOM      4  C   UNL     1     -53.721 122.245  -8.338  1.00  0.00     0.004 C 
BRANCH   4   5
ATOM      5  C   UNL     1     -52.849 123.511  -8.375  1.00  0.00     0.000 C 
BRANCH   5   6
ATOM      6  C   UNL     1     -51.365 123.200  -8.636  1.00  0.00     0.000 C 
BRANCH   6   7
ATOM      7  C   UNL     1     -50.448 124.395  -8.325  1.00  0.00     0.000 C 
BRANCH   7   8
ATOM      8  C   UNL     1     -49.083 124.294  -9.030  1.00  0.00     0.006 C 
BRANCH   8   9
ATOM      9  C   UNL     1     -48.942 122.994  -9.832  1.00  0.00     0.053 C 
BRANCH   9  10
ATOM     10  C   UNL     1     -48.926 123.250 -11.308  1.00  0.00     0.041 C 
ATOM     11  O   UNL     1     -48.972 122.289 -12.120  1.00  0.00    -0.550 OA
ATOM     12  O   UNL     1     -48.884 124.553 -11.787  1.00  0.00    -0.550 OA
ENDBRANCH   9  10
ENDBRANCH   8   9
ENDBRANCH   7   8
ENDBRANCH   6   7
ENDBRANCH   5   6
ENDBRANCH   4   5
ENDBRANCH   3   4
ENDBRANCH   1   3
BRANCH   2  13
ATOM     13  C   UNL     1     -56.805 121.560 -11.244  1.00  0.00     0.027 C 
BRANCH  13  14
ATOM     14  C   UNL     1     -55.554 121.393 -12.123  1.00  0.00     0.004 C 
BRANCH  14  15
ATOM     15  C   UNL     1     -54.501 122.511 -11.973  1.00  0.00     0.000 C 
BRANCH  15  16
ATOM     16  C   UNL     1     -53.035 122.060 -12.125  1.00  0.00     0.000 C 
BRANCH  16  17
ATOM     17  C   UNL     1     -52.736 120.632 -11.634  1.00  0.00    -0.000 C 
BRANCH  17  18
ATOM     18  C   UNL     1     -51.722 120.599 -10.478  1.00  0.00    -0.000 C 
BRANCH  18  19
ATOM     19  C   UNL     1     -52.242 119.818  -9.261  1.00  0.00    -0.003 C 
ATOM     20  C   UNL     1     -53.344 118.821  -9.621  1.00  0.00     0.004 C 
ENDBRANCH  18  19
ENDBRANCH  17  18
ENDBRANCH  16  17
ENDBRANCH  15  16
ENDBRANCH  14  15
ENDBRANCH  13  14
ENDBRANCH   2  13
TORSDOF 15
ENDMDL
MODEL 6
REMARK VINA RESULT:    -0.647      2.013      3.625
REMARK INTER + INTRA:          -2.915
REMARK INTER:                  -2.243
REMARK INTRA:                  -0.672
REMARK UNBOUND:                -1.701
REMARK SMILES CCCCCCCCC=CCCCCCCCC(=O)[O-]
REMARK SMILES IDX 10 1 9 2 11 3 12 4 13 5 14 6 15 7 16 8 17 9 18 10 19 11
REMARK SMILES IDX 20 12 8 13 7 14 6 15 5 16 4 17 3 18 2 19 1 20
REMARK H PARENT
REMARK Flexibility Score: inf
ROOT
ATOM      1  C   UNL     1     -56.583 121.414  -9.725  1.00  0.00    -0.031 C 
ATOM      2  C   UNL     1     -55.937 122.460 -10.277  1.00  0.00    -0.031 C 
ENDROOT
BRANCH   1   3
ATOM      3  C   UNL     1     -57.082 120.206 -10.478  1.00  0.00     0.027 C 
BRANCH   3   4
ATOM      4  C   UNL     1     -55.983 119.141 -10.621  1.00  0.00     0.004 C 
BRANCH   4   5
ATOM      5  C   UNL     1     -54.570 119.746 -10.629  1.00  0.00     0.000 C 
BRANCH   5   6
ATOM      6  C   UNL     1     -53.547 118.871  -9.883  1.00  0.00     0.000 C 
BRANCH   6   7
ATOM      7  C   UNL     1     -52.609 119.695  -8.986  1.00  0.00     0.000 C 
BRANCH   7   8
ATOM      8  C   UNL     1     -53.260 120.994  -8.479  1.00  0.00     0.006 C 
BRANCH   8   9
ATOM      9  C   UNL     1     -52.611 122.242  -9.090  1.00  0.00     0.053 C 
BRANCH   9  10
ATOM     10  C   UNL     1     -52.821 123.454  -8.234  1.00  0.00     0.041 C 
ATOM     11  O   UNL     1     -53.786 124.231  -8.460  1.00  0.00    -0.550 OA
ATOM     12  O   UNL     1     -51.964 123.711  -7.172  1.00  0.00    -0.550 OA
ENDBRANCH   9  10
ENDBRANCH   8   9
ENDBRANCH   7   8
ENDBRANCH   6   7
ENDBRANCH   5   6
ENDBRANCH   4   5
ENDBRANCH   3   4
ENDBRANCH   1   3
BRANCH   2  13
ATOM     13  C   UNL     1     -55.613 122.614 -11.745  1.00  0.00     0.027 C 
BRANCH  13  14
ATOM     14  C   UNL     1     -54.158 123.061 -11.968  1.00  0.00     0.004 C 
BRANCH  14  15
ATOM     15  C   UNL     1     -53.142 121.910 -12.125  1.00  0.00     0.000 C 
BRANCH  15  16
ATOM     16  C   UNL     1     -51.660 122.335 -12.124  1.00  0.00     0.000 C 
BRANCH  16  17
ATOM     17  C   UNL     1     -50.653 121.191 -11.909  1.00  0.00    -0.000 C 
BRANCH  17  18
ATOM     18  C   UNL     1     -49.359 121.658 -11.220  1.00  0.00    -0.000 C 
BRANCH  18  19
ATOM     19  C   UNL     1     -49.264 123.188 -11.119  1.00  0.00    -0.003 C 
ATOM     20  C   UNL     1     -49.213 123.687  -9.675  1.00  0.00     0.004 C 
ENDBRANCH  18  19
ENDBRANCH  17  18
ENDBRANCH  16  17
ENDBRANCH  15  16
ENDBRANCH  14  15
ENDBRANCH  13  14
ENDBRANCH   2  13
TORSDOF 15
ENDMDL
MODEL 7
REMARK VINA RESULT:    -0.522      1.915      5.408
REMARK INTER + INTRA:          -2.681
REMARK INTER:                  -2.280
REMARK INTRA:                  -0.400
REMARK UNBOUND:                -1.701
REMARK SMILES CCCCCCCCC=CCCCCCCCC(=O)[O-]
REMARK SMILES IDX 10 1 9 2 11 3 12 4 13 5 14 6 15 7 16 8 17 9 18 10 19 11
REMARK SMILES IDX 20 12 8 13 7 14 6 15 5 16 4 17 3 18 2 19 1 20
REMARK H PARENT
REMARK Flexibility Score: inf
ROOT
ATOM      1  C   UNL     1     -52.719 122.622  -8.822  1.00  0.00    -0.031 C 
ATOM      2  C   UNL     1     -53.416 121.530  -8.453  1.00  0.00    -0.031 C 
ENDROOT
BRANCH   1   3
ATOM      3  C   UNL     1     -53.108 123.569  -9.930  1.00  0.00     0.027 C 
BRANCH   3   4
ATOM      4  C   UNL     1     -53.283 122.827 -11.264  1.00  0.00     0.004 C 
BRANCH   4   5
ATOM      5  C   UNL     1     -51.995 122.805 -12.103  1.00  0.00     0.000 C 
BRANCH   5   6
ATOM      6  C   UNL     1     -51.327 121.419 -12.124  1.00  0.00     0.000 C 
BRANCH   6   7
ATOM      7  C   UNL     1     -49.970 121.406 -11.401  1.00  0.00     0.000 C 
BRANCH   7   8
ATOM      8  C   UNL     1     -50.077 121.849  -9.931  1.00  0.00     0.006 C 
BRANCH   8   9
ATOM      9  C   UNL     1     -48.875 122.697  -9.494  1.00  0.00     0.053 C 
BRANCH   9  10
ATOM     10  C   UNL     1     -49.235 124.144  -9.358  1.00  0.00     0.041 C 
ATOM     11  O   UNL     1     -49.832 124.556  -8.329  1.00  0.00    -0.550 OA
ATOM     12  O   UNL     1     -48.891 125.042 -10.360  1.00  0.00    -0.550 OA
ENDBRANCH   9  10
ENDBRANCH   8   9
ENDBRANCH   7   8
ENDBRANCH   6   7
ENDBRANCH   5   6
ENDBRANCH   4   5
ENDBRANCH   3   4
ENDBRANCH   1   3
BRANCH   2  13
ATOM     13  C   UNL     1     -54.700 121.053  -9.093  1.00  0.00     0.027 C 
BRANCH  13  14
ATOM     14  C   UNL     1     -55.935 121.445  -8.264  1.00  0.00     0.004 C 
BRANCH  14  15
ATOM     15  C   UNL     1     -57.199 121.761  -9.090  1.00  0.00     0.000 C 
BRANCH  15  16
ATOM     16  C   UNL     1     -57.051 121.581 -10.615  1.00  0.00     0.000 C 
BRANCH  16  17
ATOM     17  C   UNL     1     -57.493 120.210 -11.156  1.00  0.00    -0.000 C 
BRANCH  17  18
ATOM     18  C   UNL     1     -56.353 119.446 -11.850  1.00  0.00    -0.000 C 
BRANCH  18  19
ATOM     19  C   UNL     1     -55.130 120.335 -12.125  1.00  0.00    -0.003 C 
ATOM     20  C   UNL     1     -53.805 119.589 -11.964  1.00  0.00     0.004 C 
ENDBRANCH  18  19
ENDBRANCH  17  18
ENDBRANCH  16  17
ENDBRANCH  15  16
ENDBRANCH  14  15
ENDBRANCH  13  14
ENDBRANCH   2  13
TORSDOF 15
ENDMDL
