MODEL 1
REMARK VINA RESULT:    -4.132      0.000      0.000
REMARK INTER + INTRA:          -7.364
REMARK INTER:                  -6.548
REMARK INTRA:                  -0.816
REMARK UNBOUND:                -0.816
REMARK SMILES CCCCCCCCCCCC(=O)[O-]
REMARK SMILES IDX 7 1 8 2 9 3 10 4 11 5 12 6 13 7 14 8 6 9 5 10 4 11 3 12 2 13
REMARK SMILES IDX 1 14
REMARK H PARENT
REMARK Flexibility Score: inf
ROOT
ATOM      1  C   UNL     1       8.517   4.187   8.877  1.00  0.00     0.000 C 
ENDROOT
BRANCH   1   2
ATOM      2  C   UNL     1       9.371   3.187   8.072  1.00  0.00     0.000 C 
BRANCH   2   3
ATOM      3  C   UNL     1       8.648   2.520   6.886  1.00  0.00     0.000 C 
BRANCH   3   4
ATOM      4  C   UNL     1       8.947   3.145   5.511  1.00  0.00     0.006 C 
BRANCH   4   5
ATOM      5  C   UNL     1       7.772   3.958   4.956  1.00  0.00     0.053 C 
BRANCH   5   6
ATOM      6  C   UNL     1       8.225   5.326   4.555  1.00  0.00     0.041 C 
ATOM      7  O   UNL     1       8.839   5.498   3.469  1.00  0.00    -0.550 OA
ATOM      8  O   UNL     1       7.925   6.421   5.356  1.00  0.00    -0.550 OA
ENDBRANCH   5   6
ENDBRANCH   4   5
ENDBRANCH   3   4
ENDBRANCH   2   3
ENDBRANCH   1   2
BRANCH   1   9
ATOM      9  C   UNL     1       6.997   4.013   8.668  1.00  0.00     0.000 C 
BRANCH   9  10
ATOM     10  C   UNL     1       6.304   5.335   8.297  1.00  0.00    -0.000 C 
BRANCH  10  11
ATOM     11  C   UNL     1       4.786   5.178   8.117  1.00  0.00    -0.000 C 
BRANCH  11  12
ATOM     12  C   UNL     1       4.008   5.386   9.426  1.00  0.00    -0.000 C 
BRANCH  12  13
ATOM     13  C   UNL     1       2.533   5.008   9.253  1.00  0.00    -0.003 C 
ATOM     14  C   UNL     1       2.136   4.999   7.780  1.00  0.00     0.004 C 
ENDBRANCH  12  13
ENDBRANCH  11  12
ENDBRANCH  10  11
ENDBRANCH   9  10
ENDBRANCH   1   9
TORSDOF 10
ENDMDL
MODEL 2
REMARK VINA RESULT:    -4.096     14.096     16.344
REMARK INTER + INTRA:          -7.306
REMARK INTER:                  -6.052
REMARK INTRA:                  -1.254
REMARK UNBOUND:                -0.816
REMARK SMILES CCCCCCCCCCCC(=O)[O-]
REMARK SMILES IDX 7 1 8 2 9 3 10 4 11 5 12 6 13 7 14 8 6 9 5 10 4 11 3 12 2 13
REMARK SMILES IDX 1 14
REMARK H PARENT
REMARK Flexibility Score: inf
ROOT
ATOM      1  C   UNL     1      -7.114  -4.052   6.477  1.00  0.00     0.000 C 
ENDROOT
BRANCH   1   2
ATOM      2  C   UNL     1      -7.260  -5.260   7.421  1.00  0.00     0.000 C 
BRANCH   2   3
ATOM      3  C   UNL     1      -6.529  -5.124   8.771  1.00  0.00     0.000 C 
BRANCH   3   4
ATOM      4  C   UNL     1      -5.698  -3.837   8.930  1.00  0.00     0.006 C 
BRANCH   4   5
ATOM      5  C   UNL     1      -4.287  -4.101   9.470  1.00  0.00     0.053 C 
BRANCH   5   6
ATOM      6  C   UNL     1      -3.396  -4.607   8.380  1.00  0.00     0.041 C 
ATOM      7  O   UNL     1      -2.433  -5.372   8.652  1.00  0.00    -0.550 OA
ATOM      8  O   UNL     1      -3.658  -4.274   7.058  1.00  0.00    -0.550 OA
ENDBRANCH   5   6
ENDBRANCH   4   5
ENDBRANCH   3   4
ENDBRANCH   2   3
ENDBRANCH   1   2
BRANCH   1   9
ATOM      9  C   UNL     1      -8.463  -3.453   6.022  1.00  0.00     0.000 C 
BRANCH   9  10
ATOM     10  C   UNL     1      -8.665  -2.015   6.532  1.00  0.00    -0.000 C 
BRANCH  10  11
ATOM     11  C   UNL     1      -8.842  -1.946   8.056  1.00  0.00    -0.000 C 
BRANCH  11  12
ATOM     12  C   UNL     1      -9.895  -2.936   8.578  1.00  0.00    -0.000 C 
BRANCH  12  13
ATOM     13  C   UNL     1      -9.618  -3.312  10.038  1.00  0.00    -0.003 C 
ATOM     14  C   UNL     1      -9.807  -2.112  10.961  1.00  0.00     0.004 C 
ENDBRANCH  12  13
ENDBRANCH  11  12
ENDBRANCH  10  11
ENDBRANCH   9  10
ENDBRANCH   1   9
TORSDOF 10
ENDMDL
MODEL 3
REMARK VINA RESULT:    -4.082     12.607     14.996
REMARK INTER + INTRA:          -7.284
REMARK INTER:                  -6.124
REMARK INTRA:                  -1.160
REMARK UNBOUND:                -0.816
REMARK SMILES CCCCCCCCCCCC(=O)[O-]
REMARK SMILES IDX 7 1 8 2 9 3 10 4 11 5 12 6 13 7 14 8 6 9 5 10 4 11 3 12 2 13
REMARK SMILES IDX 1 14
REMARK H PARENT
REMARK Flexibility Score: inf
ROOT
ATOM      1  C   UNL     1      -3.217  -4.778   7.988  1.00  0.00     0.000 C 
ENDROOT
BRANCH   1   2
ATOM      2  C   UNL     1      -4.401  -4.773   8.975  1.00  0.00     0.000 C 
BRANCH   2   3
ATOM      3  C   UNL     1      -5.500  -3.739   8.667  1.00  0.00     0.000 C 
BRANCH   3   4
ATOM      4  C   UNL     1      -6.921  -4.159   9.087  1.00  0.00     0.006 C 
BRANCH   4   5
ATOM      5  C   UNL     1      -7.920  -4.130   7.925  1.00  0.00     0.053 C 
BRANCH   5   6
ATOM      6  C   UNL     1      -7.469  -5.037   6.824  1.00  0.00     0.041 C 
ATOM      7  O   UNL     1      -7.374  -6.277   7.023  1.00  0.00    -0.550 OA
ATOM      8  O   UNL     1      -7.202  -4.520   5.563  1.00  0.00    -0.550 OA
ENDBRANCH   5   6
ENDBRANCH   4   5
ENDBRANCH   3   4
ENDBRANCH   2   3
ENDBRANCH   1   2
BRANCH   1   9
ATOM      9  C   UNL     1      -1.836  -4.853   8.676  1.00  0.00     0.000 C 
BRANCH   9  10
ATOM     10  C   UNL     1      -1.009  -3.572   8.468  1.00  0.00    -0.000 C 
BRANCH  10  11
ATOM     11  C   UNL     1      -1.035  -2.644   9.692  1.00  0.00    -0.000 C 
BRANCH  11  12
ATOM     12  C   UNL     1      -1.312  -3.397  11.003  1.00  0.00    -0.000 C 
BRANCH  12  13
ATOM     13  C   UNL     1      -2.594  -2.885  11.668  1.00  0.00    -0.003 C 
ATOM     14  C   UNL     1      -3.217  -1.749  10.863  1.00  0.00     0.004 C 
ENDBRANCH  12  13
ENDBRANCH  11  12
ENDBRANCH  10  11
ENDBRANCH   9  10
ENDBRANCH   1   9
TORSDOF 10
ENDMDL
MODEL 4
REMARK VINA RESULT:    -4.009     12.610     15.282
REMARK INTER + INTRA:          -7.169
REMARK INTER:                  -6.053
REMARK INTRA:                  -1.116
REMARK UNBOUND:                -0.816
REMARK SMILES CCCCCCCCCCCC(=O)[O-]
REMARK SMILES IDX 7 1 8 2 9 3 10 4 11 5 12 6 13 7 14 8 6 9 5 10 4 11 3 12 2 13
REMARK SMILES IDX 1 14
REMARK H PARENT
REMARK Flexibility Score: inf
ROOT
ATOM      1  C   UNL     1      -4.531  -3.551   9.717  1.00  0.00     0.000 C 
ENDROOT
BRANCH   1   2
ATOM      2  C   UNL     1      -5.106  -2.494   8.754  1.00  0.00     0.000 C 
BRANCH   2   3
ATOM      3  C   UNL     1      -6.607  -2.199   8.932  1.00  0.00     0.000 C 
BRANCH   3   4
ATOM      4  C   UNL     1      -7.494  -3.445   9.122  1.00  0.00     0.006 C 
BRANCH   4   5
ATOM      5  C   UNL     1      -8.244  -3.844   7.846  1.00  0.00     0.053 C 
BRANCH   5   6
ATOM      6  C   UNL     1      -7.403  -4.755   7.008  1.00  0.00     0.041 C 
ATOM      7  O   UNL     1      -6.748  -4.296   6.035  1.00  0.00    -0.550 OA
ATOM      8  O   UNL     1      -7.302  -6.101   7.333  1.00  0.00    -0.550 OA
ENDBRANCH   5   6
ENDBRANCH   4   5
ENDBRANCH   3   4
ENDBRANCH   2   3
ENDBRANCH   1   2
BRANCH   1   9
ATOM      9  C   UNL     1      -4.224  -4.904   9.040  1.00  0.00     0.000 C 
BRANCH   9  10
ATOM     10  C   UNL     1      -3.113  -4.790   7.981  1.00  0.00    -0.000 C 
BRANCH  10  11
ATOM     11  C   UNL     1      -1.715  -4.644   8.601  1.00  0.00    -0.000 C 
BRANCH  11  12
ATOM     12  C   UNL     1      -1.060  -3.292   8.279  1.00  0.00    -0.000 C 
BRANCH  12  13
ATOM     13  C   UNL     1      -0.650  -2.562   9.563  1.00  0.00    -0.003 C 
ATOM     14  C   UNL     1      -0.998  -3.385  10.800  1.00  0.00     0.004 C 
ENDBRANCH  12  13
ENDBRANCH  11  12
ENDBRANCH  10  11
ENDBRANCH   9  10
ENDBRANCH   1   9
TORSDOF 10
ENDMDL
MODEL 5
REMARK VINA RESULT:    -3.986     14.437     16.882
REMARK INTER + INTRA:          -7.132
REMARK INTER:                  -6.046
REMARK INTRA:                  -1.086
REMARK UNBOUND:                -0.816
REMARK SMILES CCCCCCCCCCCC(=O)[O-]
REMARK SMILES IDX 7 1 8 2 9 3 10 4 11 5 12 6 13 7 14 8 6 9 5 10 4 11 3 12 2 13
REMARK SMILES IDX 1 14
REMARK H PARENT
REMARK Flexibility Score: inf
ROOT
ATOM      1  C   UNL     1      -7.586  -2.624   8.776  1.00  0.00     0.000 C 
ENDROOT
BRANCH   1   2
ATOM      2  C   UNL     1      -8.307  -1.799   7.692  1.00  0.00     0.000 C 
BRANCH   2   3
ATOM      3  C   UNL     1      -8.919  -2.625   6.545  1.00  0.00     0.000 C 
BRANCH   3   4
ATOM      4  C   UNL     1      -8.172  -2.521   5.202  1.00  0.00     0.006 C 
BRANCH   4   5
ATOM      5  C   UNL     1      -7.299  -3.746   4.908  1.00  0.00     0.053 C 
BRANCH   5   6
ATOM      6  C   UNL     1      -8.143  -4.978   4.807  1.00  0.00     0.041 C 
ATOM      7  O   UNL     1      -7.949  -5.945   5.589  1.00  0.00    -0.550 OA
ATOM      8  O   UNL     1      -9.177  -5.037   3.882  1.00  0.00    -0.550 OA
ENDBRANCH   5   6
ENDBRANCH   4   5
ENDBRANCH   3   4
ENDBRANCH   2   3
ENDBRANCH   1   2
BRANCH   1   9
ATOM      9  C   UNL     1      -7.992  -4.113   8.795  1.00  0.00     0.000 C 
BRANCH   9  10
ATOM     10  C   UNL     1      -6.776  -5.052   8.707  1.00  0.00    -0.000 C 
BRANCH  10  11
ATOM     11  C   UNL     1      -5.547  -4.373   8.083  1.00  0.00    -0.000 C 
BRANCH  11  12
ATOM     12  C   UNL     1      -4.276  -4.552   8.928  1.00  0.00    -0.000 C 
BRANCH  12  13
ATOM     13  C   UNL     1      -3.021  -4.480   8.051  1.00  0.00    -0.003 C 
ATOM     14  C   UNL     1      -1.910  -5.367   8.605  1.00  0.00     0.004 C 
ENDBRANCH  12  13
ENDBRANCH  11  12
ENDBRANCH  10  11
ENDBRANCH   9  10
ENDBRANCH   1   9
TORSDOF 10
ENDMDL
MODEL 6
REMARK VINA RESULT:    -3.945     12.132     13.928
REMARK INTER + INTRA:          -7.068
REMARK INTER:                  -5.482
REMARK INTRA:                  -1.586
REMARK UNBOUND:                -0.816
REMARK SMILES CCCCCCCCCCCC(=O)[O-]
REMARK SMILES IDX 7 1 8 2 9 3 10 4 11 5 12 6 13 7 14 8 6 9 5 10 4 11 3 12 2 13
REMARK SMILES IDX 1 14
REMARK H PARENT
REMARK Flexibility Score: inf
ROOT
ATOM      1  C   UNL     1      -1.119  -3.583   8.500  1.00  0.00     0.000 C 
ENDROOT
BRANCH   1   2
ATOM      2  C   UNL     1      -1.983  -4.837   8.736  1.00  0.00     0.000 C 
BRANCH   2   3
ATOM      3  C   UNL     1      -3.416  -4.755   8.175  1.00  0.00     0.000 C 
BRANCH   3   4
ATOM      4  C   UNL     1      -4.532  -4.866   9.231  1.00  0.00     0.006 C 
BRANCH   4   5
ATOM      5  C   UNL     1      -5.782  -4.058   8.865  1.00  0.00     0.053 C 
BRANCH   5   6
ATOM      6  C   UNL     1      -6.385  -4.573   7.597  1.00  0.00     0.041 C 
ATOM      7  O   UNL     1      -6.285  -3.908   6.532  1.00  0.00    -0.550 OA
ATOM      8  O   UNL     1      -7.014  -5.811   7.578  1.00  0.00    -0.550 OA
ENDBRANCH   5   6
ENDBRANCH   4   5
ENDBRANCH   3   4
ENDBRANCH   2   3
ENDBRANCH   1   2
BRANCH   1   9
ATOM      9  C   UNL     1      -0.790  -2.804   9.792  1.00  0.00     0.000 C 
BRANCH   9  10
ATOM     10  C   UNL     1      -1.507  -3.384  11.023  1.00  0.00    -0.000 C 
BRANCH  10  11
ATOM     11  C   UNL     1      -2.697  -2.524  11.476  1.00  0.00    -0.000 C 
BRANCH  11  12
ATOM     12  C   UNL     1      -2.752  -1.164  10.764  1.00  0.00    -0.000 C 
BRANCH  12  13
ATOM     13  C   UNL     1      -4.058  -1.011   9.976  1.00  0.00    -0.003 C 
ATOM     14  C   UNL     1      -3.790  -0.920   8.477  1.00  0.00     0.004 C 
ENDBRANCH  12  13
ENDBRANCH  11  12
ENDBRANCH  10  11
ENDBRANCH   9  10
ENDBRANCH   1   9
TORSDOF 10
ENDMDL
MODEL 7
REMARK VINA RESULT:    -3.905     14.009     15.938
REMARK INTER + INTRA:          -7.005
REMARK INTER:                  -5.815
REMARK INTRA:                  -1.190
REMARK UNBOUND:                -0.816
REMARK SMILES CCCCCCCCCCCC(=O)[O-]
REMARK SMILES IDX 7 1 8 2 9 3 10 4 11 5 12 6 13 7 14 8 6 9 5 10 4 11 3 12 2 13
REMARK SMILES IDX 1 14
REMARK H PARENT
REMARK Flexibility Score: inf
ROOT
ATOM      1  C   UNL     1      -9.363  -3.242   8.850  1.00  0.00     0.000 C 
ENDROOT
BRANCH   1   2
ATOM      2  C   UNL     1      -8.108  -3.689   8.076  1.00  0.00     0.000 C 
BRANCH   2   3
ATOM      3  C   UNL     1      -6.794  -3.631   8.877  1.00  0.00     0.000 C 
BRANCH   3   4
ATOM      4  C   UNL     1      -5.886  -4.866   8.722  1.00  0.00     0.006 C 
BRANCH   4   5
ATOM      5  C   UNL     1      -4.583  -4.753   9.522  1.00  0.00     0.053 C 
BRANCH   5   6
ATOM      6  C   UNL     1      -3.413  -4.621   8.600  1.00  0.00     0.041 C 
ATOM      7  O   UNL     1      -3.540  -4.876   7.373  1.00  0.00    -0.550 OA
ATOM      8  O   UNL     1      -2.193  -4.166   9.084  1.00  0.00    -0.550 OA
ENDBRANCH   5   6
ENDBRANCH   4   5
ENDBRANCH   3   4
ENDBRANCH   2   3
ENDBRANCH   1   2
BRANCH   1   9
ATOM      9  C   UNL     1      -9.051  -2.591  10.215  1.00  0.00     0.000 C 
BRANCH   9  10
ATOM     10  C   UNL     1      -9.409  -1.095  10.245  1.00  0.00    -0.000 C 
BRANCH  10  11
ATOM     11  C   UNL     1      -8.168  -0.189  10.259  1.00  0.00    -0.000 C 
BRANCH  11  12
ATOM     12  C   UNL     1      -7.577   0.030   8.857  1.00  0.00    -0.000 C 
BRANCH  12  13
ATOM     13  C   UNL     1      -8.682   0.325   7.836  1.00  0.00    -0.003 C 
ATOM     14  C   UNL     1      -8.355  -0.287   6.478  1.00  0.00     0.004 C 
ENDBRANCH  12  13
ENDBRANCH  11  12
ENDBRANCH  10  11
ENDBRANCH   9  10
ENDBRANCH   1   9
TORSDOF 10
ENDMDL
MODEL 8
REMARK VINA RESULT:    -3.895     13.525     16.377
REMARK INTER + INTRA:          -6.988
REMARK INTER:                  -5.819
REMARK INTRA:                  -1.169
REMARK UNBOUND:                -0.816
REMARK SMILES CCCCCCCCCCCC(=O)[O-]
REMARK SMILES IDX 7 1 8 2 9 3 10 4 11 5 12 6 13 7 14 8 6 9 5 10 4 11 3 12 2 13
REMARK SMILES IDX 1 14
REMARK H PARENT
REMARK Flexibility Score: inf
ROOT
ATOM      1  C   UNL     1      -7.038  -3.405   9.027  1.00  0.00     0.000 C 
ENDROOT
BRANCH   1   2
ATOM      2  C   UNL     1      -8.557  -3.364   9.285  1.00  0.00     0.000 C 
BRANCH   2   3
ATOM      3  C   UNL     1      -9.411  -2.934   8.076  1.00  0.00     0.000 C 
BRANCH   3   4
ATOM      4  C   UNL     1      -8.607  -2.450   6.855  1.00  0.00     0.006 C 
BRANCH   4   5
ATOM      5  C   UNL     1      -8.920  -3.245   5.581  1.00  0.00     0.053 C 
BRANCH   5   6
ATOM      6  C   UNL     1      -7.903  -4.322   5.373  1.00  0.00     0.041 C 
ATOM      7  O   UNL     1      -8.270  -5.511   5.176  1.00  0.00    -0.550 OA
ATOM      8  O   UNL     1      -6.551  -4.006   5.346  1.00  0.00    -0.550 OA
ENDBRANCH   5   6
ENDBRANCH   4   5
ENDBRANCH   3   4
ENDBRANCH   2   3
ENDBRANCH   1   2
BRANCH   1   9
ATOM      9  C   UNL     1      -6.487  -4.828   8.794  1.00  0.00     0.000 C 
BRANCH   9  10
ATOM     10  C   UNL     1      -4.956  -4.891   8.930  1.00  0.00    -0.000 C 
BRANCH  10  11
ATOM     11  C   UNL     1      -4.357  -3.596   9.499  1.00  0.00    -0.000 C 
BRANCH  11  12
ATOM     12  C   UNL     1      -3.211  -3.042   8.638  1.00  0.00    -0.000 C 
BRANCH  12  13
ATOM     13  C   UNL     1      -3.649  -2.887   7.177  1.00  0.00    -0.003 C 
ATOM     14  C   UNL     1      -4.478  -1.621   6.983  1.00  0.00     0.004 C 
ENDBRANCH  12  13
ENDBRANCH  11  12
ENDBRANCH  10  11
ENDBRANCH   9  10
ENDBRANCH   1   9
TORSDOF 10
ENDMDL
MODEL 9
REMARK VINA RESULT:    -3.880     11.919     13.606
REMARK INTER + INTRA:          -6.965
REMARK INTER:                  -5.234
REMARK INTRA:                  -1.730
REMARK UNBOUND:                -0.816
REMARK SMILES CCCCCCCCCCCC(=O)[O-]
REMARK SMILES IDX 7 1 8 2 9 3 10 4 11 5 12 6 13 7 14 8 6 9 5 10 4 11 3 12 2 13
REMARK SMILES IDX 1 14
REMARK H PARENT
REMARK Flexibility Score: inf
ROOT
ATOM      1  C   UNL     1      -1.085  -3.284   8.355  1.00  0.00     0.000 C 
ENDROOT
BRANCH   1   2
ATOM      2  C   UNL     1      -1.703  -4.645   8.728  1.00  0.00     0.000 C 
BRANCH   2   3
ATOM      3  C   UNL     1      -3.136  -4.873   8.211  1.00  0.00     0.000 C 
BRANCH   3   4
ATOM      4  C   UNL     1      -4.217  -4.935   9.307  1.00  0.00     0.006 C 
BRANCH   4   5
ATOM      5  C   UNL     1      -5.307  -3.871   9.132  1.00  0.00     0.053 C 
BRANCH   5   6
ATOM      6  C   UNL     1      -5.857  -3.910   7.742  1.00  0.00     0.041 C 
ATOM      7  O   UNL     1      -6.495  -4.919   7.341  1.00  0.00    -0.550 OA
ATOM      8  O   UNL     1      -5.711  -2.812   6.905  1.00  0.00    -0.550 OA
ENDBRANCH   5   6
ENDBRANCH   4   5
ENDBRANCH   3   4
ENDBRANCH   2   3
ENDBRANCH   1   2
BRANCH   1   9
ATOM      9  C   UNL     1      -2.091  -2.298   7.722  1.00  0.00     0.000 C 
BRANCH   9  10
ATOM     10  C   UNL     1      -2.575  -1.235   8.722  1.00  0.00    -0.000 C 
BRANCH  10  11
ATOM     11  C   UNL     1      -1.979  -1.426  10.126  1.00  0.00    -0.000 C 
BRANCH  11  12
ATOM     12  C   UNL     1      -3.044  -1.758  11.183  1.00  0.00    -0.000 C 
BRANCH  12  13
ATOM     13  C   UNL     1      -2.613  -2.956  12.037  1.00  0.00    -0.003 C 
ATOM     14  C   UNL     1      -1.094  -3.096  12.064  1.00  0.00     0.004 C 
ENDBRANCH  12  13
ENDBRANCH  11  12
ENDBRANCH  10  11
ENDBRANCH   9  10
ENDBRANCH   1   9
TORSDOF 10
ENDMDL
