MODEL 1
REMARK VINA RESULT:    -4.658      0.000      0.000
REMARK INTER + INTRA:         -16.927
REMARK INTER:                 -12.284
REMARK INTRA:                  -4.643
REMARK UNBOUND:                -4.643
REMARK SMILES CCCCCCCCCCCCCCCCCCCCCCCCCCCCCC(=O)[O-]
REMARK SMILES IDX 16 1 17 2 18 3 19 4 20 5 21 6 22 7 23 8 24 9 25 10 26 11
REMARK SMILES IDX 27 12 28 13 29 14 30 15 31 16 32 17 15 18 14 19 13 20 12 21
REMARK SMILES IDX 11 22 10 23 9 24 8 25 7 26 6 27 5 28 4 29 3 30 2 31 1 32
REMARK H PARENT
REMARK Flexibility Score: inf
ROOT
ATOM      1  C   UNL     1     -52.591  11.817 -31.451  1.00  0.00     0.000 C 
ENDROOT
BRANCH   1   2
ATOM      2  C   UNL     1     -53.113  11.832 -30.009  1.00  0.00     0.000 C 
BRANCH   2   3
ATOM      3  C   UNL     1     -53.754  13.186 -29.668  1.00  0.00     0.000 C 
BRANCH   3   4
ATOM      4  C   UNL     1     -53.126  13.846 -28.430  1.00  0.00     0.000 C 
BRANCH   4   5
ATOM      5  C   UNL     1     -53.818  15.161 -28.039  1.00  0.00     0.000 C 
BRANCH   5   6
ATOM      6  C   UNL     1     -52.783  16.245 -27.702  1.00  0.00     0.000 C 
BRANCH   6   7
ATOM      7  C   UNL     1     -52.925  17.503 -28.579  1.00  0.00     0.000 C 
BRANCH   7   8
ATOM      8  C   UNL     1     -53.056  17.231 -30.092  1.00  0.00     0.000 C 
BRANCH   8   9
ATOM      9  C   UNL     1     -51.929  17.824 -30.962  1.00  0.00     0.000 C 
BRANCH   9  10
ATOM     10  C   UNL     1     -50.634  16.988 -31.007  1.00  0.00     0.000 C 
BRANCH  10  11
ATOM     11  C   UNL     1     -50.822  15.480 -30.759  1.00  0.00     0.000 C 
BRANCH  11  12
ATOM     12  C   UNL     1     -50.245  14.614 -31.892  1.00  0.00     0.000 C 
BRANCH  12  13
ATOM     13  C   UNL     1     -49.472  13.387 -31.377  1.00  0.00     0.006 C 
BRANCH  13  14
ATOM     14  C   UNL     1     -49.570  13.180 -29.854  1.00  0.00     0.053 C 
BRANCH  14  15
ATOM     15  C   UNL     1     -49.031  11.853 -29.415  1.00  0.00     0.041 C 
ATOM     16  O   UNL     1     -47.788  11.653 -29.377  1.00  0.00    -0.550 OA
ATOM     17  O   UNL     1     -49.901  10.843 -29.023  1.00  0.00    -0.550 OA
ENDBRANCH  14  15
ENDBRANCH  13  14
ENDBRANCH  12  13
ENDBRANCH  11  12
ENDBRANCH  10  11
ENDBRANCH   9  10
ENDBRANCH   8   9
ENDBRANCH   7   8
ENDBRANCH   6   7
ENDBRANCH   5   6
ENDBRANCH   4   5
ENDBRANCH   3   4
ENDBRANCH   2   3
ENDBRANCH   1   2
BRANCH   1  18
ATOM     18  C   UNL     1     -52.000  10.445 -31.805  1.00  0.00     0.000 C 
BRANCH  18  19
ATOM     19  C   UNL     1     -52.303   9.378 -30.739  1.00  0.00     0.000 C 
BRANCH  19  20
ATOM     20  C   UNL     1     -53.458   8.448 -31.151  1.00  0.00     0.000 C 
BRANCH  20  21
ATOM     21  C   UNL     1     -53.076   6.955 -31.065  1.00  0.00     0.000 C 
BRANCH  21  22
ATOM     22  C   UNL     1     -53.622   6.105 -32.229  1.00  0.00     0.000 C 
BRANCH  22  23
ATOM     23  C   UNL     1     -54.120   6.907 -33.448  1.00  0.00     0.000 C 
BRANCH  23  24
ATOM     24  C   UNL     1     -53.067   7.149 -34.547  1.00  0.00    -0.000 C 
BRANCH  24  25
ATOM     25  C   UNL     1     -51.709   6.511 -34.219  1.00  0.00    -0.000 C 
BRANCH  25  26
ATOM     26  C   UNL     1     -50.673   7.578 -33.842  1.00  0.00    -0.000 C 
BRANCH  26  27
ATOM     27  C   UNL     1     -49.375   6.973 -33.264  1.00  0.00    -0.000 C 
BRANCH  27  28
ATOM     28  C   UNL     1     -49.483   6.555 -31.785  1.00  0.00    -0.000 C 
BRANCH  28  29
ATOM     29  C   UNL     1     -49.037   7.630 -30.777  1.00  0.00    -0.000 C 
BRANCH  29  30
ATOM     30  C   UNL     1     -48.309   8.826 -31.431  1.00  0.00    -0.000 C 
BRANCH  30  31
ATOM     31  C   UNL     1     -46.783   8.673 -31.407  1.00  0.00    -0.003 C 
ATOM     32  C   UNL     1     -46.268   8.483 -29.984  1.00  0.00     0.004 C 
ENDBRANCH  30  31
ENDBRANCH  29  30
ENDBRANCH  28  29
ENDBRANCH  27  28
ENDBRANCH  26  27
ENDBRANCH  25  26
ENDBRANCH  24  25
ENDBRANCH  23  24
ENDBRANCH  22  23
ENDBRANCH  21  22
ENDBRANCH  20  21
ENDBRANCH  19  20
ENDBRANCH  18  19
ENDBRANCH   1  18
TORSDOF 28
ENDMDL
MODEL 2
REMARK VINA RESULT:    -4.366      1.465      2.234
REMARK INTER + INTRA:         -16.154
REMARK INTER:                 -12.162
REMARK INTRA:                  -3.993
REMARK UNBOUND:                -4.643
REMARK SMILES CCCCCCCCCCCCCCCCCCCCCCCCCCCCCC(=O)[O-]
REMARK SMILES IDX 16 1 17 2 18 3 19 4 20 5 21 6 22 7 23 8 24 9 25 10 26 11
REMARK SMILES IDX 27 12 28 13 29 14 30 15 31 16 32 17 15 18 14 19 13 20 12 21
REMARK SMILES IDX 11 22 10 23 9 24 8 25 7 26 6 27 5 28 4 29 3 30 2 31 1 32
REMARK H PARENT
REMARK Flexibility Score: inf
ROOT
ATOM      1  C   UNL     1     -51.074  10.435 -29.702  1.00  0.00     0.000 C 
ENDROOT
BRANCH   1   2
ATOM      2  C   UNL     1     -51.399  11.933 -29.647  1.00  0.00     0.000 C 
BRANCH   2   3
ATOM      3  C   UNL     1     -52.707  12.186 -28.881  1.00  0.00     0.000 C 
BRANCH   3   4
ATOM      4  C   UNL     1     -53.607  13.225 -29.569  1.00  0.00     0.000 C 
BRANCH   4   5
ATOM      5  C   UNL     1     -53.781  14.506 -28.739  1.00  0.00     0.000 C 
BRANCH   5   6
ATOM      6  C   UNL     1     -52.442  14.949 -28.130  1.00  0.00     0.000 C 
BRANCH   6   7
ATOM      7  C   UNL     1     -52.457  16.410 -27.644  1.00  0.00     0.000 C 
BRANCH   7   8
ATOM      8  C   UNL     1     -53.797  17.148 -27.840  1.00  0.00     0.000 C 
BRANCH   8   9
ATOM      9  C   UNL     1     -53.779  18.263 -28.905  1.00  0.00     0.000 C 
BRANCH   9  10
ATOM     10  C   UNL     1     -53.823  17.770 -30.366  1.00  0.00     0.000 C 
BRANCH  10  11
ATOM     11  C   UNL     1     -52.583  18.117 -31.209  1.00  0.00     0.000 C 
BRANCH  11  12
ATOM     12  C   UNL     1     -51.265  17.901 -30.448  1.00  0.00     0.000 C 
BRANCH  12  13
ATOM     13  C   UNL     1     -50.453  16.705 -30.977  1.00  0.00     0.006 C 
BRANCH  13  14
ATOM     14  C   UNL     1     -51.252  15.768 -31.903  1.00  0.00     0.053 C 
BRANCH  14  15
ATOM     15  C   UNL     1     -50.655  14.397 -31.993  1.00  0.00     0.041 C 
ATOM     16  O   UNL     1     -49.465  14.197 -31.633  1.00  0.00    -0.550 OA
ATOM     17  O   UNL     1     -51.422  13.333 -32.453  1.00  0.00    -0.550 OA
ENDBRANCH  14  15
ENDBRANCH  13  14
ENDBRANCH  12  13
ENDBRANCH  11  12
ENDBRANCH  10  11
ENDBRANCH   9  10
ENDBRANCH   8   9
ENDBRANCH   7   8
ENDBRANCH   6   7
ENDBRANCH   5   6
ENDBRANCH   4   5
ENDBRANCH   3   4
ENDBRANCH   2   3
ENDBRANCH   1   2
BRANCH   1  18
ATOM     18  C   UNL     1     -51.504   9.831 -31.046  1.00  0.00     0.000 C 
BRANCH  18  19
ATOM     19  C   UNL     1     -52.872   9.132 -30.970  1.00  0.00     0.000 C 
BRANCH  19  20
ATOM     20  C   UNL     1     -52.782   7.735 -30.328  1.00  0.00     0.000 C 
BRANCH  20  21
ATOM     21  C   UNL     1     -53.813   6.747 -30.913  1.00  0.00     0.000 C 
BRANCH  21  22
ATOM     22  C   UNL     1     -53.315   5.996 -32.163  1.00  0.00     0.000 C 
BRANCH  22  23
ATOM     23  C   UNL     1     -53.773   6.591 -33.510  1.00  0.00     0.000 C 
BRANCH  23  24
ATOM     24  C   UNL     1     -52.635   7.060 -34.438  1.00  0.00    -0.000 C 
BRANCH  24  25
ATOM     25  C   UNL     1     -51.286   6.412 -34.097  1.00  0.00    -0.000 C 
BRANCH  25  26
ATOM     26  C   UNL     1     -50.305   7.444 -33.525  1.00  0.00    -0.000 C 
BRANCH  26  27
ATOM     27  C   UNL     1     -49.088   6.792 -32.832  1.00  0.00    -0.000 C 
BRANCH  27  28
ATOM     28  C   UNL     1     -49.309   6.483 -31.339  1.00  0.00    -0.000 C 
BRANCH  28  29
ATOM     29  C   UNL     1     -48.716   7.523 -30.371  1.00  0.00    -0.000 C 
BRANCH  29  30
ATOM     30  C   UNL     1     -47.170   7.537 -30.350  1.00  0.00    -0.000 C 
BRANCH  30  31
ATOM     31  C   UNL     1     -46.591   8.954 -30.465  1.00  0.00    -0.003 C 
ATOM     32  C   UNL     1     -47.419   9.956 -29.665  1.00  0.00     0.004 C 
ENDBRANCH  30  31
ENDBRANCH  29  30
ENDBRANCH  28  29
ENDBRANCH  27  28
ENDBRANCH  26  27
ENDBRANCH  25  26
ENDBRANCH  24  25
ENDBRANCH  23  24
ENDBRANCH  22  23
ENDBRANCH  21  22
ENDBRANCH  20  21
ENDBRANCH  19  20
ENDBRANCH  18  19
ENDBRANCH   1  18
TORSDOF 28
ENDMDL
MODEL 3
REMARK VINA RESULT:    -4.323      1.745      3.544
REMARK INTER + INTRA:         -16.041
REMARK INTER:                 -11.390
REMARK INTRA:                  -4.651
REMARK UNBOUND:                -4.643
REMARK SMILES CCCCCCCCCCCCCCCCCCCCCCCCCCCCCC(=O)[O-]
REMARK SMILES IDX 16 1 17 2 18 3 19 4 20 5 21 6 22 7 23 8 24 9 25 10 26 11
REMARK SMILES IDX 27 12 28 13 29 14 30 15 31 16 32 17 15 18 14 19 13 20 12 21
REMARK SMILES IDX 11 22 10 23 9 24 8 25 7 26 6 27 5 28 4 29 3 30 2 31 1 32
REMARK H PARENT
REMARK Flexibility Score: inf
ROOT
ATOM      1  C   UNL     1     -49.918  13.353 -30.032  1.00  0.00     0.000 C 
ENDROOT
BRANCH   1   2
ATOM      2  C   UNL     1     -49.729  13.950 -31.432  1.00  0.00     0.000 C 
BRANCH   2   3
ATOM      3  C   UNL     1     -50.794  15.019 -31.724  1.00  0.00     0.000 C 
BRANCH   3   4
ATOM      4  C   UNL     1     -50.456  16.381 -31.097  1.00  0.00     0.000 C 
BRANCH   4   5
ATOM      5  C   UNL     1     -51.615  17.386 -31.192  1.00  0.00     0.000 C 
BRANCH   5   6
ATOM      6  C   UNL     1     -52.939  16.666 -31.491  1.00  0.00     0.000 C 
BRANCH   6   7
ATOM      7  C   UNL     1     -54.117  17.208 -30.661  1.00  0.00     0.000 C 
BRANCH   7   8
ATOM      8  C   UNL     1     -53.914  18.626 -30.089  1.00  0.00     0.000 C 
BRANCH   8   9
ATOM      9  C   UNL     1     -53.749  18.694 -28.557  1.00  0.00     0.000 C 
BRANCH   9  10
ATOM     10  C   UNL     1     -53.704  17.327 -27.845  1.00  0.00     0.000 C 
BRANCH  10  11
ATOM     11  C   UNL     1     -52.303  16.700 -27.724  1.00  0.00     0.000 C 
BRANCH  11  12
ATOM     12  C   UNL     1     -52.322  15.169 -27.864  1.00  0.00     0.000 C 
BRANCH  12  13
ATOM     13  C   UNL     1     -53.730  14.606 -28.129  1.00  0.00     0.006 C 
BRANCH  13  14
ATOM     14  C   UNL     1     -53.765  13.079 -28.326  1.00  0.00     0.053 C 
BRANCH  14  15
ATOM     15  C   UNL     1     -53.722  12.681 -29.770  1.00  0.00     0.041 C 
ATOM     16  O   UNL     1     -53.965  13.528 -30.670  1.00  0.00    -0.550 OA
ATOM     17  O   UNL     1     -53.389  11.379 -30.123  1.00  0.00    -0.550 OA
ENDBRANCH  14  15
ENDBRANCH  13  14
ENDBRANCH  12  13
ENDBRANCH  11  12
ENDBRANCH  10  11
ENDBRANCH   9  10
ENDBRANCH   8   9
ENDBRANCH   7   8
ENDBRANCH   6   7
ENDBRANCH   5   6
ENDBRANCH   4   5
ENDBRANCH   3   4
ENDBRANCH   2   3
ENDBRANCH   1   2
BRANCH   1  18
ATOM     18  C   UNL     1     -49.376  11.918 -29.972  1.00  0.00     0.000 C 
BRANCH  18  19
ATOM     19  C   UNL     1     -49.576  11.154 -31.292  1.00  0.00     0.000 C 
BRANCH  19  20
ATOM     20  C   UNL     1     -50.464   9.908 -31.119  1.00  0.00     0.000 C 
BRANCH  20  21
ATOM     21  C   UNL     1     -51.415   9.688 -32.314  1.00  0.00     0.000 C 
BRANCH  21  22
ATOM     22  C   UNL     1     -52.402   8.521 -32.117  1.00  0.00     0.000 C 
BRANCH  22  23
ATOM     23  C   UNL     1     -51.958   7.453 -31.098  1.00  0.00     0.000 C 
BRANCH  23  24
ATOM     24  C   UNL     1     -51.119   6.300 -31.681  1.00  0.00    -0.000 C 
BRANCH  24  25
ATOM     25  C   UNL     1     -51.493   5.968 -33.132  1.00  0.00    -0.000 C 
BRANCH  25  26
ATOM     26  C   UNL     1     -50.433   6.489 -34.110  1.00  0.00    -0.000 C 
BRANCH  26  27
ATOM     27  C   UNL     1     -49.052   6.687 -33.445  1.00  0.00    -0.000 C 
BRANCH  27  28
ATOM     28  C   UNL     1     -48.413   8.061 -33.728  1.00  0.00    -0.000 C 
BRANCH  28  29
ATOM     29  C   UNL     1     -47.369   8.513 -32.691  1.00  0.00    -0.000 C 
BRANCH  29  30
ATOM     30  C   UNL     1     -47.489   7.781 -31.335  1.00  0.00    -0.000 C 
BRANCH  30  31
ATOM     31  C   UNL     1     -46.545   8.354 -30.269  1.00  0.00    -0.003 C 
ATOM     32  C   UNL     1     -47.309   9.184 -29.243  1.00  0.00     0.004 C 
ENDBRANCH  30  31
ENDBRANCH  29  30
ENDBRANCH  28  29
ENDBRANCH  27  28
ENDBRANCH  26  27
ENDBRANCH  25  26
ENDBRANCH  24  25
ENDBRANCH  23  24
ENDBRANCH  22  23
ENDBRANCH  21  22
ENDBRANCH  20  21
ENDBRANCH  19  20
ENDBRANCH  18  19
ENDBRANCH   1  18
TORSDOF 28
ENDMDL
MODEL 4
REMARK VINA RESULT:    -4.241      1.860      8.345
REMARK INTER + INTRA:         -15.825
REMARK INTER:                 -10.847
REMARK INTRA:                  -4.978
REMARK UNBOUND:                -4.643
REMARK SMILES CCCCCCCCCCCCCCCCCCCCCCCCCCCCCC(=O)[O-]
REMARK SMILES IDX 16 1 17 2 18 3 19 4 20 5 21 6 22 7 23 8 24 9 25 10 26 11
REMARK SMILES IDX 27 12 28 13 29 14 30 15 31 16 32 17 15 18 14 19 13 20 12 21
REMARK SMILES IDX 11 22 10 23 9 24 8 25 7 26 6 27 5 28 4 29 3 30 2 31 1 32
REMARK H PARENT
REMARK Flexibility Score: inf
ROOT
ATOM      1  C   UNL     1     -48.764  12.573 -30.273  1.00  0.00     0.000 C 
ENDROOT
BRANCH   1   2
ATOM      2  C   UNL     1     -48.543  11.565 -29.138  1.00  0.00     0.000 C 
BRANCH   2   3
ATOM      3  C   UNL     1     -47.762  10.339 -29.635  1.00  0.00     0.000 C 
BRANCH   3   4
ATOM      4  C   UNL     1     -48.627   9.070 -29.702  1.00  0.00     0.000 C 
BRANCH   4   5
ATOM      5  C   UNL     1     -47.849   7.844 -30.205  1.00  0.00     0.000 C 
BRANCH   5   6
ATOM      6  C   UNL     1     -48.752   6.601 -30.242  1.00  0.00     0.000 C 
BRANCH   6   7
ATOM      7  C   UNL     1     -50.220   6.915 -29.904  1.00  0.00     0.000 C 
BRANCH   7   8
ATOM      8  C   UNL     1     -51.258   6.018 -30.609  1.00  0.00     0.000 C 
BRANCH   8   9
ATOM      9  C   UNL     1     -52.719   6.499 -30.499  1.00  0.00     0.000 C 
BRANCH   9  10
ATOM     10  C   UNL     1     -53.506   6.496 -31.825  1.00  0.00     0.000 C 
BRANCH  10  11
ATOM     11  C   UNL     1     -52.801   7.192 -33.004  1.00  0.00     0.000 C 
BRANCH  11  12
ATOM     12  C   UNL     1     -52.186   6.196 -34.001  1.00  0.00     0.000 C 
BRANCH  12  13
ATOM     13  C   UNL     1     -50.748   6.564 -34.410  1.00  0.00     0.006 C 
BRANCH  13  14
ATOM     14  C   UNL     1     -50.061   7.555 -33.451  1.00  0.00     0.053 C 
BRANCH  14  15
ATOM     15  C   UNL     1     -48.587   7.669 -33.696  1.00  0.00     0.041 C 
ATOM     16  O   UNL     1     -48.061   8.796 -33.892  1.00  0.00    -0.550 OA
ATOM     17  O   UNL     1     -47.789   6.531 -33.683  1.00  0.00    -0.550 OA
ENDBRANCH  14  15
ENDBRANCH  13  14
ENDBRANCH  12  13
ENDBRANCH  11  12
ENDBRANCH  10  11
ENDBRANCH   9  10
ENDBRANCH   8   9
ENDBRANCH   7   8
ENDBRANCH   6   7
ENDBRANCH   5   6
ENDBRANCH   4   5
ENDBRANCH   3   4
ENDBRANCH   2   3
ENDBRANCH   1   2
BRANCH   1  18
ATOM     18  C   UNL     1     -50.015  13.425 -30.012  1.00  0.00     0.000 C 
BRANCH  18  19
ATOM     19  C   UNL     1     -50.680  13.912 -31.310  1.00  0.00     0.000 C 
BRANCH  19  20
ATOM     20  C   UNL     1     -50.035  15.201 -31.852  1.00  0.00     0.000 C 
BRANCH  20  21
ATOM     21  C   UNL     1     -50.398  16.443 -31.011  1.00  0.00     0.000 C 
BRANCH  21  22
ATOM     22  C   UNL     1     -51.870  16.877 -31.146  1.00  0.00     0.000 C 
BRANCH  22  23
ATOM     23  C   UNL     1     -52.573  17.233 -29.821  1.00  0.00     0.000 C 
BRANCH  23  24
ATOM     24  C   UNL     1     -52.001  16.537 -28.570  1.00  0.00    -0.000 C 
BRANCH  24  25
ATOM     25  C   UNL     1     -52.699  15.205 -28.261  1.00  0.00    -0.000 C 
BRANCH  25  26
ATOM     26  C   UNL     1     -54.043  15.101 -28.993  1.00  0.00    -0.000 C 
BRANCH  26  27
ATOM     27  C   UNL     1     -54.079  13.940 -30.013  1.00  0.00    -0.000 C 
BRANCH  27  28
ATOM     28  C   UNL     1     -53.739  12.564 -29.408  1.00  0.00    -0.000 C 
BRANCH  28  29
ATOM     29  C   UNL     1     -53.375  11.478 -30.437  1.00  0.00    -0.000 C 
BRANCH  29  30
ATOM     30  C   UNL     1     -52.193  10.584 -29.999  1.00  0.00    -0.000 C 
BRANCH  30  31
ATOM     31  C   UNL     1     -51.410  10.015 -31.190  1.00  0.00    -0.003 C 
ATOM     32  C   UNL     1     -51.704  10.795 -32.468  1.00  0.00     0.004 C 
ENDBRANCH  30  31
ENDBRANCH  29  30
ENDBRANCH  28  29
ENDBRANCH  27  28
ENDBRANCH  26  27
ENDBRANCH  25  26
ENDBRANCH  24  25
ENDBRANCH  23  24
ENDBRANCH  22  23
ENDBRANCH  21  22
ENDBRANCH  20  21
ENDBRANCH  19  20
ENDBRANCH  18  19
ENDBRANCH   1  18
TORSDOF 28
ENDMDL
MODEL 5
REMARK VINA RESULT:    -4.056      1.459      4.327
REMARK INTER + INTRA:         -15.337
REMARK INTER:                 -11.808
REMARK INTRA:                  -3.529
REMARK UNBOUND:                -4.643
REMARK SMILES CCCCCCCCCCCCCCCCCCCCCCCCCCCCCC(=O)[O-]
REMARK SMILES IDX 16 1 17 2 18 3 19 4 20 5 21 6 22 7 23 8 24 9 25 10 26 11
REMARK SMILES IDX 27 12 28 13 29 14 30 15 31 16 32 17 15 18 14 19 13 20 12 21
REMARK SMILES IDX 11 22 10 23 9 24 8 25 7 26 6 27 5 28 4 29 3 30 2 31 1 32
REMARK H PARENT
REMARK Flexibility Score: inf
ROOT
ATOM      1  C   UNL     1     -50.839  10.816 -31.320  1.00  0.00     0.000 C 
ENDROOT
BRANCH   1   2
ATOM      2  C   UNL     1     -52.290  10.323 -31.254  1.00  0.00     0.000 C 
BRANCH   2   3
ATOM      3  C   UNL     1     -53.146  11.245 -30.372  1.00  0.00     0.000 C 
BRANCH   3   4
ATOM      4  C   UNL     1     -52.349  11.870 -29.215  1.00  0.00     0.000 C 
BRANCH   4   5
ATOM      5  C   UNL     1     -53.204  12.792 -28.332  1.00  0.00     0.000 C 
BRANCH   5   6
ATOM      6  C   UNL     1     -53.365  14.175 -28.980  1.00  0.00     0.000 C 
BRANCH   6   7
ATOM      7  C   UNL     1     -52.754  15.308 -28.135  1.00  0.00     0.000 C 
BRANCH   7   8
ATOM      8  C   UNL     1     -53.745  16.412 -27.712  1.00  0.00     0.000 C 
BRANCH   8   9
ATOM      9  C   UNL     1     -53.654  17.718 -28.526  1.00  0.00     0.000 C 
BRANCH   9  10
ATOM     10  C   UNL     1     -53.991  17.577 -30.024  1.00  0.00     0.000 C 
BRANCH  10  11
ATOM     11  C   UNL     1     -52.795  17.745 -30.980  1.00  0.00     0.000 C 
BRANCH  11  12
ATOM     12  C   UNL     1     -51.454  17.872 -30.240  1.00  0.00     0.000 C 
BRANCH  12  13
ATOM     13  C   UNL     1     -50.395  16.872 -30.737  1.00  0.00     0.006 C 
BRANCH  13  14
ATOM     14  C   UNL     1     -50.859  16.009 -31.925  1.00  0.00     0.053 C 
BRANCH  14  15
ATOM     15  C   UNL     1     -50.695  14.542 -31.674  1.00  0.00     0.041 C 
ATOM     16  O   UNL     1     -51.492  13.715 -32.191  1.00  0.00    -0.550 OA
ATOM     17  O   UNL     1     -49.644  14.084 -30.888  1.00  0.00    -0.550 OA
ENDBRANCH  14  15
ENDBRANCH  13  14
ENDBRANCH  12  13
ENDBRANCH  11  12
ENDBRANCH  10  11
ENDBRANCH   9  10
ENDBRANCH   8   9
ENDBRANCH   7   8
ENDBRANCH   6   7
ENDBRANCH   5   6
ENDBRANCH   4   5
ENDBRANCH   3   4
ENDBRANCH   2   3
ENDBRANCH   1   2
BRANCH   1  18
ATOM     18  C   UNL     1     -49.957  10.054 -30.321  1.00  0.00     0.000 C 
BRANCH  18  19
ATOM     19  C   UNL     1     -48.710  10.852 -29.904  1.00  0.00     0.000 C 
BRANCH  19  20
ATOM     20  C   UNL     1     -47.741  10.019 -29.045  1.00  0.00     0.000 C 
BRANCH  20  21
ATOM     21  C   UNL     1     -47.338   8.693 -29.723  1.00  0.00     0.000 C 
BRANCH  21  22
ATOM     22  C   UNL     1     -46.628   8.878 -31.078  1.00  0.00     0.000 C 
BRANCH  22  23
ATOM     23  C   UNL     1     -47.267   8.124 -32.261  1.00  0.00     0.000 C 
BRANCH  23  24
ATOM     24  C   UNL     1     -47.716   6.682 -31.953  1.00  0.00    -0.000 C 
BRANCH  24  25
ATOM     25  C   UNL     1     -49.243   6.529 -31.921  1.00  0.00    -0.000 C 
BRANCH  25  26
ATOM     26  C   UNL     1     -49.911   7.424 -32.973  1.00  0.00    -0.000 C 
BRANCH  26  27
ATOM     27  C   UNL     1     -50.505   6.620 -34.151  1.00  0.00    -0.000 C 
BRANCH  27  28
ATOM     28  C   UNL     1     -52.039   6.479 -34.102  1.00  0.00    -0.000 C 
BRANCH  28  29
ATOM     29  C   UNL     1     -52.758   7.540 -33.247  1.00  0.00    -0.000 C 
BRANCH  29  30
ATOM     30  C   UNL     1     -54.117   7.063 -32.687  1.00  0.00    -0.000 C 
BRANCH  30  31
ATOM     31  C   UNL     1     -54.006   6.512 -31.259  1.00  0.00    -0.003 C 
ATOM     32  C   UNL     1     -52.645   6.831 -30.647  1.00  0.00     0.004 C 
ENDBRANCH  30  31
ENDBRANCH  29  30
ENDBRANCH  28  29
ENDBRANCH  27  28
ENDBRANCH  26  27
ENDBRANCH  25  26
ENDBRANCH  24  25
ENDBRANCH  23  24
ENDBRANCH  22  23
ENDBRANCH  21  22
ENDBRANCH  20  21
ENDBRANCH  19  20
ENDBRANCH  18  19
ENDBRANCH   1  18
TORSDOF 28
ENDMDL
MODEL 6
REMARK VINA RESULT:    -3.968      2.164      3.878
REMARK INTER + INTRA:         -15.105
REMARK INTER:                 -11.363
REMARK INTRA:                  -3.743
REMARK UNBOUND:                -4.643
REMARK SMILES CCCCCCCCCCCCCCCCCCCCCCCCCCCCCC(=O)[O-]
REMARK SMILES IDX 16 1 17 2 18 3 19 4 20 5 21 6 22 7 23 8 24 9 25 10 26 11
REMARK SMILES IDX 27 12 28 13 29 14 30 15 31 16 32 17 15 18 14 19 13 20 12 21
REMARK SMILES IDX 11 22 10 23 9 24 8 25 7 26 6 27 5 28 4 29 3 30 2 31 1 32
REMARK H PARENT
REMARK Flexibility Score: inf
ROOT
ATOM      1  C   UNL     1     -50.639  10.559 -31.696  1.00  0.00     0.000 C 
ENDROOT
BRANCH   1   2
ATOM      2  C   UNL     1     -49.890   9.872 -30.548  1.00  0.00     0.000 C 
BRANCH   2   3
ATOM      3  C   UNL     1     -49.020  10.877 -29.777  1.00  0.00     0.000 C 
BRANCH   3   4
ATOM      4  C   UNL     1     -49.665  12.269 -29.679  1.00  0.00     0.000 C 
BRANCH   4   5
ATOM      5  C   UNL     1     -48.847  13.357 -30.391  1.00  0.00     0.000 C 
BRANCH   5   6
ATOM      6  C   UNL     1     -49.770  14.406 -31.030  1.00  0.00     0.000 C 
BRANCH   6   7
ATOM      7  C   UNL     1     -50.900  13.781 -31.868  1.00  0.00     0.000 C 
BRANCH   7   8
ATOM      8  C   UNL     1     -52.226  14.569 -31.865  1.00  0.00     0.000 C 
BRANCH   8   9
ATOM      9  C   UNL     1     -53.145  14.296 -30.658  1.00  0.00     0.000 C 
BRANCH   9  10
ATOM     10  C   UNL     1     -52.912  12.944 -29.954  1.00  0.00     0.000 C 
BRANCH  10  11
ATOM     11  C   UNL     1     -53.307  12.907 -28.466  1.00  0.00     0.000 C 
BRANCH  11  12
ATOM     12  C   UNL     1     -53.751  14.279 -27.934  1.00  0.00     0.000 C 
BRANCH  12  13
ATOM     13  C   UNL     1     -52.582  15.266 -27.763  1.00  0.00     0.006 C 
BRANCH  13  14
ATOM     14  C   UNL     1     -53.014  16.744 -27.720  1.00  0.00     0.053 C 
BRANCH  14  15
ATOM     15  C   UNL     1     -52.538  17.520 -28.911  1.00  0.00     0.041 C 
ATOM     16  O   UNL     1     -51.434  17.244 -29.449  1.00  0.00    -0.550 OA
ATOM     17  O   UNL     1     -53.327  18.533 -29.441  1.00  0.00    -0.550 OA
ENDBRANCH  14  15
ENDBRANCH  13  14
ENDBRANCH  12  13
ENDBRANCH  11  12
ENDBRANCH  10  11
ENDBRANCH   9  10
ENDBRANCH   8   9
ENDBRANCH   7   8
ENDBRANCH   6   7
ENDBRANCH   5   6
ENDBRANCH   4   5
ENDBRANCH   3   4
ENDBRANCH   2   3
ENDBRANCH   1   2
BRANCH   1  18
ATOM     18  C   UNL     1     -52.098  10.083 -31.758  1.00  0.00     0.000 C 
BRANCH  18  19
ATOM     19  C   UNL     1     -52.412   8.997 -30.715  1.00  0.00     0.000 C 
BRANCH  19  20
ATOM     20  C   UNL     1     -53.777   8.327 -30.958  1.00  0.00     0.000 C 
BRANCH  20  21
ATOM     21  C   UNL     1     -53.688   6.786 -30.961  1.00  0.00     0.000 C 
BRANCH  21  22
ATOM     22  C   UNL     1     -53.874   6.155 -32.355  1.00  0.00     0.000 C 
BRANCH  22  23
ATOM     23  C   UNL     1     -54.013   7.160 -33.516  1.00  0.00     0.000 C 
BRANCH  23  24
ATOM     24  C   UNL     1     -52.965   7.013 -34.636  1.00  0.00    -0.000 C 
BRANCH  24  25
ATOM     25  C   UNL     1     -51.658   6.374 -34.147  1.00  0.00    -0.000 C 
BRANCH  25  26
ATOM     26  C   UNL     1     -50.755   7.410 -33.466  1.00  0.00    -0.000 C 
BRANCH  26  27
ATOM     27  C   UNL     1     -49.279   6.960 -33.392  1.00  0.00    -0.000 C 
BRANCH  27  28
ATOM     28  C   UNL     1     -48.775   6.697 -31.960  1.00  0.00    -0.000 C 
BRANCH  28  29
ATOM     29  C   UNL     1     -47.458   5.905 -31.874  1.00  0.00    -0.000 C 
BRANCH  29  30
ATOM     30  C   UNL     1     -46.609   6.251 -30.629  1.00  0.00    -0.000 C 
BRANCH  30  31
ATOM     31  C   UNL     1     -47.073   7.541 -29.939  1.00  0.00    -0.003 C 
ATOM     32  C   UNL     1     -46.241   8.738 -30.388  1.00  0.00     0.004 C 
ENDBRANCH  30  31
ENDBRANCH  29  30
ENDBRANCH  28  29
ENDBRANCH  27  28
ENDBRANCH  26  27
ENDBRANCH  25  26
ENDBRANCH  24  25
ENDBRANCH  23  24
ENDBRANCH  22  23
ENDBRANCH  21  22
ENDBRANCH  20  21
ENDBRANCH  19  20
ENDBRANCH  18  19
ENDBRANCH   1  18
TORSDOF 28
ENDMDL
MODEL 7
REMARK VINA RESULT:    -3.952      2.454      4.650
REMARK INTER + INTRA:         -15.064
REMARK INTER:                 -10.879
REMARK INTRA:                  -4.185
REMARK UNBOUND:                -4.643
REMARK SMILES CCCCCCCCCCCCCCCCCCCCCCCCCCCCCC(=O)[O-]
REMARK SMILES IDX 16 1 17 2 18 3 19 4 20 5 21 6 22 7 23 8 24 9 25 10 26 11
REMARK SMILES IDX 27 12 28 13 29 14 30 15 31 16 32 17 15 18 14 19 13 20 12 21
REMARK SMILES IDX 11 22 10 23 9 24 8 25 7 26 6 27 5 28 4 29 3 30 2 31 1 32
REMARK H PARENT
REMARK Flexibility Score: inf
ROOT
ATOM      1  C   UNL     1     -49.010  13.795 -30.898  1.00  0.00     0.000 C 
ENDROOT
BRANCH   1   2
ATOM      2  C   UNL     1     -49.558  13.134 -29.628  1.00  0.00     0.000 C 
BRANCH   2   3
ATOM      3  C   UNL     1     -49.148  11.655 -29.555  1.00  0.00     0.000 C 
BRANCH   3   4
ATOM      4  C   UNL     1     -50.346  10.717 -29.332  1.00  0.00     0.000 C 
BRANCH   4   5
ATOM      5  C   UNL     1     -51.508  11.399 -28.595  1.00  0.00     0.000 C 
BRANCH   5   6
ATOM      6  C   UNL     1     -52.847  11.094 -29.284  1.00  0.00     0.000 C 
BRANCH   6   7
ATOM      7  C   UNL     1     -53.772  12.322 -29.368  1.00  0.00     0.000 C 
BRANCH   7   8
ATOM      8  C   UNL     1     -53.688  13.285 -28.167  1.00  0.00     0.000 C 
BRANCH   8   9
ATOM      9  C   UNL     1     -53.593  14.780 -28.533  1.00  0.00     0.000 C 
BRANCH   9  10
ATOM     10  C   UNL     1     -52.234  15.441 -28.226  1.00  0.00     0.000 C 
BRANCH  10  11
ATOM     11  C   UNL     1     -52.282  16.967 -28.022  1.00  0.00     0.000 C 
BRANCH  11  12
ATOM     12  C   UNL     1     -53.704  17.539 -28.147  1.00  0.00     0.000 C 
BRANCH  12  13
ATOM     13  C   UNL     1     -53.824  18.617 -29.240  1.00  0.00     0.006 C 
BRANCH  13  14
ATOM     14  C   UNL     1     -53.530  18.101 -30.661  1.00  0.00     0.053 C 
BRANCH  14  15
ATOM     15  C   UNL     1     -52.263  18.663 -31.230  1.00  0.00     0.041 C 
ATOM     16  O   UNL     1     -52.273  19.766 -31.838  1.00  0.00    -0.550 OA
ATOM     17  O   UNL     1     -51.064  17.980 -31.066  1.00  0.00    -0.550 OA
ENDBRANCH  14  15
ENDBRANCH  13  14
ENDBRANCH  12  13
ENDBRANCH  11  12
ENDBRANCH  10  11
ENDBRANCH   9  10
ENDBRANCH   8   9
ENDBRANCH   7   8
ENDBRANCH   6   7
ENDBRANCH   5   6
ENDBRANCH   4   5
ENDBRANCH   3   4
ENDBRANCH   2   3
ENDBRANCH   1   2
BRANCH   1  18
ATOM     18  C   UNL     1     -50.114  14.570 -31.632  1.00  0.00     0.000 C 
BRANCH  18  19
ATOM     19  C   UNL     1     -51.438  13.789 -31.702  1.00  0.00     0.000 C 
BRANCH  19  20
ATOM     20  C   UNL     1     -51.384  12.635 -32.720  1.00  0.00     0.000 C 
BRANCH  20  21
ATOM     21  C   UNL     1     -52.117  11.372 -32.221  1.00  0.00     0.000 C 
BRANCH  21  22
ATOM     22  C   UNL     1     -51.502  10.054 -32.731  1.00  0.00     0.000 C 
BRANCH  22  23
ATOM     23  C   UNL     1     -52.117   8.771 -32.136  1.00  0.00     0.000 C 
BRANCH  23  24
ATOM     24  C   UNL     1     -52.341   7.625 -33.142  1.00  0.00    -0.000 C 
BRANCH  24  25
ATOM     25  C   UNL     1     -51.320   6.490 -32.987  1.00  0.00    -0.000 C 
BRANCH  25  26
ATOM     26  C   UNL     1     -50.242   6.562 -34.076  1.00  0.00    -0.000 C 
BRANCH  26  27
ATOM     27  C   UNL     1     -49.013   7.394 -33.645  1.00  0.00    -0.000 C 
BRANCH  27  28
ATOM     28  C   UNL     1     -47.724   6.565 -33.477  1.00  0.00    -0.000 C 
BRANCH  28  29
ATOM     29  C   UNL     1     -47.047   6.698 -32.101  1.00  0.00    -0.000 C 
BRANCH  29  30
ATOM     30  C   UNL     1     -48.044   6.704 -30.920  1.00  0.00    -0.000 C 
BRANCH  30  31
ATOM     31  C   UNL     1     -48.070   8.046 -30.176  1.00  0.00    -0.003 C 
ATOM     32  C   UNL     1     -46.760   8.806 -30.360  1.00  0.00     0.004 C 
ENDBRANCH  30  31
ENDBRANCH  29  30
ENDBRANCH  28  29
ENDBRANCH  27  28
ENDBRANCH  26  27
ENDBRANCH  25  26
ENDBRANCH  24  25
ENDBRANCH  23  24
ENDBRANCH  22  23
ENDBRANCH  21  22
ENDBRANCH  20  21
ENDBRANCH  19  20
ENDBRANCH  18  19
ENDBRANCH   1  18
TORSDOF 28
ENDMDL
MODEL 8
REMARK VINA RESULT:    -3.849      1.672      4.312
REMARK INTER + INTRA:         -14.793
REMARK INTER:                 -11.645
REMARK INTRA:                  -3.148
REMARK UNBOUND:                -4.643
REMARK SMILES CCCCCCCCCCCCCCCCCCCCCCCCCCCCCC(=O)[O-]
REMARK SMILES IDX 16 1 17 2 18 3 19 4 20 5 21 6 22 7 23 8 24 9 25 10 26 11
REMARK SMILES IDX 27 12 28 13 29 14 30 15 31 16 32 17 15 18 14 19 13 20 12 21
REMARK SMILES IDX 11 22 10 23 9 24 8 25 7 26 6 27 5 28 4 29 3 30 2 31 1 32
REMARK H PARENT
REMARK Flexibility Score: inf
ROOT
ATOM      1  C   UNL     1     -53.464   7.061 -30.745  1.00  0.00     0.000 C 
ENDROOT
BRANCH   1   2
ATOM      2  C   UNL     1     -53.994   8.499 -30.796  1.00  0.00     0.000 C 
BRANCH   2   3
ATOM      3  C   UNL     1     -52.875   9.487 -31.157  1.00  0.00     0.000 C 
BRANCH   3   4
ATOM      4  C   UNL     1     -51.764   9.541 -30.096  1.00  0.00     0.000 C 
BRANCH   4   5
ATOM      5  C   UNL     1     -51.769  10.851 -29.293  1.00  0.00     0.000 C 
BRANCH   5   6
ATOM      6  C   UNL     1     -52.170  12.037 -30.183  1.00  0.00     0.000 C 
BRANCH   6   7
ATOM      7  C   UNL     1     -53.433  12.763 -29.683  1.00  0.00     0.000 C 
BRANCH   7   8
ATOM      8  C   UNL     1     -53.306  13.403 -28.285  1.00  0.00     0.000 C 
BRANCH   8   9
ATOM      9  C   UNL     1     -53.553  14.924 -28.239  1.00  0.00     0.000 C 
BRANCH   9  10
ATOM     10  C   UNL     1     -52.437  15.745 -27.562  1.00  0.00     0.000 C 
BRANCH  10  11
ATOM     11  C   UNL     1     -51.983  16.994 -28.341  1.00  0.00     0.000 C 
BRANCH  11  12
ATOM     12  C   UNL     1     -53.140  17.692 -29.074  1.00  0.00     0.000 C 
BRANCH  12  13
ATOM     13  C   UNL     1     -52.894  17.839 -30.587  1.00  0.00     0.006 C 
BRANCH  13  14
ATOM     14  C   UNL     1     -51.446  17.536 -31.016  1.00  0.00     0.053 C 
BRANCH  14  15
ATOM     15  C   UNL     1     -51.231  16.092 -31.352  1.00  0.00     0.041 C 
ATOM     16  O   UNL     1     -52.216  15.337 -31.567  1.00  0.00    -0.550 OA
ATOM     17  O   UNL     1     -49.941  15.585 -31.452  1.00  0.00    -0.550 OA
ENDBRANCH  14  15
ENDBRANCH  13  14
ENDBRANCH  12  13
ENDBRANCH  11  12
ENDBRANCH  10  11
ENDBRANCH   9  10
ENDBRANCH   8   9
ENDBRANCH   7   8
ENDBRANCH   6   7
ENDBRANCH   5   6
ENDBRANCH   4   5
ENDBRANCH   3   4
ENDBRANCH   2   3
ENDBRANCH   1   2
BRANCH   1  18
ATOM     18  C   UNL     1     -53.688   6.348 -32.087  1.00  0.00     0.000 C 
BRANCH  18  19
ATOM     19  C   UNL     1     -54.101   7.316 -33.209  1.00  0.00     0.000 C 
BRANCH  19  20
ATOM     20  C   UNL     1     -53.093   7.329 -34.373  1.00  0.00     0.000 C 
BRANCH  20  21
ATOM     21  C   UNL     1     -51.867   6.431 -34.105  1.00  0.00     0.000 C 
BRANCH  21  22
ATOM     22  C   UNL     1     -50.688   7.169 -33.441  1.00  0.00     0.000 C 
BRANCH  22  23
ATOM     23  C   UNL     1     -49.747   6.280 -32.604  1.00  0.00     0.000 C 
BRANCH  23  24
ATOM     24  C   UNL     1     -50.241   5.965 -31.178  1.00  0.00    -0.000 C 
BRANCH  24  25
ATOM     25  C   UNL     1     -49.354   6.587 -30.091  1.00  0.00    -0.000 C 
BRANCH  25  26
ATOM     26  C   UNL     1     -47.997   5.876 -30.009  1.00  0.00    -0.000 C 
BRANCH  26  27
ATOM     27  C   UNL     1     -46.807   6.828 -30.263  1.00  0.00    -0.000 C 
BRANCH  27  28
ATOM     28  C   UNL     1     -46.879   7.577 -31.608  1.00  0.00    -0.000 C 
BRANCH  28  29
ATOM     29  C   UNL     1     -47.001   9.107 -31.490  1.00  0.00    -0.000 C 
BRANCH  29  30
ATOM     30  C   UNL     1     -48.278   9.569 -30.752  1.00  0.00    -0.000 C 
BRANCH  30  31
ATOM     31  C   UNL     1     -47.984  10.109 -29.346  1.00  0.00    -0.003 C 
ATOM     32  C   UNL     1     -48.280  11.603 -29.254  1.00  0.00     0.004 C 
ENDBRANCH  30  31
ENDBRANCH  29  30
ENDBRANCH  28  29
ENDBRANCH  27  28
ENDBRANCH  26  27
ENDBRANCH  25  26
ENDBRANCH  24  25
ENDBRANCH  23  24
ENDBRANCH  22  23
ENDBRANCH  21  22
ENDBRANCH  20  21
ENDBRANCH  19  20
ENDBRANCH  18  19
ENDBRANCH   1  18
TORSDOF 28
ENDMDL
