MODEL 1
REMARK VINA RESULT:    -5.611      0.000      0.000
REMARK INTER + INTRA:         -12.900
REMARK INTER:                 -10.531
REMARK INTRA:                  -2.369
REMARK UNBOUND:                -2.369
REMARK SMILES CCCCCCCCC=CCCCCCCCC(=O)[O-]
REMARK SMILES IDX 10 1 9 2 11 3 12 4 13 5 14 6 15 7 16 8 17 9 18 10 19 11
REMARK SMILES IDX 20 12 8 13 7 14 6 15 5 16 4 17 3 18 2 19 1 20
REMARK H PARENT
REMARK Flexibility Score: inf
ROOT
ATOM      1  C   UNL     1      75.020  -1.781  27.270  1.00  0.00    -0.031 C 
ATOM      2  C   UNL     1      74.195  -1.058  28.050  1.00  0.00    -0.031 C 
ENDROOT
BRANCH   1   3
ATOM      3  C   UNL     1      75.784  -1.255  26.077  1.00  0.00     0.027 C 
BRANCH   3   4
ATOM      4  C   UNL     1      75.082  -1.601  24.756  1.00  0.00     0.004 C 
BRANCH   4   5
ATOM      5  C   UNL     1      74.296  -2.919  24.830  1.00  0.00     0.000 C 
BRANCH   5   6
ATOM      6  C   UNL     1      73.520  -3.165  23.528  1.00  0.00     0.000 C 
BRANCH   6   7
ATOM      7  C   UNL     1      72.906  -1.880  22.951  1.00  0.00     0.000 C 
BRANCH   7   8
ATOM      8  C   UNL     1      71.408  -2.026  22.643  1.00  0.00     0.006 C 
BRANCH   8   9
ATOM      9  C   UNL     1      70.942  -3.467  22.869  1.00  0.00     0.053 C 
BRANCH   9  10
ATOM     10  C   UNL     1      70.806  -4.184  21.563  1.00  0.00     0.041 C 
ATOM     11  O   UNL     1      70.314  -3.595  20.564  1.00  0.00    -0.550 OA
ATOM     12  O   UNL     1      71.267  -5.488  21.435  1.00  0.00    -0.550 OA
ENDBRANCH   9  10
ENDBRANCH   8   9
ENDBRANCH   7   8
ENDBRANCH   6   7
ENDBRANCH   5   6
ENDBRANCH   4   5
ENDBRANCH   3   4
ENDBRANCH   1   3
BRANCH   2  13
ATOM     13  C   UNL     1      73.863   0.402  27.862  1.00  0.00     0.027 C 
BRANCH  13  14
ATOM     14  C   UNL     1      72.436   0.654  27.340  1.00  0.00     0.004 C 
BRANCH  14  15
ATOM     15  C   UNL     1      72.112  -0.060  26.012  1.00  0.00     0.000 C 
BRANCH  15  16
ATOM     16  C   UNL     1      70.850  -0.933  26.092  1.00  0.00     0.000 C 
BRANCH  16  17
ATOM     17  C   UNL     1      71.160  -2.304  26.707  1.00  0.00    -0.000 C 
BRANCH  17  18
ATOM     18  C   UNL     1      70.028  -3.318  26.463  1.00  0.00    -0.000 C 
BRANCH  18  19
ATOM     19  C   UNL     1      68.934  -3.243  27.541  1.00  0.00    -0.003 C 
ATOM     20  C   UNL     1      69.304  -2.242  28.631  1.00  0.00     0.004 C 
ENDBRANCH  18  19
ENDBRANCH  17  18
ENDBRANCH  16  17
ENDBRANCH  15  16
ENDBRANCH  14  15
ENDBRANCH  13  14
ENDBRANCH   2  13
TORSDOF 15
ENDMDL
MODEL 2
REMARK VINA RESULT:    -5.578      3.118      4.202
REMARK INTER + INTRA:         -12.837
REMARK INTER:                 -10.509
REMARK INTRA:                  -2.328
REMARK UNBOUND:                -2.369
REMARK SMILES CCCCCCCCC=CCCCCCCCC(=O)[O-]
REMARK SMILES IDX 10 1 9 2 11 3 12 4 13 5 14 6 15 7 16 8 17 9 18 10 19 11
REMARK SMILES IDX 20 12 8 13 7 14 6 15 5 16 4 17 3 18 2 19 1 20
REMARK H PARENT
REMARK Flexibility Score: inf
ROOT
ATOM      1  C   UNL     1      73.984   0.275  28.153  1.00  0.00    -0.031 C 
ATOM      2  C   UNL     1      74.173  -1.011  28.505  1.00  0.00    -0.031 C 
ENDROOT
BRANCH   1   3
ATOM      3  C   UNL     1      74.534   0.933  26.909  1.00  0.00     0.027 C 
BRANCH   3   4
ATOM      4  C   UNL     1      73.628   0.694  25.692  1.00  0.00     0.004 C 
BRANCH   4   5
ATOM      5  C   UNL     1      74.407   0.202  24.462  1.00  0.00     0.000 C 
BRANCH   5   6
ATOM      6  C   UNL     1      75.916   0.176  24.746  1.00  0.00     0.000 C 
BRANCH   6   7
ATOM      7  C   UNL     1      76.560  -1.179  24.414  1.00  0.00     0.000 C 
BRANCH   7   8
ATOM      8  C   UNL     1      75.787  -1.952  23.335  1.00  0.00     0.006 C 
BRANCH   8   9
ATOM      9  C   UNL     1      76.730  -2.845  22.522  1.00  0.00     0.053 C 
BRANCH   9  10
ATOM     10  C   UNL     1      77.816  -2.026  21.897  1.00  0.00     0.041 C 
ATOM     11  O   UNL     1      79.024  -2.274  22.153  1.00  0.00    -0.550 OA
ATOM     12  O   UNL     1      77.496  -1.021  20.993  1.00  0.00    -0.550 OA
ENDBRANCH   9  10
ENDBRANCH   8   9
ENDBRANCH   7   8
ENDBRANCH   6   7
ENDBRANCH   5   6
ENDBRANCH   4   5
ENDBRANCH   3   4
ENDBRANCH   1   3
BRANCH   2  13
ATOM     13  C   UNL     1      74.987  -2.021  27.736  1.00  0.00     0.027 C 
BRANCH  13  14
ATOM     14  C   UNL     1      74.172  -2.819  26.700  1.00  0.00     0.004 C 
BRANCH  14  15
ATOM     15  C   UNL     1      72.644  -2.698  26.866  1.00  0.00     0.000 C 
BRANCH  15  16
ATOM     16  C   UNL     1      71.878  -2.905  25.551  1.00  0.00     0.000 C 
BRANCH  16  17
ATOM     17  C   UNL     1      70.462  -3.439  25.809  1.00  0.00    -0.000 C 
BRANCH  17  18
ATOM     18  C   UNL     1      70.191  -3.662  27.308  1.00  0.00    -0.000 C 
BRANCH  18  19
ATOM     19  C   UNL     1      68.952  -2.896  27.798  1.00  0.00    -0.003 C 
ATOM     20  C   UNL     1      69.265  -1.417  28.005  1.00  0.00     0.004 C 
ENDBRANCH  18  19
ENDBRANCH  17  18
ENDBRANCH  16  17
ENDBRANCH  15  16
ENDBRANCH  14  15
ENDBRANCH  13  14
ENDBRANCH   2  13
TORSDOF 15
ENDMDL
MODEL 3
REMARK VINA RESULT:    -5.434      3.087      4.185
REMARK INTER + INTRA:         -12.569
REMARK INTER:                 -10.616
REMARK INTRA:                  -1.952
REMARK UNBOUND:                -2.369
REMARK SMILES CCCCCCCCC=CCCCCCCCC(=O)[O-]
REMARK SMILES IDX 10 1 9 2 11 3 12 4 13 5 14 6 15 7 16 8 17 9 18 10 19 11
REMARK SMILES IDX 20 12 8 13 7 14 6 15 5 16 4 17 3 18 2 19 1 20
REMARK H PARENT
REMARK Flexibility Score: inf
ROOT
ATOM      1  C   UNL     1      73.946   0.026  28.161  1.00  0.00    -0.031 C 
ATOM      2  C   UNL     1      72.969   0.762  27.599  1.00  0.00    -0.031 C 
ENDROOT
BRANCH   1   3
ATOM      3  C   UNL     1      74.000  -1.483  28.192  1.00  0.00     0.027 C 
BRANCH   3   4
ATOM      4  C   UNL     1      75.194  -2.026  27.394  1.00  0.00     0.004 C 
BRANCH   4   5
ATOM      5  C   UNL     1      74.930  -2.056  25.880  1.00  0.00     0.000 C 
BRANCH   5   6
ATOM      6  C   UNL     1      75.530  -0.817  25.198  1.00  0.00     0.000 C 
BRANCH   6   7
ATOM      7  C   UNL     1      76.835  -1.126  24.447  1.00  0.00     0.000 C 
BRANCH   7   8
ATOM      8  C   UNL     1      76.599  -1.913  23.149  1.00  0.00     0.006 C 
BRANCH   8   9
ATOM      9  C   UNL     1      77.058  -1.108  21.931  1.00  0.00     0.053 C 
BRANCH   9  10
ATOM     10  C   UNL     1      78.169  -1.818  21.222  1.00  0.00     0.041 C 
ATOM     11  O   UNL     1      78.119  -1.988  19.975  1.00  0.00    -0.550 OA
ATOM     12  O   UNL     1      79.282  -2.249  21.932  1.00  0.00    -0.550 OA
ENDBRANCH   9  10
ENDBRANCH   8   9
ENDBRANCH   7   8
ENDBRANCH   6   7
ENDBRANCH   5   6
ENDBRANCH   4   5
ENDBRANCH   3   4
ENDBRANCH   1   3
BRANCH   2  13
ATOM     13  C   UNL     1      71.738   0.214  26.919  1.00  0.00     0.027 C 
BRANCH  13  14
ATOM     14  C   UNL     1      71.934  -0.082  25.421  1.00  0.00     0.004 C 
BRANCH  14  15
ATOM     15  C   UNL     1      70.970  -1.142  24.852  1.00  0.00     0.000 C 
BRANCH  15  16
ATOM     16  C   UNL     1      71.532  -2.570  24.933  1.00  0.00     0.000 C 
BRANCH  16  17
ATOM     17  C   UNL     1      70.510  -3.536  25.549  1.00  0.00    -0.000 C 
BRANCH  17  18
ATOM     18  C   UNL     1      70.594  -3.567  27.085  1.00  0.00    -0.000 C 
BRANCH  18  19
ATOM     19  C   UNL     1      69.246  -3.243  27.750  1.00  0.00    -0.003 C 
ATOM     20  C   UNL     1      69.282  -1.876  28.426  1.00  0.00     0.004 C 
ENDBRANCH  18  19
ENDBRANCH  17  18
ENDBRANCH  16  17
ENDBRANCH  15  16
ENDBRANCH  14  15
ENDBRANCH  13  14
ENDBRANCH   2  13
TORSDOF 15
ENDMDL
MODEL 4
REMARK VINA RESULT:    -5.375      2.906      5.445
REMARK INTER + INTRA:         -12.457
REMARK INTER:                  -9.831
REMARK INTRA:                  -2.627
REMARK UNBOUND:                -2.369
REMARK SMILES CCCCCCCCC=CCCCCCCCC(=O)[O-]
REMARK SMILES IDX 10 1 9 2 11 3 12 4 13 5 14 6 15 7 16 8 17 9 18 10 19 11
REMARK SMILES IDX 20 12 8 13 7 14 6 15 5 16 4 17 3 18 2 19 1 20
REMARK H PARENT
REMARK Flexibility Score: inf
ROOT
ATOM      1  C   UNL     1      73.039   0.872  27.369  1.00  0.00    -0.031 C 
ATOM      2  C   UNL     1      73.939   0.246  28.151  1.00  0.00    -0.031 C 
ENDROOT
BRANCH   1   3
ATOM      3  C   UNL     1      71.887   0.205  26.652  1.00  0.00     0.027 C 
BRANCH   3   4
ATOM      4  C   UNL     1      72.104   0.177  25.132  1.00  0.00     0.004 C 
BRANCH   4   5
ATOM      5  C   UNL     1      71.107  -0.742  24.408  1.00  0.00     0.000 C 
BRANCH   5   6
ATOM      6  C   UNL     1      71.598  -2.197  24.423  1.00  0.00     0.000 C 
BRANCH   6   7
ATOM      7  C   UNL     1      70.784  -3.089  25.374  1.00  0.00     0.000 C 
BRANCH   7   8
ATOM      8  C   UNL     1      71.488  -3.316  26.719  1.00  0.00     0.006 C 
BRANCH   8   9
ATOM      9  C   UNL     1      70.529  -3.935  27.740  1.00  0.00     0.053 C 
BRANCH   9  10
ATOM     10  C   UNL     1      69.373  -3.019  27.996  1.00  0.00     0.041 C 
ATOM     11  O   UNL     1      69.570  -1.860  28.447  1.00  0.00    -0.550 OA
ATOM     12  O   UNL     1      68.081  -3.429  27.689  1.00  0.00    -0.550 OA
ENDBRANCH   9  10
ENDBRANCH   8   9
ENDBRANCH   7   8
ENDBRANCH   6   7
ENDBRANCH   5   6
ENDBRANCH   4   5
ENDBRANCH   3   4
ENDBRANCH   1   3
BRANCH   2  13
ATOM     13  C   UNL     1      73.977  -1.234  28.435  1.00  0.00     0.027 C 
BRANCH  13  14
ATOM     14  C   UNL     1      75.044  -1.996  27.626  1.00  0.00     0.004 C 
BRANCH  14  15
ATOM     15  C   UNL     1      74.882  -1.883  26.097  1.00  0.00     0.000 C 
BRANCH  15  16
ATOM     16  C   UNL     1      76.012  -1.084  25.430  1.00  0.00     0.000 C 
BRANCH  16  17
ATOM     17  C   UNL     1      75.531  -0.414  24.135  1.00  0.00    -0.000 C 
BRANCH  17  18
ATOM     18  C   UNL     1      76.263   0.912  23.863  1.00  0.00    -0.000 C 
BRANCH  18  19
ATOM     19  C   UNL     1      76.674   1.629  25.158  1.00  0.00    -0.003 C 
ATOM     20  C   UNL     1      75.661   2.705  25.536  1.00  0.00     0.004 C 
ENDBRANCH  18  19
ENDBRANCH  17  18
ENDBRANCH  16  17
ENDBRANCH  15  16
ENDBRANCH  14  15
ENDBRANCH  13  14
ENDBRANCH   2  13
TORSDOF 15
ENDMDL
MODEL 5
REMARK VINA RESULT:    -5.364      1.146      2.186
REMARK INTER + INTRA:         -12.437
REMARK INTER:                 -10.649
REMARK INTRA:                  -1.788
REMARK UNBOUND:                -2.369
REMARK SMILES CCCCCCCCC=CCCCCCCCC(=O)[O-]
REMARK SMILES IDX 10 1 9 2 11 3 12 4 13 5 14 6 15 7 16 8 17 9 18 10 19 11
REMARK SMILES IDX 20 12 8 13 7 14 6 15 5 16 4 17 3 18 2 19 1 20
REMARK H PARENT
REMARK Flexibility Score: inf
ROOT
ATOM      1  C   UNL     1      75.622  -1.325  24.950  1.00  0.00    -0.031 C 
ATOM      2  C   UNL     1      75.565  -1.130  26.281  1.00  0.00    -0.031 C 
ENDROOT
BRANCH   1   3
ATOM      3  C   UNL     1      74.948  -2.450  24.200  1.00  0.00     0.027 C 
BRANCH   3   4
ATOM      4  C   UNL     1      73.987  -1.922  23.124  1.00  0.00     0.004 C 
BRANCH   4   5
ATOM      5  C   UNL     1      72.666  -1.404  23.714  1.00  0.00     0.000 C 
BRANCH   5   6
ATOM      6  C   UNL     1      71.486  -2.272  23.250  1.00  0.00     0.000 C 
BRANCH   6   7
ATOM      7  C   UNL     1      71.042  -1.952  21.814  1.00  0.00     0.000 C 
BRANCH   7   8
ATOM      8  C   UNL     1      70.662  -3.210  21.019  1.00  0.00     0.006 C 
BRANCH   8   9
ATOM      9  C   UNL     1      70.966  -4.477  21.823  1.00  0.00     0.053 C 
BRANCH   9  10
ATOM     10  C   UNL     1      72.109  -5.225  21.208  1.00  0.00     0.041 C 
ATOM     11  O   UNL     1      73.271  -5.106  21.678  1.00  0.00    -0.550 OA
ATOM     12  O   UNL     1      71.880  -6.092  20.147  1.00  0.00    -0.550 OA
ENDBRANCH   9  10
ENDBRANCH   8   9
ENDBRANCH   7   8
ENDBRANCH   6   7
ENDBRANCH   5   6
ENDBRANCH   4   5
ENDBRANCH   3   4
ENDBRANCH   1   3
BRANCH   2  13
ATOM     13  C   UNL     1      74.841  -2.010  27.267  1.00  0.00     0.027 C 
BRANCH  13  14
ATOM     14  C   UNL     1      73.950  -1.235  28.257  1.00  0.00     0.004 C 
BRANCH  14  15
ATOM     15  C   UNL     1      73.478   0.139  27.743  1.00  0.00     0.000 C 
BRANCH  15  16
ATOM     16  C   UNL     1      72.146   0.070  26.980  1.00  0.00     0.000 C 
BRANCH  16  17
ATOM     17  C   UNL     1      71.417  -1.253  27.251  1.00  0.00    -0.000 C 
BRANCH  17  18
ATOM     18  C   UNL     1      69.927  -1.038  27.571  1.00  0.00    -0.000 C 
BRANCH  18  19
ATOM     19  C   UNL     1      69.358  -2.143  28.475  1.00  0.00    -0.003 C 
ATOM     20  C   UNL     1      68.801  -3.298  27.648  1.00  0.00     0.004 C 
ENDBRANCH  18  19
ENDBRANCH  17  18
ENDBRANCH  16  17
ENDBRANCH  15  16
ENDBRANCH  14  15
ENDBRANCH  13  14
ENDBRANCH   2  13
TORSDOF 15
ENDMDL
MODEL 6
REMARK VINA RESULT:    -5.351      3.113      4.736
REMARK INTER + INTRA:         -12.412
REMARK INTER:                 -10.244
REMARK INTRA:                  -2.167
REMARK UNBOUND:                -2.369
REMARK SMILES CCCCCCCCC=CCCCCCCCC(=O)[O-]
REMARK SMILES IDX 10 1 9 2 11 3 12 4 13 5 14 6 15 7 16 8 17 9 18 10 19 11
REMARK SMILES IDX 20 12 8 13 7 14 6 15 5 16 4 17 3 18 2 19 1 20
REMARK H PARENT
REMARK Flexibility Score: inf
ROOT
ATOM      1  C   UNL     1      74.011  -0.219  28.249  1.00  0.00    -0.031 C 
ATOM      2  C   UNL     1      74.706  -1.315  27.891  1.00  0.00    -0.031 C 
ENDROOT
BRANCH   1   3
ATOM      3  C   UNL     1      73.412   0.790  27.297  1.00  0.00     0.027 C 
BRANCH   3   4
ATOM      4  C   UNL     1      74.325   2.012  27.115  1.00  0.00     0.004 C 
BRANCH   4   5
ATOM      5  C   UNL     1      74.795   2.189  25.663  1.00  0.00     0.000 C 
BRANCH   5   6
ATOM      6  C   UNL     1      76.204   1.609  25.471  1.00  0.00     0.000 C 
BRANCH   6   7
ATOM      7  C   UNL     1      76.447   1.098  24.042  1.00  0.00     0.000 C 
BRANCH   7   8
ATOM      8  C   UNL     1      77.815   0.420  23.880  1.00  0.00     0.006 C 
BRANCH   8   9
ATOM      9  C   UNL     1      77.667  -1.103  23.829  1.00  0.00     0.053 C 
BRANCH   9  10
ATOM     10  C   UNL     1      77.939  -1.609  22.446  1.00  0.00     0.041 C 
ATOM     11  O   UNL     1      79.090  -2.016  22.135  1.00  0.00    -0.550 OA
ATOM     12  O   UNL     1      76.910  -1.677  21.516  1.00  0.00    -0.550 OA
ENDBRANCH   9  10
ENDBRANCH   8   9
ENDBRANCH   7   8
ENDBRANCH   6   7
ENDBRANCH   5   6
ENDBRANCH   4   5
ENDBRANCH   3   4
ENDBRANCH   1   3
BRANCH   2  13
ATOM     13  C   UNL     1      75.033  -1.723  26.476  1.00  0.00     0.027 C 
BRANCH  13  14
ATOM     14  C   UNL     1      74.044  -2.741  25.877  1.00  0.00     0.004 C 
BRANCH  14  15
ATOM     15  C   UNL     1      72.921  -2.110  25.030  1.00  0.00     0.000 C 
BRANCH  15  16
ATOM     16  C   UNL     1      71.523  -2.621  25.410  1.00  0.00     0.000 C 
BRANCH  16  17
ATOM     17  C   UNL     1      70.796  -1.625  26.324  1.00  0.00    -0.000 C 
BRANCH  17  18
ATOM     18  C   UNL     1      70.840  -2.055  27.801  1.00  0.00    -0.000 C 
BRANCH  18  19
ATOM     19  C   UNL     1      69.436  -2.201  28.409  1.00  0.00    -0.003 C 
ATOM     20  C   UNL     1      68.655  -3.320  27.728  1.00  0.00     0.004 C 
ENDBRANCH  18  19
ENDBRANCH  17  18
ENDBRANCH  16  17
ENDBRANCH  15  16
ENDBRANCH  14  15
ENDBRANCH  13  14
ENDBRANCH   2  13
TORSDOF 15
ENDMDL
MODEL 7
REMARK VINA RESULT:    -5.343      3.232      4.101
REMARK INTER + INTRA:         -12.398
REMARK INTER:                  -9.560
REMARK INTRA:                  -2.837
REMARK UNBOUND:                -2.369
REMARK SMILES CCCCCCCCC=CCCCCCCCC(=O)[O-]
REMARK SMILES IDX 10 1 9 2 11 3 12 4 13 5 14 6 15 7 16 8 17 9 18 10 19 11
REMARK SMILES IDX 20 12 8 13 7 14 6 15 5 16 4 17 3 18 2 19 1 20
REMARK H PARENT
REMARK Flexibility Score: inf
ROOT
ATOM      1  C   UNL     1      74.286  -1.493  28.508  1.00  0.00    -0.031 C 
ATOM      2  C   UNL     1      74.109  -0.159  28.444  1.00  0.00    -0.031 C 
ENDROOT
BRANCH   1   3
ATOM      3  C   UNL     1      74.803  -2.363  27.387  1.00  0.00     0.027 C 
BRANCH   3   4
ATOM      4  C   UNL     1      73.686  -3.217  26.769  1.00  0.00     0.004 C 
BRANCH   4   5
ATOM      5  C   UNL     1      73.564  -3.023  25.249  1.00  0.00     0.000 C 
BRANCH   5   6
ATOM      6  C   UNL     1      74.666  -2.088  24.729  1.00  0.00     0.000 C 
BRANCH   6   7
ATOM      7  C   UNL     1      74.243  -1.314  23.470  1.00  0.00     0.000 C 
BRANCH   7   8
ATOM      8  C   UNL     1      75.224  -0.190  23.109  1.00  0.00     0.006 C 
BRANCH   8   9
ATOM      9  C   UNL     1      76.281  -0.015  24.203  1.00  0.00     0.053 C 
BRANCH   9  10
ATOM     10  C   UNL     1      77.654  -0.218  23.641  1.00  0.00     0.041 C 
ATOM     11  O   UNL     1      78.133  -1.379  23.540  1.00  0.00    -0.550 OA
ATOM     12  O   UNL     1      78.386   0.871  23.185  1.00  0.00    -0.550 OA
ENDBRANCH   9  10
ENDBRANCH   8   9
ENDBRANCH   7   8
ENDBRANCH   6   7
ENDBRANCH   5   6
ENDBRANCH   4   5
ENDBRANCH   3   4
ENDBRANCH   1   3
BRANCH   2  13
ATOM     13  C   UNL     1      74.373   0.704  27.236  1.00  0.00     0.027 C 
BRANCH  13  14
ATOM     14  C   UNL     1      73.209   0.737  26.228  1.00  0.00     0.004 C 
BRANCH  14  15
ATOM     15  C   UNL     1      71.809   0.696  26.874  1.00  0.00     0.000 C 
BRANCH  15  16
ATOM     16  C   UNL     1      71.050  -0.607  26.581  1.00  0.00     0.000 C 
BRANCH  16  17
ATOM     17  C   UNL     1      70.146  -1.002  27.758  1.00  0.00    -0.000 C 
BRANCH  17  18
ATOM     18  C   UNL     1      70.593  -2.320  28.415  1.00  0.00    -0.000 C 
BRANCH  18  19
ATOM     19  C   UNL     1      69.907  -3.546  27.791  1.00  0.00    -0.003 C 
ATOM     20  C   UNL     1      68.389  -3.441  27.900  1.00  0.00     0.004 C 
ENDBRANCH  18  19
ENDBRANCH  17  18
ENDBRANCH  16  17
ENDBRANCH  15  16
ENDBRANCH  14  15
ENDBRANCH  13  14
ENDBRANCH   2  13
TORSDOF 15
ENDMDL
MODEL 8
REMARK VINA RESULT:    -5.298      1.766      3.288
REMARK INTER + INTRA:         -12.312
REMARK INTER:                  -9.892
REMARK INTRA:                  -2.420
REMARK UNBOUND:                -2.369
REMARK SMILES CCCCCCCCC=CCCCCCCCC(=O)[O-]
REMARK SMILES IDX 10 1 9 2 11 3 12 4 13 5 14 6 15 7 16 8 17 9 18 10 19 11
REMARK SMILES IDX 20 12 8 13 7 14 6 15 5 16 4 17 3 18 2 19 1 20
REMARK H PARENT
REMARK Flexibility Score: inf
ROOT
ATOM      1  C   UNL     1      73.713  -3.152  23.874  1.00  0.00    -0.031 C 
ATOM      2  C   UNL     1      74.568  -3.010  24.904  1.00  0.00    -0.031 C 
ENDROOT
BRANCH   1   3
ATOM      3  C   UNL     1      73.101  -2.021  23.080  1.00  0.00     0.027 C 
BRANCH   3   4
ATOM      4  C   UNL     1      71.575  -1.974  23.244  1.00  0.00     0.004 C 
BRANCH   4   5
ATOM      5  C   UNL     1      70.950  -3.371  23.381  1.00  0.00     0.000 C 
BRANCH   5   6
ATOM      6  C   UNL     1      70.466  -3.889  22.018  1.00  0.00     0.000 C 
BRANCH   6   7
ATOM      7  C   UNL     1      71.422  -4.924  21.403  1.00  0.00     0.000 C 
BRANCH   7   8
ATOM      8  C   UNL     1      71.765  -4.615  19.939  1.00  0.00     0.006 C 
BRANCH   8   9
ATOM      9  C   UNL     1      71.666  -3.112  19.660  1.00  0.00     0.053 C 
BRANCH   9  10
ATOM     10  C   UNL     1      73.018  -2.547  19.350  1.00  0.00     0.041 C 
ATOM     11  O   UNL     1      73.184  -1.300  19.283  1.00  0.00    -0.550 OA
ATOM     12  O   UNL     1      74.105  -3.396  19.185  1.00  0.00    -0.550 OA
ENDBRANCH   9  10
ENDBRANCH   8   9
ENDBRANCH   7   8
ENDBRANCH   6   7
ENDBRANCH   5   6
ENDBRANCH   4   5
ENDBRANCH   3   4
ENDBRANCH   1   3
BRANCH   2  13
ATOM     13  C   UNL     1      75.052  -1.698  25.468  1.00  0.00     0.027 C 
BRANCH  13  14
ATOM     14  C   UNL     1      75.160  -1.683  27.005  1.00  0.00     0.004 C 
BRANCH  14  15
ATOM     15  C   UNL     1      73.942  -2.288  27.732  1.00  0.00     0.000 C 
BRANCH  15  16
ATOM     16  C   UNL     1      72.762  -1.310  27.846  1.00  0.00     0.000 C 
BRANCH  16  17
ATOM     17  C   UNL     1      71.601  -1.729  26.933  1.00  0.00    -0.000 C 
BRANCH  17  18
ATOM     18  C   UNL     1      71.252  -3.220  27.087  1.00  0.00    -0.000 C 
BRANCH  18  19
ATOM     19  C   UNL     1      69.784  -3.438  27.486  1.00  0.00    -0.003 C 
ATOM     20  C   UNL     1      69.260  -2.270  28.316  1.00  0.00     0.004 C 
ENDBRANCH  18  19
ENDBRANCH  17  18
ENDBRANCH  16  17
ENDBRANCH  15  16
ENDBRANCH  14  15
ENDBRANCH  13  14
ENDBRANCH   2  13
TORSDOF 15
ENDMDL
MODEL 9
REMARK VINA RESULT:    -5.283      3.347      5.206
REMARK INTER + INTRA:         -12.285
REMARK INTER:                 -10.164
REMARK INTRA:                  -2.120
REMARK UNBOUND:                -2.369
REMARK SMILES CCCCCCCCC=CCCCCCCCC(=O)[O-]
REMARK SMILES IDX 10 1 9 2 11 3 12 4 13 5 14 6 15 7 16 8 17 9 18 10 19 11
REMARK SMILES IDX 20 12 8 13 7 14 6 15 5 16 4 17 3 18 2 19 1 20
REMARK H PARENT
REMARK Flexibility Score: inf
ROOT
ATOM      1  C   UNL     1      72.412  -0.553  27.131  1.00  0.00    -0.031 C 
ATOM      2  C   UNL     1      71.090  -0.296  27.163  1.00  0.00    -0.031 C 
ENDROOT
BRANCH   1   3
ATOM      3  C   UNL     1      73.142  -1.504  28.049  1.00  0.00     0.027 C 
BRANCH   3   4
ATOM      4  C   UNL     1      74.432  -2.036  27.408  1.00  0.00     0.004 C 
BRANCH   4   5
ATOM      5  C   UNL     1      75.142  -0.981  26.543  1.00  0.00     0.000 C 
BRANCH   5   6
ATOM      6  C   UNL     1      75.539  -1.570  25.181  1.00  0.00     0.000 C 
BRANCH   6   7
ATOM      7  C   UNL     1      76.511  -0.667  24.405  1.00  0.00     0.000 C 
BRANCH   7   8
ATOM      8  C   UNL     1      76.931  -1.272  23.058  1.00  0.00     0.006 C 
BRANCH   8   9
ATOM      9  C   UNL     1      78.451  -1.444  22.987  1.00  0.00     0.053 C 
BRANCH   9  10
ATOM     10  C   UNL     1      78.899  -1.567  21.563  1.00  0.00     0.041 C 
ATOM     11  O   UNL     1      78.497  -2.526  20.852  1.00  0.00    -0.550 OA
ATOM     12  O   UNL     1      79.721  -0.595  21.008  1.00  0.00    -0.550 OA
ENDBRANCH   9  10
ENDBRANCH   8   9
ENDBRANCH   7   8
ENDBRANCH   6   7
ENDBRANCH   5   6
ENDBRANCH   4   5
ENDBRANCH   3   4
ENDBRANCH   1   3
BRANCH   2  13
ATOM     13  C   UNL     1      70.104  -0.891  28.135  1.00  0.00     0.027 C 
BRANCH  13  14
ATOM     14  C   UNL     1      69.150  -1.922  27.503  1.00  0.00     0.004 C 
BRANCH  14  15
ATOM     15  C   UNL     1      69.544  -3.391  27.759  1.00  0.00     0.000 C 
BRANCH  15  16
ATOM     16  C   UNL     1      70.678  -3.878  26.844  1.00  0.00     0.000 C 
BRANCH  16  17
ATOM     17  C   UNL     1      70.436  -3.461  25.387  1.00  0.00    -0.000 C 
BRANCH  17  18
ATOM     18  C   UNL     1      71.733  -3.018  24.687  1.00  0.00    -0.000 C 
BRANCH  18  19
ATOM     19  C   UNL     1      71.509  -1.826  23.742  1.00  0.00    -0.003 C 
ATOM     20  C   UNL     1      72.558  -1.797  22.636  1.00  0.00     0.004 C 
ENDBRANCH  18  19
ENDBRANCH  17  18
ENDBRANCH  16  17
ENDBRANCH  15  16
ENDBRANCH  14  15
ENDBRANCH  13  14
ENDBRANCH   2  13
TORSDOF 15
ENDMDL
