MODEL 1
REMARK VINA RESULT:    -4.167      0.000      0.000
REMARK INTER + INTRA:          -8.268
REMARK INTER:                  -7.091
REMARK INTRA:                  -1.177
REMARK UNBOUND:                -1.177
REMARK SMILES CCCCCCCCCCCCCC(=O)[O-]
REMARK SMILES IDX 8 1 9 2 10 3 11 4 12 5 13 6 14 7 15 8 16 9 7 10 6 11 5 12
REMARK SMILES IDX 4 13 3 14 2 15 1 16
REMARK H PARENT
REMARK Flexibility Score: inf
ROOT
ATOM      1  C   UNL     1      -5.505  25.377  56.483  1.00  0.00     0.000 C 
ENDROOT
BRANCH   1   2
ATOM      2  C   UNL     1      -4.491  26.510  56.705  1.00  0.00     0.000 C 
BRANCH   2   3
ATOM      3  C   UNL     1      -3.796  26.363  58.067  1.00  0.00     0.000 C 
BRANCH   3   4
ATOM      4  C   UNL     1      -2.287  26.643  57.998  1.00  0.00     0.000 C 
BRANCH   4   5
ATOM      5  C   UNL     1      -1.965  27.992  57.334  1.00  0.00     0.006 C 
BRANCH   5   6
ATOM      6  C   UNL     1      -2.411  29.182  58.192  1.00  0.00     0.053 C 
BRANCH   6   7
ATOM      7  C   UNL     1      -1.759  29.173  59.541  1.00  0.00     0.041 C 
ATOM      8  O   UNL     1      -2.455  29.301  60.582  1.00  0.00    -0.550 OA
ATOM      9  O   UNL     1      -0.385  28.992  59.649  1.00  0.00    -0.550 OA
ENDBRANCH   6   7
ENDBRANCH   5   6
ENDBRANCH   4   5
ENDBRANCH   3   4
ENDBRANCH   2   3
ENDBRANCH   1   2
BRANCH   1  10
ATOM     10  C   UNL     1      -5.415  24.280  57.557  1.00  0.00     0.000 C 
BRANCH  10  11
ATOM     11  C   UNL     1      -6.704  24.159  58.387  1.00  0.00    -0.000 C 
BRANCH  11  12
ATOM     12  C   UNL     1      -7.755  25.224  58.021  1.00  0.00    -0.000 C 
BRANCH  12  13
ATOM     13  C   UNL     1      -8.030  26.271  59.116  1.00  0.00    -0.000 C 
BRANCH  13  14
ATOM     14  C   UNL     1      -7.148  26.080  60.362  1.00  0.00    -0.000 C 
BRANCH  14  15
ATOM     15  C   UNL     1      -7.972  25.804  61.629  1.00  0.00    -0.003 C 
ATOM     16  C   UNL     1      -7.157  25.975  62.910  1.00  0.00     0.004 C 
ENDBRANCH  14  15
ENDBRANCH  13  14
ENDBRANCH  12  13
ENDBRANCH  11  12
ENDBRANCH  10  11
ENDBRANCH   1  10
TORSDOF 12
ENDMDL
MODEL 2
REMARK VINA RESULT:    -4.152      3.949      5.586
REMARK INTER + INTRA:          -8.241
REMARK INTER:                  -6.640
REMARK INTRA:                  -1.601
REMARK UNBOUND:                -1.177
REMARK SMILES CCCCCCCCCCCCCC(=O)[O-]
REMARK SMILES IDX 8 1 9 2 10 3 11 4 12 5 13 6 14 7 15 8 16 9 7 10 6 11 5 12
REMARK SMILES IDX 4 13 3 14 2 15 1 16
REMARK H PARENT
REMARK Flexibility Score: inf
ROOT
ATOM      1  C   UNL     1      -2.651  28.472  55.589  1.00  0.00     0.000 C 
ENDROOT
BRANCH   1   2
ATOM      2  C   UNL     1      -4.057  27.906  55.338  1.00  0.00     0.000 C 
BRANCH   2   3
ATOM      3  C   UNL     1      -5.108  28.669  56.159  1.00  0.00     0.000 C 
BRANCH   3   4
ATOM      4  C   UNL     1      -4.546  29.946  56.803  1.00  0.00     0.000 C 
BRANCH   4   5
ATOM      5  C   UNL     1      -5.247  31.220  56.301  1.00  0.00     0.006 C 
BRANCH   5   6
ATOM      6  C   UNL     1      -5.974  30.995  54.969  1.00  0.00     0.053 C 
BRANCH   6   7
ATOM      7  C   UNL     1      -7.286  31.714  54.920  1.00  0.00     0.041 C 
ATOM      8  O   UNL     1      -8.087  31.640  55.889  1.00  0.00    -0.550 OA
ATOM      9  O   UNL     1      -7.613  32.492  53.816  1.00  0.00    -0.550 OA
ENDBRANCH   6   7
ENDBRANCH   5   6
ENDBRANCH   4   5
ENDBRANCH   3   4
ENDBRANCH   2   3
ENDBRANCH   1   2
BRANCH   1  10
ATOM     10  C   UNL     1      -1.793  27.559  56.482  1.00  0.00     0.000 C 
BRANCH  10  11
ATOM     11  C   UNL     1      -1.545  28.160  57.876  1.00  0.00    -0.000 C 
BRANCH  11  12
ATOM     12  C   UNL     1      -2.461  27.561  58.959  1.00  0.00    -0.000 C 
BRANCH  12  13
ATOM     13  C   UNL     1      -3.034  26.170  58.632  1.00  0.00    -0.000 C 
BRANCH  13  14
ATOM     14  C   UNL     1      -4.498  26.006  59.076  1.00  0.00    -0.000 C 
BRANCH  14  15
ATOM     15  C   UNL     1      -5.267  24.998  58.208  1.00  0.00    -0.003 C 
ATOM     16  C   UNL     1      -6.576  25.568  57.664  1.00  0.00     0.004 C 
ENDBRANCH  14  15
ENDBRANCH  13  14
ENDBRANCH  12  13
ENDBRANCH  11  12
ENDBRANCH  10  11
ENDBRANCH   1  10
TORSDOF 12
ENDMDL
MODEL 3
REMARK VINA RESULT:    -4.100      1.694      2.705
REMARK INTER + INTRA:          -8.154
REMARK INTER:                  -6.063
REMARK INTRA:                  -2.091
REMARK UNBOUND:                -1.177
REMARK SMILES CCCCCCCCCCCCCC(=O)[O-]
REMARK SMILES IDX 8 1 9 2 10 3 11 4 12 5 13 6 14 7 15 8 16 9 7 10 6 11 5 12
REMARK SMILES IDX 4 13 3 14 2 15 1 16
REMARK H PARENT
REMARK Flexibility Score: inf
ROOT
ATOM      1  C   UNL     1      -4.540  26.497  54.464  1.00  0.00     0.000 C 
ENDROOT
BRANCH   1   2
ATOM      2  C   UNL     1      -5.232  27.448  55.455  1.00  0.00     0.000 C 
BRANCH   2   3
ATOM      3  C   UNL     1      -4.377  27.637  56.717  1.00  0.00     0.000 C 
BRANCH   3   4
ATOM      4  C   UNL     1      -3.172  26.685  56.768  1.00  0.00     0.000 C 
BRANCH   4   5
ATOM      5  C   UNL     1      -2.551  26.589  58.172  1.00  0.00     0.006 C 
BRANCH   5   6
ATOM      6  C   UNL     1      -3.184  27.583  59.154  1.00  0.00     0.053 C 
BRANCH   6   7
ATOM      7  C   UNL     1      -2.189  28.585  59.654  1.00  0.00     0.041 C 
ATOM      8  O   UNL     1      -2.509  29.398  60.560  1.00  0.00    -0.550 OA
ATOM      9  O   UNL     1      -0.898  28.601  59.139  1.00  0.00    -0.550 OA
ENDBRANCH   6   7
ENDBRANCH   5   6
ENDBRANCH   4   5
ENDBRANCH   3   4
ENDBRANCH   2   3
ENDBRANCH   1   2
BRANCH   1  10
ATOM     10  C   UNL     1      -5.463  25.364  53.986  1.00  0.00     0.000 C 
BRANCH  10  11
ATOM     11  C   UNL     1      -6.110  24.597  55.152  1.00  0.00    -0.000 C 
BRANCH  11  12
ATOM     12  C   UNL     1      -5.107  23.716  55.920  1.00  0.00    -0.000 C 
BRANCH  12  13
ATOM     13  C   UNL     1      -5.305  23.681  57.446  1.00  0.00    -0.000 C 
BRANCH  13  14
ATOM     14  C   UNL     1      -6.614  24.353  57.894  1.00  0.00    -0.000 C 
BRANCH  14  15
ATOM     15  C   UNL     1      -6.373  25.526  58.857  1.00  0.00    -0.003 C 
ATOM     16  C   UNL     1      -7.412  26.637  58.704  1.00  0.00     0.004 C 
ENDBRANCH  14  15
ENDBRANCH  13  14
ENDBRANCH  12  13
ENDBRANCH  11  12
ENDBRANCH  10  11
ENDBRANCH   1  10
TORSDOF 12
ENDMDL
MODEL 4
REMARK VINA RESULT:    -4.067      3.443      6.367
REMARK INTER + INTRA:          -8.096
REMARK INTER:                  -6.351
REMARK INTRA:                  -1.745
REMARK UNBOUND:                -1.177
REMARK SMILES CCCCCCCCCCCCCC(=O)[O-]
REMARK SMILES IDX 8 1 9 2 10 3 11 4 12 5 13 6 14 7 15 8 16 9 7 10 6 11 5 12
REMARK SMILES IDX 4 13 3 14 2 15 1 16
REMARK H PARENT
REMARK Flexibility Score: inf
ROOT
ATOM      1  C   UNL     1      -3.299  28.289  58.178  1.00  0.00     0.000 C 
ENDROOT
BRANCH   1   2
ATOM      2  C   UNL     1      -3.121  27.402  59.420  1.00  0.00     0.000 C 
BRANCH   2   3
ATOM      3  C   UNL     1      -3.749  26.017  59.197  1.00  0.00     0.000 C 
BRANCH   3   4
ATOM      4  C   UNL     1      -4.973  26.063  58.269  1.00  0.00     0.000 C 
BRANCH   4   5
ATOM      5  C   UNL     1      -6.296  25.847  59.024  1.00  0.00     0.006 C 
BRANCH   5   6
ATOM      6  C   UNL     1      -7.505  25.836  58.080  1.00  0.00     0.053 C 
BRANCH   6   7
ATOM      7  C   UNL     1      -7.304  24.903  56.926  1.00  0.00     0.041 C 
ATOM      8  O   UNL     1      -7.296  23.658  57.112  1.00  0.00    -0.550 OA
ATOM      9  O   UNL     1      -7.154  25.408  55.640  1.00  0.00    -0.550 OA
ENDBRANCH   6   7
ENDBRANCH   5   6
ENDBRANCH   4   5
ENDBRANCH   3   4
ENDBRANCH   2   3
ENDBRANCH   1   2
BRANCH   1  10
ATOM     10  C   UNL     1      -1.967  28.850  57.652  1.00  0.00     0.000 C 
BRANCH  10  11
ATOM     11  C   UNL     1      -1.716  28.489  56.178  1.00  0.00    -0.000 C 
BRANCH  11  12
ATOM     12  C   UNL     1      -2.116  27.041  55.839  1.00  0.00    -0.000 C 
BRANCH  12  13
ATOM     13  C   UNL     1      -1.109  25.965  56.284  1.00  0.00    -0.000 C 
BRANCH  13  14
ATOM     14  C   UNL     1      -1.740  24.568  56.407  1.00  0.00    -0.000 C 
BRANCH  14  15
ATOM     15  C   UNL     1      -3.034  24.434  55.587  1.00  0.00    -0.003 C 
ATOM     16  C   UNL     1      -3.903  23.264  56.047  1.00  0.00     0.004 C 
ENDBRANCH  14  15
ENDBRANCH  13  14
ENDBRANCH  12  13
ENDBRANCH  11  12
ENDBRANCH  10  11
ENDBRANCH   1  10
TORSDOF 12
ENDMDL
MODEL 5
REMARK VINA RESULT:    -4.029      3.534      6.499
REMARK INTER + INTRA:          -8.032
REMARK INTER:                  -6.320
REMARK INTRA:                  -1.712
REMARK UNBOUND:                -1.177
REMARK SMILES CCCCCCCCCCCCCC(=O)[O-]
REMARK SMILES IDX 8 1 9 2 10 3 11 4 12 5 13 6 14 7 15 8 16 9 7 10 6 11 5 12
REMARK SMILES IDX 4 13 3 14 2 15 1 16
REMARK H PARENT
REMARK Flexibility Score: inf
ROOT
ATOM      1  C   UNL     1      -4.973  29.270  55.585  1.00  0.00     0.000 C 
ENDROOT
BRANCH   1   2
ATOM      2  C   UNL     1      -5.018  27.798  56.025  1.00  0.00     0.000 C 
BRANCH   2   3
ATOM      3  C   UNL     1      -5.823  27.641  57.324  1.00  0.00     0.000 C 
BRANCH   3   4
ATOM      4  C   UNL     1      -5.156  26.683  58.324  1.00  0.00     0.000 C 
BRANCH   4   5
ATOM      5  C   UNL     1      -6.072  25.515  58.728  1.00  0.00     0.006 C 
BRANCH   5   6
ATOM      6  C   UNL     1      -7.455  25.610  58.070  1.00  0.00     0.053 C 
BRANCH   6   7
ATOM      7  C   UNL     1      -7.678  24.511  57.078  1.00  0.00     0.041 C 
ATOM      8  O   UNL     1      -8.762  24.442  56.442  1.00  0.00    -0.550 OA
ATOM      9  O   UNL     1      -6.677  23.578  56.835  1.00  0.00    -0.550 OA
ENDBRANCH   6   7
ENDBRANCH   5   6
ENDBRANCH   4   5
ENDBRANCH   3   4
ENDBRANCH   2   3
ENDBRANCH   1   2
BRANCH   1  10
ATOM     10  C   UNL     1      -3.647  29.958  55.950  1.00  0.00     0.000 C 
BRANCH  10  11
ATOM     11  C   UNL     1      -3.738  30.756  57.262  1.00  0.00    -0.000 C 
BRANCH  11  12
ATOM     12  C   UNL     1      -2.970  30.094  58.421  1.00  0.00    -0.000 C 
BRANCH  12  13
ATOM     13  C   UNL     1      -1.644  29.421  58.024  1.00  0.00    -0.000 C 
BRANCH  13  14
ATOM     14  C   UNL     1      -1.672  27.893  58.201  1.00  0.00    -0.000 C 
BRANCH  14  15
ATOM     15  C   UNL     1      -1.434  27.143  56.881  1.00  0.00    -0.003 C 
ATOM     16  C   UNL     1      -1.831  25.669  56.961  1.00  0.00     0.004 C 
ENDBRANCH  14  15
ENDBRANCH  13  14
ENDBRANCH  12  13
ENDBRANCH  11  12
ENDBRANCH  10  11
ENDBRANCH   1  10
TORSDOF 12
ENDMDL
MODEL 6
REMARK VINA RESULT:    -4.010      3.758      5.435
REMARK INTER + INTRA:          -8.000
REMARK INTER:                  -6.572
REMARK INTRA:                  -1.427
REMARK UNBOUND:                -1.177
REMARK SMILES CCCCCCCCCCCCCC(=O)[O-]
REMARK SMILES IDX 8 1 9 2 10 3 11 4 12 5 13 6 14 7 15 8 16 9 7 10 6 11 5 12
REMARK SMILES IDX 4 13 3 14 2 15 1 16
REMARK H PARENT
REMARK Flexibility Score: inf
ROOT
ATOM      1  C   UNL     1      -4.685  25.900  55.602  1.00  0.00     0.000 C 
ENDROOT
BRANCH   1   2
ATOM      2  C   UNL     1      -5.548  27.067  56.111  1.00  0.00     0.000 C 
BRANCH   2   3
ATOM      3  C   UNL     1      -5.254  28.350  55.318  1.00  0.00     0.000 C 
BRANCH   3   4
ATOM      4  C   UNL     1      -4.369  29.338  56.094  1.00  0.00     0.000 C 
BRANCH   4   5
ATOM      5  C   UNL     1      -5.117  30.625  56.481  1.00  0.00     0.006 C 
BRANCH   5   6
ATOM      6  C   UNL     1      -5.673  31.362  55.256  1.00  0.00     0.053 C 
BRANCH   6   7
ATOM      7  C   UNL     1      -7.146  31.602  55.370  1.00  0.00     0.041 C 
ATOM      8  O   UNL     1      -7.826  31.872  54.345  1.00  0.00    -0.550 OA
ATOM      9  O   UNL     1      -7.775  31.499  56.605  1.00  0.00    -0.550 OA
ENDBRANCH   6   7
ENDBRANCH   5   6
ENDBRANCH   4   5
ENDBRANCH   3   4
ENDBRANCH   2   3
ENDBRANCH   1   2
BRANCH   1  10
ATOM     10  C   UNL     1      -3.866  25.236  56.721  1.00  0.00     0.000 C 
BRANCH  10  11
ATOM     11  C   UNL     1      -4.522  25.389  58.104  1.00  0.00    -0.000 C 
BRANCH  11  12
ATOM     12  C   UNL     1      -3.545  25.906  59.177  1.00  0.00    -0.000 C 
BRANCH  12  13
ATOM     13  C   UNL     1      -3.243  27.414  59.111  1.00  0.00    -0.000 C 
BRANCH  13  14
ATOM     14  C   UNL     1      -1.895  27.725  58.437  1.00  0.00    -0.000 C 
BRANCH  14  15
ATOM     15  C   UNL     1      -1.469  29.190  58.622  1.00  0.00    -0.003 C 
ATOM     16  C   UNL     1      -2.550  30.037  59.293  1.00  0.00     0.004 C 
ENDBRANCH  14  15
ENDBRANCH  13  14
ENDBRANCH  12  13
ENDBRANCH  11  12
ENDBRANCH  10  11
ENDBRANCH   1  10
TORSDOF 12
ENDMDL
MODEL 7
REMARK VINA RESULT:    -3.994      3.407      5.970
REMARK INTER + INTRA:          -7.972
REMARK INTER:                  -5.983
REMARK INTRA:                  -1.989
REMARK UNBOUND:                -1.177
REMARK SMILES CCCCCCCCCCCCCC(=O)[O-]
REMARK SMILES IDX 8 1 9 2 10 3 11 4 12 5 13 6 14 7 15 8 16 9 7 10 6 11 5 12
REMARK SMILES IDX 4 13 3 14 2 15 1 16
REMARK H PARENT
REMARK Flexibility Score: inf
ROOT
ATOM      1  C   UNL     1      -2.243  26.854  56.297  1.00  0.00     0.000 C 
ENDROOT
BRANCH   1   2
ATOM      2  C   UNL     1      -2.418  26.370  57.746  1.00  0.00     0.000 C 
BRANCH   2   3
ATOM      3  C   UNL     1      -3.777  25.676  57.929  1.00  0.00     0.000 C 
BRANCH   3   4
ATOM      4  C   UNL     1      -4.577  26.240  59.113  1.00  0.00     0.000 C 
BRANCH   4   5
ATOM      5  C   UNL     1      -6.086  25.963  58.994  1.00  0.00     0.006 C 
BRANCH   5   6
ATOM      6  C   UNL     1      -6.546  25.884  57.533  1.00  0.00     0.053 C 
BRANCH   6   7
ATOM      7  C   UNL     1      -7.220  24.581  57.229  1.00  0.00     0.041 C 
ATOM      8  O   UNL     1      -6.710  23.498  57.619  1.00  0.00    -0.550 OA
ATOM      9  O   UNL     1      -8.426  24.565  56.540  1.00  0.00    -0.550 OA
ENDBRANCH   6   7
ENDBRANCH   5   6
ENDBRANCH   4   5
ENDBRANCH   3   4
ENDBRANCH   2   3
ENDBRANCH   1   2
BRANCH   1  10
ATOM     10  C   UNL     1      -3.582  27.000  55.554  1.00  0.00     0.000 C 
BRANCH  10  11
ATOM     11  C   UNL     1      -3.985  28.470  55.348  1.00  0.00    -0.000 C 
BRANCH  11  12
ATOM     12  C   UNL     1      -4.736  29.060  56.557  1.00  0.00    -0.000 C 
BRANCH  12  13
ATOM     13  C   UNL     1      -4.059  30.276  57.214  1.00  0.00    -0.000 C 
BRANCH  13  14
ATOM     14  C   UNL     1      -2.555  30.363  56.905  1.00  0.00    -0.000 C 
BRANCH  14  15
ATOM     15  C   UNL     1      -1.685  30.164  58.156  1.00  0.00    -0.003 C 
ATOM     16  C   UNL     1      -2.503  29.775  59.386  1.00  0.00     0.004 C 
ENDBRANCH  14  15
ENDBRANCH  13  14
ENDBRANCH  12  13
ENDBRANCH  11  12
ENDBRANCH  10  11
ENDBRANCH   1  10
TORSDOF 12
ENDMDL
MODEL 8
REMARK VINA RESULT:    -3.979      3.470      6.039
REMARK INTER + INTRA:          -7.948
REMARK INTER:                  -5.799
REMARK INTRA:                  -2.149
REMARK UNBOUND:                -1.177
REMARK SMILES CCCCCCCCCCCCCC(=O)[O-]
REMARK SMILES IDX 8 1 9 2 10 3 11 4 12 5 13 6 14 7 15 8 16 9 7 10 6 11 5 12
REMARK SMILES IDX 4 13 3 14 2 15 1 16
REMARK H PARENT
REMARK Flexibility Score: inf
ROOT
ATOM      1  C   UNL     1      -2.175  28.087  56.668  1.00  0.00     0.000 C 
ENDROOT
BRANCH   1   2
ATOM      2  C   UNL     1      -1.872  27.484  58.048  1.00  0.00     0.000 C 
BRANCH   2   3
ATOM      3  C   UNL     1      -3.142  27.430  58.912  1.00  0.00     0.000 C 
BRANCH   3   4
ATOM      4  C   UNL     1      -3.726  26.013  59.023  1.00  0.00     0.000 C 
BRANCH   4   5
ATOM      5  C   UNL     1      -5.230  25.966  58.700  1.00  0.00     0.006 C 
BRANCH   5   6
ATOM      6  C   UNL     1      -5.680  24.574  58.240  1.00  0.00     0.053 C 
BRANCH   6   7
ATOM      7  C   UNL     1      -7.068  24.594  57.677  1.00  0.00     0.041 C 
ATOM      8  O   UNL     1      -7.907  25.436  58.090  1.00  0.00    -0.550 OA
ATOM      9  O   UNL     1      -7.425  23.701  56.674  1.00  0.00    -0.550 OA
ENDBRANCH   6   7
ENDBRANCH   5   6
ENDBRANCH   4   5
ENDBRANCH   3   4
ENDBRANCH   2   3
ENDBRANCH   1   2
BRANCH   1  10
ATOM     10  C   UNL     1      -3.538  28.798  56.616  1.00  0.00     0.000 C 
BRANCH  10  11
ATOM     11  C   UNL     1      -4.527  28.110  55.659  1.00  0.00    -0.000 C 
BRANCH  11  12
ATOM     12  C   UNL     1      -3.863  27.026  54.789  1.00  0.00    -0.000 C 
BRANCH  12  13
ATOM     13  C   UNL     1      -4.411  25.602  54.992  1.00  0.00    -0.000 C 
BRANCH  13  14
ATOM     14  C   UNL     1      -3.336  24.517  54.811  1.00  0.00    -0.000 C 
BRANCH  14  15
ATOM     15  C   UNL     1      -2.518  24.280  56.090  1.00  0.00    -0.003 C 
ATOM     16  C   UNL     1      -1.032  24.583  55.903  1.00  0.00     0.004 C 
ENDBRANCH  14  15
ENDBRANCH  13  14
ENDBRANCH  12  13
ENDBRANCH  11  12
ENDBRANCH  10  11
ENDBRANCH   1  10
TORSDOF 12
ENDMDL
MODEL 9
REMARK VINA RESULT:    -3.957      3.654      4.985
REMARK INTER + INTRA:          -7.909
REMARK INTER:                  -6.664
REMARK INTRA:                  -1.245
REMARK UNBOUND:                -1.177
REMARK SMILES CCCCCCCCCCCCCC(=O)[O-]
REMARK SMILES IDX 8 1 9 2 10 3 11 4 12 5 13 6 14 7 15 8 16 9 7 10 6 11 5 12
REMARK SMILES IDX 4 13 3 14 2 15 1 16
REMARK H PARENT
REMARK Flexibility Score: inf
ROOT
ATOM      1  C   UNL     1      -2.031  28.699  58.623  1.00  0.00     0.000 C 
ENDROOT
BRANCH   1   2
ATOM      2  C   UNL     1      -2.998  29.888  58.515  1.00  0.00     0.000 C 
BRANCH   2   3
ATOM      3  C   UNL     1      -3.030  30.438  57.081  1.00  0.00     0.000 C 
BRANCH   3   4
ATOM      4  C   UNL     1      -3.850  29.556  56.125  1.00  0.00     0.000 C 
BRANCH   4   5
ATOM      5  C   UNL     1      -5.362  29.827  56.220  1.00  0.00     0.006 C 
BRANCH   5   6
ATOM      6  C   UNL     1      -5.695  31.313  56.046  1.00  0.00     0.053 C 
BRANCH   6   7
ATOM      7  C   UNL     1      -6.970  31.514  55.285  1.00  0.00     0.041 C 
ATOM      8  O   UNL     1      -6.950  31.618  54.031  1.00  0.00    -0.550 OA
ATOM      9  O   UNL     1      -8.184  31.557  55.960  1.00  0.00    -0.550 OA
ENDBRANCH   6   7
ENDBRANCH   5   6
ENDBRANCH   4   5
ENDBRANCH   3   4
ENDBRANCH   2   3
ENDBRANCH   1   2
BRANCH   1  10
ATOM     10  C   UNL     1      -2.717  27.419  59.131  1.00  0.00     0.000 C 
BRANCH  10  11
ATOM     11  C   UNL     1      -2.640  26.266  58.115  1.00  0.00    -0.000 C 
BRANCH  11  12
ATOM     12  C   UNL     1      -3.989  25.983  57.427  1.00  0.00    -0.000 C 
BRANCH  12  13
ATOM     13  C   UNL     1      -5.202  26.696  58.052  1.00  0.00    -0.000 C 
BRANCH  13  14
ATOM     14  C   UNL     1      -6.105  25.745  58.855  1.00  0.00    -0.000 C 
BRANCH  14  15
ATOM     15  C   UNL     1      -7.561  26.233  58.921  1.00  0.00    -0.003 C 
ATOM     16  C   UNL     1      -8.190  26.024  60.298  1.00  0.00     0.004 C 
ENDBRANCH  14  15
ENDBRANCH  13  14
ENDBRANCH  12  13
ENDBRANCH  11  12
ENDBRANCH  10  11
ENDBRANCH   1  10
TORSDOF 12
ENDMDL
