MODEL 1
REMARK VINA RESULT:    -4.394      0.000      0.000
REMARK INTER + INTRA:          -8.965
REMARK INTER:                  -7.990
REMARK INTRA:                  -0.975
REMARK UNBOUND:                -0.975
REMARK SMILES CCCCCCCCCCCCCCCC(=O)[O-]
REMARK SMILES IDX 9 1 10 2 11 3 12 4 13 5 14 6 15 7 16 8 17 9 18 10 8 11 7 12
REMARK SMILES IDX 6 13 5 14 4 15 3 16 2 17 1 18
REMARK H PARENT
REMARK Flexibility Score: inf
ROOT
ATOM      1  C   UNL     1      23.421  -4.210  54.070  1.00  0.00     0.000 C 
ENDROOT
BRANCH   1   2
ATOM      2  C   UNL     1      22.843  -4.933  52.844  1.00  0.00     0.000 C 
BRANCH   2   3
ATOM      3  C   UNL     1      23.855  -5.880  52.173  1.00  0.00     0.000 C 
BRANCH   3   4
ATOM      4  C   UNL     1      25.333  -5.512  52.393  1.00  0.00     0.000 C 
BRANCH   4   5
ATOM      5  C   UNL     1      25.893  -6.046  53.722  1.00  0.00     0.000 C 
BRANCH   5   6
ATOM      6  C   UNL     1      27.420  -6.264  53.672  1.00  0.00     0.006 C 
BRANCH   6   7
ATOM      7  C   UNL     1      28.013  -6.132  52.260  1.00  0.00     0.053 C 
BRANCH   7   8
ATOM      8  C   UNL     1      29.203  -7.016  52.058  1.00  0.00     0.041 C 
ATOM      9  O   UNL     1      29.272  -7.764  51.047  1.00  0.00    -0.550 OA
ATOM     10  O   UNL     1      30.247  -6.998  52.974  1.00  0.00    -0.550 OA
ENDBRANCH   7   8
ENDBRANCH   6   7
ENDBRANCH   5   6
ENDBRANCH   4   5
ENDBRANCH   3   4
ENDBRANCH   2   3
ENDBRANCH   1   2
BRANCH   1  11
ATOM     11  C   UNL     1      22.711  -2.868  54.300  1.00  0.00     0.000 C 
BRANCH  11  12
ATOM     12  C   UNL     1      23.371  -2.025  55.405  1.00  0.00    -0.000 C 
BRANCH  12  13
ATOM     13  C   UNL     1      24.035  -2.839  56.534  1.00  0.00    -0.000 C 
BRANCH  13  14
ATOM     14  C   UNL     1      23.116  -3.187  57.721  1.00  0.00    -0.000 C 
BRANCH  14  15
ATOM     15  C   UNL     1      22.206  -4.408  57.498  1.00  0.00    -0.000 C 
BRANCH  15  16
ATOM     16  C   UNL     1      20.721  -4.026  57.363  1.00  0.00    -0.000 C 
BRANCH  16  17
ATOM     17  C   UNL     1      20.105  -4.519  56.046  1.00  0.00    -0.003 C 
ATOM     18  C   UNL     1      20.194  -6.036  55.885  1.00  0.00     0.004 C 
ENDBRANCH  16  17
ENDBRANCH  15  16
ENDBRANCH  14  15
ENDBRANCH  13  14
ENDBRANCH  12  13
ENDBRANCH  11  12
ENDBRANCH   1  11
TORSDOF 14
ENDMDL
MODEL 2
REMARK VINA RESULT:    -4.332     13.479     15.666
REMARK INTER + INTRA:          -8.852
REMARK INTER:                  -7.404
REMARK INTRA:                  -1.448
REMARK UNBOUND:                -0.975
REMARK SMILES CCCCCCCCCCCCCCCC(=O)[O-]
REMARK SMILES IDX 9 1 10 2 11 3 12 4 13 5 14 6 15 7 16 8 17 9 18 10 8 11 7 12
REMARK SMILES IDX 6 13 5 14 4 15 3 16 2 17 1 18
REMARK H PARENT
REMARK Flexibility Score: inf
ROOT
ATOM      1  C   UNL     1      21.650   3.107  42.312  1.00  0.00     0.000 C 
ENDROOT
BRANCH   1   2
ATOM      2  C   UNL     1      20.628   3.671  41.313  1.00  0.00     0.000 C 
BRANCH   2   3
ATOM      3  C   UNL     1      19.185   3.232  41.619  1.00  0.00     0.000 C 
BRANCH   3   4
ATOM      4  C   UNL     1      19.044   2.215  42.766  1.00  0.00     0.000 C 
BRANCH   4   5
ATOM      5  C   UNL     1      17.686   1.495  42.767  1.00  0.00     0.000 C 
BRANCH   5   6
ATOM      6  C   UNL     1      17.812  -0.002  43.118  1.00  0.00     0.006 C 
BRANCH   6   7
ATOM      7  C   UNL     1      18.510  -0.260  44.463  1.00  0.00     0.053 C 
BRANCH   7   8
ATOM      8  C   UNL     1      19.694  -1.164  44.325  1.00  0.00     0.041 C 
ATOM      9  O   UNL     1      19.754  -2.234  44.986  1.00  0.00    -0.550 OA
ATOM     10  O   UNL     1      20.721  -0.836  43.449  1.00  0.00    -0.550 OA
ENDBRANCH   7   8
ENDBRANCH   6   7
ENDBRANCH   5   6
ENDBRANCH   4   5
ENDBRANCH   3   4
ENDBRANCH   2   3
ENDBRANCH   1   2
BRANCH   1  11
ATOM     11  C   UNL     1      22.752   4.134  42.608  1.00  0.00     0.000 C 
BRANCH  11  12
ATOM     12  C   UNL     1      24.125   3.483  42.854  1.00  0.00    -0.000 C 
BRANCH  12  13
ATOM     13  C   UNL     1      25.210   3.842  41.820  1.00  0.00    -0.000 C 
BRANCH  13  14
ATOM     14  C   UNL     1      24.692   4.116  40.394  1.00  0.00    -0.000 C 
BRANCH  14  15
ATOM     15  C   UNL     1      24.920   2.970  39.392  1.00  0.00    -0.000 C 
BRANCH  15  16
ATOM     16  C   UNL     1      23.671   2.092  39.200  1.00  0.00    -0.000 C 
BRANCH  16  17
ATOM     17  C   UNL     1      23.649   0.885  40.151  1.00  0.00    -0.003 C 
ATOM     18  C   UNL     1      23.724  -0.450  39.412  1.00  0.00     0.004 C 
ENDBRANCH  16  17
ENDBRANCH  15  16
ENDBRANCH  14  15
ENDBRANCH  13  14
ENDBRANCH  12  13
ENDBRANCH  11  12
ENDBRANCH   1  11
TORSDOF 14
ENDMDL
MODEL 3
REMARK VINA RESULT:    -4.262      1.065      2.681
REMARK INTER + INTRA:          -8.724
REMARK INTER:                  -7.224
REMARK INTRA:                  -1.500
REMARK UNBOUND:                -0.975
REMARK SMILES CCCCCCCCCCCCCCCC(=O)[O-]
REMARK SMILES IDX 9 1 10 2 11 3 12 4 13 5 14 6 15 7 16 8 17 9 18 10 8 11 7 12
REMARK SMILES IDX 6 13 5 14 4 15 3 16 2 17 1 18
REMARK H PARENT
REMARK Flexibility Score: inf
ROOT
ATOM      1  C   UNL     1      21.689  -6.843  53.836  1.00  0.00     0.000 C 
ENDROOT
BRANCH   1   2
ATOM      2  C   UNL     1      23.020  -7.060  53.100  1.00  0.00     0.000 C 
BRANCH   2   3
ATOM      3  C   UNL     1      23.701  -5.740  52.692  1.00  0.00     0.000 C 
BRANCH   3   4
ATOM      4  C   UNL     1      24.978  -5.398  53.481  1.00  0.00     0.000 C 
BRANCH   4   5
ATOM      5  C   UNL     1      26.040  -6.507  53.414  1.00  0.00     0.000 C 
BRANCH   5   6
ATOM      6  C   UNL     1      27.477  -5.955  53.526  1.00  0.00     0.006 C 
BRANCH   6   7
ATOM      7  C   UNL     1      28.218  -5.896  52.181  1.00  0.00     0.053 C 
BRANCH   7   8
ATOM      8  C   UNL     1      29.280  -6.943  52.070  1.00  0.00     0.041 C 
ATOM      9  O   UNL     1      30.064  -7.155  53.034  1.00  0.00    -0.550 OA
ATOM     10  O   UNL     1      29.392  -7.702  50.912  1.00  0.00    -0.550 OA
ENDBRANCH   7   8
ENDBRANCH   6   7
ENDBRANCH   5   6
ENDBRANCH   4   5
ENDBRANCH   3   4
ENDBRANCH   2   3
ENDBRANCH   1   2
BRANCH   1  11
ATOM     11  C   UNL     1      21.147  -5.429  53.583  1.00  0.00     0.000 C 
BRANCH  11  12
ATOM     12  C   UNL     1      20.609  -4.759  54.860  1.00  0.00    -0.000 C 
BRANCH  12  13
ATOM     13  C   UNL     1      20.964  -5.484  56.173  1.00  0.00    -0.000 C 
BRANCH  13  14
ATOM     14  C   UNL     1      21.196  -4.565  57.388  1.00  0.00    -0.000 C 
BRANCH  14  15
ATOM     15  C   UNL     1      21.950  -3.260  57.077  1.00  0.00    -0.000 C 
BRANCH  15  16
ATOM     16  C   UNL     1      23.461  -3.369  57.344  1.00  0.00    -0.000 C 
BRANCH  16  17
ATOM     17  C   UNL     1      24.304  -2.963  56.126  1.00  0.00    -0.003 C 
ATOM     18  C   UNL     1      23.472  -2.304  55.026  1.00  0.00     0.004 C 
ENDBRANCH  16  17
ENDBRANCH  15  16
ENDBRANCH  14  15
ENDBRANCH  13  14
ENDBRANCH  12  13
ENDBRANCH  11  12
ENDBRANCH   1  11
TORSDOF 14
ENDMDL
MODEL 4
REMARK VINA RESULT:    -4.193     12.341     13.570
REMARK INTER + INTRA:          -8.599
REMARK INTER:                  -6.566
REMARK INTRA:                  -2.033
REMARK UNBOUND:                -0.975
REMARK SMILES CCCCCCCCCCCCCCCC(=O)[O-]
REMARK SMILES IDX 9 1 10 2 11 3 12 4 13 5 14 6 15 7 16 8 17 9 18 10 8 11 7 12
REMARK SMILES IDX 6 13 5 14 4 15 3 16 2 17 1 18
REMARK H PARENT
REMARK Flexibility Score: inf
ROOT
ATOM      1  C   UNL     1      27.714   6.007  48.311  1.00  0.00     0.000 C 
ENDROOT
BRANCH   1   2
ATOM      2  C   UNL     1      28.535   4.770  48.705  1.00  0.00     0.000 C 
BRANCH   2   3
ATOM      3  C   UNL     1      29.760   5.115  49.573  1.00  0.00     0.000 C 
BRANCH   3   4
ATOM      4  C   UNL     1      31.121   4.936  48.876  1.00  0.00     0.000 C 
BRANCH   4   5
ATOM      5  C   UNL     1      31.354   5.953  47.746  1.00  0.00     0.000 C 
BRANCH   5   6
ATOM      6  C   UNL     1      31.287   5.304  46.347  1.00  0.00     0.006 C 
BRANCH   6   7
ATOM      7  C   UNL     1      31.232   6.326  45.200  1.00  0.00     0.053 C 
BRANCH   7   8
ATOM      8  C   UNL     1      32.570   6.541  44.566  1.00  0.00     0.041 C 
ATOM      9  O   UNL     1      32.915   5.855  43.567  1.00  0.00    -0.550 OA
ATOM     10  O   UNL     1      33.427   7.514  45.063  1.00  0.00    -0.550 OA
ENDBRANCH   7   8
ENDBRANCH   6   7
ENDBRANCH   5   6
ENDBRANCH   4   5
ENDBRANCH   3   4
ENDBRANCH   2   3
ENDBRANCH   1   2
BRANCH   1  11
ATOM     11  C   UNL     1      27.344   5.968  46.821  1.00  0.00     0.000 C 
BRANCH  11  12
ATOM     12  C   UNL     1      27.633   4.604  46.170  1.00  0.00    -0.000 C 
BRANCH  12  13
ATOM     13  C   UNL     1      26.429   3.641  46.119  1.00  0.00    -0.000 C 
BRANCH  13  14
ATOM     14  C   UNL     1      25.047   4.320  46.079  1.00  0.00    -0.000 C 
BRANCH  14  15
ATOM     15  C   UNL     1      24.090   3.907  47.212  1.00  0.00    -0.000 C 
BRANCH  15  16
ATOM     16  C   UNL     1      24.203   4.818  48.447  1.00  0.00    -0.000 C 
BRANCH  16  17
ATOM     17  C   UNL     1      24.340   4.021  49.753  1.00  0.00    -0.003 C 
ATOM     18  C   UNL     1      25.457   2.980  49.696  1.00  0.00     0.004 C 
ENDBRANCH  16  17
ENDBRANCH  15  16
ENDBRANCH  14  15
ENDBRANCH  13  14
ENDBRANCH  12  13
ENDBRANCH  11  12
ENDBRANCH   1  11
TORSDOF 14
ENDMDL
MODEL 5
REMARK VINA RESULT:    -4.182     12.685     14.759
REMARK INTER + INTRA:          -8.579
REMARK INTER:                  -7.087
REMARK INTRA:                  -1.492
REMARK UNBOUND:                -0.975
REMARK SMILES CCCCCCCCCCCCCCCC(=O)[O-]
REMARK SMILES IDX 9 1 10 2 11 3 12 4 13 5 14 6 15 7 16 8 17 9 18 10 8 11 7 12
REMARK SMILES IDX 6 13 5 14 4 15 3 16 2 17 1 18
REMARK H PARENT
REMARK Flexibility Score: inf
ROOT
ATOM      1  C   UNL     1      18.483   3.197  42.720  1.00  0.00     0.000 C 
ENDROOT
BRANCH   1   2
ATOM      2  C   UNL     1      17.345   2.166  42.693  1.00  0.00     0.000 C 
BRANCH   2   3
ATOM      3  C   UNL     1      17.173   1.427  44.033  1.00  0.00     0.000 C 
BRANCH   3   4
ATOM      4  C   UNL     1      18.413   0.651  44.511  1.00  0.00     0.000 C 
BRANCH   4   5
ATOM      5  C   UNL     1      18.915  -0.372  43.479  1.00  0.00     0.000 C 
BRANCH   5   6
ATOM      6  C   UNL     1      20.415  -0.693  43.648  1.00  0.00     0.006 C 
BRANCH   6   7
ATOM      7  C   UNL     1      20.686  -1.878  44.588  1.00  0.00     0.053 C 
BRANCH   7   8
ATOM      8  C   UNL     1      21.521  -1.490  45.767  1.00  0.00     0.041 C 
ATOM      9  O   UNL     1      21.508  -0.303  46.189  1.00  0.00    -0.550 OA
ATOM     10  O   UNL     1      22.297  -2.443  46.414  1.00  0.00    -0.550 OA
ENDBRANCH   7   8
ENDBRANCH   6   7
ENDBRANCH   5   6
ENDBRANCH   4   5
ENDBRANCH   3   4
ENDBRANCH   2   3
ENDBRANCH   1   2
BRANCH   1  11
ATOM     11  C   UNL     1      18.827   3.671  41.301  1.00  0.00     0.000 C 
BRANCH  11  12
ATOM     12  C   UNL     1      20.320   3.517  40.965  1.00  0.00    -0.000 C 
BRANCH  12  13
ATOM     13  C   UNL     1      21.167   2.845  42.064  1.00  0.00    -0.000 C 
BRANCH  13  14
ATOM     14  C   UNL     1      22.596   3.400  42.223  1.00  0.00    -0.000 C 
BRANCH  14  15
ATOM     15  C   UNL     1      23.652   2.737  41.321  1.00  0.00    -0.000 C 
BRANCH  15  16
ATOM     16  C   UNL     1      23.256   1.315  40.889  1.00  0.00    -0.000 C 
BRANCH  16  17
ATOM     17  C   UNL     1      23.496   1.067  39.392  1.00  0.00    -0.003 C 
ATOM     18  C   UNL     1      22.714   2.031  38.501  1.00  0.00     0.004 C 
ENDBRANCH  16  17
ENDBRANCH  15  16
ENDBRANCH  14  15
ENDBRANCH  13  14
ENDBRANCH  12  13
ENDBRANCH  11  12
ENDBRANCH   1  11
TORSDOF 14
ENDMDL
MODEL 6
REMARK VINA RESULT:    -4.152     16.611     18.756
REMARK INTER + INTRA:          -8.524
REMARK INTER:                  -6.548
REMARK INTRA:                  -1.976
REMARK UNBOUND:                -0.975
REMARK SMILES CCCCCCCCCCCCCCCC(=O)[O-]
REMARK SMILES IDX 9 1 10 2 11 3 12 4 13 5 14 6 15 7 16 8 17 9 18 10 8 11 7 12
REMARK SMILES IDX 6 13 5 14 4 15 3 16 2 17 1 18
REMARK H PARENT
REMARK Flexibility Score: inf
ROOT
ATOM      1  C   UNL     1      28.992   4.197  39.364  1.00  0.00     0.000 C 
ENDROOT
BRANCH   1   2
ATOM      2  C   UNL     1      28.606   4.294  40.848  1.00  0.00     0.000 C 
BRANCH   2   3
ATOM      3  C   UNL     1      27.849   5.591  41.187  1.00  0.00     0.000 C 
BRANCH   3   4
ATOM      4  C   UNL     1      26.528   5.391  41.952  1.00  0.00     0.000 C 
BRANCH   4   5
ATOM      5  C   UNL     1      25.809   4.084  41.576  1.00  0.00     0.000 C 
BRANCH   5   6
ATOM      6  C   UNL     1      24.953   4.229  40.300  1.00  0.00     0.006 C 
BRANCH   6   7
ATOM      7  C   UNL     1      25.037   3.013  39.364  1.00  0.00     0.053 C 
BRANCH   7   8
ATOM      8  C   UNL     1      23.881   2.080  39.538  1.00  0.00     0.041 C 
ATOM      9  O   UNL     1      22.785   2.507  39.990  1.00  0.00    -0.550 OA
ATOM     10  O   UNL     1      24.005   0.744  39.180  1.00  0.00    -0.550 OA
ENDBRANCH   7   8
ENDBRANCH   6   7
ENDBRANCH   5   6
ENDBRANCH   4   5
ENDBRANCH   3   4
ENDBRANCH   2   3
ENDBRANCH   1   2
BRANCH   1  11
ATOM     11  C   UNL     1      30.403   4.754  39.127  1.00  0.00     0.000 C 
BRANCH  11  12
ATOM     12  C   UNL     1      30.412   5.980  38.197  1.00  0.00    -0.000 C 
BRANCH  12  13
ATOM     13  C   UNL     1      30.480   7.342  38.917  1.00  0.00    -0.000 C 
BRANCH  13  14
ATOM     14  C   UNL     1      31.893   7.796  39.331  1.00  0.00    -0.000 C 
BRANCH  14  15
ATOM     15  C   UNL     1      32.205   7.651  40.831  1.00  0.00    -0.000 C 
BRANCH  15  16
ATOM     16  C   UNL     1      30.939   7.668  41.706  1.00  0.00    -0.000 C 
BRANCH  16  17
ATOM     17  C   UNL     1      30.952   6.570  42.780  1.00  0.00    -0.003 C 
ATOM     18  C   UNL     1      31.873   5.404  42.421  1.00  0.00     0.004 C 
ENDBRANCH  16  17
ENDBRANCH  15  16
ENDBRANCH  14  15
ENDBRANCH  13  14
ENDBRANCH  12  13
ENDBRANCH  11  12
ENDBRANCH   1  11
TORSDOF 14
ENDMDL
MODEL 7
REMARK VINA RESULT:    -4.118     15.632     17.190
REMARK INTER + INTRA:          -8.463
REMARK INTER:                  -7.191
REMARK INTRA:                  -1.272
REMARK UNBOUND:                -0.975
REMARK SMILES CCCCCCCCCCCCCCCC(=O)[O-]
REMARK SMILES IDX 9 1 10 2 11 3 12 4 13 5 14 6 15 7 16 8 17 9 18 10 8 11 7 12
REMARK SMILES IDX 6 13 5 14 4 15 3 16 2 17 1 18
REMARK H PARENT
REMARK Flexibility Score: inf
ROOT
ATOM      1  C   UNL     1      28.375   5.015  40.892  1.00  0.00     0.000 C 
ENDROOT
BRANCH   1   2
ATOM      2  C   UNL     1      29.117   4.270  39.771  1.00  0.00     0.000 C 
BRANCH   2   3
ATOM      3  C   UNL     1      30.016   5.194  38.930  1.00  0.00     0.000 C 
BRANCH   3   4
ATOM      4  C   UNL     1      31.516   5.123  39.264  1.00  0.00     0.000 C 
BRANCH   4   5
ATOM      5  C   UNL     1      31.934   6.118  40.360  1.00  0.00     0.000 C 
BRANCH   5   6
ATOM      6  C   UNL     1      32.290   5.417  41.688  1.00  0.00     0.006 C 
BRANCH   6   7
ATOM      7  C   UNL     1      31.306   5.726  42.827  1.00  0.00     0.053 C 
BRANCH   7   8
ATOM      8  C   UNL     1      31.963   5.694  44.171  1.00  0.00     0.041 C 
ATOM      9  O   UNL     1      33.076   6.258  44.345  1.00  0.00    -0.550 OA
ATOM     10  O   UNL     1      31.337   5.060  45.237  1.00  0.00    -0.550 OA
ENDBRANCH   7   8
ENDBRANCH   6   7
ENDBRANCH   5   6
ENDBRANCH   4   5
ENDBRANCH   3   4
ENDBRANCH   2   3
ENDBRANCH   1   2
BRANCH   1  11
ATOM     11  C   UNL     1      27.905   4.039  41.980  1.00  0.00     0.000 C 
BRANCH  11  12
ATOM     12  C   UNL     1      26.576   4.464  42.629  1.00  0.00    -0.000 C 
BRANCH  12  13
ATOM     13  C   UNL     1      25.828   5.597  41.897  1.00  0.00    -0.000 C 
BRANCH  13  14
ATOM     14  C   UNL     1      24.671   5.139  40.988  1.00  0.00    -0.000 C 
BRANCH  14  15
ATOM     15  C   UNL     1      24.450   3.617  40.940  1.00  0.00    -0.000 C 
BRANCH  15  16
ATOM     16  C   UNL     1      24.715   3.022  39.546  1.00  0.00    -0.000 C 
BRANCH  16  17
ATOM     17  C   UNL     1      23.589   2.087  39.082  1.00  0.00    -0.003 C 
ATOM     18  C   UNL     1      23.838   0.628  39.463  1.00  0.00     0.004 C 
ENDBRANCH  16  17
ENDBRANCH  15  16
ENDBRANCH  14  15
ENDBRANCH  13  14
ENDBRANCH  12  13
ENDBRANCH  11  12
ENDBRANCH   1  11
TORSDOF 14
ENDMDL
MODEL 8
REMARK VINA RESULT:    -4.092     15.617     17.123
REMARK INTER + INTRA:          -8.415
REMARK INTER:                  -6.263
REMARK INTRA:                  -2.152
REMARK UNBOUND:                -0.975
REMARK SMILES CCCCCCCCCCCCCCCC(=O)[O-]
REMARK SMILES IDX 9 1 10 2 11 3 12 4 13 5 14 6 15 7 16 8 17 9 18 10 8 11 7 12
REMARK SMILES IDX 6 13 5 14 4 15 3 16 2 17 1 18
REMARK H PARENT
REMARK Flexibility Score: inf
ROOT
ATOM      1  C   UNL     1      32.767   9.391  46.089  1.00  0.00     0.000 C 
ENDROOT
BRANCH   1   2
ATOM      2  C   UNL     1      33.548   8.111  45.756  1.00  0.00     0.000 C 
BRANCH   2   3
ATOM      3  C   UNL     1      33.330   7.635  44.308  1.00  0.00     0.000 C 
BRANCH   3   4
ATOM      4  C   UNL     1      33.001   6.138  44.159  1.00  0.00     0.000 C 
BRANCH   4   5
ATOM      5  C   UNL     1      32.408   5.789  42.784  1.00  0.00     0.000 C 
BRANCH   5   6
ATOM      6  C   UNL     1      31.250   6.728  42.386  1.00  0.00     0.006 C 
BRANCH   6   7
ATOM      7  C   UNL     1      30.867   6.634  40.900  1.00  0.00     0.053 C 
BRANCH   7   8
ATOM      8  C   UNL     1      30.481   5.245  40.500  1.00  0.00     0.041 C 
ATOM      9  O   UNL     1      29.600   4.620  41.150  1.00  0.00    -0.550 OA
ATOM     10  O   UNL     1      31.076   4.648  39.396  1.00  0.00    -0.550 OA
ENDBRANCH   7   8
ENDBRANCH   6   7
ENDBRANCH   5   6
ENDBRANCH   4   5
ENDBRANCH   3   4
ENDBRANCH   2   3
ENDBRANCH   1   2
BRANCH   1  11
ATOM     11  C   UNL     1      31.529   9.526  45.192  1.00  0.00     0.000 C 
BRANCH  11  12
ATOM     12  C   UNL     1      30.217   9.611  45.993  1.00  0.00    -0.000 C 
BRANCH  12  13
ATOM     13  C   UNL     1      29.809   8.309  46.710  1.00  0.00    -0.000 C 
BRANCH  13  14
ATOM     14  C   UNL     1      29.846   7.039  45.837  1.00  0.00    -0.000 C 
BRANCH  14  15
ATOM     15  C   UNL     1      30.221   5.749  46.587  1.00  0.00    -0.000 C 
BRANCH  15  16
ATOM     16  C   UNL     1      31.288   5.980  47.671  1.00  0.00    -0.000 C 
BRANCH  16  17
ATOM     17  C   UNL     1      30.922   5.315  49.007  1.00  0.00    -0.003 C 
ATOM     18  C   UNL     1      29.425   5.038  49.138  1.00  0.00     0.004 C 
ENDBRANCH  16  17
ENDBRANCH  15  16
ENDBRANCH  14  15
ENDBRANCH  13  14
ENDBRANCH  12  13
ENDBRANCH  11  12
ENDBRANCH   1  11
TORSDOF 14
ENDMDL
MODEL 9
REMARK VINA RESULT:    -4.052     14.918     16.387
REMARK INTER + INTRA:          -8.344
REMARK INTER:                  -6.155
REMARK INTRA:                  -2.189
REMARK UNBOUND:                -0.975
REMARK SMILES CCCCCCCCCCCCCCCC(=O)[O-]
REMARK SMILES IDX 9 1 10 2 11 3 12 4 13 5 14 6 15 7 16 8 17 9 18 10 8 11 7 12
REMARK SMILES IDX 6 13 5 14 4 15 3 16 2 17 1 18
REMARK H PARENT
REMARK Flexibility Score: inf
ROOT
ATOM      1  C   UNL     1      24.865   5.288  42.703  1.00  0.00     0.000 C 
ENDROOT
BRANCH   1   2
ATOM      2  C   UNL     1      25.420   4.010  43.348  1.00  0.00     0.000 C 
BRANCH   2   3
ATOM      3  C   UNL     1      26.588   4.284  44.314  1.00  0.00     0.000 C 
BRANCH   3   4
ATOM      4  C   UNL     1      27.984   4.270  43.666  1.00  0.00     0.000 C 
BRANCH   4   5
ATOM      5  C   UNL     1      28.534   5.680  43.395  1.00  0.00     0.000 C 
BRANCH   5   6
ATOM      6  C   UNL     1      29.504   5.714  42.195  1.00  0.00     0.006 C 
BRANCH   6   7
ATOM      7  C   UNL     1      28.802   5.578  40.835  1.00  0.00     0.053 C 
BRANCH   7   8
ATOM      8  C   UNL     1      29.569   4.716  39.883  1.00  0.00     0.041 C 
ATOM      9  O   UNL     1      30.829   4.719  39.900  1.00  0.00    -0.550 OA
ATOM     10  O   UNL     1      28.894   3.891  38.992  1.00  0.00    -0.550 OA
ENDBRANCH   7   8
ENDBRANCH   6   7
ENDBRANCH   5   6
ENDBRANCH   4   5
ENDBRANCH   3   4
ENDBRANCH   2   3
ENDBRANCH   1   2
BRANCH   1  11
ATOM     11  C   UNL     1      25.065   5.265  41.181  1.00  0.00     0.000 C 
BRANCH  11  12
ATOM     12  C   UNL     1      25.680   3.946  40.679  1.00  0.00    -0.000 C 
BRANCH  12  13
ATOM     13  C   UNL     1      25.123   3.441  39.333  1.00  0.00    -0.000 C 
BRANCH  13  14
ATOM     14  C   UNL     1      24.318   2.129  39.407  1.00  0.00    -0.000 C 
BRANCH  14  15
ATOM     15  C   UNL     1      22.907   2.269  40.008  1.00  0.00    -0.000 C 
BRANCH  15  16
ATOM     16  C   UNL     1      22.864   1.927  41.507  1.00  0.00    -0.000 C 
BRANCH  16  17
ATOM     17  C   UNL     1      21.834   2.772  42.273  1.00  0.00    -0.003 C 
ATOM     18  C   UNL     1      21.495   4.079  41.558  1.00  0.00     0.004 C 
ENDBRANCH  16  17
ENDBRANCH  15  16
ENDBRANCH  14  15
ENDBRANCH  13  14
ENDBRANCH  12  13
ENDBRANCH  11  12
ENDBRANCH   1  11
TORSDOF 14
ENDMDL
