MODEL 1
REMARK VINA RESULT:    -2.554      0.000      0.000
REMARK INTER + INTRA:          -5.267
REMARK INTER:                  -4.047
REMARK INTRA:                  -1.220
REMARK UNBOUND:                -1.220
REMARK SMILES CCCCCCCCCCCC(=O)[O-]
REMARK SMILES IDX 7 1 8 2 9 3 10 4 11 5 12 6 13 7 14 8 6 9 5 10 4 11 3 12 2 13
REMARK SMILES IDX 1 14
REMARK H PARENT
REMARK Flexibility Score: inf
ROOT
ATOM      1  C   UNL     1      40.462  40.027  16.455  1.00  0.00     0.000 C 
ENDROOT
BRANCH   1   2
ATOM      2  C   UNL     1      40.995  40.272  17.874  1.00  0.00     0.000 C 
BRANCH   2   3
ATOM      3  C   UNL     1      39.940  40.878  18.817  1.00  0.00     0.000 C 
BRANCH   3   4
ATOM      4  C   UNL     1      38.612  40.103  18.891  1.00  0.00     0.006 C 
BRANCH   4   5
ATOM      5  C   UNL     1      38.714  38.821  19.729  1.00  0.00     0.053 C 
BRANCH   5   6
ATOM      6  C   UNL     1      37.375  38.451  20.283  1.00  0.00     0.041 C 
ATOM      7  O   UNL     1      37.169  37.286  20.717  1.00  0.00    -0.550 OA
ATOM      8  O   UNL     1      36.339  39.375  20.274  1.00  0.00    -0.550 OA
ENDBRANCH   5   6
ENDBRANCH   4   5
ENDBRANCH   3   4
ENDBRANCH   2   3
ENDBRANCH   1   2
BRANCH   1   9
ATOM      9  C   UNL     1      40.378  38.527  16.150  1.00  0.00     0.000 C 
BRANCH   9  10
ATOM     10  C   UNL     1      41.125  37.705  17.207  1.00  0.00    -0.000 C 
BRANCH  10  11
ATOM     11  C   UNL     1      40.751  36.219  17.115  1.00  0.00    -0.000 C 
BRANCH  11  12
ATOM     12  C   UNL     1      39.250  36.001  16.866  1.00  0.00    -0.000 C 
BRANCH  12  13
ATOM     13  C   UNL     1      38.529  35.404  18.083  1.00  0.00    -0.003 C 
ATOM     14  C   UNL     1      39.507  35.135  19.224  1.00  0.00     0.004 C 
ENDBRANCH  12  13
ENDBRANCH  11  12
ENDBRANCH  10  11
ENDBRANCH   9  10
ENDBRANCH   1   9
TORSDOF 10
ENDMDL
MODEL 2
REMARK VINA RESULT:    -2.350      2.408      4.812
REMARK INTER + INTRA:          -4.943
REMARK INTER:                  -4.007
REMARK INTRA:                  -0.936
REMARK UNBOUND:                -1.220
REMARK SMILES CCCCCCCCCCCC(=O)[O-]
REMARK SMILES IDX 7 1 8 2 9 3 10 4 11 5 12 6 13 7 14 8 6 9 5 10 4 11 3 12 2 13
REMARK SMILES IDX 1 14
REMARK H PARENT
REMARK Flexibility Score: inf
ROOT
ATOM      1  C   UNL     1      40.213  34.932  18.292  1.00  0.00     0.000 C 
ENDROOT
BRANCH   1   2
ATOM      2  C   UNL     1      40.316  34.997  16.761  1.00  0.00     0.000 C 
BRANCH   2   3
ATOM      3  C   UNL     1      39.976  36.387  16.194  1.00  0.00     0.000 C 
BRANCH   3   4
ATOM      4  C   UNL     1      40.971  37.502  16.565  1.00  0.00     0.006 C 
BRANCH   4   5
ATOM      5  C   UNL     1      40.428  38.454  17.639  1.00  0.00     0.053 C 
BRANCH   5   6
ATOM      6  C   UNL     1      40.481  39.869  17.157  1.00  0.00     0.041 C 
ATOM      7  O   UNL     1      40.246  40.136  15.949  1.00  0.00    -0.550 OA
ATOM      8  O   UNL     1      40.839  40.888  18.030  1.00  0.00    -0.550 OA
ENDBRANCH   5   6
ENDBRANCH   4   5
ENDBRANCH   3   4
ENDBRANCH   2   3
ENDBRANCH   1   2
BRANCH   1   9
ATOM      9  C   UNL     1      38.749  34.910  18.745  1.00  0.00     0.000 C 
BRANCH   9  10
ATOM     10  C   UNL     1      38.643  34.940  20.274  1.00  0.00    -0.000 C 
BRANCH  10  11
ATOM     11  C   UNL     1      37.704  36.063  20.739  1.00  0.00    -0.000 C 
BRANCH  11  12
ATOM     12  C   UNL     1      37.756  37.295  19.822  1.00  0.00    -0.000 C 
BRANCH  12  13
ATOM     13  C   UNL     1      37.830  38.613  20.607  1.00  0.00    -0.003 C 
ATOM     14  C   UNL     1      37.572  39.811  19.697  1.00  0.00     0.004 C 
ENDBRANCH  12  13
ENDBRANCH  11  12
ENDBRANCH  10  11
ENDBRANCH   9  10
ENDBRANCH   1   9
TORSDOF 10
ENDMDL
MODEL 3
REMARK VINA RESULT:    -2.200     23.375     25.984
REMARK INTER + INTRA:          -4.707
REMARK INTER:                  -4.116
REMARK INTRA:                  -0.590
REMARK UNBOUND:                -1.220
REMARK SMILES CCCCCCCCCCCC(=O)[O-]
REMARK SMILES IDX 7 1 8 2 9 3 10 4 11 5 12 6 13 7 14 8 6 9 5 10 4 11 3 12 2 13
REMARK SMILES IDX 1 14
REMARK H PARENT
REMARK Flexibility Score: inf
ROOT
ATOM      1  C   UNL     1      24.192  54.127  30.875  1.00  0.00     0.000 C 
ENDROOT
BRANCH   1   2
ATOM      2  C   UNL     1      22.727  54.557  30.713  1.00  0.00     0.000 C 
BRANCH   2   3
ATOM      3  C   UNL     1      22.259  54.559  29.246  1.00  0.00     0.000 C 
BRANCH   3   4
ATOM      4  C   UNL     1      23.216  53.867  28.257  1.00  0.00     0.006 C 
BRANCH   4   5
ATOM      5  C   UNL     1      22.845  52.402  27.993  1.00  0.00     0.053 C 
BRANCH   5   6
ATOM      6  C   UNL     1      23.875  51.751  27.126  1.00  0.00     0.041 C 
ATOM      7  O   UNL     1      24.440  50.690  27.501  1.00  0.00    -0.550 OA
ATOM      8  O   UNL     1      24.248  52.342  25.926  1.00  0.00    -0.550 OA
ENDBRANCH   5   6
ENDBRANCH   4   5
ENDBRANCH   3   4
ENDBRANCH   2   3
ENDBRANCH   1   2
BRANCH   1   9
ATOM      9  C   UNL     1      24.866  54.890  32.021  1.00  0.00     0.000 C 
BRANCH   9  10
ATOM     10  C   UNL     1      23.892  55.115  33.184  1.00  0.00    -0.000 C 
BRANCH  10  11
ATOM     11  C   UNL     1      24.468  54.566  34.497  1.00  0.00    -0.000 C 
BRANCH  11  12
ATOM     12  C   UNL     1      23.383  54.000  35.428  1.00  0.00    -0.000 C 
BRANCH  12  13
ATOM     13  C   UNL     1      21.972  54.120  34.832  1.00  0.00    -0.003 C 
ATOM     14  C   UNL     1      20.912  53.688  35.841  1.00  0.00     0.004 C 
ENDBRANCH  12  13
ENDBRANCH  11  12
ENDBRANCH  10  11
ENDBRANCH   9  10
ENDBRANCH   1   9
TORSDOF 10
ENDMDL
MODEL 4
REMARK VINA RESULT:    -2.194      2.539      4.104
REMARK INTER + INTRA:          -4.696
REMARK INTER:                  -3.946
REMARK INTRA:                  -0.750
REMARK UNBOUND:                -1.220
REMARK SMILES CCCCCCCCCCCC(=O)[O-]
REMARK SMILES IDX 7 1 8 2 9 3 10 4 11 5 12 6 13 7 14 8 6 9 5 10 4 11 3 12 2 13
REMARK SMILES IDX 1 14
REMARK H PARENT
REMARK Flexibility Score: inf
ROOT
ATOM      1  C   UNL     1      38.147  38.416  20.629  1.00  0.00     0.000 C 
ENDROOT
BRANCH   1   2
ATOM      2  C   UNL     1      37.593  39.633  19.875  1.00  0.00     0.000 C 
BRANCH   2   3
ATOM      3  C   UNL     1      38.650  40.334  19.004  1.00  0.00     0.000 C 
BRANCH   3   4
ATOM      4  C   UNL     1      39.467  39.399  18.093  1.00  0.00     0.006 C 
BRANCH   4   5
ATOM      5  C   UNL     1      40.947  39.792  18.007  1.00  0.00     0.053 C 
BRANCH   5   6
ATOM      6  C   UNL     1      41.086  41.276  17.875  1.00  0.00     0.041 C 
ATOM      7  O   UNL     1      41.125  42.002  18.903  1.00  0.00    -0.550 OA
ATOM      8  O   UNL     1      41.124  41.861  16.616  1.00  0.00    -0.550 OA
ENDBRANCH   5   6
ENDBRANCH   4   5
ENDBRANCH   3   4
ENDBRANCH   2   3
ENDBRANCH   1   2
BRANCH   1   9
ATOM      9  C   UNL     1      37.277  37.176  20.389  1.00  0.00     0.000 C 
BRANCH   9  10
ATOM     10  C   UNL     1      38.124  35.897  20.393  1.00  0.00    -0.000 C 
BRANCH  10  11
ATOM     11  C   UNL     1      39.133  35.902  19.235  1.00  0.00    -0.000 C 
BRANCH  11  12
ATOM     12  C   UNL     1      38.486  35.556  17.885  1.00  0.00    -0.000 C 
BRANCH  12  13
ATOM     13  C   UNL     1      39.521  35.201  16.807  1.00  0.00    -0.003 C 
ATOM     14  C   UNL     1      40.853  35.895  17.074  1.00  0.00     0.004 C 
ENDBRANCH  12  13
ENDBRANCH  11  12
ENDBRANCH  10  11
ENDBRANCH   9  10
ENDBRANCH   1   9
TORSDOF 10
ENDMDL
MODEL 5
REMARK VINA RESULT:    -2.030      1.225      3.795
REMARK INTER + INTRA:          -4.436
REMARK INTER:                  -3.618
REMARK INTRA:                  -0.818
REMARK UNBOUND:                -1.220
REMARK SMILES CCCCCCCCCCCC(=O)[O-]
REMARK SMILES IDX 7 1 8 2 9 3 10 4 11 5 12 6 13 7 14 8 6 9 5 10 4 11 3 12 2 13
REMARK SMILES IDX 1 14
REMARK H PARENT
REMARK Flexibility Score: inf
ROOT
ATOM      1  C   UNL     1      40.153  35.040  17.946  1.00  0.00     0.000 C 
ENDROOT
BRANCH   1   2
ATOM      2  C   UNL     1      38.714  34.971  18.476  1.00  0.00     0.000 C 
BRANCH   2   3
ATOM      3  C   UNL     1      38.629  35.108  20.007  1.00  0.00     0.000 C 
BRANCH   3   4
ATOM      4  C   UNL     1      37.749  36.268  20.509  1.00  0.00     0.006 C 
BRANCH   4   5
ATOM      5  C   UNL     1      37.816  37.504  19.602  1.00  0.00     0.053 C 
BRANCH   5   6
ATOM      6  C   UNL     1      37.431  38.732  20.364  1.00  0.00     0.041 C 
ATOM      7  O   UNL     1      38.006  39.011  21.449  1.00  0.00    -0.550 OA
ATOM      8  O   UNL     1      36.402  39.543  19.902  1.00  0.00    -0.550 OA
ENDBRANCH   5   6
ENDBRANCH   4   5
ENDBRANCH   3   4
ENDBRANCH   2   3
ENDBRANCH   1   2
BRANCH   1   9
ATOM      9  C   UNL     1      40.171  35.158  16.418  1.00  0.00     0.000 C 
BRANCH   9  10
ATOM     10  C   UNL     1      40.787  36.490  15.973  1.00  0.00    -0.000 C 
BRANCH  10  11
ATOM     11  C   UNL     1      40.925  37.455  17.159  1.00  0.00    -0.000 C 
BRANCH  11  12
ATOM     12  C   UNL     1      40.783  38.928  16.743  1.00  0.00    -0.000 C 
BRANCH  12  13
ATOM     13  C   UNL     1      39.750  39.684  17.593  1.00  0.00    -0.003 C 
ATOM     14  C   UNL     1      40.430  40.684  18.524  1.00  0.00     0.004 C 
ENDBRANCH  12  13
ENDBRANCH  11  12
ENDBRANCH  10  11
ENDBRANCH   9  10
ENDBRANCH   1   9
TORSDOF 10
ENDMDL
MODEL 6
REMARK VINA RESULT:    -2.012     24.058     26.725
REMARK INTER + INTRA:          -4.408
REMARK INTER:                  -3.705
REMARK INTRA:                  -0.702
REMARK UNBOUND:                -1.220
REMARK SMILES CCCCCCCCCCCC(=O)[O-]
REMARK SMILES IDX 7 1 8 2 9 3 10 4 11 5 12 6 13 7 14 8 6 9 5 10 4 11 3 12 2 13
REMARK SMILES IDX 1 14
REMARK H PARENT
REMARK Flexibility Score: inf
ROOT
ATOM      1  C   UNL     1      20.930  54.485  32.400  1.00  0.00     0.000 C 
ENDROOT
BRANCH   1   2
ATOM      2  C   UNL     1      21.827  55.114  31.325  1.00  0.00     0.000 C 
BRANCH   2   3
ATOM      3  C   UNL     1      21.200  55.076  29.919  1.00  0.00     0.000 C 
BRANCH   3   4
ATOM      4  C   UNL     1      22.168  54.692  28.785  1.00  0.00     0.006 C 
BRANCH   4   5
ATOM      5  C   UNL     1      22.820  53.319  28.996  1.00  0.00     0.053 C 
BRANCH   5   6
ATOM      6  C   UNL     1      23.543  52.889  27.758  1.00  0.00     0.041 C 
ATOM      7  O   UNL     1      23.968  53.749  26.942  1.00  0.00    -0.550 OA
ATOM      8  O   UNL     1      23.704  51.538  27.482  1.00  0.00    -0.550 OA
ENDBRANCH   5   6
ENDBRANCH   4   5
ENDBRANCH   3   4
ENDBRANCH   2   3
ENDBRANCH   1   2
BRANCH   1   9
ATOM      9  C   UNL     1      21.270  55.034  33.791  1.00  0.00     0.000 C 
BRANCH   9  10
ATOM     10  C   UNL     1      22.074  54.014  34.606  1.00  0.00    -0.000 C 
BRANCH  10  11
ATOM     11  C   UNL     1      23.262  54.685  35.310  1.00  0.00    -0.000 C 
BRANCH  11  12
ATOM     12  C   UNL     1      24.610  54.331  34.664  1.00  0.00    -0.000 C 
BRANCH  12  13
ATOM     13  C   UNL     1      24.876  55.124  33.376  1.00  0.00    -0.003 C 
ATOM     14  C   UNL     1      24.840  54.214  32.152  1.00  0.00     0.004 C 
ENDBRANCH  12  13
ENDBRANCH  11  12
ENDBRANCH  10  11
ENDBRANCH   9  10
ENDBRANCH   1   9
TORSDOF 10
ENDMDL
MODEL 7
REMARK VINA RESULT:    -1.885      1.978      4.093
REMARK INTER + INTRA:          -4.207
REMARK INTER:                  -3.519
REMARK INTRA:                  -0.688
REMARK UNBOUND:                -1.220
REMARK SMILES CCCCCCCCCCCC(=O)[O-]
REMARK SMILES IDX 7 1 8 2 9 3 10 4 11 5 12 6 13 7 14 8 6 9 5 10 4 11 3 12 2 13
REMARK SMILES IDX 1 14
REMARK H PARENT
REMARK Flexibility Score: inf
ROOT
ATOM      1  C   UNL     1      37.752  40.122  19.610  1.00  0.00     0.000 C 
ENDROOT
BRANCH   1   2
ATOM      2  C   UNL     1      37.015  39.004  20.362  1.00  0.00     0.000 C 
BRANCH   2   3
ATOM      3  C   UNL     1      37.415  37.595  19.889  1.00  0.00     0.000 C 
BRANCH   3   4
ATOM      4  C   UNL     1      37.767  36.606  21.016  1.00  0.00     0.006 C 
BRANCH   4   5
ATOM      5  C   UNL     1      38.158  35.219  20.492  1.00  0.00     0.053 C 
BRANCH   5   6
ATOM      6  C   UNL     1      38.926  35.341  19.214  1.00  0.00     0.041 C 
ATOM      7  O   UNL     1      38.428  34.926  18.134  1.00  0.00    -0.550 OA
ATOM      8  O   UNL     1      40.211  35.866  19.222  1.00  0.00    -0.550 OA
ENDBRANCH   5   6
ENDBRANCH   4   5
ENDBRANCH   3   4
ENDBRANCH   2   3
ENDBRANCH   1   2
BRANCH   1   9
ATOM      9  C   UNL     1      39.087  39.620  19.047  1.00  0.00     0.000 C 
BRANCH   9  10
ATOM     10  C   UNL     1      40.008  40.790  18.683  1.00  0.00    -0.000 C 
BRANCH  10  11
ATOM     11  C   UNL     1      40.949  40.411  17.530  1.00  0.00    -0.000 C 
BRANCH  11  12
ATOM     12  C   UNL     1      41.094  38.891  17.360  1.00  0.00    -0.000 C 
BRANCH  12  13
ATOM     13  C   UNL     1      40.843  38.431  15.916  1.00  0.00    -0.003 C 
ATOM     14  C   UNL     1      40.369  36.981  15.875  1.00  0.00     0.004 C 
ENDBRANCH  12  13
ENDBRANCH  11  12
ENDBRANCH  10  11
ENDBRANCH   9  10
ENDBRANCH   1   9
TORSDOF 10
ENDMDL
MODEL 8
REMARK VINA RESULT:    -1.772     24.066     26.394
REMARK INTER + INTRA:          -4.027
REMARK INTER:                  -3.776
REMARK INTRA:                  -0.251
REMARK UNBOUND:                -1.220
REMARK SMILES CCCCCCCCCCCC(=O)[O-]
REMARK SMILES IDX 7 1 8 2 9 3 10 4 11 5 12 6 13 7 14 8 6 9 5 10 4 11 3 12 2 13
REMARK SMILES IDX 1 14
REMARK H PARENT
REMARK Flexibility Score: inf
ROOT
ATOM      1  C   UNL     1      23.612  54.414  31.132  1.00  0.00     0.000 C 
ENDROOT
BRANCH   1   2
ATOM      2  C   UNL     1      23.481  55.104  32.497  1.00  0.00     0.000 C 
BRANCH   2   3
ATOM      3  C   UNL     1      24.473  54.564  33.543  1.00  0.00     0.000 C 
BRANCH   3   4
ATOM      4  C   UNL     1      24.159  54.952  35.000  1.00  0.00     0.006 C 
BRANCH   4   5
ATOM      5  C   UNL     1      23.270  53.925  35.712  1.00  0.00     0.053 C 
BRANCH   5   6
ATOM      6  C   UNL     1      21.826  54.195  35.426  1.00  0.00     0.041 C 
ATOM      7  O   UNL     1      21.186  55.025  36.125  1.00  0.00    -0.550 OA
ATOM      8  O   UNL     1      21.174  53.495  34.420  1.00  0.00    -0.550 OA
ENDBRANCH   5   6
ENDBRANCH   4   5
ENDBRANCH   3   4
ENDBRANCH   2   3
ENDBRANCH   1   2
BRANCH   1   9
ATOM      9  C   UNL     1      22.250  54.303  30.438  1.00  0.00     0.000 C 
BRANCH   9  10
ATOM     10  C   UNL     1      22.353  54.681  28.955  1.00  0.00    -0.000 C 
BRANCH  10  11
ATOM     11  C   UNL     1      23.359  53.780  28.226  1.00  0.00    -0.000 C 
BRANCH  11  12
ATOM     12  C   UNL     1      23.171  52.292  28.559  1.00  0.00    -0.000 C 
BRANCH  12  13
ATOM     13  C   UNL     1      23.418  51.379  27.349  1.00  0.00    -0.003 C 
ATOM     14  C   UNL     1      24.216  52.103  26.268  1.00  0.00     0.004 C 
ENDBRANCH  12  13
ENDBRANCH  11  12
ENDBRANCH  10  11
ENDBRANCH   9  10
ENDBRANCH   1   9
TORSDOF 10
ENDMDL
MODEL 9
REMARK VINA RESULT:    -1.706      1.918      4.120
REMARK INTER + INTRA:          -3.923
REMARK INTER:                  -3.194
REMARK INTRA:                  -0.729
REMARK UNBOUND:                -1.220
REMARK SMILES CCCCCCCCCCCC(=O)[O-]
REMARK SMILES IDX 7 1 8 2 9 3 10 4 11 5 12 6 13 7 14 8 6 9 5 10 4 11 3 12 2 13
REMARK SMILES IDX 1 14
REMARK H PARENT
REMARK Flexibility Score: inf
ROOT
ATOM      1  C   UNL     1      41.052  39.250  17.563  1.00  0.00     0.000 C 
ENDROOT
BRANCH   1   2
ATOM      2  C   UNL     1      40.411  38.676  16.291  1.00  0.00     0.000 C 
BRANCH   2   3
ATOM      3  C   UNL     1      40.982  37.303  15.896  1.00  0.00     0.000 C 
BRANCH   3   4
ATOM      4  C   UNL     1      40.125  36.096  16.318  1.00  0.00     0.006 C 
BRANCH   4   5
ATOM      5  C   UNL     1      40.567  35.488  17.655  1.00  0.00     0.053 C 
BRANCH   5   6
ATOM      6  C   UNL     1      39.375  35.115  18.479  1.00  0.00     0.041 C 
ATOM      7  O   UNL     1      39.505  34.877  19.709  1.00  0.00    -0.550 OA
ATOM      8  O   UNL     1      38.130  34.983  17.880  1.00  0.00    -0.550 OA
ENDBRANCH   5   6
ENDBRANCH   4   5
ENDBRANCH   3   4
ENDBRANCH   2   3
ENDBRANCH   1   2
BRANCH   1   9
ATOM      9  C   UNL     1      40.969  40.781  17.578  1.00  0.00     0.000 C 
BRANCH   9  10
ATOM     10  C   UNL     1      40.116  41.277  18.752  1.00  0.00    -0.000 C 
BRANCH  10  11
ATOM     11  C   UNL     1      39.329  40.121  19.387  1.00  0.00    -0.000 C 
BRANCH  11  12
ATOM     12  C   UNL     1      37.811  40.262  19.193  1.00  0.00    -0.000 C 
BRANCH  12  13
ATOM     13  C   UNL     1      37.010  39.288  20.070  1.00  0.00    -0.003 C 
ATOM     14  C   UNL     1      37.681  37.919  20.125  1.00  0.00     0.004 C 
ENDBRANCH  12  13
ENDBRANCH  11  12
ENDBRANCH  10  11
ENDBRANCH   9  10
ENDBRANCH   1   9
TORSDOF 10
ENDMDL
