MODEL 1
REMARK VINA RESULT:    -5.034      0.000      0.000
REMARK INTER + INTRA:          -5.906
REMARK INTER:                  -5.770
REMARK INTRA:                  -0.136
REMARK UNBOUND:                -0.136
REMARK SMILES O=C([O-])C=Cc1ccc(O)cc1
REMARK SMILES IDX 6 1 7 2 12 3 8 4 11 5 9 6 5 7 4 8 2 9 1 10 3 11 10 12
REMARK H PARENT 10 13
REMARK Flexibility Score: inf
ROOT
ATOM      1  C   UNL     1       4.244 -14.775   6.944  1.00  0.00    -0.025 A 
ATOM      2  C   UNL     1       3.797 -14.010   8.033  1.00  0.00     0.012 A 
ATOM      3  C   UNL     1       3.505 -15.915   6.565  1.00  0.00     0.012 A 
ATOM      4  C   UNL     1       2.655 -14.386   8.746  1.00  0.00     0.047 A 
ATOM      5  C   UNL     1       2.363 -16.287   7.280  1.00  0.00     0.047 A 
ATOM      6  C   UNL     1       1.936 -15.525   8.374  1.00  0.00     0.115 A 
ENDROOT
BRANCH   1   7
ATOM      7  C   UNL     1       5.457 -14.331   6.213  1.00  0.00     0.010 C 
ATOM      8  C   UNL     1       6.634 -14.969   6.263  1.00  0.00     0.025 C 
BRANCH   8   9
ATOM      9  C   UNL     1       7.813 -14.483   5.529  1.00  0.00     0.064 C 
ATOM     10  O   UNL     1       7.972 -13.247   5.356  1.00  0.00    -0.545 OA
ATOM     11  O   UNL     1       8.760 -15.368   5.025  1.00  0.00    -0.545 OA
ENDBRANCH   8   9
ENDBRANCH   1   7
BRANCH   6  12
ATOM     12  O   UNL     1       0.800 -15.888   9.094  1.00  0.00    -0.508 OA
ATOM     13  H   UNL     1       0.575 -15.455   9.982  1.00  0.00     0.293 HD
ENDBRANCH   6  12
TORSDOF 3
ENDMDL
MODEL 2
REMARK VINA RESULT:    -5.022      0.083      1.400
REMARK INTER + INTRA:          -5.892
REMARK INTER:                  -5.755
REMARK INTRA:                  -0.137
REMARK UNBOUND:                -0.136
REMARK SMILES O=C([O-])C=Cc1ccc(O)cc1
REMARK SMILES IDX 6 1 7 2 12 3 8 4 11 5 9 6 5 7 4 8 2 9 1 10 3 11 10 12
REMARK H PARENT 10 13
REMARK Flexibility Score: inf
ROOT
ATOM      1  C   UNL     1       4.193 -14.742   6.932  1.00  0.00    -0.025 A 
ATOM      2  C   UNL     1       3.487 -15.891   6.540  1.00  0.00     0.012 A 
ATOM      3  C   UNL     1       3.747 -14.022   8.060  1.00  0.00     0.012 A 
ATOM      4  C   UNL     1       2.348 -16.300   7.239  1.00  0.00     0.047 A 
ATOM      5  C   UNL     1       2.608 -14.435   8.757  1.00  0.00     0.047 A 
ATOM      6  C   UNL     1       1.904 -15.574   8.347  1.00  0.00     0.115 A 
ENDROOT
BRANCH   1   7
ATOM      7  C   UNL     1       5.401 -14.353   6.162  1.00  0.00     0.010 C 
ATOM      8  C   UNL     1       6.617 -14.876   6.370  1.00  0.00     0.025 C 
BRANCH   8   9
ATOM      9  C   UNL     1       7.790 -14.451   5.590  1.00  0.00     0.064 C 
ATOM     10  O   UNL     1       8.008 -13.223   5.415  1.00  0.00    -0.545 OA
ATOM     11  O   UNL     1       8.665 -15.383   5.044  1.00  0.00    -0.545 OA
ENDBRANCH   8   9
ENDBRANCH   1   7
BRANCH   6  12
ATOM     12  O   UNL     1       0.767 -15.993   9.035  1.00  0.00    -0.508 OA
ATOM     13  H   UNL     1       0.719 -15.960  10.047  1.00  0.00     0.293 HD
ENDBRANCH   6  12
TORSDOF 3
ENDMDL
MODEL 3
REMARK VINA RESULT:    -4.950      3.238      6.810
REMARK INTER + INTRA:          -5.810
REMARK INTER:                  -5.668
REMARK INTRA:                  -0.142
REMARK UNBOUND:                -0.136
REMARK SMILES O=C([O-])C=Cc1ccc(O)cc1
REMARK SMILES IDX 6 1 7 2 12 3 8 4 11 5 9 6 5 7 4 8 2 9 1 10 3 11 10 12
REMARK H PARENT 10 13
REMARK Flexibility Score: inf
ROOT
ATOM      1  C   UNL     1       9.049 -15.780   6.225  1.00  0.00    -0.025 A 
ATOM      2  C   UNL     1      10.180 -15.349   5.512  1.00  0.00     0.012 A 
ATOM      3  C   UNL     1       9.204 -16.790   7.198  1.00  0.00     0.012 A 
ATOM      4  C   UNL     1      11.431 -15.927   5.742  1.00  0.00     0.047 A 
ATOM      5  C   UNL     1      10.457 -17.365   7.426  1.00  0.00     0.047 A 
ATOM      6  C   UNL     1      11.574 -16.937   6.697  1.00  0.00     0.115 A 
ENDROOT
BRANCH   1   7
ATOM      7  C   UNL     1       7.744 -15.129   5.950  1.00  0.00     0.010 C 
ATOM      8  C   UNL     1       6.850 -14.822   6.899  1.00  0.00     0.025 C 
BRANCH   8   9
ATOM      9  C   UNL     1       5.562 -14.187   6.578  1.00  0.00     0.064 C 
ATOM     10  O   UNL     1       5.434 -13.555   5.497  1.00  0.00    -0.545 OA
ATOM     11  O   UNL     1       4.482 -14.274   7.449  1.00  0.00    -0.545 OA
ENDBRANCH   8   9
ENDBRANCH   1   7
BRANCH   6  12
ATOM     12  O   UNL     1      12.827 -17.505   6.918  1.00  0.00    -0.508 OA
ATOM     13  H   UNL     1      12.929 -18.480   7.175  1.00  0.00     0.293 HD
ENDBRANCH   6  12
TORSDOF 3
ENDMDL
MODEL 4
REMARK VINA RESULT:    -4.816      2.841      4.054
REMARK INTER + INTRA:          -5.656
REMARK INTER:                  -5.502
REMARK INTRA:                  -0.154
REMARK UNBOUND:                -0.136
REMARK SMILES O=C([O-])C=Cc1ccc(O)cc1
REMARK SMILES IDX 6 1 7 2 12 3 8 4 11 5 9 6 5 7 4 8 2 9 1 10 3 11 10 12
REMARK H PARENT 10 13
REMARK Flexibility Score: inf
ROOT
ATOM      1  C   UNL     1       7.793 -15.072   6.319  1.00  0.00    -0.025 A 
ATOM      2  C   UNL     1       7.203 -15.512   7.515  1.00  0.00     0.012 A 
ATOM      3  C   UNL     1       7.075 -14.181   5.494  1.00  0.00     0.012 A 
ATOM      4  C   UNL     1       5.917 -15.095   7.871  1.00  0.00     0.047 A 
ATOM      5  C   UNL     1       5.790 -13.766   5.853  1.00  0.00     0.047 A 
ATOM      6  C   UNL     1       5.206 -14.224   7.041  1.00  0.00     0.115 A 
ENDROOT
BRANCH   1   7
ATOM      7  C   UNL     1       9.164 -15.536   5.990  1.00  0.00     0.010 C 
ATOM      8  C   UNL     1       9.963 -16.174   6.856  1.00  0.00     0.025 C 
BRANCH   8   9
ATOM      9  C   UNL     1      11.321 -16.605   6.488  1.00  0.00     0.064 C 
ATOM     10  O   UNL     1      11.822 -16.219   5.400  1.00  0.00    -0.545 OA
ATOM     11  O   UNL     1      12.063 -17.431   7.325  1.00  0.00    -0.545 OA
ENDBRANCH   8   9
ENDBRANCH   1   7
BRANCH   6  12
ATOM     12  O   UNL     1       3.925 -13.816   7.407  1.00  0.00    -0.508 OA
ATOM     13  H   UNL     1       3.748 -13.359   8.294  1.00  0.00     0.293 HD
ENDBRANCH   6  12
TORSDOF 3
ENDMDL
MODEL 5
REMARK VINA RESULT:    -4.699      1.059      5.770
REMARK INTER + INTRA:          -5.522
REMARK INTER:                  -5.373
REMARK INTRA:                  -0.148
REMARK UNBOUND:                -0.136
REMARK SMILES O=C([O-])C=Cc1ccc(O)cc1
REMARK SMILES IDX 6 1 7 2 12 3 8 4 11 5 9 6 5 7 4 8 2 9 1 10 3 11 10 12
REMARK H PARENT 10 13
REMARK Flexibility Score: inf
ROOT
ATOM      1  C   UNL     1       5.257 -14.417   6.827  1.00  0.00    -0.025 A 
ATOM      2  C   UNL     1       6.222 -15.284   7.365  1.00  0.00     0.012 A 
ATOM      3  C   UNL     1       5.604 -13.616   5.720  1.00  0.00     0.012 A 
ATOM      4  C   UNL     1       7.512 -15.333   6.830  1.00  0.00     0.047 A 
ATOM      5  C   UNL     1       6.895 -13.668   5.187  1.00  0.00     0.047 A 
ATOM      6  C   UNL     1       7.854 -14.524   5.742  1.00  0.00     0.115 A 
ENDROOT
BRANCH   1   7
ATOM      7  C   UNL     1       3.898 -14.409   7.424  1.00  0.00     0.010 C 
ATOM      8  C   UNL     1       3.291 -15.499   7.911  1.00  0.00     0.025 C 
BRANCH   8   9
ATOM      9  C   UNL     1       1.936 -15.444   8.484  1.00  0.00     0.064 C 
ATOM     10  O   UNL     1       1.618 -14.486   9.236  1.00  0.00    -0.545 OA
ATOM     11  O   UNL     1       0.999 -16.433   8.206  1.00  0.00    -0.545 OA
ENDBRANCH   8   9
ENDBRANCH   1   7
BRANCH   6  12
ATOM     12  O   UNL     1       9.144 -14.583   5.218  1.00  0.00    -0.508 OA
ATOM     13  H   UNL     1       9.326 -14.973   4.301  1.00  0.00     0.293 HD
ENDBRANCH   6  12
TORSDOF 3
ENDMDL
MODEL 6
REMARK VINA RESULT:    -4.683      1.510      2.088
REMARK INTER + INTRA:          -5.503
REMARK INTER:                  -5.360
REMARK INTRA:                  -0.144
REMARK UNBOUND:                -0.136
REMARK SMILES O=C([O-])C=Cc1ccc(O)cc1
REMARK SMILES IDX 6 1 7 2 12 3 8 4 11 5 9 6 5 7 4 8 2 9 1 10 3 11 10 12
REMARK H PARENT 10 13
REMARK Flexibility Score: inf
ROOT
ATOM      1  C   UNL     1       2.739 -15.167   7.979  1.00  0.00    -0.025 A 
ATOM      2  C   UNL     1       1.972 -14.655   9.038  1.00  0.00     0.012 A 
ATOM      3  C   UNL     1       2.219 -16.235   7.217  1.00  0.00     0.012 A 
ATOM      4  C   UNL     1       0.727 -15.209   9.349  1.00  0.00     0.047 A 
ATOM      5  C   UNL     1       0.973 -16.786   7.531  1.00  0.00     0.047 A 
ATOM      6  C   UNL     1       0.225 -16.276   8.600  1.00  0.00     0.115 A 
ENDROOT
BRANCH   1   7
ATOM      7  C   UNL     1       4.051 -14.539   7.682  1.00  0.00     0.010 C 
ATOM      8  C   UNL     1       4.622 -14.543   6.470  1.00  0.00     0.025 C 
BRANCH   8   9
ATOM      9  C   UNL     1       5.930 -13.917   6.225  1.00  0.00     0.064 C 
ATOM     10  O   UNL     1       6.705 -13.698   7.193  1.00  0.00    -0.545 OA
ATOM     11  O   UNL     1       6.329 -13.564   4.941  1.00  0.00    -0.545 OA
ENDBRANCH   8   9
ENDBRANCH   1   7
BRANCH   6  12
ATOM     12  O   UNL     1      -1.017 -16.819   8.920  1.00  0.00    -0.508 OA
ATOM     13  H   UNL     1      -1.594 -17.272   8.221  1.00  0.00     0.293 HD
ENDBRANCH   6  12
TORSDOF 3
ENDMDL
MODEL 7
REMARK VINA RESULT:    -4.661      1.280      5.763
REMARK INTER + INTRA:          -5.478
REMARK INTER:                  -5.327
REMARK INTRA:                  -0.151
REMARK UNBOUND:                -0.136
REMARK SMILES O=C([O-])C=Cc1ccc(O)cc1
REMARK SMILES IDX 6 1 7 2 12 3 8 4 11 5 9 6 5 7 4 8 2 9 1 10 3 11 10 12
REMARK H PARENT 10 13
REMARK Flexibility Score: inf
ROOT
ATOM      1  C   UNL     1       5.113 -14.899   7.524  1.00  0.00    -0.025 A 
ATOM      2  C   UNL     1       4.813 -13.991   6.495  1.00  0.00     0.012 A 
ATOM      3  C   UNL     1       6.410 -15.448   7.589  1.00  0.00     0.012 A 
ATOM      4  C   UNL     1       5.775 -13.657   5.537  1.00  0.00     0.047 A 
ATOM      5  C   UNL     1       7.370 -15.111   6.630  1.00  0.00     0.047 A 
ATOM      6  C   UNL     1       7.054 -14.217   5.599  1.00  0.00     0.115 A 
ENDROOT
BRANCH   1   7
ATOM      7  C   UNL     1       4.061 -15.214   8.522  1.00  0.00     0.010 C 
ATOM      8  C   UNL     1       2.759 -14.957   8.340  1.00  0.00     0.025 C 
BRANCH   8   9
ATOM      9  C   UNL     1       1.752 -15.277   9.365  1.00  0.00     0.064 C 
ATOM     10  O   UNL     1       0.718 -14.566   9.463  1.00  0.00    -0.545 OA
ATOM     11  O   UNL     1       1.922 -16.354  10.226  1.00  0.00    -0.545 OA
ENDBRANCH   8   9
ENDBRANCH   1   7
BRANCH   6  12
ATOM     12  O   UNL     1       8.003 -13.876   4.638  1.00  0.00    -0.508 OA
ATOM     13  H   UNL     1       8.598 -14.575   4.210  1.00  0.00     0.293 HD
ENDBRANCH   6  12
TORSDOF 3
ENDMDL
MODEL 8
REMARK VINA RESULT:    -4.618      4.109      6.119
REMARK INTER + INTRA:          -5.429
REMARK INTER:                  -5.292
REMARK INTRA:                  -0.137
REMARK UNBOUND:                -0.136
REMARK SMILES O=C([O-])C=Cc1ccc(O)cc1
REMARK SMILES IDX 6 1 7 2 12 3 8 4 11 5 9 6 5 7 4 8 2 9 1 10 3 11 10 12
REMARK H PARENT 10 13
REMARK Flexibility Score: inf
ROOT
ATOM      1  C   UNL     1       9.767 -15.157   5.790  1.00  0.00    -0.025 A 
ATOM      2  C   UNL     1       8.622 -15.751   6.347  1.00  0.00     0.012 A 
ATOM      3  C   UNL     1       9.632 -13.934   5.101  1.00  0.00     0.012 A 
ATOM      4  C   UNL     1       7.367 -15.154   6.198  1.00  0.00     0.047 A 
ATOM      5  C   UNL     1       8.376 -13.340   4.955  1.00  0.00     0.047 A 
ATOM      6  C   UNL     1       7.239 -13.949   5.501  1.00  0.00     0.115 A 
ENDROOT
BRANCH   1   7
ATOM      7  C   UNL     1      11.079 -15.825   5.983  1.00  0.00     0.010 C 
ATOM      8  C   UNL     1      12.173 -15.201   6.439  1.00  0.00     0.025 C 
BRANCH   8   9
ATOM      9  C   UNL     1      13.457 -15.902   6.602  1.00  0.00     0.064 C 
ATOM     10  O   UNL     1      14.469 -15.501   5.970  1.00  0.00    -0.545 OA
ATOM     11  O   UNL     1      13.573 -16.999   7.448  1.00  0.00    -0.545 OA
ENDBRANCH   8   9
ENDBRANCH   1   7
BRANCH   6  12
ATOM     12  O   UNL     1       5.982 -13.365   5.361  1.00  0.00    -0.508 OA
ATOM     13  H   UNL     1       5.287 -13.750   4.732  1.00  0.00     0.293 HD
ENDBRANCH   6  12
TORSDOF 3
ENDMDL
MODEL 9
REMARK VINA RESULT:    -4.538      2.299      6.254
REMARK INTER + INTRA:          -5.337
REMARK INTER:                  -5.197
REMARK INTRA:                  -0.139
REMARK UNBOUND:                -0.136
REMARK SMILES O=C([O-])C=Cc1ccc(O)cc1
REMARK SMILES IDX 6 1 7 2 12 3 8 4 11 5 9 6 5 7 4 8 2 9 1 10 3 11 10 12
REMARK H PARENT 10 13
REMARK Flexibility Score: inf
ROOT
ATOM      1  C   UNL     1       7.524 -15.543   6.942  1.00  0.00    -0.025 A 
ATOM      2  C   UNL     1       8.406 -16.310   7.720  1.00  0.00     0.012 A 
ATOM      3  C   UNL     1       7.984 -15.012   5.719  1.00  0.00     0.012 A 
ATOM      4  C   UNL     1       9.723 -16.522   7.304  1.00  0.00     0.047 A 
ATOM      5  C   UNL     1       9.301 -15.227   5.305  1.00  0.00     0.047 A 
ATOM      6  C   UNL     1      10.176 -15.980   6.098  1.00  0.00     0.115 A 
ENDROOT
BRANCH   1   7
ATOM      7  C   UNL     1       6.133 -15.354   7.423  1.00  0.00     0.010 C 
ATOM      8  C   UNL     1       5.067 -15.291   6.614  1.00  0.00     0.025 C 
BRANCH   8   9
ATOM      9  C   UNL     1       3.706 -15.090   7.135  1.00  0.00     0.064 C 
ATOM     10  O   UNL     1       2.818 -15.952   6.902  1.00  0.00    -0.545 OA
ATOM     11  O   UNL     1       3.383 -13.965   7.885  1.00  0.00    -0.545 OA
ENDBRANCH   8   9
ENDBRANCH   1   7
BRANCH   6  12
ATOM     12  O   UNL     1      11.491 -16.200   5.694  1.00  0.00    -0.508 OA
ATOM     13  H   UNL     1      11.711 -16.530   4.762  1.00  0.00     0.293 HD
ENDBRANCH   6  12
TORSDOF 3
ENDMDL
