MODEL 1
REMARK VINA RESULT:    -3.930      0.000      0.000
REMARK INTER + INTRA:          -7.769
REMARK INTER:                  -7.146
REMARK INTRA:                  -0.623
REMARK UNBOUND:                -0.623
REMARK SMILES CCCCCCCCCCCCCCCC(=O)[O-]
REMARK SMILES IDX 9 1 10 2 11 3 12 4 13 5 14 6 15 7 16 8 17 9 18 10 8 11 7 12
REMARK SMILES IDX 6 13 5 14 4 15 3 16 2 17 1 18
REMARK H PARENT
REMARK Flexibility Score: inf
ROOT
ATOM      1  C   UNL     1      21.536 -26.247  13.911  1.00  0.00     0.000 C 
ENDROOT
BRANCH   1   2
ATOM      2  C   UNL     1      20.468 -25.673  12.963  1.00  0.00     0.000 C 
BRANCH   2   3
ATOM      3  C   UNL     1      20.108 -24.216  13.296  1.00  0.00     0.000 C 
BRANCH   3   4
ATOM      4  C   UNL     1      20.325 -23.881  14.782  1.00  0.00     0.000 C 
BRANCH   4   5
ATOM      5  C   UNL     1      20.840 -22.447  15.005  1.00  0.00     0.000 C 
BRANCH   5   6
ATOM      6  C   UNL     1      20.035 -21.347  14.291  1.00  0.00     0.006 C 
BRANCH   6   7
ATOM      7  C   UNL     1      19.454 -20.308  15.260  1.00  0.00     0.053 C 
BRANCH   7   8
ATOM      8  C   UNL     1      19.972 -18.943  14.933  1.00  0.00     0.041 C 
ATOM      9  O   UNL     1      20.274 -18.647  13.747  1.00  0.00    -0.550 OA
ATOM     10  O   UNL     1      20.169 -18.013  15.946  1.00  0.00    -0.550 OA
ENDBRANCH   7   8
ENDBRANCH   6   7
ENDBRANCH   5   6
ENDBRANCH   4   5
ENDBRANCH   3   4
ENDBRANCH   2   3
ENDBRANCH   1   2
BRANCH   1  11
ATOM     11  C   UNL     1      21.892 -27.710  13.591  1.00  0.00     0.000 C 
BRANCH  11  12
ATOM     12  C   UNL     1      20.763 -28.533  12.938  1.00  0.00    -0.000 C 
BRANCH  12  13
ATOM     13  C   UNL     1      20.367 -29.814  13.695  1.00  0.00    -0.000 C 
BRANCH  13  14
ATOM     14  C   UNL     1      19.149 -30.518  13.079  1.00  0.00    -0.000 C 
BRANCH  14  15
ATOM     15  C   UNL     1      18.826 -31.816  13.836  1.00  0.00    -0.000 C 
BRANCH  15  16
ATOM     16  C   UNL     1      17.333 -32.177  13.785  1.00  0.00    -0.000 C 
BRANCH  16  17
ATOM     17  C   UNL     1      16.520 -31.486  14.890  1.00  0.00    -0.003 C 
ATOM     18  C   UNL     1      15.146 -31.063  14.378  1.00  0.00     0.004 C 
ENDBRANCH  16  17
ENDBRANCH  15  16
ENDBRANCH  14  15
ENDBRANCH  13  14
ENDBRANCH  12  13
ENDBRANCH  11  12
ENDBRANCH   1  11
TORSDOF 14
ENDMDL
MODEL 2
REMARK VINA RESULT:    -3.519     13.060     15.034
REMARK INTER + INTRA:          -7.022
REMARK INTER:                  -5.215
REMARK INTRA:                  -1.806
REMARK UNBOUND:                -0.623
REMARK SMILES CCCCCCCCCCCCCCCC(=O)[O-]
REMARK SMILES IDX 9 1 10 2 11 3 12 4 13 5 14 6 15 7 16 8 17 9 18 10 8 11 7 12
REMARK SMILES IDX 6 13 5 14 4 15 3 16 2 17 1 18
REMARK H PARENT
REMARK Flexibility Score: inf
ROOT
ATOM      1  C   UNL     1       9.473 -35.427  14.097  1.00  0.00     0.000 C 
ENDROOT
BRANCH   1   2
ATOM      2  C   UNL     1       9.889 -34.106  13.426  1.00  0.00     0.000 C 
BRANCH   2   3
ATOM      3  C   UNL     1       8.823 -33.008  13.579  1.00  0.00     0.000 C 
BRANCH   3   4
ATOM      4  C   UNL     1       7.627 -33.464  14.434  1.00  0.00     0.000 C 
BRANCH   4   5
ATOM      5  C   UNL     1       7.497 -32.678  15.751  1.00  0.00     0.000 C 
BRANCH   5   6
ATOM      6  C   UNL     1       8.616 -32.934  16.777  1.00  0.00     0.006 C 
BRANCH   6   7
ATOM      7  C   UNL     1       8.324 -32.311  18.148  1.00  0.00     0.053 C 
BRANCH   7   8
ATOM      8  C   UNL     1       9.502 -31.518  18.621  1.00  0.00     0.041 C 
ATOM      9  O   UNL     1      10.230 -30.909  17.794  1.00  0.00    -0.550 OA
ATOM     10  O   UNL     1       9.825 -31.492  19.972  1.00  0.00    -0.550 OA
ENDBRANCH   7   8
ENDBRANCH   6   7
ENDBRANCH   5   6
ENDBRANCH   4   5
ENDBRANCH   3   4
ENDBRANCH   2   3
ENDBRANCH   1   2
BRANCH   1  11
ATOM     11  C   UNL     1       9.073 -36.511  13.080  1.00  0.00     0.000 C 
BRANCH  11  12
ATOM     12  C   UNL     1       7.571 -36.861  13.049  1.00  0.00    -0.000 C 
BRANCH  12  13
ATOM     13  C   UNL     1       7.054 -37.627  14.281  1.00  0.00    -0.000 C 
BRANCH  13  14
ATOM     14  C   UNL     1       5.908 -36.897  14.998  1.00  0.00    -0.000 C 
BRANCH  14  15
ATOM     15  C   UNL     1       6.076 -36.981  16.524  1.00  0.00    -0.000 C 
BRANCH  15  16
ATOM     16  C   UNL     1       7.227 -36.105  17.042  1.00  0.00    -0.000 C 
BRANCH  16  17
ATOM     17  C   UNL     1       7.601 -36.421  18.498  1.00  0.00    -0.003 C 
ATOM     18  C   UNL     1       7.324 -37.885  18.830  1.00  0.00     0.004 C 
ENDBRANCH  16  17
ENDBRANCH  15  16
ENDBRANCH  14  15
ENDBRANCH  13  14
ENDBRANCH  12  13
ENDBRANCH  11  12
ENDBRANCH   1  11
TORSDOF 14
ENDMDL
MODEL 3
REMARK VINA RESULT:    -3.334     13.419     16.067
REMARK INTER + INTRA:          -6.686
REMARK INTER:                  -5.103
REMARK INTRA:                  -1.583
REMARK UNBOUND:                -0.623
REMARK SMILES CCCCCCCCCCCCCCCC(=O)[O-]
REMARK SMILES IDX 9 1 10 2 11 3 12 4 13 5 14 6 15 7 16 8 17 9 18 10 8 11 7 12
REMARK SMILES IDX 6 13 5 14 4 15 3 16 2 17 1 18
REMARK H PARENT
REMARK Flexibility Score: inf
ROOT
ATOM      1  C   UNL     1      10.291 -35.178  13.738  1.00  0.00     0.000 C 
ENDROOT
BRANCH   1   2
ATOM      2  C   UNL     1       9.901 -36.392  12.875  1.00  0.00     0.000 C 
BRANCH   2   3
ATOM      3  C   UNL     1       8.561 -37.011  13.304  1.00  0.00     0.000 C 
BRANCH   3   4
ATOM      4  C   UNL     1       7.372 -36.062  13.070  1.00  0.00     0.000 C 
BRANCH   4   5
ATOM      5  C   UNL     1       6.140 -36.425  13.919  1.00  0.00     0.000 C 
BRANCH   5   6
ATOM      6  C   UNL     1       6.006 -35.649  15.241  1.00  0.00     0.006 C 
BRANCH   6   7
ATOM      7  C   UNL     1       6.220 -36.534  16.477  1.00  0.00     0.053 C 
BRANCH   7   8
ATOM      8  C   UNL     1       7.432 -36.089  17.234  1.00  0.00     0.041 C 
ATOM      9  O   UNL     1       7.465 -36.184  18.489  1.00  0.00    -0.550 OA
ATOM     10  O   UNL     1       8.505 -35.523  16.557  1.00  0.00    -0.550 OA
ENDBRANCH   7   8
ENDBRANCH   6   7
ENDBRANCH   5   6
ENDBRANCH   4   5
ENDBRANCH   3   4
ENDBRANCH   2   3
ENDBRANCH   1   2
BRANCH   1  11
ATOM     11  C   UNL     1      10.612 -33.929  12.899  1.00  0.00     0.000 C 
BRANCH  11  12
ATOM     12  C   UNL     1       9.864 -32.647  13.315  1.00  0.00    -0.000 C 
BRANCH  12  13
ATOM     13  C   UNL     1       8.568 -32.878  14.115  1.00  0.00    -0.000 C 
BRANCH  13  14
ATOM     14  C   UNL     1       8.704 -32.491  15.595  1.00  0.00    -0.000 C 
BRANCH  14  15
ATOM     15  C   UNL     1       7.333 -32.494  16.290  1.00  0.00    -0.000 C 
BRANCH  15  16
ATOM     16  C   UNL     1       7.444 -32.427  17.821  1.00  0.00    -0.000 C 
BRANCH  16  17
ATOM     17  C   UNL     1       8.899 -32.478  18.311  1.00  0.00    -0.003 C 
ATOM     18  C   UNL     1       9.306 -31.159  18.962  1.00  0.00     0.004 C 
ENDBRANCH  16  17
ENDBRANCH  15  16
ENDBRANCH  14  15
ENDBRANCH  13  14
ENDBRANCH  12  13
ENDBRANCH  11  12
ENDBRANCH   1  11
TORSDOF 14
ENDMDL
MODEL 4
REMARK VINA RESULT:    -3.259     12.762     15.503
REMARK INTER + INTRA:          -6.550
REMARK INTER:                  -4.932
REMARK INTRA:                  -1.618
REMARK UNBOUND:                -0.623
REMARK SMILES CCCCCCCCCCCCCCCC(=O)[O-]
REMARK SMILES IDX 9 1 10 2 11 3 12 4 13 5 14 6 15 7 16 8 17 9 18 10 8 11 7 12
REMARK SMILES IDX 6 13 5 14 4 15 3 16 2 17 1 18
REMARK H PARENT
REMARK Flexibility Score: inf
ROOT
ATOM      1  C   UNL     1       6.726 -36.345  16.993  1.00  0.00     0.000 C 
ENDROOT
BRANCH   1   2
ATOM      2  C   UNL     1       5.882 -35.243  16.329  1.00  0.00     0.000 C 
BRANCH   2   3
ATOM      3  C   UNL     1       6.736 -34.266  15.503  1.00  0.00     0.000 C 
BRANCH   3   4
ATOM      4  C   UNL     1       6.488 -32.797  15.889  1.00  0.00     0.000 C 
BRANCH   4   5
ATOM      5  C   UNL     1       6.370 -32.589  17.410  1.00  0.00     0.000 C 
BRANCH   5   6
ATOM      6  C   UNL     1       7.680 -32.765  18.197  1.00  0.00     0.006 C 
BRANCH   6   7
ATOM      7  C   UNL     1       8.921 -32.363  17.390  1.00  0.00     0.053 C 
BRANCH   7   8
ATOM      8  C   UNL     1       9.727 -31.351  18.141  1.00  0.00     0.041 C 
ATOM      9  O   UNL     1       9.516 -31.156  19.367  1.00  0.00    -0.550 OA
ATOM     10  O   UNL     1      10.678 -30.586  17.477  1.00  0.00    -0.550 OA
ENDBRANCH   7   8
ENDBRANCH   6   7
ENDBRANCH   5   6
ENDBRANCH   4   5
ENDBRANCH   3   4
ENDBRANCH   2   3
ENDBRANCH   1   2
BRANCH   1  11
ATOM     11  C   UNL     1       6.178 -37.758  16.726  1.00  0.00     0.000 C 
BRANCH  11  12
ATOM     12  C   UNL     1       5.897 -38.084  15.245  1.00  0.00    -0.000 C 
BRANCH  12  13
ATOM     13  C   UNL     1       7.110 -37.956  14.306  1.00  0.00    -0.000 C 
BRANCH  13  14
ATOM     14  C   UNL     1       6.838 -37.041  13.102  1.00  0.00    -0.000 C 
BRANCH  14  15
ATOM     15  C   UNL     1       8.009 -36.072  12.875  1.00  0.00    -0.000 C 
BRANCH  15  16
ATOM     16  C   UNL     1       9.166 -36.299  13.861  1.00  0.00    -0.000 C 
BRANCH  16  17
ATOM     17  C   UNL     1      10.334 -35.328  13.636  1.00  0.00    -0.003 C 
ATOM     18  C   UNL     1       9.864 -33.878  13.705  1.00  0.00     0.004 C 
ENDBRANCH  16  17
ENDBRANCH  15  16
ENDBRANCH  14  15
ENDBRANCH  13  14
ENDBRANCH  12  13
ENDBRANCH  11  12
ENDBRANCH   1  11
TORSDOF 14
ENDMDL
MODEL 5
REMARK VINA RESULT:    -3.107      8.796     13.510
REMARK INTER + INTRA:          -6.273
REMARK INTER:                  -5.242
REMARK INTRA:                  -1.031
REMARK UNBOUND:                -0.623
REMARK SMILES CCCCCCCCCCCCCCCC(=O)[O-]
REMARK SMILES IDX 9 1 10 2 11 3 12 4 13 5 14 6 15 7 16 8 17 9 18 10 8 11 7 12
REMARK SMILES IDX 6 13 5 14 4 15 3 16 2 17 1 18
REMARK H PARENT
REMARK Flexibility Score: inf
ROOT
ATOM      1  C   UNL     1       9.613 -35.047  14.547  1.00  0.00     0.000 C 
ENDROOT
BRANCH   1   2
ATOM      2  C   UNL     1       8.259 -35.754  14.361  1.00  0.00     0.000 C 
BRANCH   2   3
ATOM      3  C   UNL     1       7.280 -35.460  15.510  1.00  0.00     0.000 C 
BRANCH   3   4
ATOM      4  C   UNL     1       6.503 -34.148  15.298  1.00  0.00     0.000 C 
BRANCH   4   5
ATOM      5  C   UNL     1       6.588 -33.200  16.508  1.00  0.00     0.000 C 
BRANCH   5   6
ATOM      6  C   UNL     1       7.983 -32.607  16.777  1.00  0.00     0.006 C 
BRANCH   6   7
ATOM      7  C   UNL     1       8.316 -32.515  18.272  1.00  0.00     0.053 C 
BRANCH   7   8
ATOM      8  C   UNL     1       9.426 -31.538  18.499  1.00  0.00     0.041 C 
ATOM      9  O   UNL     1       9.632 -31.070  19.650  1.00  0.00    -0.550 OA
ATOM     10  O   UNL     1      10.202 -31.106  17.431  1.00  0.00    -0.550 OA
ENDBRANCH   7   8
ENDBRANCH   6   7
ENDBRANCH   5   6
ENDBRANCH   4   5
ENDBRANCH   3   4
ENDBRANCH   2   3
ENDBRANCH   1   2
BRANCH   1  11
ATOM     11  C   UNL     1       9.824 -33.894  13.550  1.00  0.00     0.000 C 
BRANCH  11  12
ATOM     12  C   UNL     1      10.300 -32.566  14.173  1.00  0.00    -0.000 C 
BRANCH  12  13
ATOM     13  C   UNL     1      11.565 -31.962  13.536  1.00  0.00    -0.000 C 
BRANCH  13  14
ATOM     14  C   UNL     1      12.492 -31.297  14.565  1.00  0.00    -0.000 C 
BRANCH  14  15
ATOM     15  C   UNL     1      13.822 -30.882  13.917  1.00  0.00    -0.000 C 
BRANCH  15  16
ATOM     16  C   UNL     1      15.043 -31.275  14.764  1.00  0.00    -0.000 C 
BRANCH  16  17
ATOM     17  C   UNL     1      16.337 -31.343  13.939  1.00  0.00    -0.003 C 
ATOM     18  C   UNL     1      17.435 -32.079  14.702  1.00  0.00     0.004 C 
ENDBRANCH  16  17
ENDBRANCH  15  16
ENDBRANCH  14  15
ENDBRANCH  13  14
ENDBRANCH  12  13
ENDBRANCH  11  12
ENDBRANCH   1  11
TORSDOF 14
ENDMDL
MODEL 6
REMARK VINA RESULT:    -3.057     10.973     15.980
REMARK INTER + INTRA:          -6.182
REMARK INTER:                  -4.909
REMARK INTRA:                  -1.273
REMARK UNBOUND:                -0.623
REMARK SMILES CCCCCCCCCCCCCCCC(=O)[O-]
REMARK SMILES IDX 9 1 10 2 11 3 12 4 13 5 14 6 15 7 16 8 17 9 18 10 8 11 7 12
REMARK SMILES IDX 6 13 5 14 4 15 3 16 2 17 1 18
REMARK H PARENT
REMARK Flexibility Score: inf
ROOT
ATOM      1  C   UNL     1       7.466 -36.129  14.034  1.00  0.00     0.000 C 
ENDROOT
BRANCH   1   2
ATOM      2  C   UNL     1       6.980 -37.588  14.085  1.00  0.00     0.000 C 
BRANCH   2   3
ATOM      3  C   UNL     1       5.918 -37.816  15.173  1.00  0.00     0.000 C 
BRANCH   3   4
ATOM      4  C   UNL     1       5.912 -36.700  16.233  1.00  0.00     0.000 C 
BRANCH   4   5
ATOM      5  C   UNL     1       6.912 -36.955  17.376  1.00  0.00     0.000 C 
BRANCH   5   6
ATOM      6  C   UNL     1       7.454 -35.689  18.063  1.00  0.00     0.006 C 
BRANCH   6   7
ATOM      7  C   UNL     1       7.885 -34.605  17.066  1.00  0.00     0.053 C 
BRANCH   7   8
ATOM      8  C   UNL     1       7.343 -33.272  17.478  1.00  0.00     0.041 C 
ATOM      9  O   UNL     1       6.785 -32.526  16.632  1.00  0.00    -0.550 OA
ATOM     10  O   UNL     1       7.499 -32.833  18.787  1.00  0.00    -0.550 OA
ENDBRANCH   7   8
ENDBRANCH   6   7
ENDBRANCH   5   6
ENDBRANCH   4   5
ENDBRANCH   3   4
ENDBRANCH   2   3
ENDBRANCH   1   2
BRANCH   1  11
ATOM     11  C   UNL     1       6.648 -35.263  13.060  1.00  0.00     0.000 C 
BRANCH  11  12
ATOM     12  C   UNL     1       6.624 -33.755  13.382  1.00  0.00    -0.000 C 
BRANCH  12  13
ATOM     13  C   UNL     1       7.845 -32.961  12.881  1.00  0.00    -0.000 C 
BRANCH  13  14
ATOM     14  C   UNL     1       9.008 -32.961  13.885  1.00  0.00    -0.000 C 
BRANCH  14  15
ATOM     15  C   UNL     1      10.177 -33.813  13.368  1.00  0.00    -0.000 C 
BRANCH  15  16
ATOM     16  C   UNL     1      11.472 -33.003  13.198  1.00  0.00    -0.000 C 
BRANCH  16  17
ATOM     17  C   UNL     1      11.474 -31.710  14.028  1.00  0.00    -0.003 C 
ATOM     18  C   UNL     1      12.898 -31.243  14.313  1.00  0.00     0.004 C 
ENDBRANCH  16  17
ENDBRANCH  15  16
ENDBRANCH  14  15
ENDBRANCH  13  14
ENDBRANCH  12  13
ENDBRANCH  11  12
ENDBRANCH   1  11
TORSDOF 14
ENDMDL
MODEL 7
REMARK VINA RESULT:    -2.950      9.428     14.522
REMARK INTER + INTRA:          -5.987
REMARK INTER:                  -4.791
REMARK INTRA:                  -1.197
REMARK UNBOUND:                -0.623
REMARK SMILES CCCCCCCCCCCCCCCC(=O)[O-]
REMARK SMILES IDX 9 1 10 2 11 3 12 4 13 5 14 6 15 7 16 8 17 9 18 10 8 11 7 12
REMARK SMILES IDX 6 13 5 14 4 15 3 16 2 17 1 18
REMARK H PARENT
REMARK Flexibility Score: inf
ROOT
ATOM      1  C   UNL     1       9.867 -34.802  14.163  1.00  0.00     0.000 C 
ENDROOT
BRANCH   1   2
ATOM      2  C   UNL     1       8.808 -35.817  13.699  1.00  0.00     0.000 C 
BRANCH   2   3
ATOM      3  C   UNL     1       7.548 -35.138  13.137  1.00  0.00     0.000 C 
BRANCH   3   4
ATOM      4  C   UNL     1       6.312 -35.364  14.025  1.00  0.00     0.000 C 
BRANCH   4   5
ATOM      5  C   UNL     1       6.646 -36.083  15.344  1.00  0.00     0.000 C 
BRANCH   5   6
ATOM      6  C   UNL     1       6.229 -35.332  16.622  1.00  0.00     0.006 C 
BRANCH   6   7
ATOM      7  C   UNL     1       7.424 -34.755  17.392  1.00  0.00     0.053 C 
BRANCH   7   8
ATOM      8  C   UNL     1       7.376 -33.259  17.384  1.00  0.00     0.041 C 
ATOM      9  O   UNL     1       6.890 -32.646  16.397  1.00  0.00    -0.550 OA
ATOM     10  O   UNL     1       7.913 -32.541  18.445  1.00  0.00    -0.550 OA
ENDBRANCH   7   8
ENDBRANCH   6   7
ENDBRANCH   5   6
ENDBRANCH   4   5
ENDBRANCH   3   4
ENDBRANCH   2   3
ENDBRANCH   1   2
BRANCH   1  11
ATOM     11  C   UNL     1       9.396 -33.344  14.022  1.00  0.00     0.000 C 
BRANCH  11  12
ATOM     12  C   UNL     1      10.331 -32.427  13.208  1.00  0.00    -0.000 C 
BRANCH  12  13
ATOM     13  C   UNL     1      11.821 -32.511  13.587  1.00  0.00    -0.000 C 
BRANCH  13  14
ATOM     14  C   UNL     1      12.287 -31.320  14.439  1.00  0.00    -0.000 C 
BRANCH  14  15
ATOM     15  C   UNL     1      13.626 -30.770  13.924  1.00  0.00    -0.000 C 
BRANCH  15  16
ATOM     16  C   UNL     1      14.827 -31.272  14.740  1.00  0.00    -0.000 C 
BRANCH  16  17
ATOM     17  C   UNL     1      16.122 -31.326  13.915  1.00  0.00    -0.003 C 
ATOM     18  C   UNL     1      17.236 -32.028  14.687  1.00  0.00     0.004 C 
ENDBRANCH  16  17
ENDBRANCH  15  16
ENDBRANCH  14  15
ENDBRANCH  13  14
ENDBRANCH  12  13
ENDBRANCH  11  12
ENDBRANCH   1  11
TORSDOF 14
ENDMDL
MODEL 8
REMARK VINA RESULT:    -2.898      8.438     13.078
REMARK INTER + INTRA:          -5.894
REMARK INTER:                  -4.769
REMARK INTRA:                  -1.124
REMARK UNBOUND:                -0.623
REMARK SMILES CCCCCCCCCCCCCCCC(=O)[O-]
REMARK SMILES IDX 9 1 10 2 11 3 12 4 13 5 14 6 15 7 16 8 17 9 18 10 8 11 7 12
REMARK SMILES IDX 6 13 5 14 4 15 3 16 2 17 1 18
REMARK H PARENT
REMARK Flexibility Score: inf
ROOT
ATOM      1  C   UNL     1       7.832 -32.902  12.894  1.00  0.00     0.000 C 
ENDROOT
BRANCH   1   2
ATOM      2  C   UNL     1       9.044 -33.577  13.561  1.00  0.00     0.000 C 
BRANCH   2   3
ATOM      3  C   UNL     1       9.997 -32.562  14.213  1.00  0.00     0.000 C 
BRANCH   3   4
ATOM      4  C   UNL     1      11.335 -32.444  13.460  1.00  0.00     0.000 C 
BRANCH   4   5
ATOM      5  C   UNL     1      12.194 -31.264  13.949  1.00  0.00     0.000 C 
BRANCH   5   6
ATOM      6  C   UNL     1      13.563 -31.652  14.536  1.00  0.00     0.006 C 
BRANCH   6   7
ATOM      7  C   UNL     1      14.698 -30.734  14.065  1.00  0.00     0.053 C 
BRANCH   7   8
ATOM      8  C   UNL     1      16.026 -31.383  14.302  1.00  0.00     0.041 C 
ATOM      9  O   UNL     1      16.463 -31.521  15.474  1.00  0.00    -0.550 OA
ATOM     10  O   UNL     1      16.803 -31.789  13.224  1.00  0.00    -0.550 OA
ENDBRANCH   7   8
ENDBRANCH   6   7
ENDBRANCH   5   6
ENDBRANCH   4   5
ENDBRANCH   3   4
ENDBRANCH   2   3
ENDBRANCH   1   2
BRANCH   1  11
ATOM     11  C   UNL     1       6.530 -33.701  13.076  1.00  0.00     0.000 C 
BRANCH  11  12
ATOM     12  C   UNL     1       6.028 -33.817  14.529  1.00  0.00    -0.000 C 
BRANCH  12  13
ATOM     13  C   UNL     1       5.960 -35.252  15.084  1.00  0.00    -0.000 C 
BRANCH  13  14
ATOM     14  C   UNL     1       7.156 -35.600  15.983  1.00  0.00    -0.000 C 
BRANCH  14  15
ATOM     15  C   UNL     1       7.144 -34.753  17.264  1.00  0.00    -0.000 C 
BRANCH  15  16
ATOM     16  C   UNL     1       8.333 -33.783  17.345  1.00  0.00    -0.000 C 
BRANCH  16  17
ATOM     17  C   UNL     1       7.988 -32.485  18.091  1.00  0.00    -0.003 C 
ATOM     18  C   UNL     1       9.252 -31.737  18.506  1.00  0.00     0.004 C 
ENDBRANCH  16  17
ENDBRANCH  15  16
ENDBRANCH  14  15
ENDBRANCH  13  14
ENDBRANCH  12  13
ENDBRANCH  11  12
ENDBRANCH   1  11
TORSDOF 14
ENDMDL
