MODEL 1
REMARK VINA RESULT:    -6.201      0.000      0.000
REMARK INTER + INTRA:          -7.786
REMARK INTER:                  -7.470
REMARK INTRA:                  -0.317
REMARK UNBOUND:                -0.317
REMARK SMILES O=c1c(O)c(-c2ccc(O)c(O)c2)oc2cc(O)cc(O)c12
REMARK SMILES IDX 5 1 3 2 2 3 1 4 22 5 20 6 19 7 17 8 16 9 15 10 14 11 6 12
REMARK SMILES IDX 7 13 8 14 9 15 13 16 11 17 10 18 12 20 4 22 21 24 18 26
REMARK H PARENT 10 19 12 21 4 23 21 25 18 27
REMARK Flexibility Score: inf
ROOT
ATOM      1  C   UNL     1      22.665  49.198  36.216  1.00  0.00     0.180 A 
ATOM      2  C   UNL     1      22.995  50.557  36.076  1.00  0.00     0.208 A 
ATOM      3  C   UNL     1      22.839  51.413  37.178  1.00  0.00     0.238 A 
ATOM      4  O   UNL     1      23.187  52.616  37.062  1.00  0.00    -0.285 OA
ATOM      5  C   UNL     1      22.341  50.901  38.401  1.00  0.00     0.111 A 
ATOM      6  C   UNL     1      22.106  51.686  39.570  1.00  0.00     0.134 A 
ATOM      7  C   UNL     1      21.735  51.053  40.763  1.00  0.00     0.093 A 
ATOM      8  C   UNL     1      21.529  49.672  40.812  1.00  0.00     0.123 A 
ATOM      9  C   UNL     1      21.699  48.906  39.661  1.00  0.00     0.094 A 
ATOM     10  C   UNL     1      22.103  49.505  38.465  1.00  0.00     0.146 A 
ATOM     11  O   UNL     1      22.263  48.737  37.394  1.00  0.00    -0.452 OA
ENDROOT
BRANCH   1  12
ATOM     12  C   UNL     1      22.779  48.240  35.092  1.00  0.00     0.025 A 
ATOM     13  C   UNL     1      23.882  47.372  35.033  1.00  0.00     0.016 A 
ATOM     14  C   UNL     1      23.998  46.446  33.994  1.00  0.00     0.051 A 
ATOM     15  C   UNL     1      23.007  46.361  33.007  1.00  0.00     0.157 A 
ATOM     16  C   UNL     1      21.775  48.137  34.112  1.00  0.00     0.062 A 
ATOM     17  C   UNL     1      21.888  47.209  33.071  1.00  0.00     0.158 A 
BRANCH  15  18
ATOM     18  O   UNL     1      23.126  45.438  31.970  1.00  0.00    -0.504 OA
ATOM     19  H   UNL     1      23.594  44.548  32.104  1.00  0.00     0.293 HD
ENDBRANCH  15  18
BRANCH  17  20
ATOM     20  O   UNL     1      20.877  47.140  32.113  1.00  0.00    -0.504 OA
ATOM     21  H   UNL     1      20.356  46.289  31.940  1.00  0.00     0.293 HD
ENDBRANCH  17  20
ENDBRANCH   1  12
BRANCH   2  22
ATOM     22  O   UNL     1      23.505  51.035  34.866  1.00  0.00    -0.502 OA
ATOM     23  H   UNL     1      24.466  50.882  34.582  1.00  0.00     0.293 HD
ENDBRANCH   2  22
BRANCH   6  24
ATOM     24  O   UNL     1      22.193  53.081  39.605  1.00  0.00    -0.507 OA
ATOM     25  H   UNL     1      21.720  53.671  40.272  1.00  0.00     0.293 HD
ENDBRANCH   6  24
BRANCH   8  26
ATOM     26  O   UNL     1      21.145  49.053  42.000  1.00  0.00    -0.508 OA
ATOM     27  H   UNL     1      20.693  49.569  42.745  1.00  0.00     0.293 HD
ENDBRANCH   8  26
TORSDOF 6
ENDMDL
MODEL 2
REMARK VINA RESULT:    -5.967      2.038      7.181
REMARK INTER + INTRA:          -7.505
REMARK INTER:                  -7.213
REMARK INTRA:                  -0.292
REMARK UNBOUND:                -0.317
REMARK SMILES O=c1c(O)c(-c2ccc(O)c(O)c2)oc2cc(O)cc(O)c12
REMARK SMILES IDX 5 1 3 2 2 3 1 4 22 5 20 6 19 7 17 8 16 9 15 10 14 11 6 12
REMARK SMILES IDX 7 13 8 14 9 15 13 16 11 17 10 18 12 20 4 22 21 24 18 26
REMARK H PARENT 10 19 12 21 4 23 21 25 18 27
REMARK Flexibility Score: inf
ROOT
ATOM      1  C   UNL     1      23.014  48.824  37.088  1.00  0.00     0.180 A 
ATOM      2  C   UNL     1      23.234  47.486  36.719  1.00  0.00     0.208 A 
ATOM      3  C   UNL     1      23.545  47.190  35.382  1.00  0.00     0.238 A 
ATOM      4  O   UNL     1      23.795  45.997  35.070  1.00  0.00    -0.285 OA
ATOM      5  C   UNL     1      23.615  48.234  34.428  1.00  0.00     0.111 A 
ATOM      6  C   UNL     1      23.883  48.044  33.039  1.00  0.00     0.134 A 
ATOM      7  C   UNL     1      24.058  49.161  32.211  1.00  0.00     0.093 A 
ATOM      8  C   UNL     1      23.911  50.458  32.710  1.00  0.00     0.123 A 
ATOM      9  C   UNL     1      23.591  50.650  34.051  1.00  0.00     0.094 A 
ATOM     10  C   UNL     1      23.446  49.557  34.910  1.00  0.00     0.146 A 
ATOM     11  O   UNL     1      23.151  49.786  36.184  1.00  0.00    -0.452 OA
ENDROOT
BRANCH   1  12
ATOM     12  C   UNL     1      22.658  49.211  38.472  1.00  0.00     0.025 A 
ATOM     13  C   UNL     1      21.339  49.038  38.921  1.00  0.00     0.016 A 
ATOM     14  C   UNL     1      20.986  49.376  40.229  1.00  0.00     0.051 A 
ATOM     15  C   UNL     1      21.950  49.877  41.115  1.00  0.00     0.157 A 
ATOM     16  C   UNL     1      23.627  49.694  39.370  1.00  0.00     0.062 A 
ATOM     17  C   UNL     1      23.278  50.032  40.682  1.00  0.00     0.158 A 
BRANCH  15  18
ATOM     18  O   UNL     1      21.596  50.216  42.419  1.00  0.00    -0.504 OA
ATOM     19  H   UNL     1      20.648  50.094  42.760  1.00  0.00     0.293 HD
ENDBRANCH  15  18
BRANCH  17  20
ATOM     20  O   UNL     1      24.264  50.515  41.542  1.00  0.00    -0.504 OA
ATOM     21  H   UNL     1      25.226  50.206  41.485  1.00  0.00     0.293 HD
ENDBRANCH  17  20
ENDBRANCH   1  12
BRANCH   2  22
ATOM     22  O   UNL     1      23.181  46.474  37.681  1.00  0.00    -0.502 OA
ATOM     23  H   UNL     1      23.530  46.601  38.624  1.00  0.00     0.293 HD
ENDBRANCH   2  22
BRANCH   6  24
ATOM     24  O   UNL     1      23.956  46.792  32.422  1.00  0.00    -0.507 OA
ATOM     25  H   UNL     1      24.016  45.912  32.911  1.00  0.00     0.293 HD
ENDBRANCH   6  24
BRANCH   8  26
ATOM     26  O   UNL     1      24.071  51.562  31.875  1.00  0.00    -0.508 OA
ATOM     27  H   UNL     1      24.245  51.456  30.883  1.00  0.00     0.293 HD
ENDBRANCH   8  26
TORSDOF 6
ENDMDL
MODEL 3
REMARK VINA RESULT:    -5.642     21.443     23.565
REMARK INTER + INTRA:          -7.113
REMARK INTER:                  -6.781
REMARK INTRA:                  -0.332
REMARK UNBOUND:                -0.317
REMARK SMILES O=c1c(O)c(-c2ccc(O)c(O)c2)oc2cc(O)cc(O)c12
REMARK SMILES IDX 5 1 3 2 2 3 1 4 22 5 20 6 19 7 17 8 16 9 15 10 14 11 6 12
REMARK SMILES IDX 7 13 8 14 9 15 13 16 11 17 10 18 12 20 4 22 21 24 18 26
REMARK H PARENT 10 19 12 21 4 23 21 25 18 27
REMARK Flexibility Score: inf
ROOT
ATOM      1  C   UNL     1      39.733  36.364  43.004  1.00  0.00     0.180 A 
ATOM      2  C   UNL     1      39.710  37.708  42.596  1.00  0.00     0.208 A 
ATOM      3  C   UNL     1      40.038  38.023  41.268  1.00  0.00     0.238 A 
ATOM      4  O   UNL     1      39.963  39.222  40.894  1.00  0.00    -0.285 OA
ATOM      5  C   UNL     1      40.399  36.990  40.369  1.00  0.00     0.111 A 
ATOM      6  C   UNL     1      40.788  37.198  39.011  1.00  0.00     0.134 A 
ATOM      7  C   UNL     1      40.999  36.093  38.176  1.00  0.00     0.093 A 
ATOM      8  C   UNL     1      40.898  34.789  38.668  1.00  0.00     0.123 A 
ATOM      9  C   UNL     1      40.577  34.578  40.006  1.00  0.00     0.094 A 
ATOM     10  C   UNL     1      40.326  35.659  40.854  1.00  0.00     0.146 A 
ATOM     11  O   UNL     1      40.013  35.413  42.121  1.00  0.00    -0.452 OA
ENDROOT
BRANCH   1  12
ATOM     12  C   UNL     1      39.424  35.957  44.394  1.00  0.00     0.025 A 
ATOM     13  C   UNL     1      38.126  35.532  44.718  1.00  0.00     0.016 A 
ATOM     14  C   UNL     1      37.818  35.124  46.017  1.00  0.00     0.051 A 
ATOM     15  C   UNL     1      38.807  35.119  47.010  1.00  0.00     0.157 A 
ATOM     16  C   UNL     1      40.420  35.931  45.388  1.00  0.00     0.062 A 
ATOM     17  C   UNL     1      40.115  35.521  46.691  1.00  0.00     0.158 A 
BRANCH  15  18
ATOM     18  O   UNL     1      38.497  34.713  48.307  1.00  0.00    -0.504 OA
ATOM     19  H   UNL     1      37.539  34.547  48.596  1.00  0.00     0.293 HD
ENDBRANCH  15  18
BRANCH  17  20
ATOM     20  O   UNL     1      41.125  35.514  47.653  1.00  0.00    -0.504 OA
ATOM     21  H   UNL     1      41.864  34.821  47.652  1.00  0.00     0.293 HD
ENDBRANCH  17  20
ENDBRANCH   1  12
BRANCH   2  22
ATOM     22  O   UNL     1      39.329  38.709  43.494  1.00  0.00    -0.502 OA
ATOM     23  H   UNL     1      38.826  38.509  44.350  1.00  0.00     0.293 HD
ENDBRANCH   2  22
BRANCH   6  24
ATOM     24  O   UNL     1      41.008  38.457  38.446  1.00  0.00    -0.507 OA
ATOM     25  H   UNL     1      41.592  39.175  38.848  1.00  0.00     0.293 HD
ENDBRANCH   6  24
BRANCH   8  26
ATOM     26  O   UNL     1      41.124  33.696  37.834  1.00  0.00    -0.508 OA
ATOM     27  H   UNL     1      40.927  33.736  36.841  1.00  0.00     0.293 HD
ENDBRANCH   8  26
TORSDOF 6
ENDMDL
MODEL 4
REMARK VINA RESULT:    -5.418      1.508      6.724
REMARK INTER + INTRA:          -6.843
REMARK INTER:                  -6.680
REMARK INTRA:                  -0.163
REMARK UNBOUND:                -0.317
REMARK SMILES O=c1c(O)c(-c2ccc(O)c(O)c2)oc2cc(O)cc(O)c12
REMARK SMILES IDX 5 1 3 2 2 3 1 4 22 5 20 6 19 7 17 8 16 9 15 10 14 11 6 12
REMARK SMILES IDX 7 13 8 14 9 15 13 16 11 17 10 18 12 20 4 22 21 24 18 26
REMARK H PARENT 10 19 12 21 4 23 21 25 18 27
REMARK Flexibility Score: inf
ROOT
ATOM      1  C   UNL     1      22.717  49.543  36.843  1.00  0.00     0.180 A 
ATOM      2  C   UNL     1      23.159  50.638  36.082  1.00  0.00     0.208 A 
ATOM      3  C   UNL     1      23.425  50.455  34.715  1.00  0.00     0.238 A 
ATOM      4  O   UNL     1      23.768  51.451  34.028  1.00  0.00    -0.285 OA
ATOM      5  C   UNL     1      23.259  49.175  34.132  1.00  0.00     0.111 A 
ATOM      6  C   UNL     1      23.538  48.867  32.766  1.00  0.00     0.134 A 
ATOM      7  C   UNL     1      23.214  47.599  32.265  1.00  0.00     0.093 A 
ATOM      8  C   UNL     1      22.683  46.610  33.097  1.00  0.00     0.123 A 
ATOM      9  C   UNL     1      22.464  46.884  34.444  1.00  0.00     0.094 A 
ATOM     10  C   UNL     1      22.743  48.150  34.965  1.00  0.00     0.146 A 
ATOM     11  O   UNL     1      22.509  48.372  36.253  1.00  0.00    -0.452 OA
ENDROOT
BRANCH   1  12
ATOM     12  C   UNL     1      22.440  49.653  38.294  1.00  0.00     0.025 A 
ATOM     13  C   UNL     1      21.155  49.357  38.777  1.00  0.00     0.016 A 
ATOM     14  C   UNL     1      20.878  49.433  40.144  1.00  0.00     0.051 A 
ATOM     15  C   UNL     1      21.885  49.790  41.051  1.00  0.00     0.157 A 
ATOM     16  C   UNL     1      23.454  49.990  39.210  1.00  0.00     0.062 A 
ATOM     17  C   UNL     1      23.180  50.065  40.580  1.00  0.00     0.158 A 
BRANCH  15  18
ATOM     18  O   UNL     1      21.606  49.867  42.414  1.00  0.00    -0.504 OA
ATOM     19  H   UNL     1      21.119  49.121  42.899  1.00  0.00     0.293 HD
ENDBRANCH  15  18
BRANCH  17  20
ATOM     20  O   UNL     1      24.207  50.410  41.458  1.00  0.00    -0.504 OA
ATOM     21  H   UNL     1      25.132  50.662  41.131  1.00  0.00     0.293 HD
ENDBRANCH  17  20
ENDBRANCH   1  12
BRANCH   2  22
ATOM     22  O   UNL     1      23.294  51.897  36.673  1.00  0.00    -0.502 OA
ATOM     23  H   UNL     1      22.829  52.144  37.539  1.00  0.00     0.293 HD
ENDBRANCH   2  22
BRANCH   6  24
ATOM     24  O   UNL     1      24.152  49.751  31.875  1.00  0.00    -0.507 OA
ATOM     25  H   UNL     1      24.982  49.545  31.340  1.00  0.00     0.293 HD
ENDBRANCH   6  24
BRANCH   8  26
ATOM     26  O   UNL     1      22.379  45.347  32.593  1.00  0.00    -0.508 OA
ATOM     27  H   UNL     1      21.456  44.942  32.697  1.00  0.00     0.293 HD
ENDBRANCH   8  26
TORSDOF 6
ENDMDL
MODEL 5
REMARK VINA RESULT:    -5.118     21.947     23.878
REMARK INTER + INTRA:          -6.481
REMARK INTER:                  -6.203
REMARK INTRA:                  -0.278
REMARK UNBOUND:                -0.317
REMARK SMILES O=c1c(O)c(-c2ccc(O)c(O)c2)oc2cc(O)cc(O)c12
REMARK SMILES IDX 5 1 3 2 2 3 1 4 22 5 20 6 19 7 17 8 16 9 15 10 14 11 6 12
REMARK SMILES IDX 7 13 8 14 9 15 13 16 11 17 10 18 12 20 4 22 21 24 18 26
REMARK H PARENT 10 19 12 21 4 23 21 25 18 27
REMARK Flexibility Score: inf
ROOT
ATOM      1  C   UNL     1      39.390  35.325  44.514  1.00  0.00     0.180 A 
ATOM      2  C   UNL     1      40.116  34.585  43.565  1.00  0.00     0.208 A 
ATOM      3  C   UNL     1      40.428  35.179  42.331  1.00  0.00     0.238 A 
ATOM      4  O   UNL     1      41.125  34.532  41.508  1.00  0.00    -0.285 OA
ATOM      5  C   UNL     1      39.996  36.500  42.057  1.00  0.00     0.111 A 
ATOM      6  C   UNL     1      40.221  37.186  40.826  1.00  0.00     0.134 A 
ATOM      7  C   UNL     1      39.863  38.535  40.711  1.00  0.00     0.093 A 
ATOM      8  C   UNL     1      39.230  39.204  41.762  1.00  0.00     0.123 A 
ATOM      9  C   UNL     1      38.953  38.525  42.946  1.00  0.00     0.094 A 
ATOM     10  C   UNL     1      39.330  37.189  43.103  1.00  0.00     0.146 A 
ATOM     11  O   UNL     1      39.056  36.583  44.252  1.00  0.00    -0.452 OA
ENDROOT
BRANCH   1  12
ATOM     12  C   UNL     1      39.003  34.758  45.826  1.00  0.00     0.025 A 
ATOM     13  C   UNL     1      37.699  34.269  46.010  1.00  0.00     0.016 A 
ATOM     14  C   UNL     1      37.320  33.711  47.233  1.00  0.00     0.051 A 
ATOM     15  C   UNL     1      38.241  33.617  48.284  1.00  0.00     0.157 A 
ATOM     16  C   UNL     1      39.931  34.643  46.877  1.00  0.00     0.062 A 
ATOM     17  C   UNL     1      39.554  34.082  48.102  1.00  0.00     0.158 A 
BRANCH  15  18
ATOM     18  O   UNL     1      37.859  33.061  49.504  1.00  0.00    -0.504 OA
ATOM     19  H   UNL     1      38.274  32.202  49.848  1.00  0.00     0.293 HD
ENDBRANCH  15  18
BRANCH  17  20
ATOM     20  O   UNL     1      40.499  33.990  49.124  1.00  0.00    -0.504 OA
ATOM     21  H   UNL     1      40.476  33.248  49.813  1.00  0.00     0.293 HD
ENDBRANCH  17  20
ENDBRANCH   1  12
BRANCH   2  22
ATOM     22  O   UNL     1      40.552  33.292  43.865  1.00  0.00    -0.502 OA
ATOM     23  H   UNL     1      40.251  32.480  43.339  1.00  0.00     0.293 HD
ENDBRANCH   2  22
BRANCH   6  24
ATOM     24  O   UNL     1      40.761  36.585  39.685  1.00  0.00    -0.507 OA
ATOM     25  H   UNL     1      40.924  37.056  38.808  1.00  0.00     0.293 HD
ENDBRANCH   6  24
BRANCH   8  26
ATOM     26  O   UNL     1      38.863  40.542  41.634  1.00  0.00    -0.508 OA
ATOM     27  H   UNL     1      37.905  40.814  41.451  1.00  0.00     0.293 HD
ENDBRANCH   8  26
TORSDOF 6
ENDMDL
MODEL 6
REMARK VINA RESULT:    -4.738     21.802     24.147
REMARK INTER + INTRA:          -6.024
REMARK INTER:                  -5.738
REMARK INTRA:                  -0.286
REMARK UNBOUND:                -0.317
REMARK SMILES O=c1c(O)c(-c2ccc(O)c(O)c2)oc2cc(O)cc(O)c12
REMARK SMILES IDX 5 1 3 2 2 3 1 4 22 5 20 6 19 7 17 8 16 9 15 10 14 11 6 12
REMARK SMILES IDX 7 13 8 14 9 15 13 16 11 17 10 18 12 20 4 22 21 24 18 26
REMARK H PARENT 10 19 12 21 4 23 21 25 18 27
REMARK Flexibility Score: inf
ROOT
ATOM      1  C   UNL     1      40.326  35.285  42.599  1.00  0.00     0.180 A 
ATOM      2  C   UNL     1      40.592  34.067  41.949  1.00  0.00     0.208 A 
ATOM      3  C   UNL     1      40.833  34.072  40.566  1.00  0.00     0.238 A 
ATOM      4  O   UNL     1      41.124  32.986  39.999  1.00  0.00    -0.285 OA
ATOM      5  C   UNL     1      40.789  35.292  39.848  1.00  0.00     0.111 A 
ATOM      6  C   UNL     1      40.978  35.408  38.438  1.00  0.00     0.134 A 
ATOM      7  C   UNL     1      41.043  36.679  37.852  1.00  0.00     0.093 A 
ATOM      8  C   UNL     1      40.861  37.834  38.617  1.00  0.00     0.123 A 
ATOM      9  C   UNL     1      40.617  37.727  39.984  1.00  0.00     0.094 A 
ATOM     10  C   UNL     1      40.582  36.475  40.602  1.00  0.00     0.146 A 
ATOM     11  O   UNL     1      40.357  36.419  41.909  1.00  0.00    -0.452 OA
ENDROOT
BRANCH   1  12
ATOM     12  C   UNL     1      40.038  35.356  44.049  1.00  0.00     0.025 A 
ATOM     13  C   UNL     1      41.010  35.871  44.922  1.00  0.00     0.016 A 
ATOM     14  C   UNL     1      40.752  35.968  46.291  1.00  0.00     0.051 A 
ATOM     15  C   UNL     1      39.513  35.567  46.808  1.00  0.00     0.157 A 
ATOM     16  C   UNL     1      38.787  34.975  44.568  1.00  0.00     0.062 A 
ATOM     17  C   UNL     1      38.525  35.072  45.939  1.00  0.00     0.158 A 
BRANCH  15  18
ATOM     18  O   UNL     1      39.258  35.663  48.175  1.00  0.00    -0.504 OA
ATOM     19  H   UNL     1      38.318  35.795  48.531  1.00  0.00     0.293 HD
ENDBRANCH  15  18
BRANCH  17  20
ATOM     20  O   UNL     1      37.276  34.678  46.419  1.00  0.00    -0.504 OA
ATOM     21  H   UNL     1      36.794  35.190  47.148  1.00  0.00     0.293 HD
ENDBRANCH  17  20
ENDBRANCH   1  12
BRANCH   2  22
ATOM     22  O   UNL     1      40.652  32.878  42.681  1.00  0.00    -0.502 OA
ATOM     23  H   UNL     1      41.514  32.531  43.086  1.00  0.00     0.293 HD
ENDBRANCH   2  22
BRANCH   6  24
ATOM     24  O   UNL     1      41.078  34.316  37.571  1.00  0.00    -0.507 OA
ATOM     25  H   UNL     1      41.017  33.350  37.853  1.00  0.00     0.293 HD
ENDBRANCH   6  24
BRANCH   8  26
ATOM     26  O   UNL     1      40.911  39.094  38.024  1.00  0.00    -0.508 OA
ATOM     27  H   UNL     1      41.462  39.266  37.191  1.00  0.00     0.293 HD
ENDBRANCH   8  26
TORSDOF 6
ENDMDL
MODEL 7
REMARK VINA RESULT:    -4.517      1.819      6.911
REMARK INTER + INTRA:          -5.758
REMARK INTER:                  -6.021
REMARK INTRA:                   0.263
REMARK UNBOUND:                -0.317
REMARK SMILES O=c1c(O)c(-c2ccc(O)c(O)c2)oc2cc(O)cc(O)c12
REMARK SMILES IDX 5 1 3 2 2 3 1 4 22 5 20 6 19 7 17 8 16 9 15 10 14 11 6 12
REMARK SMILES IDX 7 13 8 14 9 15 13 16 11 17 10 18 12 20 4 22 21 24 18 26
REMARK H PARENT 10 19 12 21 4 23 21 25 18 27
REMARK Flexibility Score: inf
ROOT
ATOM      1  C   UNL     1      22.142  49.537  38.557  1.00  0.00     0.180 A 
ATOM      2  C   UNL     1      21.864  50.315  37.419  1.00  0.00     0.208 A 
ATOM      3  C   UNL     1      22.245  49.836  36.156  1.00  0.00     0.238 A 
ATOM      4  O   UNL     1      21.945  50.511  35.138  1.00  0.00    -0.285 OA
ATOM      5  C   UNL     1      22.913  48.592  36.048  1.00  0.00     0.111 A 
ATOM      6  C   UNL     1      23.381  48.029  34.822  1.00  0.00     0.134 A 
ATOM      7  C   UNL     1      23.913  46.733  34.817  1.00  0.00     0.093 A 
ATOM      8  C   UNL     1      24.053  46.007  36.003  1.00  0.00     0.123 A 
ATOM      9  C   UNL     1      23.654  46.572  37.211  1.00  0.00     0.094 A 
ATOM     10  C   UNL     1      23.087  47.849  37.243  1.00  0.00     0.146 A 
ATOM     11  O   UNL     1      22.711  48.346  38.415  1.00  0.00    -0.452 OA
ENDROOT
BRANCH   1  12
ATOM     12  C   UNL     1      21.793  49.987  39.923  1.00  0.00     0.025 A 
ATOM     13  C   UNL     1      21.579  49.034  40.931  1.00  0.00     0.016 A 
ATOM     14  C   UNL     1      21.269  49.437  42.232  1.00  0.00     0.051 A 
ATOM     15  C   UNL     1      21.186  50.799  42.550  1.00  0.00     0.157 A 
ATOM     16  C   UNL     1      21.729  51.354  40.251  1.00  0.00     0.062 A 
ATOM     17  C   UNL     1      21.421  51.761  41.554  1.00  0.00     0.158 A 
BRANCH  15  18
ATOM     18  O   UNL     1      20.875  51.199  43.849  1.00  0.00    -0.504 OA
ATOM     19  H   UNL     1      20.621  52.157  44.062  1.00  0.00     0.293 HD
ENDBRANCH  15  18
BRANCH  17  20
ATOM     20  O   UNL     1      21.360  53.125  41.840  1.00  0.00    -0.504 OA
ATOM     21  H   UNL     1      21.668  53.828  41.179  1.00  0.00     0.293 HD
ENDBRANCH  17  20
ENDBRANCH   1  12
BRANCH   2  22
ATOM     22  O   UNL     1      21.184  51.529  37.548  1.00  0.00    -0.502 OA
ATOM     23  H   UNL     1      20.275  51.690  37.130  1.00  0.00     0.293 HD
ENDBRANCH   2  22
BRANCH   6  24
ATOM     24  O   UNL     1      23.372  48.704  33.599  1.00  0.00    -0.507 OA
ATOM     25  H   UNL     1      22.692  48.563  32.867  1.00  0.00     0.293 HD
ENDBRANCH   6  24
BRANCH   8  26
ATOM     26  O   UNL     1      24.597  44.724  35.989  1.00  0.00    -0.508 OA
ATOM     27  H   UNL     1      24.251  43.994  36.601  1.00  0.00     0.293 HD
ENDBRANCH   8  26
TORSDOF 6
ENDMDL
MODEL 8
REMARK VINA RESULT:    -4.451     20.780     22.289
REMARK INTER + INTRA:          -5.679
REMARK INTER:                  -6.099
REMARK INTRA:                   0.420
REMARK UNBOUND:                -0.317
REMARK SMILES O=c1c(O)c(-c2ccc(O)c(O)c2)oc2cc(O)cc(O)c12
REMARK SMILES IDX 5 1 3 2 2 3 1 4 22 5 20 6 19 7 17 8 16 9 15 10 14 11 6 12
REMARK SMILES IDX 7 13 8 14 9 15 13 16 11 17 10 18 12 20 4 22 21 24 18 26
REMARK H PARENT 10 19 12 21 4 23 21 25 18 27
REMARK Flexibility Score: inf
ROOT
ATOM      1  C   UNL     1      39.934  37.081  40.886  1.00  0.00     0.180 A 
ATOM      2  C   UNL     1      39.331  38.090  41.656  1.00  0.00     0.208 A 
ATOM      3  C   UNL     1      39.065  37.845  43.012  1.00  0.00     0.238 A 
ATOM      4  O   UNL     1      38.576  38.771  43.709  1.00  0.00    -0.285 OA
ATOM      5  C   UNL     1      39.392  36.589  43.578  1.00  0.00     0.111 A 
ATOM      6  C   UNL     1      39.131  36.218  44.931  1.00  0.00     0.134 A 
ATOM      7  C   UNL     1      39.614  34.996  45.418  1.00  0.00     0.093 A 
ATOM      8  C   UNL     1      40.293  34.105  44.581  1.00  0.00     0.123 A 
ATOM      9  C   UNL     1      40.500  34.434  43.244  1.00  0.00     0.094 A 
ATOM     10  C   UNL     1      40.061  35.660  42.739  1.00  0.00     0.146 A 
ATOM     11  O   UNL     1      40.288  35.938  41.461  1.00  0.00    -0.452 OA
ENDROOT
BRANCH   1  12
ATOM     12  C   UNL     1      40.223  37.256  39.444  1.00  0.00     0.025 A 
ATOM     13  C   UNL     1      40.369  38.551  38.921  1.00  0.00     0.016 A 
ATOM     14  C   UNL     1      40.662  38.739  37.568  1.00  0.00     0.051 A 
ATOM     15  C   UNL     1      40.830  37.636  36.721  1.00  0.00     0.157 A 
ATOM     16  C   UNL     1      40.413  36.151  38.595  1.00  0.00     0.062 A 
ATOM     17  C   UNL     1      40.709  36.335  37.240  1.00  0.00     0.158 A 
BRANCH  15  18
ATOM     18  O   UNL     1      41.121  37.826  35.371  1.00  0.00    -0.504 OA
ATOM     19  H   UNL     1      41.719  37.184  34.862  1.00  0.00     0.293 HD
ENDBRANCH  15  18
BRANCH  17  20
ATOM     20  O   UNL     1      40.884  35.216  36.427  1.00  0.00    -0.504 OA
ATOM     21  H   UNL     1      40.399  34.344  36.599  1.00  0.00     0.293 HD
ENDBRANCH  17  20
ENDBRANCH   1  12
BRANCH   2  22
ATOM     22  O   UNL     1      39.038  39.330  41.083  1.00  0.00    -0.502 OA
ATOM     23  H   UNL     1      39.239  40.207  41.549  1.00  0.00     0.293 HD
ENDBRANCH   2  22
BRANCH   6  24
ATOM     24  O   UNL     1      38.384  36.992  45.823  1.00  0.00    -0.507 OA
ATOM     25  H   UNL     1      38.771  37.673  46.458  1.00  0.00     0.293 HD
ENDBRANCH   6  24
BRANCH   8  26
ATOM     26  O   UNL     1      40.756  32.886  45.070  1.00  0.00    -0.508 OA
ATOM     27  H   UNL     1      40.121  32.183  45.432  1.00  0.00     0.293 HD
ENDBRANCH   8  26
TORSDOF 6
ENDMDL
