MODEL 1
REMARK VINA RESULT:    -3.472      0.000      0.000
REMARK INTER + INTRA:         -14.030
REMARK INTER:                  -9.156
REMARK INTRA:                  -4.875
REMARK UNBOUND:                -4.875
REMARK SMILES CCCCCCCCCCCCCCCCCCCCCCCCCCCCCC(=O)[O-]
REMARK SMILES IDX 16 1 17 2 18 3 19 4 20 5 21 6 22 7 23 8 24 9 25 10 26 11
REMARK SMILES IDX 27 12 28 13 29 14 30 15 31 16 32 17 15 18 14 19 13 20 12 21
REMARK SMILES IDX 11 22 10 23 9 24 8 25 7 26 6 27 5 28 4 29 3 30 2 31 1 32
REMARK H PARENT
REMARK Flexibility Score: inf
ROOT
ATOM      1  C   UNL     1       2.836 108.646 179.962  1.00  0.00     0.000 C 
ENDROOT
BRANCH   1   2
ATOM      2  C   UNL     1       2.070 108.019 178.785  1.00  0.00     0.000 C 
BRANCH   2   3
ATOM      3  C   UNL     1       1.273 106.772 179.198  1.00  0.00     0.000 C 
BRANCH   3   4
ATOM      4  C   UNL     1       1.698 105.515 178.420  1.00  0.00     0.000 C 
BRANCH   4   5
ATOM      5  C   UNL     1       2.841 104.747 179.110  1.00  0.00     0.000 C 
BRANCH   5   6
ATOM      6  C   UNL     1       4.143 104.646 178.289  1.00  0.00     0.000 C 
BRANCH   6   7
ATOM      7  C   UNL     1       5.272 105.595 178.737  1.00  0.00     0.000 C 
BRANCH   7   8
ATOM      8  C   UNL     1       5.566 106.756 177.770  1.00  0.00     0.000 C 
BRANCH   8   9
ATOM      9  C   UNL     1       4.660 106.738 176.530  1.00  0.00     0.000 C 
BRANCH   9  10
ATOM     10  C   UNL     1       5.479 106.538 175.247  1.00  0.00     0.000 C 
BRANCH  10  11
ATOM     11  C   UNL     1       4.879 105.463 174.326  1.00  0.00     0.000 C 
BRANCH  11  12
ATOM     12  C   UNL     1       5.669 104.146 174.354  1.00  0.00     0.000 C 
BRANCH  12  13
ATOM     13  C   UNL     1       4.870 103.046 175.068  1.00  0.00     0.006 C 
BRANCH  13  14
ATOM     14  C   UNL     1       5.428 101.645 174.787  1.00  0.00     0.053 C 
BRANCH  14  15
ATOM     15  C   UNL     1       6.824 101.486 175.309  1.00  0.00     0.041 C 
ATOM     16  O   UNL     1       7.056 101.602 176.541  1.00  0.00    -0.550 OA
ATOM     17  O   UNL     1       7.866 101.196 174.437  1.00  0.00    -0.550 OA
ENDBRANCH  14  15
ENDBRANCH  13  14
ENDBRANCH  12  13
ENDBRANCH  11  12
ENDBRANCH  10  11
ENDBRANCH   9  10
ENDBRANCH   8   9
ENDBRANCH   7   8
ENDBRANCH   6   7
ENDBRANCH   5   6
ENDBRANCH   4   5
ENDBRANCH   3   4
ENDBRANCH   2   3
ENDBRANCH   1   2
BRANCH   1  18
ATOM     18  C   UNL     1       2.174 108.359 181.318  1.00  0.00     0.000 C 
BRANCH  18  19
ATOM     19  C   UNL     1       3.199 108.014 182.414  1.00  0.00     0.000 C 
BRANCH  19  20
ATOM     20  C   UNL     1       3.996 106.739 182.097  1.00  0.00     0.000 C 
BRANCH  20  21
ATOM     21  C   UNL     1       5.506 106.997 181.987  1.00  0.00     0.000 C 
BRANCH  21  22
ATOM     22  C   UNL     1       6.233 106.541 183.258  1.00  0.00     0.000 C 
BRANCH  22  23
ATOM     23  C   UNL     1       7.095 107.674 183.833  1.00  0.00     0.000 C 
BRANCH  23  24
ATOM     24  C   UNL     1       6.269 108.901 184.261  1.00  0.00    -0.000 C 
BRANCH  24  25
ATOM     25  C   UNL     1       7.039 110.238 184.302  1.00  0.00    -0.000 C 
BRANCH  25  26
ATOM     26  C   UNL     1       6.687 111.235 183.181  1.00  0.00    -0.000 C 
BRANCH  26  27
ATOM     27  C   UNL     1       5.618 110.730 182.195  1.00  0.00    -0.000 C 
BRANCH  27  28
ATOM     28  C   UNL     1       4.319 111.568 182.217  1.00  0.00    -0.000 C 
BRANCH  28  29
ATOM     29  C   UNL     1       3.543 111.472 183.549  1.00  0.00    -0.000 C 
BRANCH  29  30
ATOM     30  C   UNL     1       3.406 112.821 184.282  1.00  0.00    -0.000 C 
BRANCH  30  31
ATOM     31  C   UNL     1       3.989 114.025 183.521  1.00  0.00    -0.003 C 
ATOM     32  C   UNL     1       5.306 114.518 184.118  1.00  0.00     0.004 C 
ENDBRANCH  30  31
ENDBRANCH  29  30
ENDBRANCH  28  29
ENDBRANCH  27  28
ENDBRANCH  26  27
ENDBRANCH  25  26
ENDBRANCH  24  25
ENDBRANCH  23  24
ENDBRANCH  22  23
ENDBRANCH  21  22
ENDBRANCH  20  21
ENDBRANCH  19  20
ENDBRANCH  18  19
ENDBRANCH   1  18
TORSDOF 28
ENDMDL
MODEL 2
REMARK VINA RESULT:    -3.469      1.642      5.288
REMARK INTER + INTRA:         -14.021
REMARK INTER:                  -7.951
REMARK INTRA:                  -6.070
REMARK UNBOUND:                -4.875
REMARK SMILES CCCCCCCCCCCCCCCCCCCCCCCCCCCCCC(=O)[O-]
REMARK SMILES IDX 16 1 17 2 18 3 19 4 20 5 21 6 22 7 23 8 24 9 25 10 26 11
REMARK SMILES IDX 27 12 28 13 29 14 30 15 31 16 32 17 15 18 14 19 13 20 12 21
REMARK SMILES IDX 11 22 10 23 9 24 8 25 7 26 6 27 5 28 4 29 3 30 2 31 1 32
REMARK H PARENT
REMARK Flexibility Score: inf
ROOT
ATOM      1  C   UNL     1       5.472 110.795 181.651  1.00  0.00     0.000 C 
ENDROOT
BRANCH   1   2
ATOM      2  C   UNL     1       4.123 110.153 181.282  1.00  0.00     0.000 C 
BRANCH   2   3
ATOM      3  C   UNL     1       3.263 109.839 182.516  1.00  0.00     0.000 C 
BRANCH   3   4
ATOM      4  C   UNL     1       2.170 108.796 182.224  1.00  0.00     0.000 C 
BRANCH   4   5
ATOM      5  C   UNL     1       2.335 108.134 180.844  1.00  0.00     0.000 C 
BRANCH   5   6
ATOM      6  C   UNL     1       1.031 107.993 180.032  1.00  0.00     0.000 C 
BRANCH   6   7
ATOM      7  C   UNL     1       0.960 106.751 179.122  1.00  0.00     0.000 C 
BRANCH   7   8
ATOM      8  C   UNL     1       1.938 105.621 179.488  1.00  0.00     0.000 C 
BRANCH   8   9
ATOM      9  C   UNL     1       2.590 104.978 178.254  1.00  0.00     0.000 C 
BRANCH   9  10
ATOM     10  C   UNL     1       4.043 104.574 178.542  1.00  0.00     0.000 C 
BRANCH  10  11
ATOM     11  C   UNL     1       4.790 104.121 177.277  1.00  0.00     0.000 C 
BRANCH  11  12
ATOM     12  C   UNL     1       3.981 104.352 175.992  1.00  0.00     0.000 C 
BRANCH  12  13
ATOM     13  C   UNL     1       4.853 104.122 174.749  1.00  0.00     0.006 C 
BRANCH  13  14
ATOM     14  C   UNL     1       5.136 102.634 174.503  1.00  0.00     0.053 C 
BRANCH  14  15
ATOM     15  C   UNL     1       6.604 102.361 174.369  1.00  0.00     0.041 C 
ATOM     16  O   UNL     1       7.061 101.215 174.621  1.00  0.00    -0.550 OA
ATOM     17  O   UNL     1       7.465 103.368 173.950  1.00  0.00    -0.550 OA
ENDBRANCH  14  15
ENDBRANCH  13  14
ENDBRANCH  12  13
ENDBRANCH  11  12
ENDBRANCH  10  11
ENDBRANCH   9  10
ENDBRANCH   8   9
ENDBRANCH   7   8
ENDBRANCH   6   7
ENDBRANCH   5   6
ENDBRANCH   4   5
ENDBRANCH   3   4
ENDBRANCH   2   3
ENDBRANCH   1   2
BRANCH   1  18
ATOM     18  C   UNL     1       5.752 110.752 183.161  1.00  0.00     0.000 C 
BRANCH  18  19
ATOM     19  C   UNL     1       6.891 109.782 183.523  1.00  0.00     0.000 C 
BRANCH  19  20
ATOM     20  C   UNL     1       6.383 108.510 184.219  1.00  0.00     0.000 C 
BRANCH  20  21
ATOM     21  C   UNL     1       6.638 107.240 183.393  1.00  0.00     0.000 C 
BRANCH  21  22
ATOM     22  C   UNL     1       5.319 106.640 182.890  1.00  0.00     0.000 C 
BRANCH  22  23
ATOM     23  C   UNL     1       5.302 106.564 181.356  1.00  0.00     0.000 C 
BRANCH  23  24
ATOM     24  C   UNL     1       6.693 106.757 180.729  1.00  0.00    -0.000 C 
BRANCH  24  25
ATOM     25  C   UNL     1       6.791 107.870 179.663  1.00  0.00    -0.000 C 
BRANCH  25  26
ATOM     26  C   UNL     1       6.074 107.571 178.333  1.00  0.00    -0.000 C 
BRANCH  26  27
ATOM     27  C   UNL     1       4.766 108.355 178.125  1.00  0.00    -0.000 C 
BRANCH  27  28
ATOM     28  C   UNL     1       4.048 108.011 176.800  1.00  0.00    -0.000 C 
BRANCH  28  29
ATOM     29  C   UNL     1       2.671 108.693 176.647  1.00  0.00    -0.000 C 
BRANCH  29  30
ATOM     30  C   UNL     1       1.929 108.304 175.354  1.00  0.00    -0.000 C 
BRANCH  30  31
ATOM     31  C   UNL     1       1.305 106.897 175.373  1.00  0.00    -0.003 C 
ATOM     32  C   UNL     1       1.525 106.137 174.066  1.00  0.00     0.004 C 
ENDBRANCH  30  31
ENDBRANCH  29  30
ENDBRANCH  28  29
ENDBRANCH  27  28
ENDBRANCH  26  27
ENDBRANCH  25  26
ENDBRANCH  24  25
ENDBRANCH  23  24
ENDBRANCH  22  23
ENDBRANCH  21  22
ENDBRANCH  20  21
ENDBRANCH  19  20
ENDBRANCH  18  19
ENDBRANCH   1  18
TORSDOF 28
ENDMDL
MODEL 3
REMARK VINA RESULT:    -3.460      2.016      4.573
REMARK INTER + INTRA:         -13.999
REMARK INTER:                  -8.088
REMARK INTRA:                  -5.911
REMARK UNBOUND:                -4.875
REMARK SMILES CCCCCCCCCCCCCCCCCCCCCCCCCCCCCC(=O)[O-]
REMARK SMILES IDX 16 1 17 2 18 3 19 4 20 5 21 6 22 7 23 8 24 9 25 10 26 11
REMARK SMILES IDX 27 12 28 13 29 14 30 15 31 16 32 17 15 18 14 19 13 20 12 21
REMARK SMILES IDX 11 22 10 23 9 24 8 25 7 26 6 27 5 28 4 29 3 30 2 31 1 32
REMARK H PARENT
REMARK Flexibility Score: inf
ROOT
ATOM      1  C   UNL     1       2.350 105.054 179.603  1.00  0.00     0.000 C 
ENDROOT
BRANCH   1   2
ATOM      2  C   UNL     1       2.254 104.831 178.085  1.00  0.00     0.000 C 
BRANCH   2   3
ATOM      3  C   UNL     1       1.476 105.948 177.372  1.00  0.00     0.000 C 
BRANCH   3   4
ATOM      4  C   UNL     1       0.663 106.817 178.347  1.00  0.00     0.000 C 
BRANCH   4   5
ATOM      5  C   UNL     1       1.153 108.277 178.388  1.00  0.00     0.000 C 
BRANCH   5   6
ATOM      6  C   UNL     1       2.328 108.594 177.441  1.00  0.00     0.000 C 
BRANCH   6   7
ATOM      7  C   UNL     1       3.575 109.190 178.125  1.00  0.00     0.000 C 
BRANCH   7   8
ATOM      8  C   UNL     1       4.920 108.744 177.525  1.00  0.00     0.000 C 
BRANCH   8   9
ATOM      9  C   UNL     1       4.907 107.278 177.067  1.00  0.00     0.000 C 
BRANCH   9  10
ATOM     10  C   UNL     1       6.308 106.655 177.162  1.00  0.00     0.000 C 
BRANCH  10  11
ATOM     11  C   UNL     1       6.417 105.329 176.391  1.00  0.00     0.000 C 
BRANCH  11  12
ATOM     12  C   UNL     1       6.341 104.099 177.307  1.00  0.00     0.000 C 
BRANCH  12  13
ATOM     13  C   UNL     1       5.163 103.197 176.913  1.00  0.00     0.006 C 
BRANCH  13  14
ATOM     14  C   UNL     1       4.999 103.084 175.392  1.00  0.00     0.053 C 
BRANCH  14  15
ATOM     15  C   UNL     1       5.780 101.935 174.831  1.00  0.00     0.041 C 
ATOM     16  O   UNL     1       6.817 102.147 174.147  1.00  0.00    -0.550 OA
ATOM     17  O   UNL     1       5.373 100.629 175.076  1.00  0.00    -0.550 OA
ENDBRANCH  14  15
ENDBRANCH  13  14
ENDBRANCH  12  13
ENDBRANCH  11  12
ENDBRANCH  10  11
ENDBRANCH   9  10
ENDBRANCH   8   9
ENDBRANCH   7   8
ENDBRANCH   6   7
ENDBRANCH   5   6
ENDBRANCH   4   5
ENDBRANCH   3   4
ENDBRANCH   2   3
ENDBRANCH   1   2
BRANCH   1  18
ATOM     18  C   UNL     1       3.747 105.515 180.045  1.00  0.00     0.000 C 
BRANCH  18  19
ATOM     19  C   UNL     1       3.734 106.916 180.681  1.00  0.00     0.000 C 
BRANCH  19  20
ATOM     20  C   UNL     1       3.704 106.866 182.216  1.00  0.00     0.000 C 
BRANCH  20  21
ATOM     21  C   UNL     1       3.648 108.263 182.853  1.00  0.00     0.000 C 
BRANCH  21  22
ATOM     22  C   UNL     1       3.265 109.324 181.815  1.00  0.00     0.000 C 
BRANCH  22  23
ATOM     23  C   UNL     1       4.378 110.371 181.665  1.00  0.00     0.000 C 
BRANCH  23  24
ATOM     24  C   UNL     1       5.770 109.826 182.028  1.00  0.00    -0.000 C 
BRANCH  24  25
ATOM     25  C   UNL     1       6.616 109.320 180.839  1.00  0.00    -0.000 C 
BRANCH  25  26
ATOM     26  C   UNL     1       7.657 108.239 181.186  1.00  0.00    -0.000 C 
BRANCH  26  27
ATOM     27  C   UNL     1       7.423 106.885 180.491  1.00  0.00    -0.000 C 
BRANCH  27  28
ATOM     28  C   UNL     1       7.164 105.725 181.479  1.00  0.00    -0.000 C 
BRANCH  28  29
ATOM     29  C   UNL     1       7.091 106.173 182.955  1.00  0.00    -0.000 C 
BRANCH  29  30
ATOM     30  C   UNL     1       7.872 105.256 183.918  1.00  0.00    -0.000 C 
BRANCH  30  31
ATOM     31  C   UNL     1       8.932 104.370 183.239  1.00  0.00    -0.003 C 
ATOM     32  C   UNL     1       8.793 102.895 183.613  1.00  0.00     0.004 C 
ENDBRANCH  30  31
ENDBRANCH  29  30
ENDBRANCH  28  29
ENDBRANCH  27  28
ENDBRANCH  26  27
ENDBRANCH  25  26
ENDBRANCH  24  25
ENDBRANCH  23  24
ENDBRANCH  22  23
ENDBRANCH  21  22
ENDBRANCH  20  21
ENDBRANCH  19  20
ENDBRANCH  18  19
ENDBRANCH   1  18
TORSDOF 28
ENDMDL
MODEL 4
REMARK VINA RESULT:    -3.451      1.785      4.943
REMARK INTER + INTRA:         -13.974
REMARK INTER:                  -8.130
REMARK INTRA:                  -5.845
REMARK UNBOUND:                -4.875
REMARK SMILES CCCCCCCCCCCCCCCCCCCCCCCCCCCCCC(=O)[O-]
REMARK SMILES IDX 16 1 17 2 18 3 19 4 20 5 21 6 22 7 23 8 24 9 25 10 26 11
REMARK SMILES IDX 27 12 28 13 29 14 30 15 31 16 32 17 15 18 14 19 13 20 12 21
REMARK SMILES IDX 11 22 10 23 9 24 8 25 7 26 6 27 5 28 4 29 3 30 2 31 1 32
REMARK H PARENT
REMARK Flexibility Score: inf
ROOT
ATOM      1  C   UNL     1       6.023 109.736 179.962  1.00  0.00     0.000 C 
ENDROOT
BRANCH   1   2
ATOM      2  C   UNL     1       4.554 109.606 179.525  1.00  0.00     0.000 C 
BRANCH   2   3
ATOM      3  C   UNL     1       4.381 108.689 178.304  1.00  0.00     0.000 C 
BRANCH   3   4
ATOM      4  C   UNL     1       2.904 108.418 177.972  1.00  0.00     0.000 C 
BRANCH   4   5
ATOM      5  C   UNL     1       2.051 108.164 179.229  1.00  0.00     0.000 C 
BRANCH   5   6
ATOM      6  C   UNL     1       1.257 106.841 179.217  1.00  0.00     0.000 C 
BRANCH   6   7
ATOM      7  C   UNL     1       1.091 106.192 177.829  1.00  0.00     0.000 C 
BRANCH   7   8
ATOM      8  C   UNL     1       1.648 104.762 177.710  1.00  0.00     0.000 C 
BRANCH   8   9
ATOM      9  C   UNL     1       2.875 104.528 178.604  1.00  0.00     0.000 C 
BRANCH   9  10
ATOM     10  C   UNL     1       4.065 104.004 177.787  1.00  0.00     0.000 C 
BRANCH  10  11
ATOM     11  C   UNL     1       4.355 104.868 176.549  1.00  0.00     0.000 C 
BRANCH  11  12
ATOM     12  C   UNL     1       5.812 105.350 176.486  1.00  0.00     0.000 C 
BRANCH  12  13
ATOM     13  C   UNL     1       6.745 104.364 177.204  1.00  0.00     0.006 C 
BRANCH  13  14
ATOM     14  C   UNL     1       7.578 103.531 176.221  1.00  0.00     0.053 C 
BRANCH  14  15
ATOM     15  C   UNL     1       6.805 102.366 175.682  1.00  0.00     0.041 C 
ATOM     16  O   UNL     1       6.424 101.447 176.455  1.00  0.00    -0.550 OA
ATOM     17  O   UNL     1       6.492 102.302 174.330  1.00  0.00    -0.550 OA
ENDBRANCH  14  15
ENDBRANCH  13  14
ENDBRANCH  12  13
ENDBRANCH  11  12
ENDBRANCH  10  11
ENDBRANCH   9  10
ENDBRANCH   8   9
ENDBRANCH   7   8
ENDBRANCH   6   7
ENDBRANCH   5   6
ENDBRANCH   4   5
ENDBRANCH   3   4
ENDBRANCH   2   3
ENDBRANCH   1   2
BRANCH   1  18
ATOM     18  C   UNL     1       6.184 110.560 181.248  1.00  0.00     0.000 C 
BRANCH  18  19
ATOM     19  C   UNL     1       5.419 111.895 181.194  1.00  0.00     0.000 C 
BRANCH  19  20
ATOM     20  C   UNL     1       4.365 112.016 182.305  1.00  0.00     0.000 C 
BRANCH  20  21
ATOM     21  C   UNL     1       4.264 110.748 183.167  1.00  0.00     0.000 C 
BRANCH  21  22
ATOM     22  C   UNL     1       2.954 110.000 182.890  1.00  0.00     0.000 C 
BRANCH  22  23
ATOM     23  C   UNL     1       3.189 108.483 182.841  1.00  0.00     0.000 C 
BRANCH  23  24
ATOM     24  C   UNL     1       4.602 108.078 183.298  1.00  0.00    -0.000 C 
BRANCH  24  25
ATOM     25  C   UNL     1       5.128 106.746 182.722  1.00  0.00    -0.000 C 
BRANCH  25  26
ATOM     26  C   UNL     1       4.615 106.389 181.314  1.00  0.00    -0.000 C 
BRANCH  26  27
ATOM     27  C   UNL     1       5.716 105.972 180.323  1.00  0.00    -0.000 C 
BRANCH  27  28
ATOM     28  C   UNL     1       7.145 106.268 180.832  1.00  0.00    -0.000 C 
BRANCH  28  29
ATOM     29  C   UNL     1       8.097 105.055 180.745  1.00  0.00    -0.000 C 
BRANCH  29  30
ATOM     30  C   UNL     1       9.173 105.034 181.848  1.00  0.00    -0.000 C 
BRANCH  30  31
ATOM     31  C   UNL     1       8.752 105.708 183.166  1.00  0.00    -0.003 C 
ATOM     32  C   UNL     1       8.014 104.754 184.105  1.00  0.00     0.004 C 
ENDBRANCH  30  31
ENDBRANCH  29  30
ENDBRANCH  28  29
ENDBRANCH  27  28
ENDBRANCH  26  27
ENDBRANCH  25  26
ENDBRANCH  24  25
ENDBRANCH  23  24
ENDBRANCH  22  23
ENDBRANCH  21  22
ENDBRANCH  20  21
ENDBRANCH  19  20
ENDBRANCH  18  19
ENDBRANCH   1  18
TORSDOF 28
ENDMDL
MODEL 5
REMARK VINA RESULT:    -3.423      4.196      9.777
REMARK INTER + INTRA:         -13.900
REMARK INTER:                  -8.616
REMARK INTRA:                  -5.284
REMARK UNBOUND:                -4.875
REMARK SMILES CCCCCCCCCCCCCCCCCCCCCCCCCCCCCC(=O)[O-]
REMARK SMILES IDX 16 1 17 2 18 3 19 4 20 5 21 6 22 7 23 8 24 9 25 10 26 11
REMARK SMILES IDX 27 12 28 13 29 14 30 15 31 16 32 17 15 18 14 19 13 20 12 21
REMARK SMILES IDX 11 22 10 23 9 24 8 25 7 26 6 27 5 28 4 29 3 30 2 31 1 32
REMARK H PARENT
REMARK Flexibility Score: inf
ROOT
ATOM      1  C   UNL     1       5.275 108.329 178.172  1.00  0.00     0.000 C 
ENDROOT
BRANCH   1   2
ATOM      2  C   UNL     1       6.330 107.234 177.942  1.00  0.00     0.000 C 
BRANCH   2   3
ATOM      3  C   UNL     1       7.207 106.990 179.180  1.00  0.00     0.000 C 
BRANCH   3   4
ATOM      4  C   UNL     1       6.860 107.932 180.345  1.00  0.00     0.000 C 
BRANCH   4   5
ATOM      5  C   UNL     1       6.359 107.175 181.590  1.00  0.00     0.000 C 
BRANCH   5   6
ATOM      6  C   UNL     1       5.157 106.240 181.340  1.00  0.00     0.000 C 
BRANCH   6   7
ATOM      7  C   UNL     1       3.812 106.743 181.899  1.00  0.00     0.000 C 
BRANCH   7   8
ATOM      8  C   UNL     1       3.037 107.694 180.969  1.00  0.00     0.000 C 
BRANCH   8   9
ATOM      9  C   UNL     1       3.189 109.169 181.371  1.00  0.00     0.000 C 
BRANCH   9  10
ATOM     10  C   UNL     1       3.362 109.315 182.889  1.00  0.00     0.000 C 
BRANCH  10  11
ATOM     11  C   UNL     1       4.702 109.966 183.270  1.00  0.00     0.000 C 
BRANCH  11  12
ATOM     12  C   UNL     1       5.292 110.820 182.138  1.00  0.00     0.000 C 
BRANCH  12  13
ATOM     13  C   UNL     1       5.523 112.264 182.607  1.00  0.00     0.006 C 
BRANCH  13  14
ATOM     14  C   UNL     1       4.208 112.998 182.900  1.00  0.00     0.053 C 
BRANCH  14  15
ATOM     15  C   UNL     1       4.035 113.268 184.364  1.00  0.00     0.041 C 
ATOM     16  O   UNL     1       5.039 113.301 185.125  1.00  0.00    -0.550 OA
ATOM     17  O   UNL     1       2.769 113.497 184.887  1.00  0.00    -0.550 OA
ENDBRANCH  14  15
ENDBRANCH  13  14
ENDBRANCH  12  13
ENDBRANCH  11  12
ENDBRANCH  10  11
ENDBRANCH   9  10
ENDBRANCH   8   9
ENDBRANCH   7   8
ENDBRANCH   6   7
ENDBRANCH   5   6
ENDBRANCH   4   5
ENDBRANCH   3   4
ENDBRANCH   2   3
ENDBRANCH   1   2
BRANCH   1  18
ATOM     18  C   UNL     1       3.998 108.101 177.349  1.00  0.00     0.000 C 
BRANCH  18  19
ATOM     19  C   UNL     1       2.922 109.167 177.622  1.00  0.00     0.000 C 
BRANCH  19  20
ATOM     20  C   UNL     1       1.525 108.726 177.159  1.00  0.00     0.000 C 
BRANCH  20  21
ATOM     21  C   UNL     1       0.557 108.497 178.329  1.00  0.00     0.000 C 
BRANCH  21  22
ATOM     22  C   UNL     1       0.210 107.009 178.470  1.00  0.00     0.000 C 
BRANCH  22  23
ATOM     23  C   UNL     1       0.528 106.248 177.175  1.00  0.00     0.000 C 
BRANCH  23  24
ATOM     24  C   UNL     1       1.394 104.997 177.410  1.00  0.00    -0.000 C 
BRANCH  24  25
ATOM     25  C   UNL     1       2.285 105.034 178.671  1.00  0.00    -0.000 C 
BRANCH  25  26
ATOM     26  C   UNL     1       3.712 104.485 178.484  1.00  0.00    -0.000 C 
BRANCH  26  27
ATOM     27  C   UNL     1       4.148 104.336 177.015  1.00  0.00    -0.000 C 
BRANCH  27  28
ATOM     28  C   UNL     1       5.628 103.921 176.854  1.00  0.00    -0.000 C 
BRANCH  28  29
ATOM     29  C   UNL     1       5.874 102.411 177.063  1.00  0.00    -0.000 C 
BRANCH  29  30
ATOM     30  C   UNL     1       6.704 101.758 175.940  1.00  0.00    -0.000 C 
BRANCH  30  31
ATOM     31  C   UNL     1       5.892 100.879 174.972  1.00  0.00    -0.003 C 
ATOM     32  C   UNL     1       4.790 101.657 174.254  1.00  0.00     0.004 C 
ENDBRANCH  30  31
ENDBRANCH  29  30
ENDBRANCH  28  29
ENDBRANCH  27  28
ENDBRANCH  26  27
ENDBRANCH  25  26
ENDBRANCH  24  25
ENDBRANCH  23  24
ENDBRANCH  22  23
ENDBRANCH  21  22
ENDBRANCH  20  21
ENDBRANCH  19  20
ENDBRANCH  18  19
ENDBRANCH   1  18
TORSDOF 28
ENDMDL
MODEL 6
REMARK VINA RESULT:    -3.407      3.457      5.594
REMARK INTER + INTRA:         -13.859
REMARK INTER:                  -8.347
REMARK INTRA:                  -5.512
REMARK UNBOUND:                -4.875
REMARK SMILES CCCCCCCCCCCCCCCCCCCCCCCCCCCCCC(=O)[O-]
REMARK SMILES IDX 16 1 17 2 18 3 19 4 20 5 21 6 22 7 23 8 24 9 25 10 26 11
REMARK SMILES IDX 27 12 28 13 29 14 30 15 31 16 32 17 15 18 14 19 13 20 12 21
REMARK SMILES IDX 11 22 10 23 9 24 8 25 7 26 6 27 5 28 4 29 3 30 2 31 1 32
REMARK H PARENT
REMARK Flexibility Score: inf
ROOT
ATOM      1  C   UNL     1       2.776 104.763 179.485  1.00  0.00     0.000 C 
ENDROOT
BRANCH   1   2
ATOM      2  C   UNL     1       3.537 104.677 178.151  1.00  0.00     0.000 C 
BRANCH   2   3
ATOM      3  C   UNL     1       2.684 105.129 176.956  1.00  0.00     0.000 C 
BRANCH   3   4
ATOM      4  C   UNL     1       1.175 105.049 177.241  1.00  0.00     0.000 C 
BRANCH   4   5
ATOM      5  C   UNL     1       0.487 106.426 177.181  1.00  0.00     0.000 C 
BRANCH   5   6
ATOM      6  C   UNL     1      -0.043 106.946 178.533  1.00  0.00     0.000 C 
BRANCH   6   7
ATOM      7  C   UNL     1       0.843 108.005 179.217  1.00  0.00     0.000 C 
BRANCH   7   8
ATOM      8  C   UNL     1       2.049 108.477 178.387  1.00  0.00     0.000 C 
BRANCH   8   9
ATOM      9  C   UNL     1       3.215 108.966 179.260  1.00  0.00     0.000 C 
BRANCH   9  10
ATOM     10  C   UNL     1       4.373 109.488 178.397  1.00  0.00     0.000 C 
BRANCH  10  11
ATOM     11  C   UNL     1       5.173 110.601 179.093  1.00  0.00     0.000 C 
BRANCH  11  12
ATOM     12  C   UNL     1       6.689 110.460 178.893  1.00  0.00     0.000 C 
BRANCH  12  13
ATOM     13  C   UNL     1       7.350 109.846 180.135  1.00  0.00     0.006 C 
BRANCH  13  14
ATOM     14  C   UNL     1       6.894 110.525 181.433  1.00  0.00     0.053 C 
BRANCH  14  15
ATOM     15  C   UNL     1       7.793 110.189 182.583  1.00  0.00     0.041 C 
ATOM     16  O   UNL     1       8.168 111.091 183.379  1.00  0.00    -0.550 OA
ATOM     17  O   UNL     1       8.206 108.877 182.786  1.00  0.00    -0.550 OA
ENDBRANCH  14  15
ENDBRANCH  13  14
ENDBRANCH  12  13
ENDBRANCH  11  12
ENDBRANCH  10  11
ENDBRANCH   9  10
ENDBRANCH   8   9
ENDBRANCH   7   8
ENDBRANCH   6   7
ENDBRANCH   5   6
ENDBRANCH   4   5
ENDBRANCH   3   4
ENDBRANCH   2   3
ENDBRANCH   1   2
BRANCH   1  18
ATOM     18  C   UNL     1       3.471 105.680 180.503  1.00  0.00     0.000 C 
BRANCH  18  19
ATOM     19  C   UNL     1       4.957 105.909 180.173  1.00  0.00     0.000 C 
BRANCH  19  20
ATOM     20  C   UNL     1       5.632 106.890 181.143  1.00  0.00     0.000 C 
BRANCH  20  21
ATOM     21  C   UNL     1       5.135 106.733 182.587  1.00  0.00     0.000 C 
BRANCH  21  22
ATOM     22  C   UNL     1       4.703 108.085 183.169  1.00  0.00     0.000 C 
BRANCH  22  23
ATOM     23  C   UNL     1       3.173 108.191 183.233  1.00  0.00     0.000 C 
BRANCH  23  24
ATOM     24  C   UNL     1       2.625 109.438 182.517  1.00  0.00    -0.000 C 
BRANCH  24  25
ATOM     25  C   UNL     1       3.557 110.669 182.524  1.00  0.00    -0.000 C 
BRANCH  25  26
ATOM     26  C   UNL     1       3.456 111.562 183.775  1.00  0.00    -0.000 C 
BRANCH  26  27
ATOM     27  C   UNL     1       4.812 111.925 184.408  1.00  0.00    -0.000 C 
BRANCH  27  28
ATOM     28  C   UNL     1       4.903 113.401 184.859  1.00  0.00    -0.000 C 
BRANCH  28  29
ATOM     29  C   UNL     1       3.891 114.328 184.153  1.00  0.00    -0.000 C 
BRANCH  29  30
ATOM     30  C   UNL     1       4.540 115.306 183.154  1.00  0.00    -0.000 C 
BRANCH  30  31
ATOM     31  C   UNL     1       4.116 115.101 181.689  1.00  0.00    -0.003 C 
ATOM     32  C   UNL     1       4.731 113.847 181.068  1.00  0.00     0.004 C 
ENDBRANCH  30  31
ENDBRANCH  29  30
ENDBRANCH  28  29
ENDBRANCH  27  28
ENDBRANCH  26  27
ENDBRANCH  25  26
ENDBRANCH  24  25
ENDBRANCH  23  24
ENDBRANCH  22  23
ENDBRANCH  21  22
ENDBRANCH  20  21
ENDBRANCH  19  20
ENDBRANCH  18  19
ENDBRANCH   1  18
TORSDOF 28
ENDMDL
MODEL 7
REMARK VINA RESULT:    -3.404      2.430      8.682
REMARK INTER + INTRA:         -13.850
REMARK INTER:                  -8.374
REMARK INTRA:                  -5.477
REMARK UNBOUND:                -4.875
REMARK SMILES CCCCCCCCCCCCCCCCCCCCCCCCCCCCCC(=O)[O-]
REMARK SMILES IDX 16 1 17 2 18 3 19 4 20 5 21 6 22 7 23 8 24 9 25 10 26 11
REMARK SMILES IDX 27 12 28 13 29 14 30 15 31 16 32 17 15 18 14 19 13 20 12 21
REMARK SMILES IDX 11 22 10 23 9 24 8 25 7 26 6 27 5 28 4 29 3 30 2 31 1 32
REMARK H PARENT
REMARK Flexibility Score: inf
ROOT
ATOM      1  C   UNL     1       2.195 108.386 179.245  1.00  0.00     0.000 C 
ENDROOT
BRANCH   1   2
ATOM      2  C   UNL     1       1.714 108.149 180.686  1.00  0.00     0.000 C 
BRANCH   2   3
ATOM      3  C   UNL     1       2.867 108.152 181.701  1.00  0.00     0.000 C 
BRANCH   3   4
ATOM      4  C   UNL     1       2.563 109.015 182.938  1.00  0.00     0.000 C 
BRANCH   4   5
ATOM      5  C   UNL     1       3.218 110.407 182.865  1.00  0.00     0.000 C 
BRANCH   5   6
ATOM      6  C   UNL     1       4.734 110.397 182.578  1.00  0.00     0.000 C 
BRANCH   6   7
ATOM      7  C   UNL     1       5.607 109.813 183.706  1.00  0.00     0.000 C 
BRANCH   7   8
ATOM      8  C   UNL     1       6.490 108.622 183.293  1.00  0.00     0.000 C 
BRANCH   8   9
ATOM      9  C   UNL     1       5.832 107.266 183.591  1.00  0.00     0.000 C 
BRANCH   9  10
ATOM     10  C   UNL     1       6.624 106.114 182.954  1.00  0.00     0.000 C 
BRANCH  10  11
ATOM     11  C   UNL     1       6.809 106.293 181.438  1.00  0.00     0.000 C 
BRANCH  11  12
ATOM     12  C   UNL     1       5.546 105.941 180.638  1.00  0.00     0.000 C 
BRANCH  12  13
ATOM     13  C   UNL     1       5.418 106.837 179.398  1.00  0.00     0.006 C 
BRANCH  13  14
ATOM     14  C   UNL     1       6.021 108.230 179.621  1.00  0.00     0.053 C 
BRANCH  14  15
ATOM     15  C   UNL     1       6.899 108.647 178.481  1.00  0.00     0.041 C 
ATOM     16  O   UNL     1       7.791 107.868 178.051  1.00  0.00    -0.550 OA
ATOM     17  O   UNL     1       6.723 109.888 177.883  1.00  0.00    -0.550 OA
ENDBRANCH  14  15
ENDBRANCH  13  14
ENDBRANCH  12  13
ENDBRANCH  11  12
ENDBRANCH  10  11
ENDBRANCH   9  10
ENDBRANCH   8   9
ENDBRANCH   7   8
ENDBRANCH   6   7
ENDBRANCH   5   6
ENDBRANCH   4   5
ENDBRANCH   3   4
ENDBRANCH   2   3
ENDBRANCH   1   2
BRANCH   1  18
ATOM     18  C   UNL     1       1.832 107.227 178.303  1.00  0.00     0.000 C 
BRANCH  18  19
ATOM     19  C   UNL     1       1.902 105.856 179.000  1.00  0.00     0.000 C 
BRANCH  19  20
ATOM     20  C   UNL     1       2.277 104.723 178.034  1.00  0.00     0.000 C 
BRANCH  20  21
ATOM     21  C   UNL     1       2.623 105.233 176.627  1.00  0.00     0.000 C 
BRANCH  21  22
ATOM     22  C   UNL     1       3.906 104.575 176.105  1.00  0.00     0.000 C 
BRANCH  22  23
ATOM     23  C   UNL     1       4.995 105.627 175.845  1.00  0.00     0.000 C 
BRANCH  23  24
ATOM     24  C   UNL     1       6.403 105.144 176.234  1.00  0.00    -0.000 C 
BRANCH  24  25
ATOM     25  C   UNL     1       6.453 104.068 177.341  1.00  0.00    -0.000 C 
BRANCH  25  26
ATOM     26  C   UNL     1       6.992 102.694 176.899  1.00  0.00    -0.000 C 
BRANCH  26  27
ATOM     27  C   UNL     1       5.902 101.661 176.565  1.00  0.00    -0.000 C 
BRANCH  27  28
ATOM     28  C   UNL     1       5.729 101.419 175.049  1.00  0.00    -0.000 C 
BRANCH  28  29
ATOM     29  C   UNL     1       6.828 102.076 174.187  1.00  0.00    -0.000 C 
BRANCH  29  30
ATOM     30  C   UNL     1       6.278 102.918 173.019  1.00  0.00    -0.000 C 
BRANCH  30  31
ATOM     31  C   UNL     1       4.775 102.729 172.747  1.00  0.00    -0.003 C 
ATOM     32  C   UNL     1       4.060 104.046 172.447  1.00  0.00     0.004 C 
ENDBRANCH  30  31
ENDBRANCH  29  30
ENDBRANCH  28  29
ENDBRANCH  27  28
ENDBRANCH  26  27
ENDBRANCH  25  26
ENDBRANCH  24  25
ENDBRANCH  23  24
ENDBRANCH  22  23
ENDBRANCH  21  22
ENDBRANCH  20  21
ENDBRANCH  19  20
ENDBRANCH  18  19
ENDBRANCH   1  18
TORSDOF 28
ENDMDL
MODEL 8
REMARK VINA RESULT:    -3.385      1.760      2.873
REMARK INTER + INTRA:         -13.802
REMARK INTER:                  -8.017
REMARK INTRA:                  -5.785
REMARK UNBOUND:                -4.875
REMARK SMILES CCCCCCCCCCCCCCCCCCCCCCCCCCCCCC(=O)[O-]
REMARK SMILES IDX 16 1 17 2 18 3 19 4 20 5 21 6 22 7 23 8 24 9 25 10 26 11
REMARK SMILES IDX 27 12 28 13 29 14 30 15 31 16 32 17 15 18 14 19 13 20 12 21
REMARK SMILES IDX 11 22 10 23 9 24 8 25 7 26 6 27 5 28 4 29 3 30 2 31 1 32
REMARK H PARENT
REMARK Flexibility Score: inf
ROOT
ATOM      1  C   UNL     1       3.344 108.132 178.863  1.00  0.00     0.000 C 
ENDROOT
BRANCH   1   2
ATOM      2  C   UNL     1       2.216 108.539 177.901  1.00  0.00     0.000 C 
BRANCH   2   3
ATOM      3  C   UNL     1       0.823 108.412 178.537  1.00  0.00     0.000 C 
BRANCH   3   4
ATOM      4  C   UNL     1       0.387 106.948 178.719  1.00  0.00     0.000 C 
BRANCH   4   5
ATOM      5  C   UNL     1       0.347 106.172 177.390  1.00  0.00     0.000 C 
BRANCH   5   6
ATOM      6  C   UNL     1       1.322 104.979 177.305  1.00  0.00     0.000 C 
BRANCH   6   7
ATOM      7  C   UNL     1       2.178 104.746 178.566  1.00  0.00     0.000 C 
BRANCH   7   8
ATOM      8  C   UNL     1       3.666 104.460 178.296  1.00  0.00     0.000 C 
BRANCH   8   9
ATOM      9  C   UNL     1       4.115 104.921 176.901  1.00  0.00     0.000 C 
BRANCH   9  10
ATOM     10  C   UNL     1       5.504 105.572 176.953  1.00  0.00     0.000 C 
BRANCH  10  11
ATOM     11  C   UNL     1       6.588 104.702 176.295  1.00  0.00     0.000 C 
BRANCH  11  12
ATOM     12  C   UNL     1       7.412 103.904 177.316  1.00  0.00     0.000 C 
BRANCH  12  13
ATOM     13  C   UNL     1       7.458 102.416 176.937  1.00  0.00     0.006 C 
BRANCH  13  14
ATOM     14  C   UNL     1       6.066 101.853 176.622  1.00  0.00     0.053 C 
BRANCH  14  15
ATOM     15  C   UNL     1       6.002 101.265 175.245  1.00  0.00     0.041 C 
ATOM     16  O   UNL     1       5.067 100.480 174.934  1.00  0.00    -0.550 OA
ATOM     17  O   UNL     1       6.966 101.595 174.300  1.00  0.00    -0.550 OA
ENDBRANCH  14  15
ENDBRANCH  13  14
ENDBRANCH  12  13
ENDBRANCH  11  12
ENDBRANCH  10  11
ENDBRANCH   9  10
ENDBRANCH   8   9
ENDBRANCH   7   8
ENDBRANCH   6   7
ENDBRANCH   5   6
ENDBRANCH   4   5
ENDBRANCH   3   4
ENDBRANCH   2   3
ENDBRANCH   1   2
BRANCH   1  18
ATOM     18  C   UNL     1       3.243 108.838 180.224  1.00  0.00     0.000 C 
BRANCH  18  19
ATOM     19  C   UNL     1       2.907 107.866 181.370  1.00  0.00     0.000 C 
BRANCH  19  20
ATOM     20  C   UNL     1       3.839 106.645 181.399  1.00  0.00     0.000 C 
BRANCH  20  21
ATOM     21  C   UNL     1       4.879 106.720 182.526  1.00  0.00     0.000 C 
BRANCH  21  22
ATOM     22  C   UNL     1       6.263 106.286 182.026  1.00  0.00     0.000 C 
BRANCH  22  23
ATOM     23  C   UNL     1       6.270 106.134 180.498  1.00  0.00     0.000 C 
BRANCH  23  24
ATOM     24  C   UNL     1       7.307 107.038 179.808  1.00  0.00    -0.000 C 
BRANCH  24  25
ATOM     25  C   UNL     1       7.120 108.554 180.033  1.00  0.00    -0.000 C 
BRANCH  25  26
ATOM     26  C   UNL     1       6.826 109.376 178.764  1.00  0.00    -0.000 C 
BRANCH  26  27
ATOM     27  C   UNL     1       6.110 110.713 179.024  1.00  0.00    -0.000 C 
BRANCH  27  28
ATOM     28  C   UNL     1       6.747 111.538 180.166  1.00  0.00    -0.000 C 
BRANCH  28  29
ATOM     29  C   UNL     1       5.793 111.791 181.353  1.00  0.00    -0.000 C 
BRANCH  29  30
ATOM     30  C   UNL     1       6.123 110.949 182.602  1.00  0.00    -0.000 C 
BRANCH  30  31
ATOM     31  C   UNL     1       4.904 110.287 183.268  1.00  0.00    -0.003 C 
ATOM     32  C   UNL     1       3.627 111.112 183.111  1.00  0.00     0.004 C 
ENDBRANCH  30  31
ENDBRANCH  29  30
ENDBRANCH  28  29
ENDBRANCH  27  28
ENDBRANCH  26  27
ENDBRANCH  25  26
ENDBRANCH  24  25
ENDBRANCH  23  24
ENDBRANCH  22  23
ENDBRANCH  21  22
ENDBRANCH  20  21
ENDBRANCH  19  20
ENDBRANCH  18  19
ENDBRANCH   1  18
TORSDOF 28
ENDMDL
MODEL 9
REMARK VINA RESULT:    -3.385      2.042      4.462
REMARK INTER + INTRA:         -13.801
REMARK INTER:                  -8.069
REMARK INTRA:                  -5.733
REMARK UNBOUND:                -4.875
REMARK SMILES CCCCCCCCCCCCCCCCCCCCCCCCCCCCCC(=O)[O-]
REMARK SMILES IDX 16 1 17 2 18 3 19 4 20 5 21 6 22 7 23 8 24 9 25 10 26 11
REMARK SMILES IDX 27 12 28 13 29 14 30 15 31 16 32 17 15 18 14 19 13 20 12 21
REMARK SMILES IDX 11 22 10 23 9 24 8 25 7 26 6 27 5 28 4 29 3 30 2 31 1 32
REMARK H PARENT
REMARK Flexibility Score: inf
ROOT
ATOM      1  C   UNL     1       4.548 106.677 181.423  1.00  0.00     0.000 C 
ENDROOT
BRANCH   1   2
ATOM      2  C   UNL     1       4.284 105.857 180.149  1.00  0.00     0.000 C 
BRANCH   2   3
ATOM      3  C   UNL     1       2.896 105.199 180.148  1.00  0.00     0.000 C 
BRANCH   3   4
ATOM      4  C   UNL     1       2.008 105.693 178.994  1.00  0.00     0.000 C 
BRANCH   4   5
ATOM      5  C   UNL     1       2.468 107.051 178.431  1.00  0.00     0.000 C 
BRANCH   5   6
ATOM      6  C   UNL     1       2.915 107.023 176.955  1.00  0.00     0.000 C 
BRANCH   6   7
ATOM      7  C   UNL     1       2.528 105.748 176.180  1.00  0.00     0.000 C 
BRANCH   7   8
ATOM      8  C   UNL     1       3.713 104.945 175.615  1.00  0.00     0.000 C 
BRANCH   8   9
ATOM      9  C   UNL     1       4.950 104.996 176.525  1.00  0.00     0.000 C 
BRANCH   9  10
ATOM     10  C   UNL     1       5.110 103.689 177.315  1.00  0.00     0.000 C 
BRANCH  10  11
ATOM     11  C   UNL     1       6.400 102.935 176.952  1.00  0.00     0.000 C 
BRANCH  11  12
ATOM     12  C   UNL     1       6.138 101.673 176.116  1.00  0.00     0.000 C 
BRANCH  12  13
ATOM     13  C   UNL     1       6.314 101.965 174.618  1.00  0.00     0.006 C 
BRANCH  13  14
ATOM     14  C   UNL     1       4.971 102.059 173.882  1.00  0.00     0.053 C 
BRANCH  14  15
ATOM     15  C   UNL     1       5.091 102.828 172.602  1.00  0.00     0.041 C 
ATOM     16  O   UNL     1       4.076 103.020 171.880  1.00  0.00    -0.550 OA
ATOM     17  O   UNL     1       6.320 103.346 172.212  1.00  0.00    -0.550 OA
ENDBRANCH  14  15
ENDBRANCH  13  14
ENDBRANCH  12  13
ENDBRANCH  11  12
ENDBRANCH  10  11
ENDBRANCH   9  10
ENDBRANCH   8   9
ENDBRANCH   7   8
ENDBRANCH   6   7
ENDBRANCH   5   6
ENDBRANCH   4   5
ENDBRANCH   3   4
ENDBRANCH   2   3
ENDBRANCH   1   2
BRANCH   1  18
ATOM     18  C   UNL     1       3.252 107.093 182.136  1.00  0.00     0.000 C 
BRANCH  18  19
ATOM     19  C   UNL     1       2.839 108.540 181.812  1.00  0.00     0.000 C 
BRANCH  19  20
ATOM     20  C   UNL     1       3.926 109.306 181.044  1.00  0.00     0.000 C 
BRANCH  20  21
ATOM     21  C   UNL     1       4.346 110.605 181.749  1.00  0.00     0.000 C 
BRANCH  21  22
ATOM     22  C   UNL     1       5.004 110.305 183.102  1.00  0.00     0.000 C 
BRANCH  22  23
ATOM     23  C   UNL     1       6.333 109.559 182.912  1.00  0.00     0.000 C 
BRANCH  23  24
ATOM     24  C   UNL     1       6.536 108.423 183.929  1.00  0.00    -0.000 C 
BRANCH  24  25
ATOM     25  C   UNL     1       7.705 107.461 183.625  1.00  0.00    -0.000 C 
BRANCH  25  26
ATOM     26  C   UNL     1       7.331 105.968 183.566  1.00  0.00    -0.000 C 
BRANCH  26  27
ATOM     27  C   UNL     1       7.913 105.214 182.358  1.00  0.00    -0.000 C 
BRANCH  27  28
ATOM     28  C   UNL     1       8.236 106.133 181.158  1.00  0.00    -0.000 C 
BRANCH  28  29
ATOM     29  C   UNL     1       8.073 105.441 179.787  1.00  0.00    -0.000 C 
BRANCH  29  30
ATOM     30  C   UNL     1       7.596 106.389 178.669  1.00  0.00    -0.000 C 
BRANCH  30  31
ATOM     31  C   UNL     1       7.196 107.795 179.149  1.00  0.00    -0.003 C 
ATOM     32  C   UNL     1       6.194 108.474 178.217  1.00  0.00     0.004 C 
ENDBRANCH  30  31
ENDBRANCH  29  30
ENDBRANCH  28  29
ENDBRANCH  27  28
ENDBRANCH  26  27
ENDBRANCH  25  26
ENDBRANCH  24  25
ENDBRANCH  23  24
ENDBRANCH  22  23
ENDBRANCH  21  22
ENDBRANCH  20  21
ENDBRANCH  19  20
ENDBRANCH  18  19
ENDBRANCH   1  18
TORSDOF 28
ENDMDL
