MODEL 1
REMARK VINA RESULT:    -3.548      0.000      0.000
REMARK INTER + INTRA:         -14.467
REMARK INTER:                  -8.942
REMARK INTRA:                  -5.525
REMARK UNBOUND:                -5.525
REMARK SMILES CCCCCCCCCCCCCCCCCCCCCCCCCCCC(=O)[O-]
REMARK SMILES IDX 15 1 16 2 17 3 18 4 19 5 20 6 21 7 22 8 23 9 24 10 25 11
REMARK SMILES IDX 26 12 27 13 28 14 29 15 30 16 14 17 13 18 12 19 11 20 10 21
REMARK SMILES IDX 9 22 8 23 7 24 6 25 5 26 4 27 3 28 2 29 1 30
REMARK H PARENT
REMARK Flexibility Score: inf
ROOT
ATOM      1  C   UNL     1      18.879 130.338  54.626  1.00  0.00     0.000 C 
ENDROOT
BRANCH   1   2
ATOM      2  C   UNL     1      19.439 131.736  54.304  1.00  0.00     0.000 C 
BRANCH   2   3
ATOM      3  C   UNL     1      20.709 132.070  55.103  1.00  0.00     0.000 C 
BRANCH   3   4
ATOM      4  C   UNL     1      20.540 133.310  55.994  1.00  0.00     0.000 C 
BRANCH   4   5
ATOM      5  C   UNL     1      19.100 133.836  55.939  1.00  0.00     0.000 C 
BRANCH   5   6
ATOM      6  C   UNL     1      18.434 133.923  57.325  1.00  0.00     0.000 C 
BRANCH   6   7
ATOM      7  C   UNL     1      19.299 133.457  58.520  1.00  0.00     0.000 C 
BRANCH   7   8
ATOM      8  C   UNL     1      18.536 132.810  59.697  1.00  0.00     0.000 C 
BRANCH   8   9
ATOM      9  C   UNL     1      17.029 132.616  59.454  1.00  0.00     0.000 C 
BRANCH   9  10
ATOM     10  C   UNL     1      16.399 131.531  60.344  1.00  0.00     0.000 C 
BRANCH  10  11
ATOM     11  C   UNL     1      17.383 130.961  61.382  1.00  0.00     0.000 C 
BRANCH  11  12
ATOM     12  C   UNL     1      17.352 129.428  61.523  1.00  0.00     0.006 C 
BRANCH  12  13
ATOM     13  C   UNL     1      18.716 128.835  61.905  1.00  0.00     0.053 C 
BRANCH  13  14
ATOM     14  C   UNL     1      18.604 127.977  63.128  1.00  0.00     0.041 C 
ATOM     15  O   UNL     1      18.543 128.504  64.271  1.00  0.00    -0.550 OA
ATOM     16  O   UNL     1      18.549 126.594  63.004  1.00  0.00    -0.550 OA
ENDBRANCH  13  14
ENDBRANCH  12  13
ENDBRANCH  11  12
ENDBRANCH  10  11
ENDBRANCH   9  10
ENDBRANCH   8   9
ENDBRANCH   7   8
ENDBRANCH   6   7
ENDBRANCH   5   6
ENDBRANCH   4   5
ENDBRANCH   3   4
ENDBRANCH   2   3
ENDBRANCH   1   2
BRANCH   1  17
ATOM     17  C   UNL     1      19.545 129.708  55.869  1.00  0.00     0.000 C 
BRANCH  17  18
ATOM     18  C   UNL     1      18.705 129.829  57.156  1.00  0.00     0.000 C 
BRANCH  18  19
ATOM     19  C   UNL     1      17.212 130.126  56.939  1.00  0.00     0.000 C 
BRANCH  19  20
ATOM     20  C   UNL     1      16.299 129.017  57.489  1.00  0.00     0.000 C 
BRANCH  20  21
ATOM     21  C   UNL     1      15.589 128.232  56.373  1.00  0.00     0.000 C 
BRANCH  21  22
ATOM     22  C   UNL     1      16.562 127.381  55.544  1.00  0.00    -0.000 C 
BRANCH  22  23
ATOM     23  C   UNL     1      16.387 127.655  54.042  1.00  0.00    -0.000 C 
BRANCH  23  24
ATOM     24  C   UNL     1      15.235 128.630  53.739  1.00  0.00    -0.000 C 
BRANCH  24  25
ATOM     25  C   UNL     1      15.616 129.729  52.724  1.00  0.00    -0.000 C 
BRANCH  25  26
ATOM     26  C   UNL     1      14.863 131.046  52.987  1.00  0.00    -0.000 C 
BRANCH  26  27
ATOM     27  C   UNL     1      14.983 131.519  54.445  1.00  0.00    -0.000 C 
BRANCH  27  28
ATOM     28  C   UNL     1      15.889 132.755  54.592  1.00  0.00    -0.000 C 
BRANCH  28  29
ATOM     29  C   UNL     1      15.747 133.736  53.415  1.00  0.00    -0.003 C 
ATOM     30  C   UNL     1      17.086 134.080  52.762  1.00  0.00     0.004 C 
ENDBRANCH  28  29
ENDBRANCH  27  28
ENDBRANCH  26  27
ENDBRANCH  25  26
ENDBRANCH  24  25
ENDBRANCH  23  24
ENDBRANCH  22  23
ENDBRANCH  21  22
ENDBRANCH  20  21
ENDBRANCH  19  20
ENDBRANCH  18  19
ENDBRANCH  17  18
ENDBRANCH   1  17
TORSDOF 26
ENDMDL
MODEL 2
REMARK VINA RESULT:    -3.539      3.943      7.012
REMARK INTER + INTRA:         -14.444
REMARK INTER:                  -8.247
REMARK INTRA:                  -6.197
REMARK UNBOUND:                -5.525
REMARK SMILES CCCCCCCCCCCCCCCCCCCCCCCCCCCC(=O)[O-]
REMARK SMILES IDX 15 1 16 2 17 3 18 4 19 5 20 6 21 7 22 8 23 9 24 10 25 11
REMARK SMILES IDX 26 12 27 13 28 14 29 15 30 16 14 17 13 18 12 19 11 20 10 21
REMARK SMILES IDX 9 22 8 23 7 24 6 25 5 26 4 27 3 28 2 29 1 30
REMARK H PARENT
REMARK Flexibility Score: inf
ROOT
ATOM      1  C   UNL     1      17.692 128.444  54.547  1.00  0.00     0.000 C 
ENDROOT
BRANCH   1   2
ATOM      2  C   UNL     1      18.940 128.728  55.404  1.00  0.00     0.000 C 
BRANCH   2   3
ATOM      3  C   UNL     1      19.480 130.155  55.218  1.00  0.00     0.000 C 
BRANCH   3   4
ATOM      4  C   UNL     1      18.602 131.005  54.287  1.00  0.00     0.000 C 
BRANCH   4   5
ATOM      5  C   UNL     1      19.267 132.354  53.982  1.00  0.00     0.000 C 
BRANCH   5   6
ATOM      6  C   UNL     1      18.328 133.555  54.208  1.00  0.00     0.000 C 
BRANCH   6   7
ATOM      7  C   UNL     1      17.023 133.557  53.377  1.00  0.00     0.000 C 
BRANCH   7   8
ATOM      8  C   UNL     1      15.708 133.665  54.182  1.00  0.00     0.000 C 
BRANCH   8   9
ATOM      9  C   UNL     1      14.627 132.645  53.783  1.00  0.00     0.000 C 
BRANCH   9  10
ATOM     10  C   UNL     1      14.956 131.204  54.210  1.00  0.00     0.000 C 
BRANCH  10  11
ATOM     11  C   UNL     1      14.836 130.194  53.054  1.00  0.00     0.000 C 
BRANCH  11  12
ATOM     12  C   UNL     1      15.206 130.756  51.669  1.00  0.00     0.006 C 
BRANCH  12  13
ATOM     13  C   UNL     1      16.641 130.407  51.246  1.00  0.00     0.053 C 
BRANCH  13  14
ATOM     14  C   UNL     1      16.646 129.584  49.995  1.00  0.00     0.041 C 
ATOM     15  O   UNL     1      17.422 128.596  49.887  1.00  0.00    -0.550 OA
ATOM     16  O   UNL     1      15.780 129.895  48.954  1.00  0.00    -0.550 OA
ENDBRANCH  13  14
ENDBRANCH  12  13
ENDBRANCH  11  12
ENDBRANCH  10  11
ENDBRANCH   9  10
ENDBRANCH   8   9
ENDBRANCH   7   8
ENDBRANCH   6   7
ENDBRANCH   5   6
ENDBRANCH   4   5
ENDBRANCH   3   4
ENDBRANCH   2   3
ENDBRANCH   1   2
BRANCH   1  17
ATOM     17  C   UNL     1      16.527 127.862  55.378  1.00  0.00     0.000 C 
BRANCH  17  18
ATOM     18  C   UNL     1      16.562 128.262  56.866  1.00  0.00     0.000 C 
BRANCH  18  19
ATOM     19  C   UNL     1      15.199 128.627  57.479  1.00  0.00     0.000 C 
BRANCH  19  20
ATOM     20  C   UNL     1      15.133 128.353  58.991  1.00  0.00     0.000 C 
BRANCH  20  21
ATOM     21  C   UNL     1      14.671 129.581  59.792  1.00  0.00     0.000 C 
BRANCH  21  22
ATOM     22  C   UNL     1      15.795 130.178  60.652  1.00  0.00    -0.000 C 
BRANCH  22  23
ATOM     23  C   UNL     1      16.940 129.171  60.835  1.00  0.00    -0.000 C 
BRANCH  23  24
ATOM     24  C   UNL     1      18.327 129.782  60.566  1.00  0.00    -0.000 C 
BRANCH  24  25
ATOM     25  C   UNL     1      18.500 130.293  59.119  1.00  0.00    -0.000 C 
BRANCH  25  26
ATOM     26  C   UNL     1      18.696 131.820  59.064  1.00  0.00    -0.000 C 
BRANCH  26  27
ATOM     27  C   UNL     1      18.177 132.440  57.757  1.00  0.00    -0.000 C 
BRANCH  27  28
ATOM     28  C   UNL     1      16.749 131.978  57.412  1.00  0.00    -0.000 C 
BRANCH  28  29
ATOM     29  C   UNL     1      15.670 132.802  58.135  1.00  0.00    -0.003 C 
ATOM     30  C   UNL     1      14.274 132.604  57.543  1.00  0.00     0.004 C 
ENDBRANCH  28  29
ENDBRANCH  27  28
ENDBRANCH  26  27
ENDBRANCH  25  26
ENDBRANCH  24  25
ENDBRANCH  23  24
ENDBRANCH  22  23
ENDBRANCH  21  22
ENDBRANCH  20  21
ENDBRANCH  19  20
ENDBRANCH  18  19
ENDBRANCH  17  18
ENDBRANCH   1  17
TORSDOF 26
ENDMDL
MODEL 3
REMARK VINA RESULT:    -3.516      1.707      3.641
REMARK INTER + INTRA:         -14.384
REMARK INTER:                  -8.328
REMARK INTRA:                  -6.056
REMARK UNBOUND:                -5.525
REMARK SMILES CCCCCCCCCCCCCCCCCCCCCCCCCCCC(=O)[O-]
REMARK SMILES IDX 15 1 16 2 17 3 18 4 19 5 20 6 21 7 22 8 23 9 24 10 25 11
REMARK SMILES IDX 26 12 27 13 28 14 29 15 30 16 14 17 13 18 12 19 11 20 10 21
REMARK SMILES IDX 9 22 8 23 7 24 6 25 5 26 4 27 3 28 2 29 1 30
REMARK H PARENT
REMARK Flexibility Score: inf
ROOT
ATOM      1  C   UNL     1      16.850 128.081  54.421  1.00  0.00     0.000 C 
ENDROOT
BRANCH   1   2
ATOM      2  C   UNL     1      18.259 128.622  54.726  1.00  0.00     0.000 C 
BRANCH   2   3
ATOM      3  C   UNL     1      18.372 129.241  56.128  1.00  0.00     0.000 C 
BRANCH   3   4
ATOM      4  C   UNL     1      19.627 130.110  56.294  1.00  0.00     0.000 C 
BRANCH   4   5
ATOM      5  C   UNL     1      19.830 131.022  55.077  1.00  0.00     0.000 C 
BRANCH   5   6
ATOM      6  C   UNL     1      19.899 132.516  55.446  1.00  0.00     0.000 C 
BRANCH   6   7
ATOM      7  C   UNL     1      19.408 132.884  56.866  1.00  0.00     0.000 C 
BRANCH   7   8
ATOM      8  C   UNL     1      18.206 133.852  56.938  1.00  0.00     0.000 C 
BRANCH   8   9
ATOM      9  C   UNL     1      17.037 133.358  57.807  1.00  0.00     0.000 C 
BRANCH   9  10
ATOM     10  C   UNL     1      17.429 132.237  58.784  1.00  0.00     0.000 C 
BRANCH  10  11
ATOM     11  C   UNL     1      16.583 130.963  58.605  1.00  0.00     0.000 C 
BRANCH  11  12
ATOM     12  C   UNL     1      16.984 129.791  59.518  1.00  0.00     0.006 C 
BRANCH  12  13
ATOM     13  C   UNL     1      17.678 130.249  60.809  1.00  0.00     0.053 C 
BRANCH  13  14
ATOM     14  C   UNL     1      18.922 129.453  61.061  1.00  0.00     0.041 C 
ATOM     15  O   UNL     1      19.882 129.499  60.245  1.00  0.00    -0.550 OA
ATOM     16  O   UNL     1      19.030 128.675  62.207  1.00  0.00    -0.550 OA
ENDBRANCH  13  14
ENDBRANCH  12  13
ENDBRANCH  11  12
ENDBRANCH  10  11
ENDBRANCH   9  10
ENDBRANCH   8   9
ENDBRANCH   7   8
ENDBRANCH   6   7
ENDBRANCH   5   6
ENDBRANCH   4   5
ENDBRANCH   3   4
ENDBRANCH   2   3
ENDBRANCH   1   2
BRANCH   1  17
ATOM     17  C   UNL     1      16.016 127.855  55.701  1.00  0.00     0.000 C 
BRANCH  17  18
ATOM     18  C   UNL     1      14.907 128.904  55.917  1.00  0.00     0.000 C 
BRANCH  18  19
ATOM     19  C   UNL     1      14.727 129.914  54.771  1.00  0.00     0.000 C 
BRANCH  19  20
ATOM     20  C   UNL     1      15.004 131.362  55.205  1.00  0.00     0.000 C 
BRANCH  20  21
ATOM     21  C   UNL     1      16.285 131.932  54.574  1.00  0.00     0.000 C 
BRANCH  21  22
ATOM     22  C   UNL     1      16.419 131.569  53.088  1.00  0.00    -0.000 C 
BRANCH  22  23
ATOM     23  C   UNL     1      16.959 132.757  52.278  1.00  0.00    -0.000 C 
BRANCH  23  24
ATOM     24  C   UNL     1      17.738 133.767  53.140  1.00  0.00    -0.000 C 
BRANCH  24  25
ATOM     25  C   UNL     1      17.310 135.232  52.903  1.00  0.00    -0.000 C 
BRANCH  25  26
ATOM     26  C   UNL     1      16.623 135.841  54.139  1.00  0.00    -0.000 C 
BRANCH  26  27
ATOM     27  C   UNL     1      15.114 136.056  53.936  1.00  0.00    -0.000 C 
BRANCH  27  28
ATOM     28  C   UNL     1      14.263 135.026  54.700  1.00  0.00    -0.000 C 
BRANCH  28  29
ATOM     29  C   UNL     1      13.229 134.329  53.799  1.00  0.00    -0.003 C 
ATOM     30  C   UNL     1      13.635 134.318  52.325  1.00  0.00     0.004 C 
ENDBRANCH  28  29
ENDBRANCH  27  28
ENDBRANCH  26  27
ENDBRANCH  25  26
ENDBRANCH  24  25
ENDBRANCH  23  24
ENDBRANCH  22  23
ENDBRANCH  21  22
ENDBRANCH  20  21
ENDBRANCH  19  20
ENDBRANCH  18  19
ENDBRANCH  17  18
ENDBRANCH   1  17
TORSDOF 26
ENDMDL
MODEL 4
REMARK VINA RESULT:    -3.461      1.766      4.754
REMARK INTER + INTRA:         -14.247
REMARK INTER:                  -8.722
REMARK INTRA:                  -5.524
REMARK UNBOUND:                -5.525
REMARK SMILES CCCCCCCCCCCCCCCCCCCCCCCCCCCC(=O)[O-]
REMARK SMILES IDX 15 1 16 2 17 3 18 4 19 5 20 6 21 7 22 8 23 9 24 10 25 11
REMARK SMILES IDX 26 12 27 13 28 14 29 15 30 16 14 17 13 18 12 19 11 20 10 21
REMARK SMILES IDX 9 22 8 23 7 24 6 25 5 26 4 27 3 28 2 29 1 30
REMARK H PARENT
REMARK Flexibility Score: inf
ROOT
ATOM      1  C   UNL     1      18.136 129.215  53.873  1.00  0.00     0.000 C 
ENDROOT
BRANCH   1   2
ATOM      2  C   UNL     1      18.525 130.680  54.144  1.00  0.00     0.000 C 
BRANCH   2   3
ATOM      3  C   UNL     1      19.692 130.815  55.135  1.00  0.00     0.000 C 
BRANCH   3   4
ATOM      4  C   UNL     1      20.019 132.278  55.470  1.00  0.00     0.000 C 
BRANCH   4   5
ATOM      5  C   UNL     1      18.757 133.148  55.432  1.00  0.00     0.000 C 
BRANCH   5   6
ATOM      6  C   UNL     1      18.652 134.113  56.629  1.00  0.00     0.000 C 
BRANCH   6   7
ATOM      7  C   UNL     1      19.662 133.877  57.777  1.00  0.00     0.000 C 
BRANCH   7   8
ATOM      8  C   UNL     1      19.060 133.756  59.195  1.00  0.00     0.000 C 
BRANCH   8   9
ATOM      9  C   UNL     1      17.576 134.153  59.297  1.00  0.00     0.000 C 
BRANCH   9  10
ATOM     10  C   UNL     1      16.799 133.352  60.356  1.00  0.00     0.000 C 
BRANCH  10  11
ATOM     11  C   UNL     1      17.706 132.788  61.465  1.00  0.00     0.000 C 
BRANCH  11  12
ATOM     12  C   UNL     1      17.146 132.936  62.891  1.00  0.00     0.006 C 
BRANCH  12  13
ATOM     13  C   UNL     1      17.843 132.019  63.906  1.00  0.00     0.053 C 
BRANCH  13  14
ATOM     14  C   UNL     1      16.854 131.123  64.586  1.00  0.00     0.041 C 
ATOM     15  O   UNL     1      15.638 131.151  64.255  1.00  0.00    -0.550 OA
ATOM     16  O   UNL     1      17.279 130.241  65.573  1.00  0.00    -0.550 OA
ENDBRANCH  13  14
ENDBRANCH  12  13
ENDBRANCH  11  12
ENDBRANCH  10  11
ENDBRANCH   9  10
ENDBRANCH   8   9
ENDBRANCH   7   8
ENDBRANCH   6   7
ENDBRANCH   5   6
ENDBRANCH   4   5
ENDBRANCH   3   4
ENDBRANCH   2   3
ENDBRANCH   1   2
BRANCH   1  17
ATOM     17  C   UNL     1      18.014 128.388  55.171  1.00  0.00     0.000 C 
BRANCH  17  18
ATOM     18  C   UNL     1      16.633 127.729  55.364  1.00  0.00     0.000 C 
BRANCH  18  19
ATOM     19  C   UNL     1      15.518 128.261  54.448  1.00  0.00     0.000 C 
BRANCH  19  20
ATOM     20  C   UNL     1      14.590 129.260  55.159  1.00  0.00     0.000 C 
BRANCH  20  21
ATOM     21  C   UNL     1      14.853 130.714  54.734  1.00  0.00     0.000 C 
BRANCH  21  22
ATOM     22  C   UNL     1      15.016 131.656  55.935  1.00  0.00    -0.000 C 
BRANCH  22  23
ATOM     23  C   UNL     1      15.406 130.874  57.198  1.00  0.00    -0.000 C 
BRANCH  23  24
ATOM     24  C   UNL     1      16.899 131.003  57.548  1.00  0.00    -0.000 C 
BRANCH  24  25
ATOM     25  C   UNL     1      17.384 129.943  58.561  1.00  0.00    -0.000 C 
BRANCH  25  26
ATOM     26  C   UNL     1      18.920 129.900  58.663  1.00  0.00    -0.000 C 
BRANCH  26  27
ATOM     27  C   UNL     1      19.422 129.973  60.114  1.00  0.00    -0.000 C 
BRANCH  27  28
ATOM     28  C   UNL     1      18.397 129.422  61.122  1.00  0.00    -0.000 C 
BRANCH  28  29
ATOM     29  C   UNL     1      19.051 128.570  62.224  1.00  0.00    -0.003 C 
ATOM     30  C   UNL     1      18.031 127.806  63.069  1.00  0.00     0.004 C 
ENDBRANCH  28  29
ENDBRANCH  27  28
ENDBRANCH  26  27
ENDBRANCH  25  26
ENDBRANCH  24  25
ENDBRANCH  23  24
ENDBRANCH  22  23
ENDBRANCH  21  22
ENDBRANCH  20  21
ENDBRANCH  19  20
ENDBRANCH  18  19
ENDBRANCH  17  18
ENDBRANCH   1  17
TORSDOF 26
ENDMDL
MODEL 5
REMARK VINA RESULT:    -3.460      2.736      7.986
REMARK INTER + INTRA:         -14.245
REMARK INTER:                  -9.744
REMARK INTRA:                  -4.501
REMARK UNBOUND:                -5.525
REMARK SMILES CCCCCCCCCCCCCCCCCCCCCCCCCCCC(=O)[O-]
REMARK SMILES IDX 15 1 16 2 17 3 18 4 19 5 20 6 21 7 22 8 23 9 24 10 25 11
REMARK SMILES IDX 26 12 27 13 28 14 29 15 30 16 14 17 13 18 12 19 11 20 10 21
REMARK SMILES IDX 9 22 8 23 7 24 6 25 5 26 4 27 3 28 2 29 1 30
REMARK H PARENT
REMARK Flexibility Score: inf
ROOT
ATOM      1  C   UNL     1      15.807 128.546  57.934  1.00  0.00     0.000 C 
ENDROOT
BRANCH   1   2
ATOM      2  C   UNL     1      16.450 129.941  57.828  1.00  0.00     0.000 C 
BRANCH   2   3
ATOM      3  C   UNL     1      15.877 130.777  56.673  1.00  0.00     0.000 C 
BRANCH   3   4
ATOM      4  C   UNL     1      14.850 130.004  55.833  1.00  0.00     0.000 C 
BRANCH   4   5
ATOM      5  C   UNL     1      15.355 129.796  54.400  1.00  0.00     0.000 C 
BRANCH   5   6
ATOM      6  C   UNL     1      15.620 128.316  54.061  1.00  0.00     0.000 C 
BRANCH   6   7
ATOM      7  C   UNL     1      17.022 127.779  54.435  1.00  0.00     0.000 C 
BRANCH   7   8
ATOM      8  C   UNL     1      18.207 128.734  54.170  1.00  0.00     0.000 C 
BRANCH   8   9
ATOM      9  C   UNL     1      19.134 128.956  55.378  1.00  0.00     0.000 C 
BRANCH   9  10
ATOM     10  C   UNL     1      19.697 130.385  55.464  1.00  0.00     0.000 C 
BRANCH  10  11
ATOM     11  C   UNL     1      18.880 131.401  54.645  1.00  0.00     0.000 C 
BRANCH  11  12
ATOM     12  C   UNL     1      19.179 132.876  54.970  1.00  0.00     0.006 C 
BRANCH  12  13
ATOM     13  C   UNL     1      19.973 133.053  56.272  1.00  0.00     0.053 C 
BRANCH  13  14
ATOM     14  C   UNL     1      19.095 133.571  57.369  1.00  0.00     0.041 C 
ATOM     15  O   UNL     1      17.846 133.631  57.209  1.00  0.00    -0.550 OA
ATOM     16  O   UNL     1      19.654 133.971  58.577  1.00  0.00    -0.550 OA
ENDBRANCH  13  14
ENDBRANCH  12  13
ENDBRANCH  11  12
ENDBRANCH  10  11
ENDBRANCH   9  10
ENDBRANCH   8   9
ENDBRANCH   7   8
ENDBRANCH   6   7
ENDBRANCH   5   6
ENDBRANCH   4   5
ENDBRANCH   3   4
ENDBRANCH   2   3
ENDBRANCH   1   2
BRANCH   1  17
ATOM     17  C   UNL     1      15.133 128.311  59.303  1.00  0.00     0.000 C 
BRANCH  17  18
ATOM     18  C   UNL     1      14.518 129.582  59.923  1.00  0.00     0.000 C 
BRANCH  18  19
ATOM     19  C   UNL     1      14.479 129.609  61.461  1.00  0.00     0.000 C 
BRANCH  19  20
ATOM     20  C   UNL     1      14.958 130.949  62.044  1.00  0.00     0.000 C 
BRANCH  20  21
ATOM     21  C   UNL     1      15.961 131.666  61.126  1.00  0.00     0.000 C 
BRANCH  21  22
ATOM     22  C   UNL     1      17.408 131.537  61.623  1.00  0.00    -0.000 C 
BRANCH  22  23
ATOM     23  C   UNL     1      18.190 130.518  60.780  1.00  0.00    -0.000 C 
BRANCH  23  24
ATOM     24  C   UNL     1      18.267 129.128  61.437  1.00  0.00    -0.000 C 
BRANCH  24  25
ATOM     25  C   UNL     1      18.311 129.183  62.979  1.00  0.00    -0.000 C 
BRANCH  25  26
ATOM     26  C   UNL     1      17.155 128.392  63.620  1.00  0.00    -0.000 C 
BRANCH  26  27
ATOM     27  C   UNL     1      17.141 126.913  63.200  1.00  0.00    -0.000 C 
BRANCH  27  28
ATOM     28  C   UNL     1      18.554 126.307  63.129  1.00  0.00    -0.000 C 
BRANCH  28  29
ATOM     29  C   UNL     1      18.548 124.846  62.646  1.00  0.00    -0.003 C 
ATOM     30  C   UNL     1      19.936 124.206  62.669  1.00  0.00     0.004 C 
ENDBRANCH  28  29
ENDBRANCH  27  28
ENDBRANCH  26  27
ENDBRANCH  25  26
ENDBRANCH  24  25
ENDBRANCH  23  24
ENDBRANCH  22  23
ENDBRANCH  21  22
ENDBRANCH  20  21
ENDBRANCH  19  20
ENDBRANCH  18  19
ENDBRANCH  17  18
ENDBRANCH   1  17
TORSDOF 26
ENDMDL
MODEL 6
REMARK VINA RESULT:    -3.456      3.895      8.880
REMARK INTER + INTRA:         -14.233
REMARK INTER:                  -9.255
REMARK INTRA:                  -4.978
REMARK UNBOUND:                -5.525
REMARK SMILES CCCCCCCCCCCCCCCCCCCCCCCCCCCC(=O)[O-]
REMARK SMILES IDX 15 1 16 2 17 3 18 4 19 5 20 6 21 7 22 8 23 9 24 10 25 11
REMARK SMILES IDX 26 12 27 13 28 14 29 15 30 16 14 17 13 18 12 19 11 20 10 21
REMARK SMILES IDX 9 22 8 23 7 24 6 25 5 26 4 27 3 28 2 29 1 30
REMARK H PARENT
REMARK Flexibility Score: inf
ROOT
ATOM      1  C   UNL     1      18.084 126.721  63.317  1.00  0.00     0.000 C 
ENDROOT
BRANCH   1   2
ATOM      2  C   UNL     1      16.638 126.385  62.909  1.00  0.00     0.000 C 
BRANCH   2   3
ATOM      3  C   UNL     1      15.688 126.269  64.111  1.00  0.00     0.000 C 
BRANCH   3   4
ATOM      4  C   UNL     1      14.538 127.285  64.059  1.00  0.00     0.000 C 
BRANCH   4   5
ATOM      5  C   UNL     1      14.836 128.404  63.053  1.00  0.00     0.000 C 
BRANCH   5   6
ATOM      6  C   UNL     1      13.584 128.884  62.294  1.00  0.00     0.000 C 
BRANCH   6   7
ATOM      7  C   UNL     1      13.765 129.124  60.777  1.00  0.00     0.000 C 
BRANCH   7   8
ATOM      8  C   UNL     1      14.877 128.300  60.089  1.00  0.00     0.000 C 
BRANCH   8   9
ATOM      9  C   UNL     1      14.768 128.232  58.555  1.00  0.00     0.000 C 
BRANCH   9  10
ATOM     10  C   UNL     1      15.418 129.428  57.840  1.00  0.00     0.000 C 
BRANCH  10  11
ATOM     11  C   UNL     1      15.698 129.155  56.350  1.00  0.00     0.000 C 
BRANCH  11  12
ATOM     12  C   UNL     1      16.732 128.047  56.083  1.00  0.00     0.006 C 
BRANCH  12  13
ATOM     13  C   UNL     1      16.576 127.405  54.697  1.00  0.00     0.053 C 
BRANCH  13  14
ATOM     14  C   UNL     1      16.669 128.436  53.615  1.00  0.00     0.041 C 
ATOM     15  O   UNL     1      15.700 128.624  52.831  1.00  0.00    -0.550 OA
ATOM     16  O   UNL     1      17.820 129.203  53.482  1.00  0.00    -0.550 OA
ENDBRANCH  13  14
ENDBRANCH  12  13
ENDBRANCH  11  12
ENDBRANCH  10  11
ENDBRANCH   9  10
ENDBRANCH   8   9
ENDBRANCH   7   8
ENDBRANCH   6   7
ENDBRANCH   5   6
ENDBRANCH   4   5
ENDBRANCH   3   4
ENDBRANCH   2   3
ENDBRANCH   1   2
BRANCH   1  17
ATOM     17  C   UNL     1      18.454 128.191  63.023  1.00  0.00     0.000 C 
BRANCH  17  18
ATOM     18  C   UNL     1      18.428 129.102  64.267  1.00  0.00     0.000 C 
BRANCH  18  19
ATOM     19  C   UNL     1      18.191 128.380  65.604  1.00  0.00     0.000 C 
BRANCH  19  20
ATOM     20  C   UNL     1      17.071 129.024  66.438  1.00  0.00     0.000 C 
BRANCH  20  21
ATOM     21  C   UNL     1      16.869 130.511  66.104  1.00  0.00     0.000 C 
BRANCH  21  22
ATOM     22  C   UNL     1      15.416 130.838  65.732  1.00  0.00    -0.000 C 
BRANCH  22  23
ATOM     23  C   UNL     1      15.325 132.191  65.011  1.00  0.00    -0.000 C 
BRANCH  23  24
ATOM     24  C   UNL     1      14.512 132.122  63.705  1.00  0.00    -0.000 C 
BRANCH  24  25
ATOM     25  C   UNL     1      15.323 132.537  62.458  1.00  0.00    -0.000 C 
BRANCH  25  26
ATOM     26  C   UNL     1      16.696 131.840  62.402  1.00  0.00    -0.000 C 
BRANCH  26  27
ATOM     27  C   UNL     1      16.880 130.989  61.135  1.00  0.00    -0.000 C 
BRANCH  27  28
ATOM     28  C   UNL     1      18.234 131.242  60.447  1.00  0.00    -0.000 C 
BRANCH  28  29
ATOM     29  C   UNL     1      18.808 129.976  59.788  1.00  0.00    -0.003 C 
ATOM     30  C   UNL     1      18.951 130.107  58.271  1.00  0.00     0.004 C 
ENDBRANCH  28  29
ENDBRANCH  27  28
ENDBRANCH  26  27
ENDBRANCH  25  26
ENDBRANCH  24  25
ENDBRANCH  23  24
ENDBRANCH  22  23
ENDBRANCH  21  22
ENDBRANCH  20  21
ENDBRANCH  19  20
ENDBRANCH  18  19
ENDBRANCH  17  18
ENDBRANCH   1  17
TORSDOF 26
ENDMDL
MODEL 7
REMARK VINA RESULT:    -3.448      2.173      4.660
REMARK INTER + INTRA:         -14.213
REMARK INTER:                 -10.340
REMARK INTRA:                  -3.873
REMARK UNBOUND:                -5.525
REMARK SMILES CCCCCCCCCCCCCCCCCCCCCCCCCCCC(=O)[O-]
REMARK SMILES IDX 15 1 16 2 17 3 18 4 19 5 20 6 21 7 22 8 23 9 24 10 25 11
REMARK SMILES IDX 26 12 27 13 28 14 29 15 30 16 14 17 13 18 12 19 11 20 10 21
REMARK SMILES IDX 9 22 8 23 7 24 6 25 5 26 4 27 3 28 2 29 1 30
REMARK H PARENT
REMARK Flexibility Score: inf
ROOT
ATOM      1  C   UNL     1      15.010 129.013  55.916  1.00  0.00     0.000 C 
ENDROOT
BRANCH   1   2
ATOM      2  C   UNL     1      15.365 130.425  56.418  1.00  0.00     0.000 C 
BRANCH   2   3
ATOM      3  C   UNL     1      15.757 130.450  57.904  1.00  0.00     0.000 C 
BRANCH   3   4
ATOM      4  C   UNL     1      16.696 129.297  58.289  1.00  0.00     0.000 C 
BRANCH   4   5
ATOM      5  C   UNL     1      18.151 129.775  58.373  1.00  0.00     0.000 C 
BRANCH   5   6
ATOM      6  C   UNL     1      18.474 130.501  59.694  1.00  0.00     0.000 C 
BRANCH   6   7
ATOM      7  C   UNL     1      18.656 129.595  60.934  1.00  0.00     0.000 C 
BRANCH   7   8
ATOM      8  C   UNL     1      17.415 129.427  61.839  1.00  0.00     0.000 C 
BRANCH   8   9
ATOM      9  C   UNL     1      17.708 129.497  63.348  1.00  0.00     0.000 C 
BRANCH   9  10
ATOM     10  C   UNL     1      18.168 128.156  63.946  1.00  0.00     0.000 C 
BRANCH  10  11
ATOM     11  C   UNL     1      17.108 127.047  63.818  1.00  0.00     0.000 C 
BRANCH  11  12
ATOM     12  C   UNL     1      17.535 125.846  62.955  1.00  0.00     0.006 C 
BRANCH  12  13
ATOM     13  C   UNL     1      19.038 125.841  62.640  1.00  0.00     0.053 C 
BRANCH  13  14
ATOM     14  C   UNL     1      19.587 124.448  62.671  1.00  0.00     0.041 C 
ATOM     15  O   UNL     1      19.309 123.633  61.750  1.00  0.00    -0.550 OA
ATOM     16  O   UNL     1      20.422 124.053  63.709  1.00  0.00    -0.550 OA
ENDBRANCH  13  14
ENDBRANCH  12  13
ENDBRANCH  11  12
ENDBRANCH  10  11
ENDBRANCH   9  10
ENDBRANCH   8   9
ENDBRANCH   7   8
ENDBRANCH   6   7
ENDBRANCH   5   6
ENDBRANCH   4   5
ENDBRANCH   3   4
ENDBRANCH   2   3
ENDBRANCH   1   2
BRANCH   1  17
ATOM     17  C   UNL     1      14.966 128.929  54.375  1.00  0.00     0.000 C 
BRANCH  17  18
ATOM     18  C   UNL     1      15.976 127.932  53.775  1.00  0.00     0.000 C 
BRANCH  18  19
ATOM     19  C   UNL     1      17.394 127.996  54.370  1.00  0.00     0.000 C 
BRANCH  19  20
ATOM     20  C   UNL     1      18.211 129.183  53.834  1.00  0.00     0.000 C 
BRANCH  20  21
ATOM     21  C   UNL     1      19.107 129.815  54.912  1.00  0.00     0.000 C 
BRANCH  21  22
ATOM     22  C   UNL     1      18.850 131.319  55.081  1.00  0.00    -0.000 C 
BRANCH  22  23
ATOM     23  C   UNL     1      18.305 131.933  53.782  1.00  0.00    -0.000 C 
BRANCH  23  24
ATOM     24  C   UNL     1      16.914 132.569  53.955  1.00  0.00    -0.000 C 
BRANCH  24  25
ATOM     25  C   UNL     1      15.917 132.168  52.846  1.00  0.00    -0.000 C 
BRANCH  25  26
ATOM     26  C   UNL     1      16.633 131.706  51.563  1.00  0.00    -0.000 C 
BRANCH  26  27
ATOM     27  C   UNL     1      16.034 130.416  50.979  1.00  0.00    -0.000 C 
BRANCH  27  28
ATOM     28  C   UNL     1      16.661 130.035  49.626  1.00  0.00    -0.000 C 
BRANCH  28  29
ATOM     29  C   UNL     1      17.444 128.712  49.688  1.00  0.00    -0.003 C 
ATOM     30  C   UNL     1      18.126 128.360  48.366  1.00  0.00     0.004 C 
ENDBRANCH  28  29
ENDBRANCH  27  28
ENDBRANCH  26  27
ENDBRANCH  25  26
ENDBRANCH  24  25
ENDBRANCH  23  24
ENDBRANCH  22  23
ENDBRANCH  21  22
ENDBRANCH  20  21
ENDBRANCH  19  20
ENDBRANCH  18  19
ENDBRANCH  17  18
ENDBRANCH   1  17
TORSDOF 26
ENDMDL
MODEL 8
REMARK VINA RESULT:    -3.440      3.266      8.004
REMARK INTER + INTRA:         -14.194
REMARK INTER:                  -8.864
REMARK INTRA:                  -5.330
REMARK UNBOUND:                -5.525
REMARK SMILES CCCCCCCCCCCCCCCCCCCCCCCCCCCC(=O)[O-]
REMARK SMILES IDX 15 1 16 2 17 3 18 4 19 5 20 6 21 7 22 8 23 9 24 10 25 11
REMARK SMILES IDX 26 12 27 13 28 14 29 15 30 16 14 17 13 18 12 19 11 20 10 21
REMARK SMILES IDX 9 22 8 23 7 24 6 25 5 26 4 27 3 28 2 29 1 30
REMARK H PARENT
REMARK Flexibility Score: inf
ROOT
ATOM      1  C   UNL     1      15.127 129.429  57.931  1.00  0.00     0.000 C 
ENDROOT
BRANCH   1   2
ATOM      2  C   UNL     1      16.330 130.390  57.944  1.00  0.00     0.000 C 
BRANCH   2   3
ATOM      3  C   UNL     1      17.587 129.766  58.569  1.00  0.00     0.000 C 
BRANCH   3   4
ATOM      4  C   UNL     1      18.699 130.796  58.819  1.00  0.00     0.000 C 
BRANCH   4   5
ATOM      5  C   UNL     1      18.166 132.227  58.680  1.00  0.00     0.000 C 
BRANCH   5   6
ATOM      6  C   UNL     1      18.937 133.061  57.639  1.00  0.00     0.000 C 
BRANCH   6   7
ATOM      7  C   UNL     1      18.153 133.439  56.361  1.00  0.00     0.000 C 
BRANCH   7   8
ATOM      8  C   UNL     1      18.134 132.376  55.239  1.00  0.00     0.000 C 
BRANCH   8   9
ATOM      9  C   UNL     1      19.480 131.669  55.004  1.00  0.00     0.000 C 
BRANCH   9  10
ATOM     10  C   UNL     1      19.406 130.141  55.163  1.00  0.00     0.000 C 
BRANCH  10  11
ATOM     11  C   UNL     1      17.987 129.584  54.947  1.00  0.00     0.000 C 
BRANCH  11  12
ATOM     12  C   UNL     1      17.853 128.065  55.160  1.00  0.00     0.006 C 
BRANCH  12  13
ATOM     13  C   UNL     1      16.409 127.566  55.013  1.00  0.00     0.053 C 
BRANCH  13  14
ATOM     14  C   UNL     1      15.826 127.990  53.699  1.00  0.00     0.041 C 
ATOM     15  O   UNL     1      14.757 128.657  53.664  1.00  0.00    -0.550 OA
ATOM     16  O   UNL     1      16.474 127.664  52.514  1.00  0.00    -0.550 OA
ENDBRANCH  13  14
ENDBRANCH  12  13
ENDBRANCH  11  12
ENDBRANCH  10  11
ENDBRANCH   9  10
ENDBRANCH   8   9
ENDBRANCH   7   8
ENDBRANCH   6   7
ENDBRANCH   5   6
ENDBRANCH   4   5
ENDBRANCH   3   4
ENDBRANCH   2   3
ENDBRANCH   1   2
BRANCH   1  17
ATOM     17  C   UNL     1      15.195 128.384  59.066  1.00  0.00     0.000 C 
BRANCH  17  18
ATOM     18  C   UNL     1      14.327 128.735  60.290  1.00  0.00     0.000 C 
BRANCH  18  19
ATOM     19  C   UNL     1      15.001 129.641  61.335  1.00  0.00     0.000 C 
BRANCH  19  20
ATOM     20  C   UNL     1      14.476 131.086  61.297  1.00  0.00     0.000 C 
BRANCH  20  21
ATOM     21  C   UNL     1      15.558 132.115  61.663  1.00  0.00     0.000 C 
BRANCH  21  22
ATOM     22  C   UNL     1      16.917 131.461  61.950  1.00  0.00    -0.000 C 
BRANCH  22  23
ATOM     23  C   UNL     1      17.511 131.985  63.266  1.00  0.00    -0.000 C 
BRANCH  23  24
ATOM     24  C   UNL     1      16.516 131.927  64.439  1.00  0.00    -0.000 C 
BRANCH  24  25
ATOM     25  C   UNL     1      16.361 130.514  65.041  1.00  0.00    -0.000 C 
BRANCH  25  26
ATOM     26  C   UNL     1      17.707 129.770  65.124  1.00  0.00    -0.000 C 
BRANCH  26  27
ATOM     27  C   UNL     1      17.543 128.242  65.142  1.00  0.00    -0.000 C 
BRANCH  27  28
ATOM     28  C   UNL     1      18.354 127.549  64.032  1.00  0.00    -0.000 C 
BRANCH  28  29
ATOM     29  C   UNL     1      18.023 128.092  62.631  1.00  0.00    -0.003 C 
ATOM     30  C   UNL     1      19.249 128.645  61.902  1.00  0.00     0.004 C 
ENDBRANCH  28  29
ENDBRANCH  27  28
ENDBRANCH  26  27
ENDBRANCH  25  26
ENDBRANCH  24  25
ENDBRANCH  23  24
ENDBRANCH  22  23
ENDBRANCH  21  22
ENDBRANCH  20  21
ENDBRANCH  19  20
ENDBRANCH  18  19
ENDBRANCH  17  18
ENDBRANCH   1  17
TORSDOF 26
ENDMDL
MODEL 9
REMARK VINA RESULT:    -3.439      3.723      6.894
REMARK INTER + INTRA:         -14.193
REMARK INTER:                  -9.074
REMARK INTRA:                  -5.119
REMARK UNBOUND:                -5.525
REMARK SMILES CCCCCCCCCCCCCCCCCCCCCCCCCCCC(=O)[O-]
REMARK SMILES IDX 15 1 16 2 17 3 18 4 19 5 20 6 21 7 22 8 23 9 24 10 25 11
REMARK SMILES IDX 26 12 27 13 28 14 29 15 30 16 14 17 13 18 12 19 11 20 10 21
REMARK SMILES IDX 9 22 8 23 7 24 6 25 5 26 4 27 3 28 2 29 1 30
REMARK H PARENT
REMARK Flexibility Score: inf
ROOT
ATOM      1  C   UNL     1      19.279 129.753  60.211  1.00  0.00     0.000 C 
ENDROOT
BRANCH   1   2
ATOM      2  C   UNL     1      18.563 129.295  61.494  1.00  0.00     0.000 C 
BRANCH   2   3
ATOM      3  C   UNL     1      17.059 129.608  61.484  1.00  0.00     0.000 C 
BRANCH   3   4
ATOM      4  C   UNL     1      16.193 128.357  61.271  1.00  0.00     0.000 C 
BRANCH   4   5
ATOM      5  C   UNL     1      14.991 128.665  60.371  1.00  0.00     0.000 C 
BRANCH   5   6
ATOM      6  C   UNL     1      15.142 129.985  59.591  1.00  0.00     0.000 C 
BRANCH   6   7
ATOM      7  C   UNL     1      15.129 129.864  58.049  1.00  0.00     0.000 C 
BRANCH   7   8
ATOM      8  C   UNL     1      15.145 128.427  57.482  1.00  0.00     0.000 C 
BRANCH   8   9
ATOM      9  C   UNL     1      15.283 128.343  55.952  1.00  0.00     0.000 C 
BRANCH   9  10
ATOM     10  C   UNL     1      16.478 127.493  55.489  1.00  0.00     0.000 C 
BRANCH  10  11
ATOM     11  C   UNL     1      16.738 127.598  53.975  1.00  0.00     0.000 C 
BRANCH  11  12
ATOM     12  C   UNL     1      15.958 128.719  53.265  1.00  0.00     0.006 C 
BRANCH  12  13
ATOM     13  C   UNL     1      16.872 129.712  52.533  1.00  0.00     0.053 C 
BRANCH  13  14
ATOM     14  C   UNL     1      16.742 129.565  51.048  1.00  0.00     0.041 C 
ATOM     15  O   UNL     1      16.057 130.389  50.385  1.00  0.00    -0.550 OA
ATOM     16  O   UNL     1      17.394 128.527  50.393  1.00  0.00    -0.550 OA
ENDBRANCH  13  14
ENDBRANCH  12  13
ENDBRANCH  11  12
ENDBRANCH  10  11
ENDBRANCH   9  10
ENDBRANCH   8   9
ENDBRANCH   7   8
ENDBRANCH   6   7
ENDBRANCH   5   6
ENDBRANCH   4   5
ENDBRANCH   3   4
ENDBRANCH   2   3
ENDBRANCH   1   2
BRANCH   1  17
ATOM     17  C   UNL     1      18.740 131.100  59.684  1.00  0.00     0.000 C 
BRANCH  17  18
ATOM     18  C   UNL     1      18.530 131.135  58.157  1.00  0.00     0.000 C 
BRANCH  18  19
ATOM     19  C   UNL     1      18.538 129.763  57.462  1.00  0.00     0.000 C 
BRANCH  19  20
ATOM     20  C   UNL     1      19.748 129.574  56.532  1.00  0.00     0.000 C 
BRANCH  20  21
ATOM     21  C   UNL     1      19.529 130.204  55.147  1.00  0.00     0.000 C 
BRANCH  21  22
ATOM     22  C   UNL     1      20.351 131.485  54.948  1.00  0.00    -0.000 C 
BRANCH  22  23
ATOM     23  C   UNL     1      19.447 132.727  54.974  1.00  0.00    -0.000 C 
BRANCH  23  24
ATOM     24  C   UNL     1      18.514 132.817  53.753  1.00  0.00    -0.000 C 
BRANCH  24  25
ATOM     25  C   UNL     1      17.044 133.111  54.128  1.00  0.00    -0.000 C 
BRANCH  25  26
ATOM     26  C   UNL     1      16.535 132.180  55.244  1.00  0.00    -0.000 C 
BRANCH  26  27
ATOM     27  C   UNL     1      15.006 132.021  55.235  1.00  0.00    -0.000 C 
BRANCH  27  28
ATOM     28  C   UNL     1      14.407 132.163  53.824  1.00  0.00    -0.000 C 
BRANCH  28  29
ATOM     29  C   UNL     1      13.263 131.167  53.564  1.00  0.00    -0.003 C 
ATOM     30  C   UNL     1      12.354 131.593  52.411  1.00  0.00     0.004 C 
ENDBRANCH  28  29
ENDBRANCH  27  28
ENDBRANCH  26  27
ENDBRANCH  25  26
ENDBRANCH  24  25
ENDBRANCH  23  24
ENDBRANCH  22  23
ENDBRANCH  21  22
ENDBRANCH  20  21
ENDBRANCH  19  20
ENDBRANCH  18  19
ENDBRANCH  17  18
ENDBRANCH   1  17
TORSDOF 26
ENDMDL
