MODEL 1
REMARK VINA RESULT:    -6.869      0.000      0.000
REMARK INTER + INTRA:          -7.500
REMARK INTER:                  -7.471
REMARK INTRA:                  -0.029
REMARK UNBOUND:                -0.029
REMARK SMILES C[C@H]1[C@@H](C)CC[C@@]2(C(=O)[O-])CC[C@]3(C)C(=CC[C@H]4[C@]5(C)CC[C@H](O)C(C)(C)[C@@H]5CC[C@@]43C)[C@@H]12
REMARK SMILES IDX 7 1 6 2 11 3 33 4 5 5 12 6 15 7 2 8 3 9 13 10 16 11 1 12
REMARK SMILES IDX 4 13 14 14 31 15 17 16 18 17 30 18 32 19 19 20 29 21 28 22
REMARK SMILES IDX 21 23 20 24 25 25 22 26 23 27 26 28 27 29 8 30 9 31 10 32
REMARK SMILES IDX 24 33
REMARK H PARENT 24 34
REMARK Flexibility Score: inf
ROOT
ATOM      1  C   UNL     1      -9.819  15.767   1.273  1.00  0.00     0.017 C 
ATOM      2  C   UNL     1      -8.774  16.845   0.854  1.00  0.00     0.014 C 
ATOM      3  C   UNL     1     -10.913  15.638   0.161  1.00  0.00     0.014 C 
ATOM      4  C   UNL     1      -9.052  14.414   1.548  1.00  0.00     0.030 C 
ATOM      5  C   UNL     1      -7.759  17.130   1.976  1.00  0.00     0.004 C 
ATOM      6  C   UNL     1     -10.525  14.787  -1.060  1.00  0.00     0.013 C 
ATOM      7  C   UNL     1      -8.737  13.669   0.226  1.00  0.00    -0.063 C 
ATOM      8  C   UNL     1      -7.905  14.645   2.612  1.00  0.00    -0.003 C 
ATOM      9  C   UNL     1      -6.962  15.876   2.389  1.00  0.00    -0.011 C 
ATOM     10  C   UNL     1      -9.944  13.377  -0.701  1.00  0.00    -0.006 C 
ATOM     11  C   UNL     1      -7.464  13.427  -0.179  1.00  0.00    -0.027 C 
ATOM     12  C   UNL     1      -7.213  13.364   3.128  1.00  0.00     0.008 C 
ATOM     13  C   UNL     1      -5.747  15.681   1.456  1.00  0.00     0.008 C 
ATOM     14  C   UNL     1     -11.026  12.575   0.097  1.00  0.00     0.017 C 
ATOM     15  C   UNL     1      -9.512  12.530  -2.010  1.00  0.00    -0.020 C 
ATOM     16  C   UNL     1      -7.051  12.960  -1.554  1.00  0.00     0.032 C 
ATOM     17  C   UNL     1      -8.180  13.147  -2.584  1.00  0.00     0.006 C 
ATOM     18  C   UNL     1     -10.624  12.530  -3.119  1.00  0.00     0.008 C 
ATOM     19  C   UNL     1      -9.290  11.039  -1.586  1.00  0.00     0.012 C 
ATOM     20  C   UNL     1      -7.813  12.853  -4.116  1.00  0.00    -0.025 C 
ATOM     21  C   UNL     1     -10.343  13.513  -4.257  1.00  0.00     0.005 C 
ATOM     22  C   UNL     1      -9.091  13.066  -5.058  1.00  0.00     0.003 C 
ATOM     23  C   UNL     1      -6.655  13.833  -4.510  1.00  0.00     0.010 C 
ATOM     24  C   UNL     1      -7.259  11.407  -4.302  1.00  0.00     0.012 C 
ATOM     25  C   UNL     1      -8.866  13.917  -6.378  1.00  0.00    -0.006 C 
ATOM     26  C   UNL     1      -6.295  13.893  -6.001  1.00  0.00     0.033 C 
ATOM     27  C   UNL     1      -7.459  13.575  -6.953  1.00  0.00     0.120 C 
ATOM     28  C   UNL     1      -9.918  13.502  -7.451  1.00  0.00     0.014 C 
ATOM     29  C   UNL     1      -9.044  15.446  -6.143  1.00  0.00     0.014 C 
ENDROOT
BRANCH   1  30
ATOM     30  C   UNL     1     -10.579  16.240   2.513  1.00  0.00     0.048 C 
ATOM     31  O   UNL     1     -10.917  17.454   2.620  1.00  0.00    -0.550 OA
ATOM     32  O   UNL     1     -11.041  15.332   3.463  1.00  0.00    -0.550 OA
ENDBRANCH   1  30
BRANCH  27  33
ATOM     33  O   UNL     1      -7.232  14.139  -8.223  1.00  0.00    -0.393 OA
ATOM     34  H   UNL     1      -8.056  14.607  -8.512  1.00  0.00     0.210 HD
ENDBRANCH  27  33
TORSDOF 2
ENDMDL
MODEL 2
REMARK VINA RESULT:    -6.476      1.829      7.651
REMARK INTER + INTRA:          -7.073
REMARK INTER:                  -7.340
REMARK INTRA:                   0.267
REMARK UNBOUND:                -0.029
REMARK SMILES C[C@H]1[C@@H](C)CC[C@@]2(C(=O)[O-])CC[C@]3(C)C(=CC[C@H]4[C@]5(C)CC[C@H](O)C(C)(C)[C@@H]5CC[C@@]43C)[C@@H]12
REMARK SMILES IDX 7 1 6 2 11 3 33 4 5 5 12 6 15 7 2 8 3 9 13 10 16 11 1 12
REMARK SMILES IDX 4 13 14 14 31 15 17 16 18 17 30 18 32 19 19 20 29 21 28 22
REMARK SMILES IDX 21 23 20 24 25 25 22 26 23 27 26 28 27 29 8 30 9 31 10 32
REMARK SMILES IDX 24 33
REMARK H PARENT 24 34
REMARK Flexibility Score: inf
ROOT
ATOM      1  C   UNL     1      -8.427  12.205  -5.535  1.00  0.00     0.017 C 
ATOM      2  C   UNL     1      -6.955  12.720  -5.552  1.00  0.00     0.014 C 
ATOM      3  C   UNL     1      -8.664  11.339  -4.255  1.00  0.00     0.014 C 
ATOM      4  C   UNL     1      -9.390  13.454  -5.626  1.00  0.00     0.030 C 
ATOM      5  C   UNL     1      -6.616  13.450  -6.865  1.00  0.00     0.004 C 
ATOM      6  C   UNL     1      -8.925  12.123  -2.958  1.00  0.00     0.013 C 
ATOM      7  C   UNL     1      -9.558  14.135  -4.244  1.00  0.00    -0.063 C 
ATOM      8  C   UNL     1      -9.029  14.329  -6.894  1.00  0.00    -0.003 C 
ATOM      9  C   UNL     1      -7.517  14.676  -7.115  1.00  0.00    -0.011 C 
ATOM     10  C   UNL     1     -10.034  13.223  -3.084  1.00  0.00    -0.006 C 
ATOM     11  C   UNL     1      -9.161  15.413  -4.017  1.00  0.00    -0.027 C 
ATOM     12  C   UNL     1     -10.025  15.465  -7.219  1.00  0.00     0.008 C 
ATOM     13  C   UNL     1      -6.956  15.913  -6.382  1.00  0.00     0.008 C 
ATOM     14  C   UNL     1     -11.381  12.535  -3.487  1.00  0.00     0.017 C 
ATOM     15  C   UNL     1     -10.249  14.052  -1.712  1.00  0.00    -0.020 C 
ATOM     16  C   UNL     1      -9.032  16.067  -2.663  1.00  0.00     0.032 C 
ATOM     17  C   UNL     1      -9.027  15.030  -1.525  1.00  0.00     0.006 C 
ATOM     18  C   UNL     1     -10.381  13.114  -0.459  1.00  0.00     0.008 C 
ATOM     19  C   UNL     1     -11.588  14.857  -1.822  1.00  0.00     0.012 C 
ATOM     20  C   UNL     1      -8.722  15.580  -0.050  1.00  0.00    -0.025 C 
ATOM     21  C   UNL     1      -9.095  13.022   0.365  1.00  0.00     0.005 C 
ATOM     22  C   UNL     1      -8.778  14.391   1.022  1.00  0.00     0.003 C 
ATOM     23  C   UNL     1      -7.300  16.237  -0.088  1.00  0.00     0.010 C 
ATOM     24  C   UNL     1      -9.723  16.703   0.358  1.00  0.00     0.012 C 
ATOM     25  C   UNL     1      -7.581  14.316   2.060  1.00  0.00    -0.006 C 
ATOM     26  C   UNL     1      -6.697  16.627   1.268  1.00  0.00     0.033 C 
ATOM     27  C   UNL     1      -7.171  15.768   2.450  1.00  0.00     0.120 C 
ATOM     28  C   UNL     1      -8.062  13.605   3.361  1.00  0.00     0.014 C 
ATOM     29  C   UNL     1      -6.372  13.494   1.522  1.00  0.00     0.014 C 
ENDROOT
BRANCH   1  30
ATOM     30  C   UNL     1      -8.650  11.243  -6.703  1.00  0.00     0.048 C 
ATOM     31  O   UNL     1      -9.822  10.875  -7.001  1.00  0.00    -0.550 OA
ATOM     32  O   UNL     1      -7.601  10.875  -7.543  1.00  0.00    -0.550 OA
ENDBRANCH   1  30
BRANCH  27  33
ATOM     33  O   UNL     1      -6.238  15.812   3.504  1.00  0.00    -0.393 OA
ATOM     34  H   UNL     1      -6.342  14.992   4.051  1.00  0.00     0.210 HD
ENDBRANCH  27  33
TORSDOF 2
ENDMDL
MODEL 3
REMARK VINA RESULT:    -6.144      1.838      3.307
REMARK INTER + INTRA:          -6.711
REMARK INTER:                  -6.980
REMARK INTRA:                   0.269
REMARK UNBOUND:                -0.029
REMARK SMILES C[C@H]1[C@@H](C)CC[C@@]2(C(=O)[O-])CC[C@]3(C)C(=CC[C@H]4[C@]5(C)CC[C@H](O)C(C)(C)[C@@H]5CC[C@@]43C)[C@@H]12
REMARK SMILES IDX 7 1 6 2 11 3 33 4 5 5 12 6 15 7 2 8 3 9 13 10 16 11 1 12
REMARK SMILES IDX 4 13 14 14 31 15 17 16 18 17 30 18 32 19 19 20 29 21 28 22
REMARK SMILES IDX 21 23 20 24 25 25 22 26 23 27 26 28 27 29 8 30 9 31 10 32
REMARK SMILES IDX 24 33
REMARK H PARENT 24 34
REMARK Flexibility Score: inf
ROOT
ATOM      1  C   UNL     1      -7.570  14.921   2.356  1.00  0.00     0.017 C 
ATOM      2  C   UNL     1      -6.727  13.619   2.203  1.00  0.00     0.014 C 
ATOM      3  C   UNL     1      -7.137  15.958   1.268  1.00  0.00     0.014 C 
ATOM      4  C   UNL     1      -9.099  14.533   2.268  1.00  0.00     0.030 C 
ATOM      5  C   UNL     1      -6.998  12.619   3.341  1.00  0.00     0.004 C 
ATOM      6  C   UNL     1      -7.728  15.740  -0.134  1.00  0.00     0.013 C 
ATOM      7  C   UNL     1      -9.549  14.354   0.796  1.00  0.00    -0.063 C 
ATOM      8  C   UNL     1      -9.441  13.416   3.335  1.00  0.00    -0.003 C 
ATOM      9  C   UNL     1      -8.477  12.184   3.411  1.00  0.00    -0.011 C 
ATOM     10  C   UNL     1      -9.283  15.551  -0.152  1.00  0.00    -0.006 C 
ATOM     11  C   UNL     1     -10.001  13.166   0.320  1.00  0.00    -0.027 C 
ATOM     12  C   UNL     1     -10.942  13.096   3.500  1.00  0.00     0.008 C 
ATOM     13  C   UNL     1      -8.738  11.015   2.437  1.00  0.00     0.008 C 
ATOM     14  C   UNL     1      -9.953  16.837   0.439  1.00  0.00     0.017 C 
ATOM     15  C   UNL     1      -9.862  15.285  -1.640  1.00  0.00    -0.020 C 
ATOM     16  C   UNL     1     -10.203  12.820  -1.135  1.00  0.00     0.032 C 
ATOM     17  C   UNL     1      -9.484  13.815  -2.064  1.00  0.00     0.006 C 
ATOM     18  C   UNL     1      -9.303  16.307  -2.693  1.00  0.00     0.008 C 
ATOM     19  C   UNL     1     -11.417  15.467  -1.608  1.00  0.00     0.012 C 
ATOM     20  C   UNL     1      -9.474  13.462  -3.628  1.00  0.00    -0.025 C 
ATOM     21  C   UNL     1      -8.174  15.734  -3.552  1.00  0.00     0.005 C 
ATOM     22  C   UNL     1      -8.715  14.600  -4.462  1.00  0.00     0.003 C 
ATOM     23  C   UNL     1      -8.757  12.077  -3.784  1.00  0.00     0.010 C 
ATOM     24  C   UNL     1     -10.920  13.283  -4.181  1.00  0.00     0.012 C 
ATOM     25  C   UNL     1      -7.650  14.105  -5.530  1.00  0.00    -0.006 C 
ATOM     26  C   UNL     1      -8.423  11.644  -5.218  1.00  0.00     0.033 C 
ATOM     27  C   UNL     1      -8.187  12.804  -6.198  1.00  0.00     0.120 C 
ATOM     28  C   UNL     1      -7.503  15.176  -6.653  1.00  0.00     0.014 C 
ATOM     29  C   UNL     1      -6.234  13.902  -4.915  1.00  0.00     0.014 C 
ENDROOT
BRANCH   1  30
ATOM     30  C   UNL     1      -7.241  15.594   3.689  1.00  0.00     0.048 C 
ATOM     31  O   UNL     1      -6.250  16.376   3.772  1.00  0.00    -0.550 OA
ATOM     32  O   UNL     1      -8.097  15.484   4.782  1.00  0.00    -0.550 OA
ENDBRANCH   1  30
BRANCH  27  33
ATOM     33  O   UNL     1      -7.404  12.382  -7.289  1.00  0.00    -0.393 OA
ATOM     34  H   UNL     1      -6.877  13.155  -7.616  1.00  0.00     0.210 HD
ENDBRANCH  27  33
TORSDOF 2
ENDMDL
MODEL 4
REMARK VINA RESULT:    -6.068      1.882      3.083
REMARK INTER + INTRA:          -6.629
REMARK INTER:                  -6.592
REMARK INTRA:                  -0.037
REMARK UNBOUND:                -0.029
REMARK SMILES C[C@H]1[C@@H](C)CC[C@@]2(C(=O)[O-])CC[C@]3(C)C(=CC[C@H]4[C@]5(C)CC[C@H](O)C(C)(C)[C@@H]5CC[C@@]43C)[C@@H]12
REMARK SMILES IDX 7 1 6 2 11 3 33 4 5 5 12 6 15 7 2 8 3 9 13 10 16 11 1 12
REMARK SMILES IDX 4 13 14 14 31 15 17 16 18 17 30 18 32 19 19 20 29 21 28 22
REMARK SMILES IDX 21 23 20 24 25 25 22 26 23 27 26 28 27 29 8 30 9 31 10 32
REMARK SMILES IDX 24 33
REMARK H PARENT 24 34
REMARK Flexibility Score: inf
ROOT
ATOM      1  C   UNL     1     -10.444  13.803   3.026  1.00  0.00     0.017 C 
ATOM      2  C   UNL     1     -11.403  14.921   2.517  1.00  0.00     0.014 C 
ATOM      3  C   UNL     1     -10.569  12.545   2.104  1.00  0.00     0.014 C 
ATOM      4  C   UNL     1      -8.979  14.392   3.074  1.00  0.00     0.030 C 
ATOM      5  C   UNL     1     -11.440  16.127   3.474  1.00  0.00     0.004 C 
ATOM      6  C   UNL     1      -9.792  12.609   0.779  1.00  0.00     0.013 C 
ATOM      7  C   UNL     1      -8.325  14.386   1.669  1.00  0.00    -0.063 C 
ATOM      8  C   UNL     1      -8.950  15.711   3.948  1.00  0.00    -0.003 C 
ATOM      9  C   UNL     1     -10.056  16.782   3.660  1.00  0.00    -0.011 C 
ATOM     10  C   UNL     1      -8.288  13.021   0.936  1.00  0.00    -0.006 C 
ATOM     11  C   UNL     1      -7.950  15.531   1.044  1.00  0.00    -0.027 C 
ATOM     12  C   UNL     1      -7.544  16.273   4.251  1.00  0.00     0.008 C 
ATOM     13  C   UNL     1      -9.786  17.796   2.528  1.00  0.00     0.008 C 
ATOM     14  C   UNL     1      -7.570  11.966   1.843  1.00  0.00     0.017 C 
ATOM     15  C   UNL     1      -7.517  13.116  -0.483  1.00  0.00    -0.020 C 
ATOM     16  C   UNL     1      -7.562  15.654  -0.410  1.00  0.00     0.032 C 
ATOM     17  C   UNL     1      -7.998  14.422  -1.223  1.00  0.00     0.006 C 
ATOM     18  C   UNL     1      -7.772  11.860  -1.390  1.00  0.00     0.008 C 
ATOM     19  C   UNL     1      -5.976  13.174  -0.207  1.00  0.00     0.012 C 
ATOM     20  C   UNL     1      -7.801  14.501  -2.813  1.00  0.00    -0.025 C 
ATOM     21  C   UNL     1      -8.810  12.107  -2.487  1.00  0.00     0.005 C 
ATOM     22  C   UNL     1      -8.273  13.140  -3.512  1.00  0.00     0.003 C 
ATOM     23  C   UNL     1      -8.646  15.718  -3.322  1.00  0.00     0.010 C 
ATOM     24  C   UNL     1      -6.317  14.797  -3.189  1.00  0.00     0.012 C 
ATOM     25  C   UNL     1      -9.206  13.285  -4.788  1.00  0.00    -0.006 C 
ATOM     26  C   UNL     1      -8.797  15.850  -4.844  1.00  0.00     0.033 C 
ATOM     27  C   UNL     1      -8.731  14.520  -5.610  1.00  0.00     0.120 C 
ATOM     28  C   UNL     1      -9.041  12.031  -5.700  1.00  0.00     0.014 C 
ATOM     29  C   UNL     1     -10.716  13.376  -4.419  1.00  0.00     0.014 C 
ENDROOT
BRANCH   1  30
ATOM     30  C   UNL     1     -10.897  13.321   4.405  1.00  0.00     0.048 C 
ATOM     31  O   UNL     1     -12.125  13.120   4.629  1.00  0.00    -0.550 OA
ATOM     32  O   UNL     1      -9.972  12.955   5.379  1.00  0.00    -0.550 OA
ENDBRANCH   1  30
BRANCH  27  33
ATOM     33  O   UNL     1      -9.375  14.632  -6.857  1.00  0.00    -0.393 OA
ATOM     34  H   UNL     1     -10.258  14.187  -6.796  1.00  0.00     0.210 HD
ENDBRANCH  27  33
TORSDOF 2
ENDMDL
MODEL 5
REMARK VINA RESULT:    -5.863      1.328      1.592
REMARK INTER + INTRA:          -6.406
REMARK INTER:                  -6.374
REMARK INTRA:                  -0.033
REMARK UNBOUND:                -0.029
REMARK SMILES C[C@H]1[C@@H](C)CC[C@@]2(C(=O)[O-])CC[C@]3(C)C(=CC[C@H]4[C@]5(C)CC[C@H](O)C(C)(C)[C@@H]5CC[C@@]43C)[C@@H]12
REMARK SMILES IDX 7 1 6 2 11 3 33 4 5 5 12 6 15 7 2 8 3 9 13 10 16 11 1 12
REMARK SMILES IDX 4 13 14 14 31 15 17 16 18 17 30 18 32 19 19 20 29 21 28 22
REMARK SMILES IDX 21 23 20 24 25 25 22 26 23 27 26 28 27 29 8 30 9 31 10 32
REMARK SMILES IDX 24 33
REMARK H PARENT 24 34
REMARK Flexibility Score: inf
ROOT
ATOM      1  C   UNL     1     -10.211  16.565   2.519  1.00  0.00     0.017 C 
ATOM      2  C   UNL     1      -9.103  17.600   2.154  1.00  0.00     0.014 C 
ATOM      3  C   UNL     1     -11.216  16.432   1.328  1.00  0.00     0.014 C 
ATOM      4  C   UNL     1      -9.509  15.200   2.893  1.00  0.00     0.030 C 
ATOM      5  C   UNL     1      -8.172  17.891   3.346  1.00  0.00     0.004 C 
ATOM      6  C   UNL     1     -10.759  15.533   0.167  1.00  0.00     0.013 C 
ATOM      7  C   UNL     1      -9.112  14.406   1.623  1.00  0.00    -0.063 C 
ATOM      8  C   UNL     1      -8.443  15.432   4.039  1.00  0.00    -0.003 C 
ATOM      9  C   UNL     1      -7.449  16.629   3.857  1.00  0.00    -0.011 C 
ATOM     10  C   UNL     1     -10.251  14.119   0.611  1.00  0.00    -0.006 C 
ATOM     11  C   UNL     1      -7.819  14.116   1.328  1.00  0.00    -0.027 C 
ATOM     12  C   UNL     1      -7.834  14.149   4.645  1.00  0.00     0.008 C 
ATOM     13  C   UNL     1      -6.170  16.372   3.030  1.00  0.00     0.008 C 
ATOM     14  C   UNL     1     -11.417  13.373   1.342  1.00  0.00     0.017 C 
ATOM     15  C   UNL     1      -9.742  13.220  -0.635  1.00  0.00    -0.020 C 
ATOM     16  C   UNL     1      -7.313  13.596   0.005  1.00  0.00     0.032 C 
ATOM     17  C   UNL     1      -8.350  13.782  -1.117  1.00  0.00     0.006 C 
ATOM     18  C   UNL     1     -10.762  13.217  -1.829  1.00  0.00     0.008 C 
ATOM     19  C   UNL     1      -9.599  11.738  -0.151  1.00  0.00     0.012 C 
ATOM     20  C   UNL     1      -7.872  13.430  -2.606  1.00  0.00    -0.025 C 
ATOM     21  C   UNL     1     -10.362  14.156  -2.968  1.00  0.00     0.005 C 
ATOM     22  C   UNL     1      -9.065  13.649  -3.652  1.00  0.00     0.003 C 
ATOM     23  C   UNL     1      -6.658  14.365  -2.934  1.00  0.00     0.010 C 
ATOM     24  C   UNL     1      -7.350  11.965  -2.705  1.00  0.00     0.012 C 
ATOM     25  C   UNL     1      -8.710  14.452  -4.974  1.00  0.00    -0.006 C 
ATOM     26  C   UNL     1      -6.179  14.369  -4.392  1.00  0.00     0.033 C 
ATOM     27  C   UNL     1      -7.273  14.054  -5.425  1.00  0.00     0.120 C 
ATOM     28  C   UNL     1      -9.686  14.035  -6.116  1.00  0.00     0.014 C 
ATOM     29  C   UNL     1      -8.860  15.993  -4.798  1.00  0.00     0.014 C 
ENDROOT
BRANCH   1  30
ATOM     30  C   UNL     1     -11.052  17.097   3.680  1.00  0.00     0.048 C 
ATOM     31  O   UNL     1     -11.385  18.316   3.710  1.00  0.00    -0.550 OA
ATOM     32  O   UNL     1     -11.588  16.235   4.634  1.00  0.00    -0.550 OA
ENDBRANCH   1  30
BRANCH  27  33
ATOM     33  O   UNL     1      -6.929  14.572  -6.688  1.00  0.00    -0.393 OA
ATOM     34  H   UNL     1      -6.101  15.109  -6.594  1.00  0.00     0.210 HD
ENDBRANCH  27  33
TORSDOF 2
ENDMDL
MODEL 6
REMARK VINA RESULT:    -5.594      1.582      7.660
REMARK INTER + INTRA:          -6.114
REMARK INTER:                  -6.213
REMARK INTRA:                   0.100
REMARK UNBOUND:                -0.029
REMARK SMILES C[C@H]1[C@@H](C)CC[C@@]2(C(=O)[O-])CC[C@]3(C)C(=CC[C@H]4[C@]5(C)CC[C@H](O)C(C)(C)[C@@H]5CC[C@@]43C)[C@@H]12
REMARK SMILES IDX 7 1 6 2 11 3 33 4 5 5 12 6 15 7 2 8 3 9 13 10 16 11 1 12
REMARK SMILES IDX 4 13 14 14 31 15 17 16 18 17 30 18 32 19 19 20 29 21 28 22
REMARK SMILES IDX 21 23 20 24 25 25 22 26 23 27 26 28 27 29 8 30 9 31 10 32
REMARK SMILES IDX 24 33
REMARK H PARENT 24 34
REMARK Flexibility Score: inf
ROOT
ATOM      1  C   UNL     1      -8.796  14.562  -4.505  1.00  0.00     0.017 C 
ATOM      2  C   UNL     1     -10.290  14.127  -4.408  1.00  0.00     0.014 C 
ATOM      3  C   UNL     1      -8.607  15.950  -3.810  1.00  0.00     0.014 C 
ATOM      4  C   UNL     1      -7.907  13.422  -3.866  1.00  0.00     0.030 C 
ATOM      5  C   UNL     1     -10.569  12.843  -5.209  1.00  0.00     0.004 C 
ATOM      6  C   UNL     1      -8.498  15.919  -2.277  1.00  0.00     0.013 C 
ATOM      7  C   UNL     1      -7.890  13.525  -2.320  1.00  0.00    -0.063 C 
ATOM      8  C   UNL     1      -8.219  12.034  -4.558  1.00  0.00    -0.003 C 
ATOM      9  C   UNL     1      -9.727  11.645  -4.725  1.00  0.00    -0.011 C 
ATOM     10  C   UNL     1      -7.452  14.890  -1.728  1.00  0.00    -0.006 C 
ATOM     11  C   UNL     1      -8.381  12.539  -1.527  1.00  0.00    -0.027 C 
ATOM     12  C   UNL     1      -7.272  10.876  -4.174  1.00  0.00     0.008 C 
ATOM     13  C   UNL     1     -10.419  10.950  -3.533  1.00  0.00     0.008 C 
ATOM     14  C   UNL     1      -6.038  15.264  -2.285  1.00  0.00     0.017 C 
ATOM     15  C   UNL     1      -7.396  14.858  -0.112  1.00  0.00    -0.020 C 
ATOM     16  C   UNL     1      -8.655  12.654  -0.047  1.00  0.00     0.032 C 
ATOM     17  C   UNL     1      -8.686  14.122   0.416  1.00  0.00     0.006 C 
ATOM     18  C   UNL     1      -7.306  16.296   0.513  1.00  0.00     0.008 C 
ATOM     19  C   UNL     1      -6.104  14.088   0.326  1.00  0.00     0.012 C 
ATOM     20  C   UNL     1      -9.139  14.391   1.930  1.00  0.00    -0.025 C 
ATOM     21  C   UNL     1      -8.644  16.807   1.051  1.00  0.00     0.005 C 
ATOM     22  C   UNL     1      -9.095  15.956   2.267  1.00  0.00     0.003 C 
ATOM     23  C   UNL     1     -10.592  13.823   2.085  1.00  0.00     0.010 C 
ATOM     24  C   UNL     1      -8.244  13.611   2.940  1.00  0.00     0.012 C 
ATOM     25  C   UNL     1     -10.364  16.559   3.006  1.00  0.00    -0.006 C 
ATOM     26  C   UNL     1     -11.322  14.174   3.388  1.00  0.00     0.033 C 
ATOM     27  C   UNL     1     -10.891  15.504   4.025  1.00  0.00     0.120 C 
ATOM     28  C   UNL     1      -9.943  17.819   3.820  1.00  0.00     0.014 C 
ATOM     29  C   UNL     1     -11.474  17.015   2.014  1.00  0.00     0.014 C 
ENDROOT
BRANCH   1  30
ATOM     30  C   UNL     1      -8.423  14.805  -5.968  1.00  0.00     0.048 C 
ATOM     31  O   UNL     1      -9.329  15.044  -6.818  1.00  0.00    -0.550 OA
ATOM     32  O   UNL     1      -7.092  14.918  -6.363  1.00  0.00    -0.550 OA
ENDBRANCH   1  30
BRANCH  27  33
ATOM     33  O   UNL     1     -11.904  16.007   4.863  1.00  0.00    -0.393 OA
ATOM     34  H   UNL     1     -11.590  15.957   5.801  1.00  0.00     0.210 HD
ENDBRANCH  27  33
TORSDOF 2
ENDMDL
MODEL 7
REMARK VINA RESULT:    -5.570      2.355      4.698
REMARK INTER + INTRA:          -6.088
REMARK INTER:                  -6.071
REMARK INTRA:                  -0.017
REMARK UNBOUND:                -0.029
REMARK SMILES C[C@H]1[C@@H](C)CC[C@@]2(C(=O)[O-])CC[C@]3(C)C(=CC[C@H]4[C@]5(C)CC[C@H](O)C(C)(C)[C@@H]5CC[C@@]43C)[C@@H]12
REMARK SMILES IDX 7 1 6 2 11 3 33 4 5 5 12 6 15 7 2 8 3 9 13 10 16 11 1 12
REMARK SMILES IDX 4 13 14 14 31 15 17 16 18 17 30 18 32 19 19 20 29 21 28 22
REMARK SMILES IDX 21 23 20 24 25 25 22 26 23 27 26 28 27 29 8 30 9 31 10 32
REMARK SMILES IDX 24 33
REMARK H PARENT 24 34
REMARK Flexibility Score: inf
ROOT
ATOM      1  C   UNL     1      -8.122  12.522   3.550  1.00  0.00     0.017 C 
ATOM      2  C   UNL     1      -9.170  11.515   2.985  1.00  0.00     0.014 C 
ATOM      3  C   UNL     1      -6.829  12.481   2.672  1.00  0.00     0.014 C 
ATOM      4  C   UNL     1      -8.790  13.953   3.602  1.00  0.00     0.030 C 
ATOM      5  C   UNL     1     -10.405  11.397   3.897  1.00  0.00     0.004 C 
ATOM      6  C   UNL     1      -6.888  13.278   1.358  1.00  0.00     0.013 C 
ATOM      7  C   UNL     1      -8.770  14.633   2.209  1.00  0.00    -0.063 C 
ATOM      8  C   UNL     1     -10.138  13.896   4.428  1.00  0.00    -0.003 C 
ATOM      9  C   UNL     1     -11.138  12.741   4.083  1.00  0.00    -0.011 C 
ATOM     10  C   UNL     1      -7.384  14.755   1.526  1.00  0.00    -0.006 C 
ATOM     11  C   UNL     1      -9.911  14.959   1.550  1.00  0.00    -0.027 C 
ATOM     12  C   UNL     1     -10.784  15.265   4.735  1.00  0.00     0.008 C 
ATOM     13  C   UNL     1     -12.125  12.978   2.920  1.00  0.00     0.008 C 
ATOM     14  C   UNL     1      -6.401  15.510   2.483  1.00  0.00     0.017 C 
ATOM     15  C   UNL     1      -7.471  15.547   0.118  1.00  0.00    -0.020 C 
ATOM     16  C   UNL     1     -10.003  15.367   0.099  1.00  0.00     0.032 C 
ATOM     17  C   UNL     1      -8.722  15.012  -0.677  1.00  0.00     0.006 C 
ATOM     18  C   UNL     1      -6.172  15.375  -0.748  1.00  0.00     0.008 C 
ATOM     19  C   UNL     1      -7.620  17.077   0.417  1.00  0.00     0.012 C 
ATOM     20  C   UNL     1      -8.756  15.235  -2.264  1.00  0.00    -0.025 C 
ATOM     21  C   UNL     1      -6.325  14.346  -1.870  1.00  0.00     0.005 C 
ATOM     22  C   UNL     1      -7.348  14.848  -2.923  1.00  0.00     0.003 C 
ATOM     23  C   UNL     1      -9.909  14.337  -2.831  1.00  0.00     0.010 C 
ATOM     24  C   UNL     1      -9.118  16.708  -2.625  1.00  0.00     0.012 C 
ATOM     25  C   UNL     1      -7.399  13.934  -4.219  1.00  0.00    -0.006 C 
ATOM     26  C   UNL     1      -9.979  14.208  -4.359  1.00  0.00     0.033 C 
ATOM     27  C   UNL     1      -8.629  14.358  -5.076  1.00  0.00     0.120 C 
ATOM     28  C   UNL     1      -6.125  14.181  -5.082  1.00  0.00     0.014 C 
ATOM     29  C   UNL     1      -7.423  12.414  -3.879  1.00  0.00     0.014 C 
ENDROOT
BRANCH   1  30
ATOM     30  C   UNL     1      -7.666  12.069   4.937  1.00  0.00     0.048 C 
ATOM     31  O   UNL     1      -7.243  10.889   5.107  1.00  0.00    -0.550 OA
ATOM     32  O   UNL     1      -7.564  12.972   5.992  1.00  0.00    -0.550 OA
ENDBRANCH   1  30
BRANCH  27  33
ATOM     33  O   UNL     1      -8.663  13.733  -6.337  1.00  0.00    -0.393 OA
ATOM     34  H   UNL     1      -8.193  14.313  -6.989  1.00  0.00     0.210 HD
ENDBRANCH  27  33
TORSDOF 2
ENDMDL
MODEL 8
REMARK VINA RESULT:    -5.558      2.526      7.403
REMARK INTER + INTRA:          -6.074
REMARK INTER:                  -6.155
REMARK INTRA:                   0.081
REMARK UNBOUND:                -0.029
REMARK SMILES C[C@H]1[C@@H](C)CC[C@@]2(C(=O)[O-])CC[C@]3(C)C(=CC[C@H]4[C@]5(C)CC[C@H](O)C(C)(C)[C@@H]5CC[C@@]43C)[C@@H]12
REMARK SMILES IDX 7 1 6 2 11 3 33 4 5 5 12 6 15 7 2 8 3 9 13 10 16 11 1 12
REMARK SMILES IDX 4 13 14 14 31 15 17 16 18 17 30 18 32 19 19 20 29 21 28 22
REMARK SMILES IDX 21 23 20 24 25 25 22 26 23 27 26 28 27 29 8 30 9 31 10 32
REMARK SMILES IDX 24 33
REMARK H PARENT 24 34
REMARK Flexibility Score: inf
ROOT
ATOM      1  C   UNL     1     -10.106  13.094  -4.757  1.00  0.00     0.017 C 
ATOM      2  C   UNL     1      -9.325  11.750  -4.881  1.00  0.00     0.014 C 
ATOM      3  C   UNL     1     -10.965  13.082  -3.450  1.00  0.00     0.014 C 
ATOM      4  C   UNL     1      -9.062  14.278  -4.802  1.00  0.00     0.030 C 
ATOM      5  C   UNL     1      -8.583  11.638  -6.225  1.00  0.00     0.004 C 
ATOM      6  C   UNL     1     -10.207  13.403  -2.151  1.00  0.00     0.013 C 
ATOM      7  C   UNL     1      -8.387  14.484  -3.422  1.00  0.00    -0.063 C 
ATOM      8  C   UNL     1      -8.171  14.171  -6.105  1.00  0.00    -0.003 C 
ATOM      9  C   UNL     1      -7.555  12.768  -6.433  1.00  0.00    -0.011 C 
ATOM     10  C   UNL     1      -9.339  14.705  -2.219  1.00  0.00    -0.006 C 
ATOM     11  C   UNL     1      -7.051  14.322  -3.243  1.00  0.00    -0.027 C 
ATOM     12  C   UNL     1      -7.252  15.381  -6.379  1.00  0.00     0.008 C 
ATOM     13  C   UNL     1      -6.214  12.405  -5.759  1.00  0.00     0.008 C 
ATOM     14  C   UNL     1     -10.278  15.921  -2.519  1.00  0.00     0.017 C 
ATOM     15  C   UNL     1      -8.526  14.985  -0.848  1.00  0.00    -0.020 C 
ATOM     16  C   UNL     1      -6.346  14.233  -1.911  1.00  0.00     0.032 C 
ATOM     17  C   UNL     1      -7.332  13.961  -0.760  1.00  0.00     0.006 C 
ATOM     18  C   UNL     1      -9.437  14.858   0.425  1.00  0.00     0.008 C 
ATOM     19  C   UNL     1      -7.990  16.456  -0.881  1.00  0.00     0.012 C 
ATOM     20  C   UNL     1      -6.694  13.671   0.682  1.00  0.00    -0.025 C 
ATOM     21  C   UNL     1      -9.264  13.528   1.162  1.00  0.00     0.005 C 
ATOM     22  C   UNL     1      -7.841  13.434   1.774  1.00  0.00     0.003 C 
ATOM     23  C   UNL     1      -5.783  12.404   0.538  1.00  0.00     0.010 C 
ATOM     24  C   UNL     1      -5.767  14.838   1.140  1.00  0.00     0.012 C 
ATOM     25  C   UNL     1      -7.662  12.180   2.730  1.00  0.00    -0.006 C 
ATOM     26  C   UNL     1      -5.249  11.800   1.844  1.00  0.00     0.033 C 
ATOM     27  C   UNL     1      -6.149  12.028   3.069  1.00  0.00     0.120 C 
ATOM     28  C   UNL     1      -8.413  12.436   4.072  1.00  0.00     0.014 C 
ATOM     29  C   UNL     1      -8.258  10.875   2.125  1.00  0.00     0.014 C 
ENDROOT
BRANCH   1  30
ATOM     30  C   UNL     1     -11.126  13.205  -5.891  1.00  0.00     0.048 C 
ATOM     31  O   UNL     1     -12.111  12.413  -5.932  1.00  0.00    -0.550 OA
ATOM     32  O   UNL     1     -11.077  14.257  -6.803  1.00  0.00    -0.550 OA
ENDBRANCH   1  30
BRANCH  27  33
ATOM     33  O   UNL     1      -5.901  11.056   4.057  1.00  0.00    -0.393 OA
ATOM     34  H   UNL     1      -5.711  11.517   4.912  1.00  0.00     0.210 HD
ENDBRANCH  27  33
TORSDOF 2
ENDMDL
MODEL 9
REMARK VINA RESULT:    -5.406      1.973      4.046
REMARK INTER + INTRA:          -5.909
REMARK INTER:                  -5.880
REMARK INTRA:                  -0.029
REMARK UNBOUND:                -0.029
REMARK SMILES C[C@H]1[C@@H](C)CC[C@@]2(C(=O)[O-])CC[C@]3(C)C(=CC[C@H]4[C@]5(C)CC[C@H](O)C(C)(C)[C@@H]5CC[C@@]43C)[C@@H]12
REMARK SMILES IDX 7 1 6 2 11 3 33 4 5 5 12 6 15 7 2 8 3 9 13 10 16 11 1 12
REMARK SMILES IDX 4 13 14 14 31 15 17 16 18 17 30 18 32 19 19 20 29 21 28 22
REMARK SMILES IDX 21 23 20 24 25 25 22 26 23 27 26 28 27 29 8 30 9 31 10 32
REMARK SMILES IDX 24 33
REMARK H PARENT 24 34
REMARK Flexibility Score: inf
ROOT
ATOM      1  C   UNL     1      -8.195  13.469   2.363  1.00  0.00     0.017 C 
ATOM      2  C   UNL     1      -8.910  12.090   2.227  1.00  0.00     0.014 C 
ATOM      3  C   UNL     1      -6.870  13.457   1.531  1.00  0.00     0.014 C 
ATOM      4  C   UNL     1      -9.203  14.596   1.906  1.00  0.00     0.030 C 
ATOM      5  C   UNL     1     -10.140  11.987   3.147  1.00  0.00     0.004 C 
ATOM      6  C   UNL     1      -7.030  13.688   0.019  1.00  0.00     0.013 C 
ATOM      7  C   UNL     1      -9.251  14.714   0.361  1.00  0.00    -0.063 C 
ATOM      8  C   UNL     1     -10.551  14.488   2.727  1.00  0.00    -0.003 C 
ATOM      9  C   UNL     1     -11.200  13.067   2.848  1.00  0.00    -0.011 C 
ATOM     10  C   UNL     1      -7.892  14.943  -0.351  1.00  0.00    -0.006 C 
ATOM     11  C   UNL     1     -10.384  14.473  -0.346  1.00  0.00    -0.027 C 
ATOM     12  C   UNL     1     -11.542  15.655   2.529  1.00  0.00     0.008 C 
ATOM     13  C   UNL     1     -12.125  12.607   1.701  1.00  0.00     0.008 C 
ATOM     14  C   UNL     1      -7.206  16.218   0.243  1.00  0.00     0.017 C 
ATOM     15  C   UNL     1      -8.070  15.128  -1.948  1.00  0.00    -0.020 C 
ATOM     16  C   UNL     1     -10.468  14.298  -1.843  1.00  0.00     0.032 C 
ATOM     17  C   UNL     1      -9.084  14.038  -2.465  1.00  0.00     0.006 C 
ATOM     18  C   UNL     1      -6.709  15.004  -2.721  1.00  0.00     0.008 C 
ATOM     19  C   UNL     1      -8.622  16.568  -2.222  1.00  0.00     0.012 C 
ATOM     20  C   UNL     1      -9.054  13.662  -4.024  1.00  0.00    -0.025 C 
ATOM     21  C   UNL     1      -6.514  13.642  -3.388  1.00  0.00     0.005 C 
ATOM     22  C   UNL     1      -7.549  13.448  -4.528  1.00  0.00     0.003 C 
ATOM     23  C   UNL     1      -9.898  12.353  -4.199  1.00  0.00     0.010 C 
ATOM     24  C   UNL     1      -9.746  14.760  -4.888  1.00  0.00     0.012 C 
ATOM     25  C   UNL     1      -7.271  12.153  -5.401  1.00  0.00    -0.006 C 
ATOM     26  C   UNL     1      -9.819  11.674  -5.573  1.00  0.00     0.033 C 
ATOM     27  C   UNL     1      -8.501  11.906  -6.326  1.00  0.00     0.120 C 
ATOM     28  C   UNL     1      -6.039  12.400  -6.324  1.00  0.00     0.014 C 
ATOM     29  C   UNL     1      -6.937  10.904  -4.532  1.00  0.00     0.014 C 
ENDROOT
BRANCH   1  30
ATOM     30  C   UNL     1      -7.744  13.677   3.809  1.00  0.00     0.048 C 
ATOM     31  O   UNL     1      -7.272  12.706   4.467  1.00  0.00    -0.550 OA
ATOM     32  O   UNL     1      -7.703  14.949   4.375  1.00  0.00    -0.550 OA
ENDBRANCH   1  30
BRANCH  27  33
ATOM     33  O   UNL     1      -8.281  10.886  -7.272  1.00  0.00    -0.393 OA
ATOM     34  H   UNL     1      -7.943  11.299  -8.107  1.00  0.00     0.210 HD
ENDBRANCH  27  33
TORSDOF 2
ENDMDL
