MODEL 1
REMARK VINA RESULT:    -6.594      0.000      0.000
REMARK INTER + INTRA:          -7.433
REMARK INTER:                  -7.172
REMARK INTRA:                  -0.261
REMARK UNBOUND:                -0.261
REMARK SMILES C[C@H]1[C@H](C)CC[C@@]2(C(=O)[O-])CC[C@@]3(C)C(=CC[C@@H]4[C@]5(C)CC[C@H](O)C(C)(C)[C@@H]5CC[C@]43C)[C@@H]12
REMARK SMILES IDX 7 1 6 2 11 3 33 4 5 5 12 6 15 7 2 8 3 9 13 10 16 11 1 12
REMARK SMILES IDX 4 13 14 14 31 15 17 16 18 17 30 18 32 19 19 20 29 21 28 22
REMARK SMILES IDX 21 23 20 24 25 25 22 26 23 27 26 28 27 29 8 30 9 31 10 32
REMARK SMILES IDX 24 33
REMARK H PARENT 24 34
REMARK Flexibility Score: inf
ROOT
ATOM      1  C   UNL     1      -9.551  27.736  41.929  1.00  0.00     0.017 C 
ATOM      2  C   UNL     1     -10.362  26.533  41.306  1.00  0.00     0.014 C 
ATOM      3  C   UNL     1     -10.155  27.994  43.345  1.00  0.00     0.014 C 
ATOM      4  C   UNL     1      -7.972  27.501  41.947  1.00  0.00     0.030 C 
ATOM      5  C   UNL     1      -9.690  25.165  41.466  1.00  0.00     0.004 C 
ATOM      6  C   UNL     1      -9.316  28.872  44.299  1.00  0.00     0.013 C 
ATOM      7  C   UNL     1      -7.238  28.252  43.081  1.00  0.00    -0.063 C 
ATOM      8  C   UNL     1      -7.346  26.091  41.608  1.00  0.00    -0.003 C 
ATOM      9  C   UNL     1      -8.297  25.153  40.837  1.00  0.00    -0.011 C 
ATOM     10  C   UNL     1      -7.853  28.377  44.503  1.00  0.00    -0.006 C 
ATOM     11  C   UNL     1      -6.142  28.955  42.704  1.00  0.00    -0.027 C 
ATOM     12  C   UNL     1      -6.671  25.333  42.767  1.00  0.00     0.008 C 
ATOM     13  C   UNL     1      -8.318  25.471  39.330  1.00  0.00     0.008 C 
ATOM     14  C   UNL     1      -7.971  26.968  45.170  1.00  0.00     0.017 C 
ATOM     15  C   UNL     1      -6.990  29.376  45.471  1.00  0.00    -0.020 C 
ATOM     16  C   UNL     1      -5.457  29.984  43.540  1.00  0.00     0.032 C 
ATOM     17  C   UNL     1      -6.395  30.567  44.627  1.00  0.00     0.006 C 
ATOM     18  C   UNL     1      -7.879  29.993  46.583  1.00  0.00     0.008 C 
ATOM     19  C   UNL     1      -5.838  28.570  46.171  1.00  0.00     0.012 C 
ATOM     20  C   UNL     1      -5.779  31.828  45.419  1.00  0.00    -0.025 C 
ATOM     21  C   UNL     1      -7.142  30.990  47.471  1.00  0.00     0.005 C 
ATOM     22  C   UNL     1      -6.664  32.239  46.679  1.00  0.00     0.003 C 
ATOM     23  C   UNL     1      -4.271  31.603  45.813  1.00  0.00     0.010 C 
ATOM     24  C   UNL     1      -5.822  33.027  44.417  1.00  0.00     0.012 C 
ATOM     25  C   UNL     1      -6.034  33.392  47.621  1.00  0.00    -0.006 C 
ATOM     26  C   UNL     1      -3.875  32.085  47.216  1.00  0.00     0.033 C 
ATOM     27  C   UNL     1      -4.467  33.467  47.498  1.00  0.00     0.120 C 
ATOM     28  C   UNL     1      -6.609  34.780  47.219  1.00  0.00     0.014 C 
ATOM     29  C   UNL     1      -6.438  33.214  49.122  1.00  0.00     0.014 C 
ENDROOT
BRANCH   1  30
ATOM     30  C   UNL     1      -9.840  29.011  41.106  1.00  0.00     0.048 C 
ATOM     31  O   UNL     1      -8.950  29.561  40.401  1.00  0.00    -0.550 OA
ATOM     32  O   UNL     1     -11.068  29.657  41.215  1.00  0.00    -0.550 OA
ENDBRANCH   1  30
BRANCH  27  33
ATOM     33  O   UNL     1      -3.885  34.005  48.664  1.00  0.00    -0.393 OA
ATOM     34  H   UNL     1      -4.452  34.764  48.971  1.00  0.00     0.210 HD
ENDBRANCH  27  33
TORSDOF 2
ENDMDL
MODEL 2
REMARK VINA RESULT:    -6.384      2.550      4.900
REMARK INTER + INTRA:          -7.205
REMARK INTER:                  -6.934
REMARK INTRA:                  -0.271
REMARK UNBOUND:                -0.261
REMARK SMILES C[C@H]1[C@H](C)CC[C@@]2(C(=O)[O-])CC[C@@]3(C)C(=CC[C@@H]4[C@]5(C)CC[C@H](O)C(C)(C)[C@@H]5CC[C@]43C)[C@@H]12
REMARK SMILES IDX 7 1 6 2 11 3 33 4 5 5 12 6 15 7 2 8 3 9 13 10 16 11 1 12
REMARK SMILES IDX 4 13 14 14 31 15 17 16 18 17 30 18 32 19 19 20 29 21 28 22
REMARK SMILES IDX 21 23 20 24 25 25 22 26 23 27 26 28 27 29 8 30 9 31 10 32
REMARK SMILES IDX 24 33
REMARK H PARENT 24 34
REMARK Flexibility Score: inf
ROOT
ATOM      1  C   UNL     1     -10.956  25.527  40.202  1.00  0.00     0.017 C 
ATOM      2  C   UNL     1     -11.858  25.136  38.966  1.00  0.00     0.014 C 
ATOM      3  C   UNL     1      -9.698  26.247  39.625  1.00  0.00     0.014 C 
ATOM      4  C   UNL     1     -11.725  26.384  41.308  1.00  0.00     0.030 C 
ATOM      5  C   UNL     1     -12.986  26.128  38.666  1.00  0.00     0.004 C 
ATOM      6  C   UNL     1      -8.838  27.041  40.633  1.00  0.00     0.013 C 
ATOM      7  C   UNL     1     -10.807  27.321  42.127  1.00  0.00    -0.063 C 
ATOM      8  C   UNL     1     -13.162  26.981  41.035  1.00  0.00    -0.003 C 
ATOM      9  C   UNL     1     -13.911  26.301  39.871  1.00  0.00    -0.011 C 
ATOM     10  C   UNL     1      -9.635  28.093  41.462  1.00  0.00    -0.006 C 
ATOM     11  C   UNL     1     -10.964  27.264  43.472  1.00  0.00    -0.027 C 
ATOM     12  C   UNL     1     -13.268  28.514  40.917  1.00  0.00     0.008 C 
ATOM     13  C   UNL     1     -14.575  24.982  40.308  1.00  0.00     0.008 C 
ATOM     14  C   UNL     1     -10.182  29.125  40.423  1.00  0.00     0.017 C 
ATOM     15  C   UNL     1      -8.692  28.861  42.558  1.00  0.00    -0.020 C 
ATOM     16  C   UNL     1     -10.009  27.832  44.469  1.00  0.00     0.032 C 
ATOM     17  C   UNL     1      -8.587  28.005  43.877  1.00  0.00     0.006 C 
ATOM     18  C   UNL     1      -7.250  29.064  42.020  1.00  0.00     0.008 C 
ATOM     19  C   UNL     1      -9.290  30.280  42.870  1.00  0.00     0.012 C 
ATOM     20  C   UNL     1      -7.469  28.412  44.964  1.00  0.00    -0.025 C 
ATOM     21  C   UNL     1      -6.307  29.710  43.030  1.00  0.00     0.005 C 
ATOM     22  C   UNL     1      -6.086  28.815  44.282  1.00  0.00     0.003 C 
ATOM     23  C   UNL     1      -7.979  29.527  45.952  1.00  0.00     0.010 C 
ATOM     24  C   UNL     1      -7.205  27.127  45.812  1.00  0.00     0.012 C 
ATOM     25  C   UNL     1      -4.960  29.390  45.289  1.00  0.00    -0.006 C 
ATOM     26  C   UNL     1      -6.960  30.621  46.298  1.00  0.00     0.033 C 
ATOM     27  C   UNL     1      -5.590  30.008  46.592  1.00  0.00     0.120 C 
ATOM     28  C   UNL     1      -4.000  28.247  45.722  1.00  0.00     0.014 C 
ATOM     29  C   UNL     1      -4.035  30.447  44.598  1.00  0.00     0.014 C 
ENDROOT
BRANCH   1  30
ATOM     30  C   UNL     1     -10.437  24.234  40.869  1.00  0.00     0.048 C 
ATOM     31  O   UNL     1      -9.472  23.581  40.388  1.00  0.00    -0.550 OA
ATOM     32  O   UNL     1     -11.105  23.689  41.962  1.00  0.00    -0.550 OA
ENDBRANCH   1  30
BRANCH  27  33
ATOM     33  O   UNL     1      -4.744  30.982  47.160  1.00  0.00    -0.393 OA
ATOM     34  H   UNL     1      -4.342  31.513  46.419  1.00  0.00     0.210 HD
ENDBRANCH  27  33
TORSDOF 2
ENDMDL
MODEL 3
REMARK VINA RESULT:    -6.244     11.258     13.924
REMARK INTER + INTRA:          -7.053
REMARK INTER:                  -6.794
REMARK INTRA:                  -0.260
REMARK UNBOUND:                -0.261
REMARK SMILES C[C@H]1[C@H](C)CC[C@@]2(C(=O)[O-])CC[C@@]3(C)C(=CC[C@@H]4[C@]5(C)CC[C@H](O)C(C)(C)[C@@H]5CC[C@]43C)[C@@H]12
REMARK SMILES IDX 7 1 6 2 11 3 33 4 5 5 12 6 15 7 2 8 3 9 13 10 16 11 1 12
REMARK SMILES IDX 4 13 14 14 31 15 17 16 18 17 30 18 32 19 19 20 29 21 28 22
REMARK SMILES IDX 21 23 20 24 25 25 22 26 23 27 26 28 27 29 8 30 9 31 10 32
REMARK SMILES IDX 24 33
REMARK H PARENT 24 34
REMARK Flexibility Score: inf
ROOT
ATOM      1  C   UNL     1     -10.307  17.025  40.548  1.00  0.00     0.017 C 
ATOM      2  C   UNL     1     -10.195  16.479  42.026  1.00  0.00     0.014 C 
ATOM      3  C   UNL     1     -11.185  18.313  40.615  1.00  0.00     0.014 C 
ATOM      4  C   UNL     1      -8.892  17.258  39.844  1.00  0.00     0.030 C 
ATOM      5  C   UNL     1      -8.918  16.899  42.761  1.00  0.00     0.004 C 
ATOM      6  C   UNL     1     -11.151  19.232  39.374  1.00  0.00     0.013 C 
ATOM      7  C   UNL     1      -8.905  18.359  38.759  1.00  0.00    -0.063 C 
ATOM      8  C   UNL     1      -7.543  17.187  40.663  1.00  0.00    -0.003 C 
ATOM      9  C   UNL     1      -7.667  16.443  42.009  1.00  0.00    -0.011 C 
ATOM     10  C   UNL     1      -9.720  19.669  38.941  1.00  0.00    -0.006 C 
ATOM     11  C   UNL     1      -8.335  18.021  37.576  1.00  0.00    -0.027 C 
ATOM     12  C   UNL     1      -6.773  18.508  40.851  1.00  0.00     0.008 C 
ATOM     13  C   UNL     1      -7.602  14.915  41.828  1.00  0.00     0.008 C 
ATOM     14  C   UNL     1      -9.151  20.502  40.136  1.00  0.00     0.017 C 
ATOM     15  C   UNL     1      -9.735  20.588  37.587  1.00  0.00    -0.020 C 
ATOM     16  C   UNL     1      -8.490  18.785  36.304  1.00  0.00     0.032 C 
ATOM     17  C   UNL     1      -9.765  19.667  36.308  1.00  0.00     0.006 C 
ATOM     18  C   UNL     1     -10.993  21.496  37.534  1.00  0.00     0.008 C 
ATOM     19  C   UNL     1      -8.471  21.520  37.564  1.00  0.00     0.012 C 
ATOM     20  C   UNL     1     -10.096  20.348  34.885  1.00  0.00    -0.025 C 
ATOM     21  C   UNL     1     -11.097  22.322  36.255  1.00  0.00     0.005 C 
ATOM     22  C   UNL     1     -11.262  21.430  34.993  1.00  0.00     0.003 C 
ATOM     23  C   UNL     1      -8.811  20.942  34.197  1.00  0.00     0.010 C 
ATOM     24  C   UNL     1     -10.622  19.197  33.969  1.00  0.00     0.012 C 
ATOM     25  C   UNL     1     -11.548  22.275  33.645  1.00  0.00    -0.006 C 
ATOM     26  C   UNL     1      -8.996  22.304  33.513  1.00  0.00     0.033 C 
ATOM     27  C   UNL     1     -10.291  22.327  32.700  1.00  0.00     0.120 C 
ATOM     28  C   UNL     1     -12.715  21.626  32.849  1.00  0.00     0.014 C 
ATOM     29  C   UNL     1     -12.037  23.730  33.954  1.00  0.00     0.014 C 
ENDROOT
BRANCH   1  30
ATOM     30  C   UNL     1     -11.106  16.010  39.701  1.00  0.00     0.048 C 
ATOM     31  O   UNL     1     -12.367  15.992  39.703  1.00  0.00    -0.550 OA
ATOM     32  O   UNL     1     -10.446  15.004  39.001  1.00  0.00    -0.550 OA
ENDBRANCH   1  30
BRANCH  27  33
ATOM     33  O   UNL     1     -10.315  23.470  31.875  1.00  0.00    -0.393 OA
ATOM     34  H   UNL     1      -9.448  23.518  31.387  1.00  0.00     0.210 HD
ENDBRANCH  27  33
TORSDOF 2
ENDMDL
MODEL 4
REMARK VINA RESULT:    -6.212      2.820      8.658
REMARK INTER + INTRA:          -7.018
REMARK INTER:                  -6.785
REMARK INTRA:                  -0.233
REMARK UNBOUND:                -0.261
REMARK SMILES C[C@H]1[C@H](C)CC[C@@]2(C(=O)[O-])CC[C@@]3(C)C(=CC[C@@H]4[C@]5(C)CC[C@H](O)C(C)(C)[C@@H]5CC[C@]43C)[C@@H]12
REMARK SMILES IDX 7 1 6 2 11 3 33 4 5 5 12 6 15 7 2 8 3 9 13 10 16 11 1 12
REMARK SMILES IDX 4 13 14 14 31 15 17 16 18 17 30 18 32 19 19 20 29 21 28 22
REMARK SMILES IDX 21 23 20 24 25 25 22 26 23 27 26 28 27 29 8 30 9 31 10 32
REMARK SMILES IDX 24 33
REMARK H PARENT 24 34
REMARK Flexibility Score: inf
ROOT
ATOM      1  C   UNL     1      -7.420  30.194  43.736  1.00  0.00     0.017 C 
ATOM      2  C   UNL     1      -6.008  30.664  44.265  1.00  0.00     0.014 C 
ATOM      3  C   UNL     1      -7.254  29.922  42.208  1.00  0.00     0.014 C 
ATOM      4  C   UNL     1      -8.024  28.954  44.540  1.00  0.00     0.030 C 
ATOM      5  C   UNL     1      -5.169  29.552  44.903  1.00  0.00     0.004 C 
ATOM      6  C   UNL     1      -8.383  29.115  41.528  1.00  0.00     0.013 C 
ATOM      7  C   UNL     1      -8.980  28.070  43.705  1.00  0.00    -0.063 C 
ATOM      8  C   UNL     1      -7.153  28.143  45.578  1.00  0.00    -0.003 C 
ATOM      9  C   UNL     1      -5.905  28.902  46.075  1.00  0.00    -0.011 C 
ATOM     10  C   UNL     1      -8.694  27.750  42.212  1.00  0.00    -0.006 C 
ATOM     11  C   UNL     1     -10.163  27.771  44.294  1.00  0.00    -0.027 C 
ATOM     12  C   UNL     1      -6.782  26.697  45.197  1.00  0.00     0.008 C 
ATOM     13  C   UNL     1      -6.251  29.904  47.193  1.00  0.00     0.008 C 
ATOM     14  C   UNL     1      -7.387  26.902  42.078  1.00  0.00     0.017 C 
ATOM     15  C   UNL     1      -9.937  26.966  41.492  1.00  0.00    -0.020 C 
ATOM     16  C   UNL     1     -11.349  27.203  43.589  1.00  0.00     0.032 C 
ATOM     17  C   UNL     1     -11.310  27.487  42.066  1.00  0.00     0.006 C 
ATOM     18  C   UNL     1      -9.951  27.213  39.960  1.00  0.00     0.008 C 
ATOM     19  C   UNL     1      -9.795  25.419  41.727  1.00  0.00     0.012 C 
ATOM     20  C   UNL     1     -12.663  27.084  41.289  1.00  0.00    -0.025 C 
ATOM     21  C   UNL     1     -11.134  26.565  39.248  1.00  0.00     0.005 C 
ATOM     22  C   UNL     1     -12.494  27.163  39.706  1.00  0.00     0.003 C 
ATOM     23  C   UNL     1     -13.218  25.683  41.747  1.00  0.00     0.010 C 
ATOM     24  C   UNL     1     -13.726  28.157  41.690  1.00  0.00     0.012 C 
ATOM     25  C   UNL     1     -13.752  26.622  38.847  1.00  0.00    -0.006 C 
ATOM     26  C   UNL     1     -13.755  24.784  40.624  1.00  0.00     0.033 C 
ATOM     27  C   UNL     1     -14.623  25.591  39.657  1.00  0.00     0.120 C 
ATOM     28  C   UNL     1     -14.672  27.810  38.446  1.00  0.00     0.014 C 
ATOM     29  C   UNL     1     -13.309  25.985  37.488  1.00  0.00     0.014 C 
ENDROOT
BRANCH   1  30
ATOM     30  C   UNL     1      -8.413  31.373  43.851  1.00  0.00     0.048 C 
ATOM     31  O   UNL     1      -8.551  32.216  42.924  1.00  0.00    -0.550 OA
ATOM     32  O   UNL     1      -9.097  31.602  45.041  1.00  0.00    -0.550 OA
ENDBRANCH   1  30
BRANCH  27  33
ATOM     33  O   UNL     1     -15.317  24.716  38.797  1.00  0.00    -0.393 OA
ATOM     34  H   UNL     1     -15.958  25.255  38.258  1.00  0.00     0.210 HD
ENDBRANCH  27  33
TORSDOF 2
ENDMDL
MODEL 5
REMARK VINA RESULT:    -6.053      2.337      4.024
REMARK INTER + INTRA:          -6.845
REMARK INTER:                  -6.625
REMARK INTRA:                  -0.220
REMARK UNBOUND:                -0.261
REMARK SMILES C[C@H]1[C@H](C)CC[C@@]2(C(=O)[O-])CC[C@@]3(C)C(=CC[C@@H]4[C@]5(C)CC[C@H](O)C(C)(C)[C@@H]5CC[C@]43C)[C@@H]12
REMARK SMILES IDX 7 1 6 2 11 3 33 4 5 5 12 6 15 7 2 8 3 9 13 10 16 11 1 12
REMARK SMILES IDX 4 13 14 14 31 15 17 16 18 17 30 18 32 19 19 20 29 21 28 22
REMARK SMILES IDX 21 23 20 24 25 25 22 26 23 27 26 28 27 29 8 30 9 31 10 32
REMARK SMILES IDX 24 33
REMARK H PARENT 24 34
REMARK Flexibility Score: inf
ROOT
ATOM      1  C   UNL     1     -12.838  26.724  41.115  1.00  0.00     0.017 C 
ATOM      2  C   UNL     1     -13.741  25.643  40.401  1.00  0.00     0.014 C 
ATOM      3  C   UNL     1     -12.220  26.029  42.368  1.00  0.00     0.014 C 
ATOM      4  C   UNL     1     -11.747  27.381  40.152  1.00  0.00     0.030 C 
ATOM      5  C   UNL     1     -13.059  24.915  39.238  1.00  0.00     0.004 C 
ATOM      6  C   UNL     1     -11.026  26.750  43.034  1.00  0.00     0.013 C 
ATOM      7  C   UNL     1     -10.480  27.879  40.886  1.00  0.00    -0.063 C 
ATOM      8  C   UNL     1     -11.460  26.797  38.713  1.00  0.00    -0.003 C 
ATOM      9  C   UNL     1     -12.588  25.899  38.166  1.00  0.00    -0.011 C 
ATOM     10  C   UNL     1      -9.855  27.077  42.060  1.00  0.00    -0.006 C 
ATOM     11  C   UNL     1     -10.082  29.137  40.577  1.00  0.00    -0.027 C 
ATOM     12  C   UNL     1     -10.090  26.126  38.494  1.00  0.00     0.008 C 
ATOM     13  C   UNL     1     -13.741  26.727  37.566  1.00  0.00     0.008 C 
ATOM     14  C   UNL     1      -9.325  25.696  41.555  1.00  0.00     0.017 C 
ATOM     15  C   UNL     1      -8.645  27.895  42.800  1.00  0.00    -0.020 C 
ATOM     16  C   UNL     1      -9.092  29.936  41.357  1.00  0.00     0.032 C 
ATOM     17  C   UNL     1      -8.967  29.439  42.819  1.00  0.00     0.006 C 
ATOM     18  C   UNL     1      -8.472  27.439  44.274  1.00  0.00     0.008 C 
ATOM     19  C   UNL     1      -7.289  27.627  42.053  1.00  0.00     0.012 C 
ATOM     20  C   UNL     1      -8.075  30.392  43.763  1.00  0.00    -0.025 C 
ATOM     21  C   UNL     1      -7.406  28.221  45.034  1.00  0.00     0.005 C 
ATOM     22  C   UNL     1      -7.773  29.725  45.179  1.00  0.00     0.003 C 
ATOM     23  C   UNL     1      -6.755  30.868  43.049  1.00  0.00     0.010 C 
ATOM     24  C   UNL     1      -8.941  31.665  44.032  1.00  0.00     0.012 C 
ATOM     25  C   UNL     1      -6.752  30.544  46.127  1.00  0.00    -0.006 C 
ATOM     26  C   UNL     1      -5.495  30.878  43.926  1.00  0.00     0.033 C 
ATOM     27  C   UNL     1      -5.798  31.483  45.298  1.00  0.00     0.120 C 
ATOM     28  C   UNL     1      -7.548  31.435  47.121  1.00  0.00     0.014 C 
ATOM     29  C   UNL     1      -5.900  29.596  47.036  1.00  0.00     0.014 C 
ENDROOT
BRANCH   1  30
ATOM     30  C   UNL     1     -13.744  27.851  41.657  1.00  0.00     0.048 C 
ATOM     31  O   UNL     1     -14.724  27.608  42.412  1.00  0.00    -0.550 OA
ATOM     32  O   UNL     1     -13.571  29.163  41.226  1.00  0.00    -0.550 OA
ENDBRANCH   1  30
BRANCH  27  33
ATOM     33  O   UNL     1      -4.593  31.728  45.987  1.00  0.00    -0.393 OA
ATOM     34  H   UNL     1      -4.572  32.691  46.243  1.00  0.00     0.210 HD
ENDBRANCH  27  33
TORSDOF 2
ENDMDL
MODEL 6
REMARK VINA RESULT:    -5.848     13.900     16.957
REMARK INTER + INTRA:          -6.622
REMARK INTER:                  -6.396
REMARK INTRA:                  -0.226
REMARK UNBOUND:                -0.261
REMARK SMILES C[C@H]1[C@H](C)CC[C@@]2(C(=O)[O-])CC[C@@]3(C)C(=CC[C@@H]4[C@]5(C)CC[C@H](O)C(C)(C)[C@@H]5CC[C@]43C)[C@@H]12
REMARK SMILES IDX 7 1 6 2 11 3 33 4 5 5 12 6 15 7 2 8 3 9 13 10 16 11 1 12
REMARK SMILES IDX 4 13 14 14 31 15 17 16 18 17 30 18 32 19 19 20 29 21 28 22
REMARK SMILES IDX 21 23 20 24 25 25 22 26 23 27 26 28 27 29 8 30 9 31 10 32
REMARK SMILES IDX 24 33
REMARK H PARENT 24 34
REMARK Flexibility Score: inf
ROOT
ATOM      1  C   UNL     1     -19.989  31.930  34.890  1.00  0.00     0.017 C 
ATOM      2  C   UNL     1     -20.359  33.456  34.724  1.00  0.00     0.014 C 
ATOM      3  C   UNL     1     -20.740  31.165  33.757  1.00  0.00     0.014 C 
ATOM      4  C   UNL     1     -18.416  31.652  34.908  1.00  0.00     0.030 C 
ATOM      5  C   UNL     1     -19.323  34.279  33.951  1.00  0.00     0.004 C 
ATOM      6  C   UNL     1     -20.270  29.720  33.476  1.00  0.00     0.013 C 
ATOM      7  C   UNL     1     -18.021  30.247  34.398  1.00  0.00    -0.063 C 
ATOM      8  C   UNL     1     -17.376  32.781  34.534  1.00  0.00    -0.003 C 
ATOM      9  C   UNL     1     -17.949  34.211  34.617  1.00  0.00    -0.011 C 
ATOM     10  C   UNL     1     -18.744  29.589  33.191  1.00  0.00    -0.006 C 
ATOM     11  C   UNL     1     -17.160  29.560  35.187  1.00  0.00    -0.027 C 
ATOM     12  C   UNL     1     -16.590  32.595  33.222  1.00  0.00     0.008 C 
ATOM     13  C   UNL     1     -17.958  34.742  36.063  1.00  0.00     0.008 C 
ATOM     14  C   UNL     1     -18.484  30.411  31.887  1.00  0.00     0.017 C 
ATOM     15  C   UNL     1     -18.287  28.033  32.963  1.00  0.00    -0.020 C 
ATOM     16  C   UNL     1     -16.873  28.100  35.070  1.00  0.00     0.032 C 
ATOM     17  C   UNL     1     -18.016  27.339  34.352  1.00  0.00     0.006 C 
ATOM     18  C   UNL     1     -19.396  27.218  32.245  1.00  0.00     0.008 C 
ATOM     19  C   UNL     1     -17.000  27.985  32.064  1.00  0.00     0.012 C 
ATOM     20  C   UNL     1     -17.860  25.736  34.385  1.00  0.00    -0.025 C 
ATOM     21  C   UNL     1     -19.054  25.742  32.072  1.00  0.00     0.005 C 
ATOM     22  C   UNL     1     -18.914  25.009  33.436  1.00  0.00     0.003 C 
ATOM     23  C   UNL     1     -16.386  25.275  34.080  1.00  0.00     0.010 C 
ATOM     24  C   UNL     1     -18.187  25.302  35.850  1.00  0.00     0.012 C 
ATOM     25  C   UNL     1     -18.724  23.410  33.286  1.00  0.00    -0.006 C 
ATOM     26  C   UNL     1     -16.251  24.046  33.170  1.00  0.00     0.033 C 
ATOM     27  C   UNL     1     -17.245  22.960  33.582  1.00  0.00     0.120 C 
ATOM     28  C   UNL     1     -19.656  22.669  34.286  1.00  0.00     0.014 C 
ATOM     29  C   UNL     1     -19.162  22.893  31.875  1.00  0.00     0.014 C 
ENDROOT
BRANCH   1  30
ATOM     30  C   UNL     1     -20.585  31.414  36.219  1.00  0.00     0.048 C 
ATOM     31  O   UNL     1     -19.860  30.911  37.120  1.00  0.00    -0.550 OA
ATOM     32  O   UNL     1     -21.964  31.384  36.407  1.00  0.00    -0.550 OA
ENDBRANCH   1  30
BRANCH  27  33
ATOM     33  O   UNL     1     -16.934  21.754  32.921  1.00  0.00    -0.393 OA
ATOM     34  H   UNL     1     -16.009  21.488  33.181  1.00  0.00     0.210 HD
ENDBRANCH  27  33
TORSDOF 2
ENDMDL
MODEL 7
REMARK VINA RESULT:    -5.845      8.861     13.290
REMARK INTER + INTRA:          -6.619
REMARK INTER:                  -6.435
REMARK INTRA:                  -0.184
REMARK UNBOUND:                -0.261
REMARK SMILES C[C@H]1[C@H](C)CC[C@@]2(C(=O)[O-])CC[C@@]3(C)C(=CC[C@@H]4[C@]5(C)CC[C@H](O)C(C)(C)[C@@H]5CC[C@]43C)[C@@H]12
REMARK SMILES IDX 7 1 6 2 11 3 33 4 5 5 12 6 15 7 2 8 3 9 13 10 16 11 1 12
REMARK SMILES IDX 4 13 14 14 31 15 17 16 18 17 30 18 32 19 19 20 29 21 28 22
REMARK SMILES IDX 21 23 20 24 25 25 22 26 23 27 26 28 27 29 8 30 9 31 10 32
REMARK SMILES IDX 24 33
REMARK H PARENT 24 34
REMARK Flexibility Score: inf
ROOT
ATOM      1  C   UNL     1     -17.824  24.139  33.570  1.00  0.00     0.017 C 
ATOM      2  C   UNL     1     -18.447  24.470  32.157  1.00  0.00     0.014 C 
ATOM      3  C   UNL     1     -16.296  23.919  33.342  1.00  0.00     0.014 C 
ATOM      4  C   UNL     1     -18.147  25.237  34.684  1.00  0.00     0.030 C 
ATOM      5  C   UNL     1     -18.621  25.966  31.876  1.00  0.00     0.004 C 
ATOM      6  C   UNL     1     -15.404  23.936  34.603  1.00  0.00     0.013 C 
ATOM      7  C   UNL     1     -17.079  25.335  35.797  1.00  0.00    -0.063 C 
ATOM      8  C   UNL     1     -18.803  26.624  34.307  1.00  0.00    -0.003 C 
ATOM      9  C   UNL     1     -19.504  26.631  32.933  1.00  0.00    -0.011 C 
ATOM     10  C   UNL     1     -15.563  25.214  35.480  1.00  0.00    -0.006 C 
ATOM     11  C   UNL     1     -17.555  25.328  37.066  1.00  0.00    -0.027 C 
ATOM     12  C   UNL     1     -17.919  27.877  34.463  1.00  0.00     0.008 C 
ATOM     13  C   UNL     1     -20.915  26.019  33.005  1.00  0.00     0.008 C 
ATOM     14  C   UNL     1     -15.098  26.405  34.581  1.00  0.00     0.017 C 
ATOM     15  C   UNL     1     -14.645  25.154  36.834  1.00  0.00    -0.020 C 
ATOM     16  C   UNL     1     -16.726  25.111  38.288  1.00  0.00     0.032 C 
ATOM     17  C   UNL     1     -15.405  24.366  37.969  1.00  0.00     0.006 C 
ATOM     18  C   UNL     1     -13.304  24.416  36.576  1.00  0.00     0.008 C 
ATOM     19  C   UNL     1     -14.306  26.612  37.310  1.00  0.00     0.012 C 
ATOM     20  C   UNL     1     -14.573  23.917  39.274  1.00  0.00    -0.025 C 
ATOM     21  C   UNL     1     -12.439  24.266  37.824  1.00  0.00     0.005 C 
ATOM     22  C   UNL     1     -13.119  23.379  38.904  1.00  0.00     0.003 C 
ATOM     23  C   UNL     1     -14.515  25.054  40.362  1.00  0.00     0.010 C 
ATOM     24  C   UNL     1     -15.361  22.720  39.896  1.00  0.00     0.012 C 
ATOM     25  C   UNL     1     -12.159  23.057  40.165  1.00  0.00    -0.006 C 
ATOM     26  C   UNL     1     -13.160  25.231  41.063  1.00  0.00     0.033 C 
ATOM     27  C   UNL     1     -12.571  23.873  41.446  1.00  0.00     0.120 C 
ATOM     28  C   UNL     1     -12.235  21.545  40.519  1.00  0.00     0.014 C 
ATOM     29  C   UNL     1     -10.650  23.314  39.838  1.00  0.00     0.014 C 
ENDROOT
BRANCH   1  30
ATOM     30  C   UNL     1     -18.381  22.782  34.055  1.00  0.00     0.048 C 
ATOM     31  O   UNL     1     -19.472  22.699  34.681  1.00  0.00    -0.550 OA
ATOM     32  O   UNL     1     -17.627  21.620  33.914  1.00  0.00    -0.550 OA
ENDBRANCH   1  30
BRANCH  27  33
ATOM     33  O   UNL     1     -11.473  24.058  42.312  1.00  0.00    -0.393 OA
ATOM     34  H   UNL     1     -11.566  24.951  42.743  1.00  0.00     0.210 HD
ENDBRANCH  27  33
TORSDOF 2
ENDMDL
MODEL 8
REMARK VINA RESULT:    -5.797     11.745     13.854
REMARK INTER + INTRA:          -6.567
REMARK INTER:                  -6.347
REMARK INTRA:                  -0.220
REMARK UNBOUND:                -0.261
REMARK SMILES C[C@H]1[C@H](C)CC[C@@]2(C(=O)[O-])CC[C@@]3(C)C(=CC[C@@H]4[C@]5(C)CC[C@H](O)C(C)(C)[C@@H]5CC[C@]43C)[C@@H]12
REMARK SMILES IDX 7 1 6 2 11 3 33 4 5 5 12 6 15 7 2 8 3 9 13 10 16 11 1 12
REMARK SMILES IDX 4 13 14 14 31 15 17 16 18 17 30 18 32 19 19 20 29 21 28 22
REMARK SMILES IDX 21 23 20 24 25 25 22 26 23 27 26 28 27 29 8 30 9 31 10 32
REMARK SMILES IDX 24 33
REMARK H PARENT 24 34
REMARK Flexibility Score: inf
ROOT
ATOM      1  C   UNL     1      -9.792  20.791  33.222  1.00  0.00     0.017 C 
ATOM      2  C   UNL     1      -9.246  21.429  31.884  1.00  0.00     0.014 C 
ATOM      3  C   UNL     1      -8.884  19.560  33.530  1.00  0.00     0.014 C 
ATOM      4  C   UNL     1      -9.887  21.829  34.432  1.00  0.00     0.030 C 
ATOM      5  C   UNL     1      -8.295  22.613  32.089  1.00  0.00     0.004 C 
ATOM      6  C   UNL     1      -8.978  18.979  34.959  1.00  0.00     0.013 C 
ATOM      7  C   UNL     1      -9.749  21.179  35.828  1.00  0.00    -0.063 C 
ATOM      8  C   UNL     1      -9.246  23.269  34.334  1.00  0.00    -0.003 C 
ATOM      9  C   UNL     1      -8.963  23.731  32.889  1.00  0.00    -0.011 C 
ATOM     10  C   UNL     1      -8.742  20.025  36.090  1.00  0.00    -0.006 C 
ATOM     11  C   UNL     1     -10.690  21.537  36.735  1.00  0.00    -0.027 C 
ATOM     12  C   UNL     1      -8.026  23.550  35.233  1.00  0.00     0.008 C 
ATOM     13  C   UNL     1     -10.229  24.281  32.206  1.00  0.00     0.008 C 
ATOM     14  C   UNL     1      -7.275  20.529  35.902  1.00  0.00     0.017 C 
ATOM     15  C   UNL     1      -8.915  19.373  37.582  1.00  0.00    -0.020 C 
ATOM     16  C   UNL     1     -10.945  20.832  38.026  1.00  0.00     0.032 C 
ATOM     17  C   UNL     1     -10.436  19.369  37.998  1.00  0.00     0.006 C 
ATOM     18  C   UNL     1      -8.421  17.902  37.617  1.00  0.00     0.008 C 
ATOM     19  C   UNL     1      -8.064  20.190  38.619  1.00  0.00     0.012 C 
ATOM     20  C   UNL     1     -10.872  18.498  39.282  1.00  0.00    -0.025 C 
ATOM     21  C   UNL     1      -8.626  17.221  38.966  1.00  0.00     0.005 C 
ATOM     22  C   UNL     1     -10.131  17.087  39.332  1.00  0.00     0.003 C 
ATOM     23  C   UNL     1     -10.699  19.296  40.628  1.00  0.00     0.010 C 
ATOM     24  C   UNL     1     -12.398  18.208  39.107  1.00  0.00     0.012 C 
ATOM     25  C   UNL     1     -10.390  16.217  40.670  1.00  0.00    -0.006 C 
ATOM     26  C   UNL     1     -10.129  18.492  41.805  1.00  0.00     0.033 C 
ATOM     27  C   UNL     1     -10.796  17.119  41.894  1.00  0.00     0.120 C 
ATOM     28  C   UNL     1     -11.539  15.199  40.427  1.00  0.00     0.014 C 
ATOM     29  C   UNL     1      -9.152  15.338  41.050  1.00  0.00     0.014 C 
ENDROOT
BRANCH   1  30
ATOM     30  C   UNL     1     -11.205  20.222  32.962  1.00  0.00     0.048 C 
ATOM     31  O   UNL     1     -11.382  19.031  32.588  1.00  0.00    -0.550 OA
ATOM     32  O   UNL     1     -12.320  21.054  33.019  1.00  0.00    -0.550 OA
ENDBRANCH   1  30
BRANCH  27  33
ATOM     33  O   UNL     1     -10.461  16.505  43.118  1.00  0.00    -0.393 OA
ATOM     34  H   UNL     1     -10.734  15.548  43.070  1.00  0.00     0.210 HD
ENDBRANCH  27  33
TORSDOF 2
ENDMDL
MODEL 9
REMARK VINA RESULT:    -5.753      7.667     11.919
REMARK INTER + INTRA:          -6.519
REMARK INTER:                  -6.267
REMARK INTRA:                  -0.252
REMARK UNBOUND:                -0.261
REMARK SMILES C[C@H]1[C@H](C)CC[C@@]2(C(=O)[O-])CC[C@@]3(C)C(=CC[C@@H]4[C@]5(C)CC[C@H](O)C(C)(C)[C@@H]5CC[C@]43C)[C@@H]12
REMARK SMILES IDX 7 1 6 2 11 3 33 4 5 5 12 6 15 7 2 8 3 9 13 10 16 11 1 12
REMARK SMILES IDX 4 13 14 14 31 15 17 16 18 17 30 18 32 19 19 20 29 21 28 22
REMARK SMILES IDX 21 23 20 24 25 25 22 26 23 27 26 28 27 29 8 30 9 31 10 32
REMARK SMILES IDX 24 33
REMARK H PARENT 24 34
REMARK Flexibility Score: inf
ROOT
ATOM      1  C   UNL     1     -16.069  24.892  33.677  1.00  0.00     0.017 C 
ATOM      2  C   UNL     1     -16.524  25.054  32.173  1.00  0.00     0.014 C 
ATOM      3  C   UNL     1     -14.625  25.478  33.771  1.00  0.00     0.014 C 
ATOM      4  C   UNL     1     -17.085  25.540  34.725  1.00  0.00     0.030 C 
ATOM      5  C   UNL     1     -17.378  26.296  31.900  1.00  0.00     0.004 C 
ATOM      6  C   UNL     1     -14.093  25.767  35.192  1.00  0.00     0.013 C 
ATOM      7  C   UNL     1     -16.419  26.004  36.041  1.00  0.00    -0.063 C 
ATOM      8  C   UNL     1     -18.276  26.464  34.254  1.00  0.00    -0.003 C 
ATOM      9  C   UNL     1     -18.640  26.304  32.763  1.00  0.00    -0.011 C 
ATOM     10  C   UNL     1     -15.020  26.681  36.048  1.00  0.00    -0.006 C 
ATOM     11  C   UNL     1     -17.033  25.604  37.181  1.00  0.00    -0.027 C 
ATOM     12  C   UNL     1     -18.186  27.957  34.625  1.00  0.00     0.008 C 
ATOM     13  C   UNL     1     -19.538  25.077  32.521  1.00  0.00     0.008 C 
ATOM     14  C   UNL     1     -15.075  28.051  35.297  1.00  0.00     0.017 C 
ATOM     15  C   UNL     1     -14.442  26.904  37.563  1.00  0.00    -0.020 C 
ATOM     16  C   UNL     1     -16.429  25.665  38.544  1.00  0.00     0.032 C 
ATOM     17  C   UNL     1     -14.881  25.708  38.491  1.00  0.00     0.006 C 
ATOM     18  C   UNL     1     -12.891  26.956  37.575  1.00  0.00     0.008 C 
ATOM     19  C   UNL     1     -14.972  28.268  38.136  1.00  0.00     0.012 C 
ATOM     20  C   UNL     1     -14.171  25.561  39.931  1.00  0.00    -0.025 C 
ATOM     21  C   UNL     1     -12.295  27.090  38.972  1.00  0.00     0.005 C 
ATOM     22  C   UNL     1     -12.606  25.854  39.862  1.00  0.00     0.003 C 
ATOM     23  C   UNL     1     -14.880  26.431  41.035  1.00  0.00     0.010 C 
ATOM     24  C   UNL     1     -14.340  24.063  40.342  1.00  0.00     0.012 C 
ATOM     25  C   UNL     1     -11.844  25.884  41.288  1.00  0.00    -0.006 C 
ATOM     26  C   UNL     1     -13.941  27.156  42.010  1.00  0.00     0.033 C 
ATOM     27  C   UNL     1     -12.822  26.223  42.474  1.00  0.00     0.120 C 
ATOM     28  C   UNL     1     -11.207  24.497  41.580  1.00  0.00     0.014 C 
ATOM     29  C   UNL     1     -10.641  26.885  41.293  1.00  0.00     0.014 C 
ENDROOT
BRANCH   1  30
ATOM     30  C   UNL     1     -15.938  23.387  33.999  1.00  0.00     0.048 C 
ATOM     31  O   UNL     1     -14.889  22.740  33.730  1.00  0.00    -0.550 OA
ATOM     32  O   UNL     1     -17.029  22.675  34.490  1.00  0.00    -0.550 OA
ENDBRANCH   1  30
BRANCH  27  33
ATOM     33  O   UNL     1     -12.133  26.808  43.556  1.00  0.00    -0.393 OA
ATOM     34  H   UNL     1     -11.491  27.477  43.190  1.00  0.00     0.210 HD
ENDBRANCH  27  33
TORSDOF 2
ENDMDL
