MODEL 1
REMARK VINA RESULT:    -5.155      0.000      0.000
REMARK INTER + INTRA:          -6.610
REMARK INTER:                  -6.209
REMARK INTRA:                  -0.400
REMARK UNBOUND:                -0.400
REMARK SMILES O=c1c(O)c(-c2ccc(O)cc2O)oc2cc(O)cc(O)c12
REMARK SMILES IDX 5 1 3 2 2 3 1 4 22 5 20 6 19 7 17 8 16 9 15 10 14 11 6 12
REMARK SMILES IDX 8 13 7 14 9 15 11 16 12 17 10 18 13 20 4 22 21 24 18 26
REMARK H PARENT 10 19 13 21 4 23 21 25 18 27
REMARK Flexibility Score: inf
ROOT
ATOM      1  C   UNL     1     122.303 128.068 129.614  1.00  0.00     0.184 A 
ATOM      2  C   UNL     1     120.977 128.524 129.677  1.00  0.00     0.208 A 
ATOM      3  C   UNL     1     119.932 127.593 129.578  1.00  0.00     0.238 A 
ATOM      4  O   UNL     1     118.748 128.001 129.696  1.00  0.00    -0.285 OA
ATOM      5  C   UNL     1     120.228 126.221 129.387  1.00  0.00     0.111 A 
ATOM      6  C   UNL     1     119.247 125.194 129.234  1.00  0.00     0.134 A 
ATOM      7  C   UNL     1     119.654 123.855 129.174  1.00  0.00     0.093 A 
ATOM      8  C   UNL     1     121.007 123.511 129.197  1.00  0.00     0.123 A 
ATOM      9  C   UNL     1     121.974 124.510 129.288  1.00  0.00     0.094 A 
ATOM     10  C   UNL     1     121.599 125.852 129.387  1.00  0.00     0.146 A 
ATOM     11  O   UNL     1     122.552 126.771 129.486  1.00  0.00    -0.451 OA
ENDROOT
BRANCH   1  12
ATOM     12  C   UNL     1     123.445 129.005 129.689  1.00  0.00     0.063 A 
ATOM     13  C   UNL     1     124.815 130.710 128.622  1.00  0.00     0.047 A 
ATOM     14  C   UNL     1     123.711 129.854 128.600  1.00  0.00     0.020 A 
ATOM     15  C   UNL     1     125.671 130.725 129.725  1.00  0.00     0.119 A 
ATOM     16  C   UNL     1     125.416 129.883 130.814  1.00  0.00     0.093 A 
ATOM     17  C   UNL     1     124.307 129.028 130.810  1.00  0.00     0.130 A 
BRANCH  15  18
ATOM     18  O   UNL     1     126.772 131.580 129.730  1.00  0.00    -0.508 OA
ATOM     19  H   UNL     1     127.504 131.505 129.033  1.00  0.00     0.293 HD
ENDBRANCH  15  18
BRANCH  17  20
ATOM     20  O   UNL     1     124.080 128.236 131.937  1.00  0.00    -0.507 OA
ATOM     21  H   UNL     1     123.479 128.520 132.700  1.00  0.00     0.293 HD
ENDBRANCH  17  20
ENDBRANCH   1  12
BRANCH   2  22
ATOM     22  O   UNL     1     120.716 129.885 129.862  1.00  0.00    -0.502 OA
ATOM     23  H   UNL     1     119.901 130.217 130.363  1.00  0.00     0.293 HD
ENDBRANCH   2  22
BRANCH   6  24
ATOM     24  O   UNL     1     117.876 125.436 129.110  1.00  0.00    -0.507 OA
ATOM     25  H   UNL     1     117.217 124.803 128.683  1.00  0.00     0.293 HD
ENDBRANCH   6  24
BRANCH   8  26
ATOM     26  O   UNL     1     121.402 122.177 129.121  1.00  0.00    -0.508 OA
ATOM     27  H   UNL     1     120.785 121.462 128.756  1.00  0.00     0.293 HD
ENDBRANCH   8  26
TORSDOF 6
ENDMDL
MODEL 2
REMARK VINA RESULT:    -5.034     12.007     15.808
REMARK INTER + INTRA:          -6.464
REMARK INTER:                  -6.060
REMARK INTRA:                  -0.404
REMARK UNBOUND:                -0.400
REMARK SMILES O=c1c(O)c(-c2ccc(O)cc2O)oc2cc(O)cc(O)c12
REMARK SMILES IDX 5 1 3 2 2 3 1 4 22 5 20 6 19 7 17 8 16 9 15 10 14 11 6 12
REMARK SMILES IDX 8 13 7 14 9 15 11 16 12 17 10 18 13 20 4 22 21 24 18 26
REMARK H PARENT 10 19 13 21 4 23 21 25 18 27
REMARK Flexibility Score: inf
ROOT
ATOM      1  C   UNL     1     133.480 136.732 135.579  1.00  0.00     0.184 A 
ATOM      2  C   UNL     1     133.506 135.606 134.741  1.00  0.00     0.208 A 
ATOM      3  C   UNL     1     132.301 135.131 134.202  1.00  0.00     0.238 A 
ATOM      4  O   UNL     1     132.339 134.159 133.403  1.00  0.00    -0.285 OA
ATOM      5  C   UNL     1     131.081 135.771 134.532  1.00  0.00     0.111 A 
ATOM      6  C   UNL     1     129.795 135.351 134.075  1.00  0.00     0.134 A 
ATOM      7  C   UNL     1     128.670 136.133 134.367  1.00  0.00     0.093 A 
ATOM      8  C   UNL     1     128.775 137.283 135.152  1.00  0.00     0.123 A 
ATOM      9  C   UNL     1     130.017 137.670 135.650  1.00  0.00     0.094 A 
ATOM     10  C   UNL     1     131.164 136.932 135.346  1.00  0.00     0.146 A 
ATOM     11  O   UNL     1     132.329 137.343 135.831  1.00  0.00    -0.451 OA
ENDROOT
BRANCH   1  12
ATOM     12  C   UNL     1     134.715 137.263 136.194  1.00  0.00     0.063 A 
ATOM     13  C   UNL     1     136.399 137.121 137.945  1.00  0.00     0.047 A 
ATOM     14  C   UNL     1     135.264 136.610 137.312  1.00  0.00     0.020 A 
ATOM     15  C   UNL     1     136.996 138.294 137.479  1.00  0.00     0.119 A 
ATOM     16  C   UNL     1     136.457 138.954 136.368  1.00  0.00     0.093 A 
ATOM     17  C   UNL     1     135.327 138.446 135.717  1.00  0.00     0.130 A 
BRANCH  15  18
ATOM     18  O   UNL     1     138.124 138.795 138.126  1.00  0.00    -0.508 OA
ATOM     19  H   UNL     1     138.119 139.706 138.571  1.00  0.00     0.293 HD
ENDBRANCH  15  18
BRANCH  17  20
ATOM     20  O   UNL     1     134.853 139.125 134.592  1.00  0.00    -0.507 OA
ATOM     21  H   UNL     1     135.457 139.628 133.956  1.00  0.00     0.293 HD
ENDBRANCH  17  20
ENDBRANCH   1  12
BRANCH   2  22
ATOM     22  O   UNL     1     134.725 134.993 134.435  1.00  0.00    -0.502 OA
ATOM     23  H   UNL     1     134.945 134.050 134.731  1.00  0.00     0.293 HD
ENDBRANCH   2  22
BRANCH   6  24
ATOM     24  O   UNL     1     129.567 134.171 133.362  1.00  0.00    -0.507 OA
ATOM     25  H   UNL     1     129.154 134.124 132.444  1.00  0.00     0.293 HD
ENDBRANCH   6  24
BRANCH   8  26
ATOM     26  O   UNL     1     127.648 138.046 135.449  1.00  0.00    -0.508 OA
ATOM     27  H   UNL     1     127.694 138.835 136.082  1.00  0.00     0.293 HD
ENDBRANCH   8  26
TORSDOF 6
ENDMDL
MODEL 3
REMARK VINA RESULT:    -5.008     14.329     18.562
REMARK INTER + INTRA:          -6.433
REMARK INTER:                  -6.099
REMARK INTRA:                  -0.334
REMARK UNBOUND:                -0.400
REMARK SMILES O=c1c(O)c(-c2ccc(O)cc2O)oc2cc(O)cc(O)c12
REMARK SMILES IDX 5 1 3 2 2 3 1 4 22 5 20 6 19 7 17 8 16 9 15 10 14 11 6 12
REMARK SMILES IDX 8 13 7 14 9 15 11 16 12 17 10 18 13 20 4 22 21 24 18 26
REMARK H PARENT 10 19 13 21 4 23 21 25 18 27
REMARK Flexibility Score: inf
ROOT
ATOM      1  C   UNL     1     133.120 138.091 137.570  1.00  0.00     0.184 A 
ATOM      2  C   UNL     1     134.215 138.532 136.812  1.00  0.00     0.208 A 
ATOM      3  C   UNL     1     135.502 138.446 137.363  1.00  0.00     0.238 A 
ATOM      4  O   UNL     1     136.486 138.787 136.656  1.00  0.00    -0.285 OA
ATOM      5  C   UNL     1     135.673 137.945 138.678  1.00  0.00     0.111 A 
ATOM      6  C   UNL     1     136.928 137.850 139.352  1.00  0.00     0.134 A 
ATOM      7  C   UNL     1     136.993 137.225 140.604  1.00  0.00     0.093 A 
ATOM      8  C   UNL     1     135.840 136.751 141.233  1.00  0.00     0.123 A 
ATOM      9  C   UNL     1     134.603 136.891 140.609  1.00  0.00     0.094 A 
ATOM     10  C   UNL     1     134.510 137.476 139.344  1.00  0.00     0.146 A 
ATOM     11  O   UNL     1     133.313 137.579 138.778  1.00  0.00    -0.451 OA
ENDROOT
BRANCH   1  12
ATOM     12  C   UNL     1     131.737 138.179 137.050  1.00  0.00     0.063 A 
ATOM     13  C   UNL     1     129.502 139.124 137.224  1.00  0.00     0.047 A 
ATOM     14  C   UNL     1     130.828 139.061 137.659  1.00  0.00     0.020 A 
ATOM     15  C   UNL     1     129.064 138.304 136.182  1.00  0.00     0.119 A 
ATOM     16  C   UNL     1     129.961 137.421 135.569  1.00  0.00     0.093 A 
ATOM     17  C   UNL     1     131.295 137.356 135.988  1.00  0.00     0.130 A 
BRANCH  15  18
ATOM     18  O   UNL     1     127.737 138.375 135.763  1.00  0.00    -0.508 OA
ATOM     19  H   UNL     1     127.442 139.026 135.046  1.00  0.00     0.293 HD
ENDBRANCH  15  18
BRANCH  17  20
ATOM     20  O   UNL     1     132.155 136.483 135.318  1.00  0.00    -0.507 OA
ATOM     21  H   UNL     1     132.248 136.464 134.311  1.00  0.00     0.293 HD
ENDBRANCH  17  20
ENDBRANCH   1  12
BRANCH   2  22
ATOM     22  O   UNL     1     134.015 139.025 135.519  1.00  0.00    -0.502 OA
ATOM     23  H   UNL     1     133.250 139.646 135.289  1.00  0.00     0.293 HD
ENDBRANCH   2  22
BRANCH   6  24
ATOM     24  O   UNL     1     138.125 138.372 138.853  1.00  0.00    -0.507 OA
ATOM     25  H   UNL     1     138.244 138.757 137.928  1.00  0.00     0.293 HD
ENDBRANCH   6  24
BRANCH   8  26
ATOM     26  O   UNL     1     135.912 136.145 142.486  1.00  0.00    -0.508 OA
ATOM     27  H   UNL     1     136.729 135.619 142.774  1.00  0.00     0.293 HD
ENDBRANCH   8  26
TORSDOF 6
ENDMDL
MODEL 4
REMARK VINA RESULT:    -5.001     11.586     15.684
REMARK INTER + INTRA:          -6.425
REMARK INTER:                  -6.022
REMARK INTRA:                  -0.403
REMARK UNBOUND:                -0.400
REMARK SMILES O=c1c(O)c(-c2ccc(O)cc2O)oc2cc(O)cc(O)c12
REMARK SMILES IDX 5 1 3 2 2 3 1 4 22 5 20 6 19 7 17 8 16 9 15 10 14 11 6 12
REMARK SMILES IDX 8 13 7 14 9 15 11 16 12 17 10 18 13 20 4 22 21 24 18 26
REMARK H PARENT 10 19 13 21 4 23 21 25 18 27
REMARK Flexibility Score: inf
ROOT
ATOM      1  C   UNL     1     132.639 137.352 136.374  1.00  0.00     0.184 A 
ATOM      2  C   UNL     1     131.745 138.228 137.008  1.00  0.00     0.208 A 
ATOM      3  C   UNL     1     130.393 138.208 136.635  1.00  0.00     0.238 A 
ATOM      4  O   UNL     1     129.586 138.952 137.249  1.00  0.00    -0.285 OA
ATOM      5  C   UNL     1     129.958 137.331 135.610  1.00  0.00     0.111 A 
ATOM      6  C   UNL     1     128.619 137.254 135.123  1.00  0.00     0.134 A 
ATOM      7  C   UNL     1     128.278 136.265 134.192  1.00  0.00     0.093 A 
ATOM      8  C   UNL     1     129.243 135.392 133.683  1.00  0.00     0.123 A 
ATOM      9  C   UNL     1     130.565 135.496 134.109  1.00  0.00     0.094 A 
ATOM     10  C   UNL     1     130.928 136.448 135.065  1.00  0.00     0.146 A 
ATOM     11  O   UNL     1     132.196 136.505 135.453  1.00  0.00    -0.451 OA
ENDROOT
BRANCH   1  12
ATOM     12  C   UNL     1     134.080 137.344 136.710  1.00  0.00     0.063 A 
ATOM     13  C   UNL     1     135.894 136.489 138.088  1.00  0.00     0.047 A 
ATOM     14  C   UNL     1     134.548 136.478 137.713  1.00  0.00     0.020 A 
ATOM     15  C   UNL     1     136.787 137.369 137.475  1.00  0.00     0.119 A 
ATOM     16  C   UNL     1     136.331 138.238 136.476  1.00  0.00     0.093 A 
ATOM     17  C   UNL     1     134.988 138.229 136.083  1.00  0.00     0.130 A 
BRANCH  15  18
ATOM     18  O   UNL     1     138.125 137.373 137.865  1.00  0.00    -0.508 OA
ATOM     19  H   UNL     1     138.487 138.065 138.511  1.00  0.00     0.293 HD
ENDBRANCH  15  18
BRANCH  17  20
ATOM     20  O   UNL     1     134.595 139.091 135.056  1.00  0.00    -0.507 OA
ATOM     21  H   UNL     1     134.228 138.766 134.172  1.00  0.00     0.293 HD
ENDBRANCH  17  20
ENDBRANCH   1  12
BRANCH   2  22
ATOM     22  O   UNL     1     132.203 139.084 138.014  1.00  0.00    -0.502 OA
ATOM     23  H   UNL     1     131.957 140.066 138.043  1.00  0.00     0.293 HD
ENDBRANCH   2  22
BRANCH   6  24
ATOM     24  O   UNL     1     127.600 138.135 135.496  1.00  0.00    -0.507 OA
ATOM     25  H   UNL     1     126.661 138.120 135.128  1.00  0.00     0.293 HD
ENDBRANCH   6  24
BRANCH   8  26
ATOM     26  O   UNL     1     128.898 134.420 132.746  1.00  0.00    -0.508 OA
ATOM     27  H   UNL     1     128.842 134.634 131.757  1.00  0.00     0.293 HD
ENDBRANCH   8  26
TORSDOF 6
ENDMDL
MODEL 5
REMARK VINA RESULT:    -4.963      0.796      1.475
REMARK INTER + INTRA:          -6.379
REMARK INTER:                  -5.976
REMARK INTRA:                  -0.403
REMARK UNBOUND:                -0.400
REMARK SMILES O=c1c(O)c(-c2ccc(O)cc2O)oc2cc(O)cc(O)c12
REMARK SMILES IDX 5 1 3 2 2 3 1 4 22 5 20 6 19 7 17 8 16 9 15 10 14 11 6 12
REMARK SMILES IDX 8 13 7 14 9 15 11 16 12 17 10 18 13 20 4 22 21 24 18 26
REMARK H PARENT 10 19 13 21 4 23 21 25 18 27
REMARK Flexibility Score: inf
ROOT
ATOM      1  C   UNL     1     122.439 128.073 129.568  1.00  0.00     0.184 A 
ATOM      2  C   UNL     1     121.140 128.594 129.670  1.00  0.00     0.208 A 
ATOM      3  C   UNL     1     120.049 127.715 129.621  1.00  0.00     0.238 A 
ATOM      4  O   UNL     1     118.890 128.181 129.773  1.00  0.00    -0.285 OA
ATOM      5  C   UNL     1     120.270 126.327 129.440  1.00  0.00     0.111 A 
ATOM      6  C   UNL     1     119.236 125.348 129.335  1.00  0.00     0.134 A 
ATOM      7  C   UNL     1     119.575 123.990 129.281  1.00  0.00     0.093 A 
ATOM      8  C   UNL     1     120.910 123.580 129.262  1.00  0.00     0.123 A 
ATOM      9  C   UNL     1     121.927 124.531 129.306  1.00  0.00     0.094 A 
ATOM     10  C   UNL     1     121.621 125.891 129.398  1.00  0.00     0.146 A 
ATOM     11  O   UNL     1     122.620 126.764 129.450  1.00  0.00    -0.451 OA
ENDROOT
BRANCH   1  12
ATOM     12  C   UNL     1     123.627 128.954 129.590  1.00  0.00     0.063 A 
ATOM     13  C   UNL     1     125.330 130.125 130.876  1.00  0.00     0.047 A 
ATOM     14  C   UNL     1     124.240 129.252 130.820  1.00  0.00     0.020 A 
ATOM     15  C   UNL     1     125.816 130.718 129.710  1.00  0.00     0.119 A 
ATOM     16  C   UNL     1     125.212 130.430 128.480  1.00  0.00     0.093 A 
ATOM     17  C   UNL     1     124.127 129.548 128.408  1.00  0.00     0.130 A 
BRANCH  15  18
ATOM     18  O   UNL     1     126.900 131.591 129.783  1.00  0.00    -0.508 OA
ATOM     19  H   UNL     1     127.456 131.814 128.966  1.00  0.00     0.293 HD
ENDBRANCH  15  18
BRANCH  17  20
ATOM     20  O   UNL     1     123.586 129.269 127.151  1.00  0.00    -0.507 OA
ATOM     21  H   UNL     1     122.921 129.875 126.689  1.00  0.00     0.293 HD
ENDBRANCH  17  20
ENDBRANCH   1  12
BRANCH   2  22
ATOM     22  O   UNL     1     120.952 129.969 129.844  1.00  0.00    -0.502 OA
ATOM     23  H   UNL     1     121.696 130.640 129.697  1.00  0.00     0.293 HD
ENDBRANCH   2  22
BRANCH   6  24
ATOM     24  O   UNL     1     117.875 125.655 129.254  1.00  0.00    -0.507 OA
ATOM     25  H   UNL     1     117.488 126.419 128.723  1.00  0.00     0.293 HD
ENDBRANCH   6  24
BRANCH   8  26
ATOM     26  O   UNL     1     121.237 122.228 129.192  1.00  0.00    -0.508 OA
ATOM     27  H   UNL     1     121.039 121.594 129.957  1.00  0.00     0.293 HD
ENDBRANCH   8  26
TORSDOF 6
ENDMDL
MODEL 6
REMARK VINA RESULT:    -4.940     12.025     17.439
REMARK INTER + INTRA:          -6.351
REMARK INTER:                  -6.047
REMARK INTRA:                  -0.305
REMARK UNBOUND:                -0.400
REMARK SMILES O=c1c(O)c(-c2ccc(O)cc2O)oc2cc(O)cc(O)c12
REMARK SMILES IDX 5 1 3 2 2 3 1 4 22 5 20 6 19 7 17 8 16 9 15 10 14 11 6 12
REMARK SMILES IDX 8 13 7 14 9 15 11 16 12 17 10 18 13 20 4 22 21 24 18 26
REMARK H PARENT 10 19 13 21 4 23 21 25 18 27
REMARK Flexibility Score: inf
ROOT
ATOM      1  C   UNL     1     132.522 137.350 135.974  1.00  0.00     0.184 A 
ATOM      2  C   UNL     1     132.599 137.642 137.344  1.00  0.00     0.208 A 
ATOM      3  C   UNL     1     133.792 138.166 137.862  1.00  0.00     0.238 A 
ATOM      4  O   UNL     1     133.835 138.482 139.079  1.00  0.00    -0.285 OA
ATOM      5  C   UNL     1     134.904 138.364 137.006  1.00  0.00     0.111 A 
ATOM      6  C   UNL     1     136.177 138.853 137.430  1.00  0.00     0.134 A 
ATOM      7  C   UNL     1     137.165 139.124 136.475  1.00  0.00     0.093 A 
ATOM      8  C   UNL     1     136.948 138.864 135.120  1.00  0.00     0.123 A 
ATOM      9  C   UNL     1     135.730 138.333 134.703  1.00  0.00     0.094 A 
ATOM     10  C   UNL     1     134.711 138.086 135.627  1.00  0.00     0.146 A 
ATOM     11  O   UNL     1     133.561 137.592 135.186  1.00  0.00    -0.451 OA
ENDROOT
BRANCH   1  12
ATOM     12  C   UNL     1     131.297 136.773 135.376  1.00  0.00     0.063 A 
ATOM     13  C   UNL     1     130.216 134.935 134.205  1.00  0.00     0.047 A 
ATOM     14  C   UNL     1     131.343 135.482 134.824  1.00  0.00     0.020 A 
ATOM     15  C   UNL     1     129.034 135.671 134.121  1.00  0.00     0.119 A 
ATOM     16  C   UNL     1     128.977 136.960 134.666  1.00  0.00     0.093 A 
ATOM     17  C   UNL     1     130.095 137.515 135.299  1.00  0.00     0.130 A 
BRANCH  15  18
ATOM     18  O   UNL     1     127.920 135.115 133.494  1.00  0.00    -0.508 OA
ATOM     19  H   UNL     1     127.392 134.363 133.922  1.00  0.00     0.293 HD
ENDBRANCH  15  18
BRANCH  17  20
ATOM     20  O   UNL     1     129.972 138.790 135.857  1.00  0.00    -0.507 OA
ATOM     21  H   UNL     1     129.350 139.496 135.488  1.00  0.00     0.293 HD
ENDBRANCH  17  20
ENDBRANCH   1  12
BRANCH   2  22
ATOM     22  O   UNL     1     131.486 137.432 138.165  1.00  0.00    -0.502 OA
ATOM     23  H   UNL     1     130.747 136.785 137.921  1.00  0.00     0.293 HD
ENDBRANCH   2  22
BRANCH   6  24
ATOM     24  O   UNL     1     136.528 139.060 138.767  1.00  0.00    -0.507 OA
ATOM     25  H   UNL     1     137.405 139.449 139.078  1.00  0.00     0.293 HD
ENDBRANCH   6  24
BRANCH   8  26
ATOM     26  O   UNL     1     137.943 139.123 134.180  1.00  0.00    -0.508 OA
ATOM     27  H   UNL     1     138.040 138.560 133.343  1.00  0.00     0.293 HD
ENDBRANCH   8  26
TORSDOF 6
ENDMDL
MODEL 7
REMARK VINA RESULT:    -4.837      2.277      6.568
REMARK INTER + INTRA:          -6.227
REMARK INTER:                  -5.935
REMARK INTRA:                  -0.293
REMARK UNBOUND:                -0.400
REMARK SMILES O=c1c(O)c(-c2ccc(O)cc2O)oc2cc(O)cc(O)c12
REMARK SMILES IDX 5 1 3 2 2 3 1 4 22 5 20 6 19 7 17 8 16 9 15 10 14 11 6 12
REMARK SMILES IDX 8 13 7 14 9 15 11 16 12 17 10 18 13 20 4 22 21 24 18 26
REMARK H PARENT 10 19 13 21 4 23 21 25 18 27
REMARK Flexibility Score: inf
ROOT
ATOM      1  C   UNL     1     122.625 126.890 128.412  1.00  0.00     0.184 A 
ATOM      2  C   UNL     1     122.342 128.178 128.893  1.00  0.00     0.208 A 
ATOM      3  C   UNL     1     123.374 129.126 128.945  1.00  0.00     0.238 A 
ATOM      4  O   UNL     1     123.101 130.296 129.320  1.00  0.00    -0.285 OA
ATOM      5  C   UNL     1     124.684 128.765 128.543  1.00  0.00     0.111 A 
ATOM      6  C   UNL     1     125.815 129.634 128.591  1.00  0.00     0.134 A 
ATOM      7  C   UNL     1     127.036 129.207 128.053  1.00  0.00     0.093 A 
ATOM      8  C   UNL     1     127.183 127.921 127.528  1.00  0.00     0.123 A 
ATOM      9  C   UNL     1     126.099 127.046 127.529  1.00  0.00     0.094 A 
ATOM     10  C   UNL     1     124.859 127.455 128.024  1.00  0.00     0.146 A 
ATOM     11  O   UNL     1     123.849 126.593 127.994  1.00  0.00    -0.451 OA
ENDROOT
BRANCH   1  12
ATOM     12  C   UNL     1     121.583 125.842 128.356  1.00  0.00     0.063 A 
ATOM     13  C   UNL     1     119.408 125.107 127.549  1.00  0.00     0.047 A 
ATOM     14  C   UNL     1     120.432 126.056 127.577  1.00  0.00     0.020 A 
ATOM     15  C   UNL     1     119.513 123.937 128.304  1.00  0.00     0.119 A 
ATOM     16  C   UNL     1     120.653 123.714 129.085  1.00  0.00     0.093 A 
ATOM     17  C   UNL     1     121.692 124.652 129.113  1.00  0.00     0.130 A 
BRANCH  15  18
ATOM     18  O   UNL     1     118.479 123.003 128.270  1.00  0.00    -0.508 OA
ATOM     19  H   UNL     1     118.518 122.192 127.664  1.00  0.00     0.293 HD
ENDBRANCH  15  18
BRANCH  17  20
ATOM     20  O   UNL     1     122.822 124.361 129.880  1.00  0.00    -0.507 OA
ATOM     21  H   UNL     1     123.765 124.565 129.575  1.00  0.00     0.293 HD
ENDBRANCH  17  20
ENDBRANCH   1  12
BRANCH   2  22
ATOM     22  O   UNL     1     121.041 128.504 129.286  1.00  0.00    -0.502 OA
ATOM     23  H   UNL     1     120.479 127.890 129.863  1.00  0.00     0.293 HD
ENDBRANCH   2  22
BRANCH   6  24
ATOM     24  O   UNL     1     125.801 130.904 129.176  1.00  0.00    -0.507 OA
ATOM     25  H   UNL     1     126.548 131.578 129.106  1.00  0.00     0.293 HD
ENDBRANCH   6  24
BRANCH   8  26
ATOM     26  O   UNL     1     128.406 127.501 127.009  1.00  0.00    -0.508 OA
ATOM     27  H   UNL     1     128.626 127.599 126.026  1.00  0.00     0.293 HD
ENDBRANCH   8  26
TORSDOF 6
ENDMDL
MODEL 8
REMARK VINA RESULT:    -4.799     16.383     17.506
REMARK INTER + INTRA:          -6.181
REMARK INTER:                  -5.940
REMARK INTRA:                  -0.241
REMARK UNBOUND:                -0.400
REMARK SMILES O=c1c(O)c(-c2ccc(O)cc2O)oc2cc(O)cc(O)c12
REMARK SMILES IDX 5 1 3 2 2 3 1 4 22 5 20 6 19 7 17 8 16 9 15 10 14 11 6 12
REMARK SMILES IDX 8 13 7 14 9 15 11 16 12 17 10 18 13 20 4 22 21 24 18 26
REMARK H PARENT 10 19 13 21 4 23 21 25 18 27
REMARK Flexibility Score: inf
ROOT
ATOM      1  C   UNL     1     122.939 120.868 145.637  1.00  0.00     0.184 A 
ATOM      2  C   UNL     1     121.923 120.207 146.344  1.00  0.00     0.208 A 
ATOM      3  C   UNL     1     120.604 120.670 146.231  1.00  0.00     0.238 A 
ATOM      4  O   UNL     1     119.689 120.037 146.818  1.00  0.00    -0.285 OA
ATOM      5  C   UNL     1     120.323 121.808 145.435  1.00  0.00     0.111 A 
ATOM      6  C   UNL     1     119.028 122.390 145.279  1.00  0.00     0.134 A 
ATOM      7  C   UNL     1     118.848 123.440 144.370  1.00  0.00     0.093 A 
ATOM      8  C   UNL     1     119.927 123.971 143.659  1.00  0.00     0.123 A 
ATOM      9  C   UNL     1     121.204 123.448 143.847  1.00  0.00     0.094 A 
ATOM     10  C   UNL     1     121.410 122.377 144.719  1.00  0.00     0.146 A 
ATOM     11  O   UNL     1     122.641 121.900 144.859  1.00  0.00    -0.451 OA
ENDROOT
BRANCH   1  12
ATOM     12  C   UNL     1     124.352 120.439 145.736  1.00  0.00     0.063 A 
ATOM     13  C   UNL     1     126.293 119.965 147.125  1.00  0.00     0.047 A 
ATOM     14  C   UNL     1     124.946 120.315 147.004  1.00  0.00     0.020 A 
ATOM     15  C   UNL     1     127.066 119.741 145.984  1.00  0.00     0.119 A 
ATOM     16  C   UNL     1     126.484 119.863 144.716  1.00  0.00     0.093 A 
ATOM     17  C   UNL     1     125.133 120.202 144.582  1.00  0.00     0.130 A 
BRANCH  15  18
ATOM     18  O   UNL     1     128.410 119.398 146.121  1.00  0.00    -0.508 OA
ATOM     19  H   UNL     1     128.919 118.943 145.372  1.00  0.00     0.293 HD
ENDBRANCH  15  18
BRANCH  17  20
ATOM     20  O   UNL     1     124.596 120.275 143.294  1.00  0.00    -0.507 OA
ATOM     21  H   UNL     1     123.879 120.938 143.031  1.00  0.00     0.293 HD
ENDBRANCH  17  20
ENDBRANCH   1  12
BRANCH   2  22
ATOM     22  O   UNL     1     122.231 119.089 147.125  1.00  0.00    -0.502 OA
ATOM     23  H   UNL     1     121.556 118.661 147.747  1.00  0.00     0.293 HD
ENDBRANCH   2  22
BRANCH   6  24
ATOM     24  O   UNL     1     117.902 121.995 146.007  1.00  0.00    -0.507 OA
ATOM     25  H   UNL     1     117.902 121.294 146.732  1.00  0.00     0.293 HD
ENDBRANCH   6  24
BRANCH   8  26
ATOM     26  O   UNL     1     119.740 125.026 142.769  1.00  0.00    -0.508 OA
ATOM     27  H   UNL     1     119.798 125.991 143.071  1.00  0.00     0.293 HD
ENDBRANCH   8  26
TORSDOF 6
ENDMDL
MODEL 9
REMARK VINA RESULT:    -4.780     14.610     18.536
REMARK INTER + INTRA:          -6.158
REMARK INTER:                  -5.772
REMARK INTRA:                  -0.386
REMARK UNBOUND:                -0.400
REMARK SMILES O=c1c(O)c(-c2ccc(O)cc2O)oc2cc(O)cc(O)c12
REMARK SMILES IDX 5 1 3 2 2 3 1 4 22 5 20 6 19 7 17 8 16 9 15 10 14 11 6 12
REMARK SMILES IDX 8 13 7 14 9 15 11 16 12 17 10 18 13 20 4 22 21 24 18 26
REMARK H PARENT 10 19 13 21 4 23 21 25 18 27
REMARK Flexibility Score: inf
ROOT
ATOM      1  C   UNL     1     132.941 138.265 137.526  1.00  0.00     0.184 A 
ATOM      2  C   UNL     1     133.698 138.418 138.698  1.00  0.00     0.208 A 
ATOM      3  C   UNL     1     135.075 138.659 138.591  1.00  0.00     0.238 A 
ATOM      4  O   UNL     1     135.737 138.855 139.643  1.00  0.00    -0.285 OA
ATOM      5  C   UNL     1     135.684 138.715 137.313  1.00  0.00     0.111 A 
ATOM      6  C   UNL     1     137.079 138.915 137.087  1.00  0.00     0.134 A 
ATOM      7  C   UNL     1     137.550 139.075 135.777  1.00  0.00     0.093 A 
ATOM      8  C   UNL     1     136.687 138.979 134.684  1.00  0.00     0.123 A 
ATOM      9  C   UNL     1     135.332 138.727 134.891  1.00  0.00     0.094 A 
ATOM     10  C   UNL     1     134.826 138.600 136.187  1.00  0.00     0.146 A 
ATOM     11  O   UNL     1     133.527 138.373 136.340  1.00  0.00    -0.451 OA
ENDROOT
BRANCH   1  12
ATOM     12  C   UNL     1     131.489 137.986 137.577  1.00  0.00     0.063 A 
ATOM     13  C   UNL     1     129.204 138.823 137.563  1.00  0.00     0.047 A 
ATOM     14  C   UNL     1     130.579 139.051 137.464  1.00  0.00     0.020 A 
ATOM     15  C   UNL     1     128.721 137.533 137.786  1.00  0.00     0.119 A 
ATOM     16  C   UNL     1     129.618 136.464 137.902  1.00  0.00     0.093 A 
ATOM     17  C   UNL     1     130.997 136.677 137.793  1.00  0.00     0.130 A 
BRANCH  15  18
ATOM     18  O   UNL     1     127.347 137.322 137.889  1.00  0.00    -0.508 OA
ATOM     19  H   UNL     1     126.960 136.671 138.562  1.00  0.00     0.293 HD
ENDBRANCH  15  18
BRANCH  17  20
ATOM     20  O   UNL     1     131.845 135.571 137.881  1.00  0.00    -0.507 OA
ATOM     21  H   UNL     1     132.697 135.570 138.425  1.00  0.00     0.293 HD
ENDBRANCH  17  20
ENDBRANCH   1  12
BRANCH   2  22
ATOM     22  O   UNL     1     133.071 138.354 139.946  1.00  0.00    -0.502 OA
ATOM     23  H   UNL     1     132.067 138.269 140.044  1.00  0.00     0.293 HD
ENDBRANCH   2  22
BRANCH   6  24
ATOM     24  O   UNL     1     138.040 138.936 138.102  1.00  0.00    -0.507 OA
ATOM     25  H   UNL     1     138.962 139.335 138.014  1.00  0.00     0.293 HD
ENDBRANCH   6  24
BRANCH   8  26
ATOM     26  O   UNL     1     137.167 139.124 133.384  1.00  0.00    -0.508 OA
ATOM     27  H   UNL     1     137.156 140.020 132.912  1.00  0.00     0.293 HD
ENDBRANCH   8  26
TORSDOF 6
ENDMDL
