MODEL 1
REMARK VINA RESULT:    55.863      0.000      0.000
REMARK INTER + INTRA:          76.619
REMARK INTER:                  77.091
REMARK INTRA:                  -0.472
REMARK UNBOUND:                -0.472
REMARK SMILES CC[C@@H](CC[C@H](C)[C@H]1CC[C@H]2[C@@H]3CC=C4C[C@H](O)CC[C@]4(C)[C@H]3CC[C@]12C)C(C)C
REMARK SMILES IDX 5 1 4 2 3 3 2 4 1 5 28 6 29 7 30 8 6 9 7 10 8 11 9 12 26 13
REMARK SMILES IDX 10 14 11 15 25 16 27 17 12 18 24 19 23 20 13 21 21 22 14 23
REMARK SMILES IDX 15 24 20 25 22 26 16 27 19 28 17 29 18 30
REMARK H PARENT 18 31
REMARK Flexibility Score: inf
ROOT
ATOM      1  C   UNL     1      87.733  21.991 111.412  1.00  0.00     0.004 C 
ENDROOT
BRANCH   1   2
ATOM      2  C   UNL     1      88.617  20.961 112.155  1.00  0.00     0.004 C 
BRANCH   2   3
ATOM      3  C   UNL     1      90.158  21.090 111.960  1.00  0.00    -0.009 C 
BRANCH   3   4
ATOM      4  C   UNL     1      90.895  19.820 112.468  1.00  0.00     0.000 C 
ATOM      5  C   UNL     1      92.373  19.757 112.077  1.00  0.00     0.004 C 
ENDBRANCH   3   4
BRANCH   3   6
ATOM      6  C   UNL     1      90.723  22.416 112.577  1.00  0.00    -0.014 C 
ATOM      7  C   UNL     1      89.889  23.647 112.180  1.00  0.00     0.007 C 
ATOM      8  C   UNL     1      90.898  22.371 114.104  1.00  0.00     0.007 C 
ENDBRANCH   3   6
ENDBRANCH   2   3
ENDBRANCH   1   2
BRANCH   1   9
ATOM      9  C   UNL     1      87.694  21.828 109.861  1.00  0.00    -0.011 C 
ATOM     10  C   UNL     1      87.943  23.176 109.165  1.00  0.00     0.008 C 
BRANCH   9  11
ATOM     11  C   UNL     1      86.453  21.081 109.249  1.00  0.00    -0.002 C 
ATOM     12  C   UNL     1      85.866  21.750 107.977  1.00  0.00     0.005 C 
ATOM     13  C   UNL     1      86.478  19.555 108.924  1.00  0.00    -0.026 C 
ATOM     14  C   UNL     1      85.210  20.631 107.153  1.00  0.00     0.005 C 
ATOM     15  C   UNL     1      85.177  19.445 108.105  1.00  0.00    -0.001 C 
ATOM     16  C   UNL     1      86.315  18.609 110.139  1.00  0.00     0.007 C 
ATOM     17  C   UNL     1      87.746  19.168 108.109  1.00  0.00     0.012 C 
ATOM     18  C   UNL     1      84.917  18.039 107.522  1.00  0.00     0.000 C 
ATOM     19  C   UNL     1      86.056  17.153 109.685  1.00  0.00     0.005 C 
ATOM     20  C   UNL     1      84.854  17.013 108.694  1.00  0.00     0.003 C 
ATOM     21  C   UNL     1      83.584  18.011 106.759  1.00  0.00     0.031 C 
ATOM     22  C   UNL     1      84.626  15.545 108.163  1.00  0.00    -0.008 C 
ATOM     23  C   UNL     1      83.144  16.619 106.411  1.00  0.00    -0.027 C 
ATOM     24  C   UNL     1      83.504  15.521 107.109  1.00  0.00    -0.065 C 
ATOM     25  C   UNL     1      84.208  14.635 109.362  1.00  0.00     0.014 C 
ATOM     26  C   UNL     1      85.914  14.972 107.511  1.00  0.00     0.016 C 
ATOM     27  C   UNL     1      82.902  14.186 106.711  1.00  0.00     0.063 C 
ATOM     28  C   UNL     1      83.685  13.252 108.943  1.00  0.00     0.033 C 
ATOM     29  C   UNL     1      82.526  13.343 107.939  1.00  0.00     0.118 C 
BRANCH  29  30
ATOM     30  O   UNL     1      81.352  13.818 108.557  1.00  0.00    -0.393 OA
ATOM     31  H   UNL     1      80.571  13.473 108.052  1.00  0.00     0.210 HD
ENDBRANCH  29  30
ENDBRANCH   9  11
ENDBRANCH   1   9
TORSDOF 7
ENDMDL
MODEL 2
REMARK VINA RESULT:    56.349      2.836      8.735
REMARK INTER + INTRA:          77.289
REMARK INTER:                  77.954
REMARK INTRA:                  -0.665
REMARK UNBOUND:                -0.472
REMARK SMILES CC[C@@H](CC[C@H](C)[C@H]1CC[C@H]2[C@@H]3CC=C4C[C@H](O)CC[C@]4(C)[C@H]3CC[C@]12C)C(C)C
REMARK SMILES IDX 5 1 4 2 3 3 2 4 1 5 28 6 29 7 30 8 6 9 7 10 8 11 9 12 26 13
REMARK SMILES IDX 10 14 11 15 25 16 27 17 12 18 24 19 23 20 13 21 21 22 14 23
REMARK SMILES IDX 15 24 20 25 22 26 16 27 19 28 17 29 18 30
REMARK H PARENT 18 31
REMARK Flexibility Score: inf
ROOT
ATOM      1  C   UNL     1      84.975  16.336 106.865  1.00  0.00     0.004 C 
ENDROOT
BRANCH   1   2
ATOM      2  C   UNL     1      85.122  15.234 107.942  1.00  0.00     0.004 C 
BRANCH   2   3
ATOM      3  C   UNL     1      83.805  14.702 108.583  1.00  0.00    -0.009 C 
BRANCH   3   4
ATOM      4  C   UNL     1      84.085  14.016 109.950  1.00  0.00     0.000 C 
ATOM      5  C   UNL     1      82.823  13.631 110.725  1.00  0.00     0.004 C 
ENDBRANCH   3   4
BRANCH   3   6
ATOM      6  C   UNL     1      82.992  13.795 107.596  1.00  0.00    -0.014 C 
ATOM      7  C   UNL     1      82.780  14.464 106.227  1.00  0.00     0.007 C 
ATOM      8  C   UNL     1      83.584  12.388 107.407  1.00  0.00     0.007 C 
ENDBRANCH   3   6
ENDBRANCH   2   3
ENDBRANCH   1   2
BRANCH   1   9
ATOM      9  C   UNL     1      84.359  17.675 107.373  1.00  0.00    -0.011 C 
ATOM     10  C   UNL     1      83.132  18.064 106.531  1.00  0.00     0.008 C 
BRANCH   9  11
ATOM     11  C   UNL     1      85.338  18.890 107.563  1.00  0.00    -0.002 C 
ATOM     12  C   UNL     1      84.824  20.229 106.968  1.00  0.00     0.005 C 
ATOM     13  C   UNL     1      85.928  19.273 108.957  1.00  0.00    -0.026 C 
ATOM     14  C   UNL     1      85.465  21.354 107.793  1.00  0.00     0.005 C 
ATOM     15  C   UNL     1      86.534  20.646 108.611  1.00  0.00    -0.001 C 
ATOM     16  C   UNL     1      87.096  18.388 109.455  1.00  0.00     0.007 C 
ATOM     17  C   UNL     1      84.815  19.353 110.042  1.00  0.00     0.012 C 
ATOM     18  C   UNL     1      87.148  21.386 109.821  1.00  0.00     0.000 C 
ATOM     19  C   UNL     1      87.795  19.020 110.682  1.00  0.00     0.005 C 
ATOM     20  C   UNL     1      88.263  20.493 110.443  1.00  0.00     0.003 C 
ATOM     21  C   UNL     1      87.763  22.722 109.378  1.00  0.00     0.031 C 
ATOM     22  C   UNL     1      88.909  21.177 111.710  1.00  0.00    -0.008 C 
ATOM     23  C   UNL     1      88.611  23.352 110.445  1.00  0.00    -0.027 C 
ATOM     24  C   UNL     1      89.231  22.653 111.421  1.00  0.00    -0.065 C 
ATOM     25  C   UNL     1      90.236  20.433 112.063  1.00  0.00     0.014 C 
ATOM     26  C   UNL     1      87.952  21.121 112.933  1.00  0.00     0.016 C 
ATOM     27  C   UNL     1      90.144  23.404 112.373  1.00  0.00     0.063 C 
ATOM     28  C   UNL     1      91.106  21.164 113.097  1.00  0.00     0.033 C 
ATOM     29  C   UNL     1      91.422  22.609 112.680  1.00  0.00     0.118 C 
BRANCH  29  30
ATOM     30  O   UNL     1      92.328  22.643 111.602  1.00  0.00    -0.393 OA
ATOM     31  H   UNL     1      91.997  23.298 110.936  1.00  0.00     0.210 HD
ENDBRANCH  29  30
ENDBRANCH   9  11
ENDBRANCH   1   9
TORSDOF 7
ENDMDL
MODEL 3
REMARK VINA RESULT:    56.772      2.906      8.684
REMARK INTER + INTRA:          77.873
REMARK INTER:                  78.200
REMARK INTRA:                  -0.327
REMARK UNBOUND:                -0.472
REMARK SMILES CC[C@@H](CC[C@H](C)[C@H]1CC[C@H]2[C@@H]3CC=C4C[C@H](O)CC[C@]4(C)[C@H]3CC[C@]12C)C(C)C
REMARK SMILES IDX 5 1 4 2 3 3 2 4 1 5 28 6 29 7 30 8 6 9 7 10 8 11 9 12 26 13
REMARK SMILES IDX 10 14 11 15 25 16 27 17 12 18 24 19 23 20 13 21 21 22 14 23
REMARK SMILES IDX 15 24 20 25 22 26 16 27 19 28 17 29 18 30
REMARK H PARENT 18 31
REMARK Flexibility Score: inf
ROOT
ATOM      1  C   UNL     1      85.006  17.463 107.382  1.00  0.00     0.004 C 
ENDROOT
BRANCH   1   2
ATOM      2  C   UNL     1      83.776  16.526 107.437  1.00  0.00     0.004 C 
BRANCH   2   3
ATOM      3  C   UNL     1      84.051  15.028 107.770  1.00  0.00    -0.009 C 
BRANCH   3   4
ATOM      4  C   UNL     1      83.126  14.092 106.941  1.00  0.00     0.000 C 
ATOM      5  C   UNL     1      83.471  12.607 107.065  1.00  0.00     0.004 C 
ENDBRANCH   3   4
BRANCH   3   6
ATOM      6  C   UNL     1      83.989  14.745 109.310  1.00  0.00    -0.014 C 
ATOM      7  C   UNL     1      82.707  13.999 109.717  1.00  0.00     0.007 C 
ATOM      8  C   UNL     1      85.223  14.010 109.861  1.00  0.00     0.007 C 
ENDBRANCH   3   6
ENDBRANCH   2   3
ENDBRANCH   1   2
BRANCH   1   9
ATOM      9  C   UNL     1      84.673  18.986 107.339  1.00  0.00    -0.011 C 
ATOM     10  C   UNL     1      84.131  19.386 105.957  1.00  0.00     0.008 C 
BRANCH   9  11
ATOM     11  C   UNL     1      85.787  19.979 107.833  1.00  0.00    -0.002 C 
ATOM     12  C   UNL     1      85.455  21.479 107.608  1.00  0.00     0.005 C 
ATOM     13  C   UNL     1      86.381  19.913 109.275  1.00  0.00    -0.026 C 
ATOM     14  C   UNL     1      86.206  22.265 108.694  1.00  0.00     0.005 C 
ATOM     15  C   UNL     1      87.159  21.243 109.294  1.00  0.00    -0.001 C 
ATOM     16  C   UNL     1      87.420  18.791 109.520  1.00  0.00     0.007 C 
ATOM     17  C   UNL     1      85.258  19.847 110.350  1.00  0.00     0.012 C 
ATOM     18  C   UNL     1      87.825  21.563 110.651  1.00  0.00     0.000 C 
ATOM     19  C   UNL     1      88.157  18.993 110.865  1.00  0.00     0.005 C 
ATOM     20  C   UNL     1      88.806  20.407 111.014  1.00  0.00     0.003 C 
ATOM     21  C   UNL     1      88.609  22.881 110.567  1.00  0.00     0.031 C 
ATOM     22  C   UNL     1      89.496  20.655 112.411  1.00  0.00    -0.008 C 
ATOM     23  C   UNL     1      89.498  23.103 111.756  1.00  0.00    -0.027 C 
ATOM     24  C   UNL     1      90.003  22.105 112.513  1.00  0.00    -0.065 C 
ATOM     25  C   UNL     1      90.714  19.687 112.551  1.00  0.00     0.014 C 
ATOM     26  C   UNL     1      88.507  20.405 113.583  1.00  0.00     0.016 C 
ATOM     27  C   UNL     1      90.974  22.465 113.623  1.00  0.00     0.063 C 
ATOM     28  C   UNL     1      91.638  20.013 113.735  1.00  0.00     0.033 C 
ATOM     29  C   UNL     1      92.137  21.465 113.706  1.00  0.00     0.118 C 
BRANCH  29  30
ATOM     30  O   UNL     1      93.070  21.664 112.669  1.00  0.00    -0.393 OA
ATOM     31  H   UNL     1      93.422  20.779 112.391  1.00  0.00     0.210 HD
ENDBRANCH  29  30
ENDBRANCH   9  11
ENDBRANCH   1   9
TORSDOF 7
ENDMDL
