MODEL 1
REMARK VINA RESULT:    -8.233      0.000      0.000
REMARK INTER + INTRA:         -13.136
REMARK INTER:                 -11.843
REMARK INTRA:                  -1.293
REMARK UNBOUND:                -1.293
REMARK SMILES O=c1c(O[C@H]2O[C@H](CO)[C@H](O)[C@@H](O)[C@@H]2O)c(-c2ccc(O)cc2)oc2cc(O)cc(O)c12
REMARK SMILES IDX 4 1 3 2 16 3 24 4 2 5 25 6 1 7 32 8 26 9 30 10 27 11 29 12
REMARK SMILES IDX 17 13 18 14 19 15 20 16 23 17 22 18 21 19 31 21 28 23 5 25
REMARK SMILES IDX 14 26 6 27 12 28 7 29 10 30 15 31 13 33 8 35 9 36 11 38
REMARK H PARENT 21 20 31 22 28 24 15 32 13 34 9 37 11 39
REMARK Flexibility Score: inf
ROOT
ATOM      1  O   UNL     1     -14.485 -44.260  -4.572  1.00  0.00    -0.454 OA
ENDROOT
BRANCH   1   2
ATOM      2  C   UNL     1     -14.111 -43.412  -5.638  1.00  0.00     0.214 A 
ATOM      3  C   UNL     1     -12.767 -42.996  -5.716  1.00  0.00     0.180 A 
ATOM      4  O   UNL     1     -12.381 -42.128  -6.644  1.00  0.00    -0.452 OA
ATOM      5  C   UNL     1     -15.012 -42.929  -6.616  1.00  0.00     0.239 A 
ATOM      6  C   UNL     1     -13.199 -41.634  -7.563  1.00  0.00     0.146 A 
ATOM      7  O   UNL     1     -16.214 -43.304  -6.619  1.00  0.00    -0.285 OA
ATOM      8  C   UNL     1     -14.558 -42.021  -7.598  1.00  0.00     0.111 A 
ATOM      9  C   UNL     1     -12.696 -40.729  -8.502  1.00  0.00     0.094 A 
ATOM     10  C   UNL     1     -15.399 -41.481  -8.604  1.00  0.00     0.134 A 
ATOM     11  C   UNL     1     -13.532 -40.200  -9.490  1.00  0.00     0.123 A 
ATOM     12  C   UNL     1     -14.875 -40.577  -9.539  1.00  0.00     0.093 A 
BRANCH   3  13
ATOM     13  C   UNL     1     -11.751 -43.492  -4.770  1.00  0.00     0.021 A 
ATOM     14  C   UNL     1     -11.214 -42.630  -3.803  1.00  0.00     0.016 A 
ATOM     15  C   UNL     1     -10.233 -43.088  -2.917  1.00  0.00     0.047 A 
ATOM     16  C   UNL     1      -9.768 -44.408  -3.004  1.00  0.00     0.115 A 
ATOM     17  C   UNL     1     -11.262 -44.805  -4.871  1.00  0.00     0.016 A 
ATOM     18  C   UNL     1     -10.282 -45.262  -3.984  1.00  0.00     0.047 A 
BRANCH  16  19
ATOM     19  O   UNL     1      -8.793 -44.876  -2.126  1.00  0.00    -0.508 OA
ATOM     20  H   UNL     1      -9.034 -45.436  -1.317  1.00  0.00     0.293 HD
ENDBRANCH  16  19
ENDBRANCH   3  13
BRANCH  10  21
ATOM     21  O   UNL     1     -16.747 -41.835  -8.681  1.00  0.00    -0.507 OA
ATOM     22  H   UNL     1     -17.279 -41.725  -9.536  1.00  0.00     0.293 HD
ENDBRANCH  10  21
BRANCH  11  23
ATOM     23  O   UNL     1     -13.037 -39.298 -10.430  1.00  0.00    -0.508 OA
ATOM     24  H   UNL     1     -13.656 -38.783 -11.047  1.00  0.00     0.293 HD
ENDBRANCH  11  23
ENDBRANCH   1   2
BRANCH   1  25
ATOM     25  C   UNL     1     -14.717 -43.876  -3.211  1.00  0.00     0.339 C 
ATOM     26  C   UNL     1     -14.510 -45.067  -2.249  1.00  0.00     0.214 C 
ATOM     27  O   UNL     1     -15.995 -43.282  -3.047  1.00  0.00    -0.332 OA
ATOM     28  C   UNL     1     -15.696 -46.065  -2.264  1.00  0.00     0.180 C 
ATOM     29  C   UNL     1     -17.033 -44.191  -3.370  1.00  0.00     0.179 C 
ATOM     30  C   UNL     1     -17.069 -45.357  -2.350  1.00  0.00     0.177 C 
BRANCH  26  31
ATOM     31  O   UNL     1     -14.328 -44.567  -0.947  1.00  0.00    -0.384 OA
ATOM     32  H   UNL     1     -13.357 -44.394  -0.835  1.00  0.00     0.211 HD
ENDBRANCH  26  31
BRANCH  28  33
ATOM     33  O   UNL     1     -15.545 -47.011  -3.293  1.00  0.00    -0.387 OA
ATOM     34  H   UNL     1     -15.170 -47.833  -2.895  1.00  0.00     0.211 HD
ENDBRANCH  28  33
BRANCH  29  35
ATOM     35  C   UNL     1     -18.362 -43.421  -3.403  1.00  0.00     0.191 C 
BRANCH  35  36
ATOM     36  O   UNL     1     -18.472 -42.556  -2.304  1.00  0.00    -0.394 OA
ATOM     37  H   UNL     1     -18.036 -43.014  -1.538  1.00  0.00     0.210 HD
ENDBRANCH  35  36
ENDBRANCH  29  35
BRANCH  30  38
ATOM     38  O   UNL     1     -17.483 -44.921  -1.076  1.00  0.00    -0.387 OA
ATOM     39  H   UNL     1     -16.803 -44.286  -0.733  1.00  0.00     0.211 HD
ENDBRANCH  30  38
ENDBRANCH   1  25
TORSDOF 11
ENDMDL
MODEL 2
REMARK VINA RESULT:    -8.069      1.381      2.686
REMARK INTER + INTRA:         -12.900
REMARK INTER:                 -11.878
REMARK INTRA:                  -1.022
REMARK UNBOUND:                -1.293
REMARK SMILES O=c1c(O[C@H]2O[C@H](CO)[C@H](O)[C@@H](O)[C@@H]2O)c(-c2ccc(O)cc2)oc2cc(O)cc(O)c12
REMARK SMILES IDX 4 1 3 2 16 3 24 4 2 5 25 6 1 7 32 8 26 9 30 10 27 11 29 12
REMARK SMILES IDX 17 13 18 14 19 15 20 16 23 17 22 18 21 19 31 21 28 23 5 25
REMARK SMILES IDX 14 26 6 27 12 28 7 29 10 30 15 31 13 33 8 35 9 36 11 38
REMARK H PARENT 21 20 31 22 28 24 15 32 13 34 9 37 11 39
REMARK Flexibility Score: inf
ROOT
ATOM      1  O   UNL     1     -14.365 -43.904  -4.544  1.00  0.00    -0.454 OA
ENDROOT
BRANCH   1   2
ATOM      2  C   UNL     1     -13.960 -43.174  -5.684  1.00  0.00     0.214 A 
ATOM      3  C   UNL     1     -12.592 -42.868  -5.825  1.00  0.00     0.180 A 
ATOM      4  O   UNL     1     -12.170 -42.109  -6.829  1.00  0.00    -0.452 OA
ATOM      5  C   UNL     1     -14.851 -42.704  -6.678  1.00  0.00     0.239 A 
ATOM      6  C   UNL     1     -12.975 -41.629  -7.767  1.00  0.00     0.146 A 
ATOM      7  O   UNL     1     -16.077 -42.986  -6.623  1.00  0.00    -0.285 OA
ATOM      8  C   UNL     1     -14.359 -41.914  -7.740  1.00  0.00     0.111 A 
ATOM      9  C   UNL     1     -12.434 -40.842  -8.788  1.00  0.00     0.094 A 
ATOM     10  C   UNL     1     -15.186 -41.394  -8.768  1.00  0.00     0.134 A 
ATOM     11  C   UNL     1     -13.256 -40.332  -9.797  1.00  0.00     0.123 A 
ATOM     12  C   UNL     1     -14.624 -40.610  -9.785  1.00  0.00     0.093 A 
BRANCH   3  13
ATOM     13  C   UNL     1     -11.588 -43.362  -4.865  1.00  0.00     0.021 A 
ATOM     14  C   UNL     1     -11.058 -44.653  -5.008  1.00  0.00     0.016 A 
ATOM     15  C   UNL     1     -10.123 -45.137  -4.087  1.00  0.00     0.047 A 
ATOM     16  C   UNL     1      -9.723 -44.340  -3.006  1.00  0.00     0.115 A 
ATOM     17  C   UNL     1     -11.205 -42.578  -3.765  1.00  0.00     0.016 A 
ATOM     18  C   UNL     1     -10.269 -43.063  -2.846  1.00  0.00     0.047 A 
BRANCH  16  19
ATOM     19  O   UNL     1      -8.791 -44.809  -2.084  1.00  0.00    -0.508 OA
ATOM     20  H   UNL     1      -8.352 -44.191  -1.412  1.00  0.00     0.293 HD
ENDBRANCH  16  19
ENDBRANCH   3  13
BRANCH  10  21
ATOM     21  O   UNL     1     -16.558 -41.651  -8.786  1.00  0.00    -0.507 OA
ATOM     22  H   UNL     1     -17.086 -41.671  -9.651  1.00  0.00     0.293 HD
ENDBRANCH  10  21
BRANCH  11  23
ATOM     23  O   UNL     1     -12.723 -39.548 -10.818  1.00  0.00    -0.508 OA
ATOM     24  H   UNL     1     -12.015 -38.846 -10.632  1.00  0.00     0.293 HD
ENDBRANCH  11  23
ENDBRANCH   1   2
BRANCH   1  25
ATOM     25  C   UNL     1     -15.419 -44.872  -4.475  1.00  0.00     0.339 C 
ATOM     26  C   UNL     1     -15.741 -45.248  -3.012  1.00  0.00     0.214 C 
ATOM     27  O   UNL     1     -15.130 -46.016  -5.263  1.00  0.00    -0.332 OA
ATOM     28  C   UNL     1     -14.695 -46.211  -2.395  1.00  0.00     0.180 C 
ATOM     29  C   UNL     1     -13.968 -46.682  -4.798  1.00  0.00     0.179 C 
ATOM     30  C   UNL     1     -14.217 -47.291  -3.395  1.00  0.00     0.177 C 
BRANCH  26  31
ATOM     31  O   UNL     1     -17.015 -45.843  -2.971  1.00  0.00    -0.384 OA
ATOM     32  H   UNL     1     -16.875 -46.824  -2.910  1.00  0.00     0.211 HD
ENDBRANCH  26  31
BRANCH  28  33
ATOM     33  O   UNL     1     -13.609 -45.497  -1.858  1.00  0.00    -0.387 OA
ATOM     34  H   UNL     1     -13.125 -46.099  -1.244  1.00  0.00     0.211 HD
ENDBRANCH  28  33
BRANCH  29  35
ATOM     35  C   UNL     1     -13.578 -47.756  -5.825  1.00  0.00     0.191 C 
BRANCH  35  36
ATOM     36  O   UNL     1     -14.704 -48.216  -6.526  1.00  0.00    -0.394 OA
ATOM     37  H   UNL     1     -14.364 -48.781  -7.268  1.00  0.00     0.210 HD
ENDBRANCH  35  36
ENDBRANCH  29  35
BRANCH  30  38
ATOM     38  O   UNL     1     -15.134 -48.359  -3.447  1.00  0.00    -0.387 OA
ATOM     39  H   UNL     1     -15.825 -48.205  -2.753  1.00  0.00     0.211 HD
ENDBRANCH  30  38
ENDBRANCH   1  25
TORSDOF 11
ENDMDL
MODEL 3
REMARK VINA RESULT:    -8.041      2.955      7.237
REMARK INTER + INTRA:         -12.859
REMARK INTER:                 -11.749
REMARK INTRA:                  -1.110
REMARK UNBOUND:                -1.293
REMARK SMILES O=c1c(O[C@H]2O[C@H](CO)[C@H](O)[C@@H](O)[C@@H]2O)c(-c2ccc(O)cc2)oc2cc(O)cc(O)c12
REMARK SMILES IDX 4 1 3 2 16 3 24 4 2 5 25 6 1 7 32 8 26 9 30 10 27 11 29 12
REMARK SMILES IDX 17 13 18 14 19 15 20 16 23 17 22 18 21 19 31 21 28 23 5 25
REMARK SMILES IDX 14 26 6 27 12 28 7 29 10 30 15 31 13 33 8 35 9 36 11 38
REMARK H PARENT 21 20 31 22 28 24 15 32 13 34 9 37 11 39
REMARK Flexibility Score: inf
ROOT
ATOM      1  O   UNL     1     -12.135 -41.378  -8.380  1.00  0.00    -0.454 OA
ENDROOT
BRANCH   1   2
ATOM      2  C   UNL     1     -11.390 -42.038  -7.377  1.00  0.00     0.214 A 
ATOM      3  C   UNL     1     -10.214 -42.714  -7.761  1.00  0.00     0.180 A 
ATOM      4  O   UNL     1      -9.525 -43.425  -6.875  1.00  0.00    -0.452 OA
ATOM      5  C   UNL     1     -11.769 -42.088  -6.015  1.00  0.00     0.239 A 
ATOM      6  C   UNL     1      -9.860 -43.516  -5.596  1.00  0.00     0.146 A 
ATOM      7  O   UNL     1     -12.786 -41.465  -5.612  1.00  0.00    -0.285 OA
ATOM      8  C   UNL     1     -10.999 -42.840  -5.102  1.00  0.00     0.111 A 
ATOM      9  C   UNL     1      -9.067 -44.286  -4.740  1.00  0.00     0.094 A 
ATOM     10  C   UNL     1     -11.317 -42.951  -3.724  1.00  0.00     0.134 A 
ATOM     11  C   UNL     1      -9.389 -44.392  -3.384  1.00  0.00     0.123 A 
ATOM     12  C   UNL     1     -10.508 -43.725  -2.881  1.00  0.00     0.093 A 
BRANCH   3  13
ATOM     13  C   UNL     1      -9.717 -42.671  -9.148  1.00  0.00     0.021 A 
ATOM     14  C   UNL     1      -9.079 -41.517  -9.627  1.00  0.00     0.016 A 
ATOM     15  C   UNL     1      -8.625 -41.461 -10.949  1.00  0.00     0.047 A 
ATOM     16  C   UNL     1      -8.822 -42.551 -11.808  1.00  0.00     0.115 A 
ATOM     17  C   UNL     1      -9.936 -43.750 -10.019  1.00  0.00     0.016 A 
ATOM     18  C   UNL     1      -9.481 -43.693 -11.340  1.00  0.00     0.047 A 
BRANCH  16  19
ATOM     19  O   UNL     1      -8.373 -42.508 -13.125  1.00  0.00    -0.508 OA
ATOM     20  H   UNL     1      -8.859 -42.998 -13.867  1.00  0.00     0.293 HD
ENDBRANCH  16  19
ENDBRANCH   3  13
BRANCH  10  21
ATOM     21  O   UNL     1     -12.430 -42.299  -3.189  1.00  0.00    -0.507 OA
ATOM     22  H   UNL     1     -13.142 -42.799  -2.670  1.00  0.00     0.293 HD
ENDBRANCH  10  21
BRANCH  11  23
ATOM     23  O   UNL     1      -8.602 -45.157  -2.525  1.00  0.00    -0.508 OA
ATOM     24  H   UNL     1      -7.803 -44.759  -2.044  1.00  0.00     0.293 HD
ENDBRANCH  11  23
ENDBRANCH   1   2
BRANCH   1  25
ATOM     25  C   UNL     1     -12.937 -41.992  -9.396  1.00  0.00     0.339 C 
ATOM     26  C   UNL     1     -13.390 -40.959 -10.453  1.00  0.00     0.214 C 
ATOM     27  O   UNL     1     -14.037 -42.695  -8.841  1.00  0.00    -0.332 OA
ATOM     28  C   UNL     1     -14.550 -40.060  -9.955  1.00  0.00     0.180 C 
ATOM     29  C   UNL     1     -14.907 -41.823  -8.142  1.00  0.00     0.179 C 
ATOM     30  C   UNL     1     -15.596 -40.841  -9.124  1.00  0.00     0.177 C 
BRANCH  26  31
ATOM     31  O   UNL     1     -13.789 -41.648 -11.612  1.00  0.00    -0.384 OA
ATOM     32  H   UNL     1     -13.076 -41.515 -12.289  1.00  0.00     0.211 HD
ENDBRANCH  26  31
BRANCH  28  33
ATOM     33  O   UNL     1     -14.057 -38.952  -9.243  1.00  0.00    -0.387 OA
ATOM     34  H   UNL     1     -14.398 -39.011  -8.318  1.00  0.00     0.211 HD
ENDBRANCH  28  33
BRANCH  29  35
ATOM     35  C   UNL     1     -15.932 -42.671  -7.372  1.00  0.00     0.191 C 
BRANCH  35  36
ATOM     36  O   UNL     1     -15.657 -42.667  -5.996  1.00  0.00    -0.394 OA
ATOM     37  H   UNL     1     -16.292 -43.307  -5.579  1.00  0.00     0.210 HD
ENDBRANCH  35  36
ENDBRANCH  29  35
BRANCH  30  38
ATOM     38  O   UNL     1     -16.505 -41.505  -9.970  1.00  0.00    -0.387 OA
ATOM     39  H   UNL     1     -16.953 -40.824 -10.535  1.00  0.00     0.211 HD
ENDBRANCH  30  38
ENDBRANCH   1  25
TORSDOF 11
ENDMDL
MODEL 4
REMARK VINA RESULT:    -7.924      1.548      2.852
REMARK INTER + INTRA:         -12.691
REMARK INTER:                 -11.087
REMARK INTRA:                  -1.604
REMARK UNBOUND:                -1.293
REMARK SMILES O=c1c(O[C@H]2O[C@H](CO)[C@H](O)[C@@H](O)[C@@H]2O)c(-c2ccc(O)cc2)oc2cc(O)cc(O)c12
REMARK SMILES IDX 4 1 3 2 16 3 24 4 2 5 25 6 1 7 32 8 26 9 30 10 27 11 29 12
REMARK SMILES IDX 17 13 18 14 19 15 20 16 23 17 22 18 21 19 31 21 28 23 5 25
REMARK SMILES IDX 14 26 6 27 12 28 7 29 10 30 15 31 13 33 8 35 9 36 11 38
REMARK H PARENT 21 20 31 22 28 24 15 32 13 34 9 37 11 39
REMARK Flexibility Score: inf
ROOT
ATOM      1  O   UNL     1     -14.202 -43.463  -3.540  1.00  0.00    -0.454 OA
ENDROOT
BRANCH   1   2
ATOM      2  C   UNL     1     -13.979 -43.271  -4.923  1.00  0.00     0.214 A 
ATOM      3  C   UNL     1     -12.653 -43.330  -5.396  1.00  0.00     0.180 A 
ATOM      4  O   UNL     1     -12.379 -43.070  -6.669  1.00  0.00    -0.452 OA
ATOM      5  C   UNL     1     -15.005 -42.993  -5.857  1.00  0.00     0.239 A 
ATOM      6  C   UNL     1     -13.307 -42.781  -7.569  1.00  0.00     0.146 A 
ATOM      7  O   UNL     1     -16.211 -42.972  -5.495  1.00  0.00    -0.285 OA
ATOM      8  C   UNL     1     -14.673 -42.738  -7.205  1.00  0.00     0.111 A 
ATOM      9  C   UNL     1     -12.918 -42.526  -8.888  1.00  0.00     0.094 A 
ATOM     10  C   UNL     1     -15.638 -42.440  -8.200  1.00  0.00     0.134 A 
ATOM     11  C   UNL     1     -13.876 -42.231  -9.862  1.00  0.00     0.123 A 
ATOM     12  C   UNL     1     -15.229 -42.190  -9.517  1.00  0.00     0.093 A 
BRANCH   3  13
ATOM     13  C   UNL     1     -11.530 -43.667  -4.503  1.00  0.00     0.021 A 
ATOM     14  C   UNL     1     -11.102 -44.998  -4.386  1.00  0.00     0.016 A 
ATOM     15  C   UNL     1     -10.052 -45.327  -3.523  1.00  0.00     0.047 A 
ATOM     16  C   UNL     1      -9.432 -44.330  -2.756  1.00  0.00     0.115 A 
ATOM     17  C   UNL     1     -10.925 -42.676  -3.713  1.00  0.00     0.016 A 
ATOM     18  C   UNL     1      -9.874 -43.007  -2.851  1.00  0.00     0.047 A 
BRANCH  16  19
ATOM     19  O   UNL     1      -8.384 -44.646  -1.895  1.00  0.00    -0.508 OA
ATOM     20  H   UNL     1      -7.704 -43.950  -1.612  1.00  0.00     0.293 HD
ENDBRANCH  16  19
ENDBRANCH   3  13
BRANCH  10  21
ATOM     21  O   UNL     1     -16.998 -42.389  -7.889  1.00  0.00    -0.507 OA
ATOM     22  H   UNL     1     -17.506 -43.210  -7.582  1.00  0.00     0.293 HD
ENDBRANCH  10  21
BRANCH  11  23
ATOM     23  O   UNL     1     -13.496 -41.976 -11.178  1.00  0.00    -0.508 OA
ATOM     24  H   UNL     1     -13.571 -41.048 -11.581  1.00  0.00     0.293 HD
ENDBRANCH  11  23
ENDBRANCH   1   2
BRANCH   1  25
ATOM     25  C   UNL     1     -14.426 -44.710  -2.873  1.00  0.00     0.339 C 
ATOM     26  C   UNL     1     -15.816 -44.744  -2.199  1.00  0.00     0.214 C 
ATOM     27  O   UNL     1     -13.387 -45.005  -1.953  1.00  0.00    -0.332 OA
ATOM     28  C   UNL     1     -15.865 -43.927  -0.882  1.00  0.00     0.180 C 
ATOM     29  C   UNL     1     -13.314 -44.030  -0.928  1.00  0.00     0.179 C 
ATOM     30  C   UNL     1     -14.579 -44.084  -0.035  1.00  0.00     0.177 C 
BRANCH  26  31
ATOM     31  O   UNL     1     -16.158 -46.083  -1.939  1.00  0.00    -0.384 OA
ATOM     32  H   UNL     1     -15.330 -46.540  -1.638  1.00  0.00     0.211 HD
ENDBRANCH  26  31
BRANCH  28  33
ATOM     33  O   UNL     1     -16.143 -42.573  -1.139  1.00  0.00    -0.387 OA
ATOM     34  H   UNL     1     -15.645 -42.031  -0.482  1.00  0.00     0.211 HD
ENDBRANCH  28  33
BRANCH  29  35
ATOM     35  C   UNL     1     -12.032 -44.274  -0.115  1.00  0.00     0.191 C 
BRANCH  35  36
ATOM     36  O   UNL     1     -11.720 -45.641  -0.064  1.00  0.00    -0.394 OA
ATOM     37  H   UNL     1     -11.390 -45.891  -0.966  1.00  0.00     0.210 HD
ENDBRANCH  35  36
ENDBRANCH  29  35
BRANCH  30  38
ATOM     38  O   UNL     1     -14.629 -45.269   0.725  1.00  0.00    -0.387 OA
ATOM     39  H   UNL     1     -15.044 -45.056   1.600  1.00  0.00     0.211 HD
ENDBRANCH  30  38
ENDBRANCH   1  25
TORSDOF 11
ENDMDL
MODEL 5
REMARK VINA RESULT:    -7.848      1.989      5.425
REMARK INTER + INTRA:         -12.581
REMARK INTER:                 -11.261
REMARK INTRA:                  -1.321
REMARK UNBOUND:                -1.293
REMARK SMILES O=c1c(O[C@H]2O[C@H](CO)[C@H](O)[C@@H](O)[C@@H]2O)c(-c2ccc(O)cc2)oc2cc(O)cc(O)c12
REMARK SMILES IDX 4 1 3 2 16 3 24 4 2 5 25 6 1 7 32 8 26 9 30 10 27 11 29 12
REMARK SMILES IDX 17 13 18 14 19 15 20 16 23 17 22 18 21 19 31 21 28 23 5 25
REMARK SMILES IDX 14 26 6 27 12 28 7 29 10 30 15 31 13 33 8 35 9 36 11 38
REMARK H PARENT 21 20 31 22 28 24 15 32 13 34 9 37 11 39
REMARK Flexibility Score: inf
ROOT
ATOM      1  O   UNL     1     -14.066 -43.132  -2.571  1.00  0.00    -0.454 OA
ENDROOT
BRANCH   1   2
ATOM      2  C   UNL     1     -14.505 -42.994  -3.908  1.00  0.00     0.214 A 
ATOM      3  C   UNL     1     -15.834 -43.352  -4.210  1.00  0.00     0.180 A 
ATOM      4  O   UNL     1     -16.271 -43.326  -5.464  1.00  0.00    -0.452 OA
ATOM      5  C   UNL     1     -13.681 -42.547  -4.967  1.00  0.00     0.239 A 
ATOM      6  C   UNL     1     -15.524 -42.937  -6.487  1.00  0.00     0.146 A 
ATOM      7  O   UNL     1     -12.499 -42.173  -4.744  1.00  0.00    -0.285 OA
ATOM      8  C   UNL     1     -14.189 -42.518  -6.284  1.00  0.00     0.111 A 
ATOM      9  C   UNL     1     -16.077 -42.941  -7.771  1.00  0.00     0.094 A 
ATOM     10  C   UNL     1     -13.426 -42.095  -7.402  1.00  0.00     0.134 A 
ATOM     11  C   UNL     1     -15.317 -42.525  -8.868  1.00  0.00     0.123 A 
ATOM     12  C   UNL     1     -13.999 -42.103  -8.681  1.00  0.00     0.093 A 
BRANCH   3  13
ATOM     13  C   UNL     1     -16.776 -43.778  -3.160  1.00  0.00     0.021 A 
ATOM     14  C   UNL     1     -17.205 -42.860  -2.189  1.00  0.00     0.016 A 
ATOM     15  C   UNL     1     -18.080 -43.263  -1.176  1.00  0.00     0.047 A 
ATOM     16  C   UNL     1     -18.522 -44.592  -1.115  1.00  0.00     0.115 A 
ATOM     17  C   UNL     1     -17.199 -45.114  -3.079  1.00  0.00     0.016 A 
ATOM     18  C   UNL     1     -18.077 -45.516  -2.066  1.00  0.00     0.047 A 
BRANCH  16  19
ATOM     19  O   UNL     1     -19.396 -45.004  -0.113  1.00  0.00    -0.508 OA
ATOM     20  H   UNL     1     -19.779 -45.943  -0.097  1.00  0.00     0.293 HD
ENDBRANCH  16  19
ENDBRANCH   3  13
BRANCH  10  21
ATOM     21  O   UNL     1     -12.105 -41.669  -7.251  1.00  0.00    -0.507 OA
ATOM     22  H   UNL     1     -11.879 -40.735  -6.929  1.00  0.00     0.293 HD
ENDBRANCH  10  21
BRANCH  11  23
ATOM     23  O   UNL     1     -15.862 -42.525 -10.151  1.00  0.00    -0.508 OA
ATOM     24  H   UNL     1     -16.587 -41.869 -10.419  1.00  0.00     0.293 HD
ENDBRANCH  11  23
ENDBRANCH   1   2
BRANCH   1  25
ATOM     25  C   UNL     1     -13.589 -44.329  -1.945  1.00  0.00     0.339 C 
ATOM     26  C   UNL     1     -14.043 -44.410  -0.470  1.00  0.00     0.214 C 
ATOM     27  O   UNL     1     -12.182 -44.460  -2.071  1.00  0.00    -0.332 OA
ATOM     28  C   UNL     1     -13.220 -43.486   0.463  1.00  0.00     0.180 C 
ATOM     29  C   UNL     1     -11.505 -43.395  -1.427  1.00  0.00     0.179 C 
ATOM     30  C   UNL     1     -11.714 -43.468   0.107  1.00  0.00     0.177 C 
BRANCH  26  31
ATOM     31  O   UNL     1     -13.930 -45.743  -0.038  1.00  0.00    -0.384 OA
ATOM     32  H   UNL     1     -14.036 -45.738   0.949  1.00  0.00     0.211 HD
ENDBRANCH  26  31
BRANCH  28  33
ATOM     33  O   UNL     1     -13.755 -42.186   0.483  1.00  0.00    -0.387 OA
ATOM     34  H   UNL     1     -14.643 -42.231   0.911  1.00  0.00     0.211 HD
ENDBRANCH  28  33
BRANCH  29  35
ATOM     35  C   UNL     1     -10.016 -43.466  -1.803  1.00  0.00     0.191 C 
BRANCH  35  36
ATOM     36  O   UNL     1      -9.581 -44.797  -1.889  1.00  0.00    -0.394 OA
ATOM     37  H   UNL     1      -9.222 -45.037  -0.994  1.00  0.00     0.210 HD
ENDBRANCH  35  36
ENDBRANCH  29  35
BRANCH  30  38
ATOM     38  O   UNL     1     -11.059 -44.581   0.669  1.00  0.00    -0.387 OA
ATOM     39  H   UNL     1     -10.169 -44.284   0.990  1.00  0.00     0.211 HD
ENDBRANCH  30  38
ENDBRANCH   1  25
TORSDOF 11
ENDMDL
MODEL 6
REMARK VINA RESULT:    -7.813      1.302      2.288
REMARK INTER + INTRA:         -12.531
REMARK INTER:                 -11.051
REMARK INTRA:                  -1.480
REMARK UNBOUND:                -1.293
REMARK SMILES O=c1c(O[C@H]2O[C@H](CO)[C@H](O)[C@@H](O)[C@@H]2O)c(-c2ccc(O)cc2)oc2cc(O)cc(O)c12
REMARK SMILES IDX 4 1 3 2 16 3 24 4 2 5 25 6 1 7 32 8 26 9 30 10 27 11 29 12
REMARK SMILES IDX 17 13 18 14 19 15 20 16 23 17 22 18 21 19 31 21 28 23 5 25
REMARK SMILES IDX 14 26 6 27 12 28 7 29 10 30 15 31 13 33 8 35 9 36 11 38
REMARK H PARENT 21 20 31 22 28 24 15 32 13 34 9 37 11 39
REMARK Flexibility Score: inf
ROOT
ATOM      1  O   UNL     1     -13.956 -43.640  -4.491  1.00  0.00    -0.454 OA
ENDROOT
BRANCH   1   2
ATOM      2  C   UNL     1     -13.542 -42.952  -5.654  1.00  0.00     0.214 A 
ATOM      3  C   UNL     1     -12.164 -42.720  -5.833  1.00  0.00     0.180 A 
ATOM      4  O   UNL     1     -11.729 -42.001  -6.862  1.00  0.00    -0.452 OA
ATOM      5  C   UNL     1     -14.432 -42.454  -6.635  1.00  0.00     0.239 A 
ATOM      6  C   UNL     1     -12.531 -41.497  -7.788  1.00  0.00     0.146 A 
ATOM      7  O   UNL     1     -15.669 -42.671  -6.545  1.00  0.00    -0.285 OA
ATOM      8  C   UNL     1     -13.927 -41.709  -7.723  1.00  0.00     0.111 A 
ATOM      9  C   UNL     1     -11.977 -40.757  -8.837  1.00  0.00     0.094 A 
ATOM     10  C   UNL     1     -14.752 -41.166  -8.741  1.00  0.00     0.134 A 
ATOM     11  C   UNL     1     -12.797 -40.223  -9.835  1.00  0.00     0.123 A 
ATOM     12  C   UNL     1     -14.177 -40.429  -9.785  1.00  0.00     0.093 A 
BRANCH   3  13
ATOM     13  C   UNL     1     -11.164 -43.248  -4.889  1.00  0.00     0.021 A 
ATOM     14  C   UNL     1     -10.528 -44.470  -5.154  1.00  0.00     0.016 A 
ATOM     15  C   UNL     1      -9.594 -44.989  -4.250  1.00  0.00     0.047 A 
ATOM     16  C   UNL     1      -9.302 -44.298  -3.066  1.00  0.00     0.115 A 
ATOM     17  C   UNL     1     -10.888 -42.573  -3.689  1.00  0.00     0.016 A 
ATOM     18  C   UNL     1      -9.953 -43.093  -2.787  1.00  0.00     0.047 A 
BRANCH  16  19
ATOM     19  O   UNL     1      -8.372 -44.803  -2.160  1.00  0.00    -0.508 OA
ATOM     20  H   UNL     1      -7.386 -44.857  -2.388  1.00  0.00     0.293 HD
ENDBRANCH  16  19
ENDBRANCH   3  13
BRANCH  10  21
ATOM     21  O   UNL     1     -16.135 -41.351  -8.720  1.00  0.00    -0.507 OA
ATOM     22  H   UNL     1     -16.601 -41.966  -9.377  1.00  0.00     0.293 HD
ENDBRANCH  10  21
BRANCH  11  23
ATOM     23  O   UNL     1     -12.250 -39.485 -10.883  1.00  0.00    -0.508 OA
ATOM     24  H   UNL     1     -11.288 -39.612 -11.176  1.00  0.00     0.293 HD
ENDBRANCH  11  23
ENDBRANCH   1   2
BRANCH   1  25
ATOM     25  C   UNL     1     -13.897 -45.054  -4.265  1.00  0.00     0.339 C 
ATOM     26  C   UNL     1     -15.077 -45.780  -4.950  1.00  0.00     0.214 C 
ATOM     27  O   UNL     1     -13.822 -45.359  -2.881  1.00  0.00    -0.332 OA
ATOM     28  C   UNL     1     -16.411 -45.620  -4.176  1.00  0.00     0.180 C 
ATOM     29  C   UNL     1     -14.973 -44.908  -2.190  1.00  0.00     0.179 C 
ATOM     30  C   UNL     1     -16.225 -45.702  -2.643  1.00  0.00     0.177 C 
BRANCH  26  31
ATOM     31  O   UNL     1     -14.758 -47.144  -5.066  1.00  0.00    -0.384 OA
ATOM     32  H   UNL     1     -14.431 -47.288  -5.992  1.00  0.00     0.211 HD
ENDBRANCH  26  31
BRANCH  28  33
ATOM     33  O   UNL     1     -17.068 -44.434  -4.547  1.00  0.00    -0.387 OA
ATOM     34  H   UNL     1     -16.418 -43.863  -5.022  1.00  0.00     0.211 HD
ENDBRANCH  28  33
BRANCH  29  35
ATOM     35  C   UNL     1     -14.722 -45.052  -0.680  1.00  0.00     0.191 C 
BRANCH  35  36
ATOM     36  O   UNL     1     -13.975 -46.206  -0.401  1.00  0.00    -0.394 OA
ATOM     37  H   UNL     1     -13.595 -46.086   0.508  1.00  0.00     0.210 HD
ENDBRANCH  35  36
ENDBRANCH  29  35
BRANCH  30  38
ATOM     38  O   UNL     1     -16.168 -47.045  -2.221  1.00  0.00    -0.387 OA
ATOM     39  H   UNL     1     -15.589 -47.091  -1.418  1.00  0.00     0.211 HD
ENDBRANCH  30  38
ENDBRANCH   1  25
TORSDOF 11
ENDMDL
MODEL 7
REMARK VINA RESULT:    -7.681      1.891      6.800
REMARK INTER + INTRA:         -12.341
REMARK INTER:                 -10.746
REMARK INTRA:                  -1.595
REMARK UNBOUND:                -1.293
REMARK SMILES O=c1c(O[C@H]2O[C@H](CO)[C@H](O)[C@@H](O)[C@@H]2O)c(-c2ccc(O)cc2)oc2cc(O)cc(O)c12
REMARK SMILES IDX 4 1 3 2 16 3 24 4 2 5 25 6 1 7 32 8 26 9 30 10 27 11 29 12
REMARK SMILES IDX 17 13 18 14 19 15 20 16 23 17 22 18 21 19 31 21 28 23 5 25
REMARK SMILES IDX 14 26 6 27 12 28 7 29 10 30 15 31 13 33 8 35 9 36 11 38
REMARK H PARENT 21 20 31 22 28 24 15 32 13 34 9 37 11 39
REMARK Flexibility Score: inf
ROOT
ATOM      1  O   UNL     1     -14.566 -42.963  -7.152  1.00  0.00    -0.454 OA
ENDROOT
BRANCH   1   2
ATOM      2  C   UNL     1     -14.810 -43.507  -5.870  1.00  0.00     0.214 A 
ATOM      3  C   UNL     1     -13.701 -43.885  -5.088  1.00  0.00     0.180 A 
ATOM      4  O   UNL     1     -13.875 -44.483  -3.914  1.00  0.00    -0.452 OA
ATOM      5  C   UNL     1     -16.103 -43.723  -5.337  1.00  0.00     0.239 A 
ATOM      6  C   UNL     1     -15.069 -44.725  -3.392  1.00  0.00     0.146 A 
ATOM      7  O   UNL     1     -17.126 -43.362  -5.977  1.00  0.00    -0.285 OA
ATOM      8  C   UNL     1     -16.245 -44.345  -4.078  1.00  0.00     0.111 A 
ATOM      9  C   UNL     1     -15.149 -45.356  -2.147  1.00  0.00     0.094 A 
ATOM     10  C   UNL     1     -17.503 -44.609  -3.480  1.00  0.00     0.134 A 
ATOM     11  C   UNL     1     -16.393 -45.614  -1.564  1.00  0.00     0.123 A 
ATOM     12  C   UNL     1     -17.562 -45.239  -2.229  1.00  0.00     0.093 A 
BRANCH   3  13
ATOM     13  C   UNL     1     -12.319 -43.648  -5.542  1.00  0.00     0.021 A 
ATOM     14  C   UNL     1     -11.742 -44.494  -6.501  1.00  0.00     0.016 A 
ATOM     15  C   UNL     1     -10.424 -44.288  -6.920  1.00  0.00     0.047 A 
ATOM     16  C   UNL     1      -9.665 -43.245  -6.371  1.00  0.00     0.115 A 
ATOM     17  C   UNL     1     -11.547 -42.621  -4.975  1.00  0.00     0.016 A 
ATOM     18  C   UNL     1     -10.229 -42.416  -5.396  1.00  0.00     0.047 A 
BRANCH  16  19
ATOM     19  O   UNL     1      -8.353 -43.028  -6.782  1.00  0.00    -0.508 OA
ATOM     20  H   UNL     1      -7.762 -43.792  -7.091  1.00  0.00     0.293 HD
ENDBRANCH  16  19
ENDBRANCH   3  13
BRANCH  10  21
ATOM     21  O   UNL     1     -18.692 -44.250  -4.118  1.00  0.00    -0.507 OA
ATOM     22  H   UNL     1     -19.540 -44.059  -3.598  1.00  0.00     0.293 HD
ENDBRANCH  10  21
BRANCH  11  23
ATOM     23  O   UNL     1     -16.480 -46.242  -0.324  1.00  0.00    -0.508 OA
ATOM     24  H   UNL     1     -15.700 -46.761   0.063  1.00  0.00     0.293 HD
ENDBRANCH  11  23
ENDBRANCH   1   2
BRANCH   1  25
ATOM     25  C   UNL     1     -14.538 -41.574  -7.503  1.00  0.00     0.339 C 
ATOM     26  C   UNL     1     -15.553 -41.259  -8.624  1.00  0.00     0.214 C 
ATOM     27  O   UNL     1     -13.228 -41.147  -7.842  1.00  0.00    -0.332 OA
ATOM     28  C   UNL     1     -15.064 -41.715 -10.023  1.00  0.00     0.180 C 
ATOM     29  C   UNL     1     -12.737 -41.838  -8.977  1.00  0.00     0.179 C 
ATOM     30  C   UNL     1     -13.553 -41.458 -10.238  1.00  0.00     0.177 C 
BRANCH  26  31
ATOM     31  O   UNL     1     -15.795 -39.873  -8.635  1.00  0.00    -0.384 OA
ATOM     32  H   UNL     1     -14.917 -39.425  -8.519  1.00  0.00     0.211 HD
ENDBRANCH  26  31
BRANCH  28  33
ATOM     33  O   UNL     1     -15.391 -43.062 -10.255  1.00  0.00    -0.387 OA
ATOM     34  H   UNL     1     -14.552 -43.551 -10.434  1.00  0.00     0.211 HD
ENDBRANCH  28  33
BRANCH  29  35
ATOM     35  C   UNL     1     -11.246 -41.507  -9.142  1.00  0.00     0.191 C 
BRANCH  35  36
ATOM     36  O   UNL     1     -10.838 -41.666 -10.475  1.00  0.00    -0.394 OA
ATOM     37  H   UNL     1     -10.811 -40.757 -10.873  1.00  0.00     0.210 HD
ENDBRANCH  35  36
ENDBRANCH  29  35
BRANCH  30  38
ATOM     38  O   UNL     1     -13.327 -40.122 -10.621  1.00  0.00    -0.387 OA
ATOM     39  H   UNL     1     -13.052 -39.614  -9.815  1.00  0.00     0.211 HD
ENDBRANCH  30  38
ENDBRANCH   1  25
TORSDOF 11
ENDMDL
MODEL 8
REMARK VINA RESULT:    -7.636      2.640      4.014
REMARK INTER + INTRA:         -12.277
REMARK INTER:                 -10.952
REMARK INTRA:                  -1.326
REMARK UNBOUND:                -1.293
REMARK SMILES O=c1c(O[C@H]2O[C@H](CO)[C@H](O)[C@@H](O)[C@@H]2O)c(-c2ccc(O)cc2)oc2cc(O)cc(O)c12
REMARK SMILES IDX 4 1 3 2 16 3 24 4 2 5 25 6 1 7 32 8 26 9 30 10 27 11 29 12
REMARK SMILES IDX 17 13 18 14 19 15 20 16 23 17 22 18 21 19 31 21 28 23 5 25
REMARK SMILES IDX 14 26 6 27 12 28 7 29 10 30 15 31 13 33 8 35 9 36 11 38
REMARK H PARENT 21 20 31 22 28 24 15 32 13 34 9 37 11 39
REMARK Flexibility Score: inf
ROOT
ATOM      1  O   UNL     1     -13.565 -44.914  -3.479  1.00  0.00    -0.454 OA
ENDROOT
BRANCH   1   2
ATOM      2  C   UNL     1     -13.326 -43.598  -3.938  1.00  0.00     0.214 A 
ATOM      3  C   UNL     1     -13.018 -42.608  -2.983  1.00  0.00     0.180 A 
ATOM      4  O   UNL     1     -12.873 -41.340  -3.350  1.00  0.00    -0.452 OA
ATOM      5  C   UNL     1     -13.409 -43.208  -5.295  1.00  0.00     0.239 A 
ATOM      6  C   UNL     1     -12.967 -40.930  -4.606  1.00  0.00     0.146 A 
ATOM      7  O   UNL     1     -13.639 -44.061  -6.192  1.00  0.00    -0.285 OA
ATOM      8  C   UNL     1     -13.231 -41.852  -5.645  1.00  0.00     0.111 A 
ATOM      9  C   UNL     1     -12.794 -39.573  -4.893  1.00  0.00     0.094 A 
ATOM     10  C   UNL     1     -13.310 -41.378  -6.979  1.00  0.00     0.134 A 
ATOM     11  C   UNL     1     -12.875 -39.113  -6.210  1.00  0.00     0.123 A 
ATOM     12  C   UNL     1     -13.131 -40.013  -7.246  1.00  0.00     0.093 A 
BRANCH   3  13
ATOM     13  C   UNL     1     -12.860 -42.936  -1.555  1.00  0.00     0.021 A 
ATOM     14  C   UNL     1     -13.907 -42.681  -0.658  1.00  0.00     0.016 A 
ATOM     15  C   UNL     1     -13.755 -42.969   0.703  1.00  0.00     0.047 A 
ATOM     16  C   UNL     1     -12.547 -43.499   1.179  1.00  0.00     0.115 A 
ATOM     17  C   UNL     1     -11.643 -43.442  -1.069  1.00  0.00     0.016 A 
ATOM     18  C   UNL     1     -11.493 -43.730   0.291  1.00  0.00     0.047 A 
BRANCH  16  19
ATOM     19  O   UNL     1     -12.385 -43.792   2.531  1.00  0.00    -0.508 OA
ATOM     20  H   UNL     1     -11.866 -43.177   3.148  1.00  0.00     0.293 HD
ENDBRANCH  16  19
ENDBRANCH   3  13
BRANCH  10  21
ATOM     21  O   UNL     1     -13.567 -42.250  -8.038  1.00  0.00    -0.507 OA
ATOM     22  H   UNL     1     -12.827 -42.585  -8.644  1.00  0.00     0.293 HD
ENDBRANCH  10  21
BRANCH  11  23
ATOM     23  O   UNL     1     -12.703 -37.761  -6.502  1.00  0.00    -0.508 OA
ATOM     24  H   UNL     1     -13.193 -37.041  -5.984  1.00  0.00     0.293 HD
ENDBRANCH  11  23
ENDBRANCH   1   2
BRANCH   1  25
ATOM     25  C   UNL     1     -14.825 -45.594  -3.443  1.00  0.00     0.339 C 
ATOM     26  C   UNL     1     -15.313 -45.794  -1.990  1.00  0.00     0.214 C 
ATOM     27  O   UNL     1     -14.779 -46.819  -4.157  1.00  0.00    -0.332 OA
ATOM     28  C   UNL     1     -14.570 -46.943  -1.261  1.00  0.00     0.180 C 
ATOM     29  C   UNL     1     -13.844 -47.715  -3.584  1.00  0.00     0.179 C 
ATOM     30  C   UNL     1     -14.313 -48.163  -2.177  1.00  0.00     0.177 C 
BRANCH  26  31
ATOM     31  O   UNL     1     -16.693 -46.062  -2.012  1.00  0.00    -0.384 OA
ATOM     32  H   UNL     1     -16.967 -46.097  -2.966  1.00  0.00     0.211 HD
ENDBRANCH  26  31
BRANCH  28  33
ATOM     33  O   UNL     1     -13.376 -46.481  -0.681  1.00  0.00    -0.387 OA
ATOM     34  H   UNL     1     -13.405 -46.693   0.283  1.00  0.00     0.211 HD
ENDBRANCH  28  33
BRANCH  29  35
ATOM     35  C   UNL     1     -13.670 -48.911  -4.534  1.00  0.00     0.191 C 
BRANCH  35  36
ATOM     36  O   UNL     1     -12.684 -48.651  -5.497  1.00  0.00    -0.394 OA
ATOM     37  H   UNL     1     -13.142 -48.647  -6.378  1.00  0.00     0.210 HD
ENDBRANCH  35  36
ENDBRANCH  29  35
BRANCH  30  38
ATOM     38  O   UNL     1     -15.459 -48.980  -2.247  1.00  0.00    -0.387 OA
ATOM     39  H   UNL     1     -16.210 -48.428  -2.585  1.00  0.00     0.211 HD
ENDBRANCH  30  38
ENDBRANCH   1  25
TORSDOF 11
ENDMDL
MODEL 9
REMARK VINA RESULT:    -7.578      1.724      4.871
REMARK INTER + INTRA:         -12.193
REMARK INTER:                 -10.555
REMARK INTRA:                  -1.638
REMARK UNBOUND:                -1.293
REMARK SMILES O=c1c(O[C@H]2O[C@H](CO)[C@H](O)[C@@H](O)[C@@H]2O)c(-c2ccc(O)cc2)oc2cc(O)cc(O)c12
REMARK SMILES IDX 4 1 3 2 16 3 24 4 2 5 25 6 1 7 32 8 26 9 30 10 27 11 29 12
REMARK SMILES IDX 17 13 18 14 19 15 20 16 23 17 22 18 21 19 31 21 28 23 5 25
REMARK SMILES IDX 14 26 6 27 12 28 7 29 10 30 15 31 13 33 8 35 9 36 11 38
REMARK H PARENT 21 20 31 22 28 24 15 32 13 34 9 37 11 39
REMARK Flexibility Score: inf
ROOT
ATOM      1  O   UNL     1     -12.144 -43.660  -5.127  1.00  0.00    -0.454 OA
ENDROOT
BRANCH   1   2
ATOM      2  C   UNL     1     -12.990 -43.184  -6.154  1.00  0.00     0.214 A 
ATOM      3  C   UNL     1     -14.378 -43.384  -6.017  1.00  0.00     0.180 A 
ATOM      4  O   UNL     1     -15.209 -43.037  -6.993  1.00  0.00    -0.452 OA
ATOM      5  C   UNL     1     -12.524 -42.545  -7.328  1.00  0.00     0.239 A 
ATOM      6  C   UNL     1     -14.811 -42.459  -8.117  1.00  0.00     0.146 A 
ATOM      7  O   UNL     1     -11.298 -42.303  -7.480  1.00  0.00    -0.285 OA
ATOM      8  C   UNL     1     -13.443 -42.176  -8.334  1.00  0.00     0.111 A 
ATOM      9  C   UNL     1     -15.764 -42.126  -9.084  1.00  0.00     0.094 A 
ATOM     10  C   UNL     1     -13.057 -41.544  -9.544  1.00  0.00     0.134 A 
ATOM     11  C   UNL     1     -15.376 -41.505 -10.275  1.00  0.00     0.123 A 
ATOM     12  C   UNL     1     -14.028 -41.215 -10.500  1.00  0.00     0.093 A 
BRANCH   3  13
ATOM     13  C   UNL     1     -14.953 -43.992  -4.805  1.00  0.00     0.021 A 
ATOM     14  C   UNL     1     -15.056 -45.388  -4.702  1.00  0.00     0.016 A 
ATOM     15  C   UNL     1     -15.622 -45.971  -3.564  1.00  0.00     0.047 A 
ATOM     16  C   UNL     1     -16.106 -45.163  -2.526  1.00  0.00     0.115 A 
ATOM     17  C   UNL     1     -15.463 -43.186  -3.774  1.00  0.00     0.016 A 
ATOM     18  C   UNL     1     -16.028 -43.771  -2.636  1.00  0.00     0.047 A 
BRANCH  16  19
ATOM     19  O   UNL     1     -16.669 -45.732  -1.386  1.00  0.00    -0.508 OA
ATOM     20  H   UNL     1     -16.123 -46.311  -0.758  1.00  0.00     0.293 HD
ENDBRANCH  16  19
ENDBRANCH   3  13
BRANCH  10  21
ATOM     21  O   UNL     1     -11.719 -41.241  -9.802  1.00  0.00    -0.507 OA
ATOM     22  H   UNL     1     -11.431 -40.323 -10.119  1.00  0.00     0.293 HD
ENDBRANCH  10  21
BRANCH  11  23
ATOM     23  O   UNL     1     -16.320 -41.171 -11.243  1.00  0.00    -0.508 OA
ATOM     24  H   UNL     1     -17.238 -41.602 -11.258  1.00  0.00     0.293 HD
ENDBRANCH  11  23
ENDBRANCH   1   2
BRANCH   1  25
ATOM     25  C   UNL     1     -11.550 -42.885  -4.078  1.00  0.00     0.339 C 
ATOM     26  C   UNL     1     -10.011 -43.029  -4.077  1.00  0.00     0.214 C 
ATOM     27  O   UNL     1     -12.109 -43.203  -2.813  1.00  0.00    -0.332 OA
ATOM     28  C   UNL     1      -9.534 -44.376  -3.477  1.00  0.00     0.180 C 
ATOM     29  C   UNL     1     -11.873 -44.557  -2.470  1.00  0.00     0.179 C 
ATOM     30  C   UNL     1     -10.361 -44.804  -2.241  1.00  0.00     0.177 C 
BRANCH  26  31
ATOM     31  O   UNL     1      -9.461 -41.962  -3.345  1.00  0.00    -0.384 OA
ATOM     32  H   UNL     1     -10.196 -41.569  -2.807  1.00  0.00     0.211 HD
ENDBRANCH  26  31
BRANCH  28  33
ATOM     33  O   UNL     1      -9.518 -45.385  -4.455  1.00  0.00    -0.387 OA
ATOM     34  H   UNL     1      -9.027 -45.040  -5.239  1.00  0.00     0.211 HD
ENDBRANCH  28  33
BRANCH  29  35
ATOM     35  C   UNL     1     -12.701 -44.894  -1.219  1.00  0.00     0.191 C 
BRANCH  35  36
ATOM     36  O   UNL     1     -11.983 -45.727  -0.349  1.00  0.00    -0.394 OA
ATOM     37  H   UNL     1     -12.606 -46.447  -0.067  1.00  0.00     0.210 HD
ENDBRANCH  35  36
ENDBRANCH  29  35
BRANCH  30  38
ATOM     38  O   UNL     1      -9.897 -44.150  -1.083  1.00  0.00    -0.387 OA
ATOM     39  H   UNL     1      -9.828 -44.821  -0.357  1.00  0.00     0.211 HD
ENDBRANCH  30  38
ENDBRANCH   1  25
TORSDOF 11
ENDMDL
