MODEL 1
REMARK VINA RESULT:    -5.478      0.000      0.000
REMARK INTER + INTRA:          -9.931
REMARK INTER:                  -9.321
REMARK INTRA:                  -0.610
REMARK UNBOUND:                -0.610
REMARK SMILES CCCCCCCCCCCCCC(=O)[O-]
REMARK SMILES IDX 8 1 9 2 10 3 11 4 12 5 13 6 14 7 15 8 16 9 7 10 6 11 5 12
REMARK SMILES IDX 4 13 3 14 2 15 1 16
REMARK H PARENT
REMARK Flexibility Score: inf
ROOT
ATOM      1  C   UNL     1      21.126  29.973  36.421  1.00  0.00     0.000 C 
ENDROOT
BRANCH   1   2
ATOM      2  C   UNL     1      19.844  29.485  37.114  1.00  0.00     0.000 C 
BRANCH   2   3
ATOM      3  C   UNL     1      19.608  27.977  36.921  1.00  0.00     0.000 C 
BRANCH   3   4
ATOM      4  C   UNL     1      18.126  27.638  36.688  1.00  0.00     0.000 C 
BRANCH   4   5
ATOM      5  C   UNL     1      17.904  26.156  36.346  1.00  0.00     0.006 C 
BRANCH   5   6
ATOM      6  C   UNL     1      19.226  25.382  36.386  1.00  0.00     0.053 C 
BRANCH   6   7
ATOM      7  C   UNL     1      19.487  24.720  35.071  1.00  0.00     0.041 C 
ATOM      8  O   UNL     1      20.667  24.584  34.652  1.00  0.00    -0.550 OA
ATOM      9  O   UNL     1      18.430  24.207  34.329  1.00  0.00    -0.550 OA
ENDBRANCH   6   7
ENDBRANCH   5   6
ENDBRANCH   4   5
ENDBRANCH   3   4
ENDBRANCH   2   3
ENDBRANCH   1   2
BRANCH   1  10
ATOM     10  C   UNL     1      21.170  31.503  36.260  1.00  0.00     0.000 C 
BRANCH  10  11
ATOM     11  C   UNL     1      21.862  31.941  34.959  1.00  0.00    -0.000 C 
BRANCH  11  12
ATOM     12  C   UNL     1      22.538  33.313  35.082  1.00  0.00    -0.000 C 
BRANCH  12  13
ATOM     13  C   UNL     1      21.602  34.432  34.610  1.00  0.00    -0.000 C 
BRANCH  13  14
ATOM     14  C   UNL     1      21.201  34.235  33.144  1.00  0.00    -0.000 C 
BRANCH  14  15
ATOM     15  C   UNL     1      19.825  34.848  32.862  1.00  0.00    -0.003 C 
ATOM     16  C   UNL     1      18.995  34.952  34.140  1.00  0.00     0.004 C 
ENDBRANCH  14  15
ENDBRANCH  13  14
ENDBRANCH  12  13
ENDBRANCH  11  12
ENDBRANCH  10  11
ENDBRANCH   1  10
TORSDOF 12
ENDMDL
MODEL 2
REMARK VINA RESULT:    -5.041      3.757      8.055
REMARK INTER + INTRA:          -9.188
REMARK INTER:                  -8.406
REMARK INTRA:                  -0.782
REMARK UNBOUND:                -0.610
REMARK SMILES CCCCCCCCCCCCCC(=O)[O-]
REMARK SMILES IDX 8 1 9 2 10 3 11 4 12 5 13 6 14 7 15 8 16 9 7 10 6 11 5 12
REMARK SMILES IDX 4 13 3 14 2 15 1 16
REMARK H PARENT
REMARK Flexibility Score: inf
ROOT
ATOM      1  C   UNL     1      20.652  29.267  36.553  1.00  0.00     0.000 C 
ENDROOT
BRANCH   1   2
ATOM      2  C   UNL     1      20.018  30.545  37.125  1.00  0.00     0.000 C 
BRANCH   2   3
ATOM      3  C   UNL     1      20.568  31.822  36.466  1.00  0.00     0.000 C 
BRANCH   3   4
ATOM      4  C   UNL     1      19.738  33.069  36.813  1.00  0.00     0.000 C 
BRANCH   4   5
ATOM      5  C   UNL     1      20.255  34.337  36.117  1.00  0.00     0.006 C 
BRANCH   5   6
ATOM      6  C   UNL     1      19.777  34.396  34.662  1.00  0.00     0.053 C 
BRANCH   6   7
ATOM      7  C   UNL     1      20.942  34.343  33.726  1.00  0.00     0.041 C 
ATOM      8  O   UNL     1      22.118  34.408  34.172  1.00  0.00    -0.550 OA
ATOM      9  O   UNL     1      20.732  34.170  32.364  1.00  0.00    -0.550 OA
ENDBRANCH   6   7
ENDBRANCH   5   6
ENDBRANCH   4   5
ENDBRANCH   3   4
ENDBRANCH   2   3
ENDBRANCH   1   2
BRANCH   1  10
ATOM     10  C   UNL     1      19.793  28.014  36.800  1.00  0.00     0.000 C 
BRANCH  10  11
ATOM     11  C   UNL     1      18.328  28.356  37.118  1.00  0.00    -0.000 C 
BRANCH  11  12
ATOM     12  C   UNL     1      17.338  27.391  36.450  1.00  0.00    -0.000 C 
BRANCH  12  13
ATOM     13  C   UNL     1      17.895  25.962  36.427  1.00  0.00    -0.000 C 
BRANCH  13  14
ATOM     14  C   UNL     1      17.855  25.377  35.011  1.00  0.00    -0.000 C 
BRANCH  14  15
ATOM     15  C   UNL     1      18.822  24.196  34.876  1.00  0.00    -0.003 C 
ATOM     16  C   UNL     1      19.910  24.249  35.945  1.00  0.00     0.004 C 
ENDBRANCH  14  15
ENDBRANCH  13  14
ENDBRANCH  12  13
ENDBRANCH  11  12
ENDBRANCH  10  11
ENDBRANCH   1  10
TORSDOF 12
ENDMDL
MODEL 3
REMARK VINA RESULT:    -4.923      3.683      8.118
REMARK INTER + INTRA:          -8.987
REMARK INTER:                  -8.290
REMARK INTRA:                  -0.697
REMARK UNBOUND:                -0.610
REMARK SMILES CCCCCCCCCCCCCC(=O)[O-]
REMARK SMILES IDX 8 1 9 2 10 3 11 4 12 5 13 6 14 7 15 8 16 9 7 10 6 11 5 12
REMARK SMILES IDX 4 13 3 14 2 15 1 16
REMARK H PARENT
REMARK Flexibility Score: inf
ROOT
ATOM      1  C   UNL     1      21.056  30.246  36.205  1.00  0.00     0.000 C 
ENDROOT
BRANCH   1   2
ATOM      2  C   UNL     1      21.349  31.715  36.548  1.00  0.00     0.000 C 
BRANCH   2   3
ATOM      3  C   UNL     1      22.350  32.359  35.574  1.00  0.00     0.000 C 
BRANCH   3   4
ATOM      4  C   UNL     1      21.665  32.954  34.333  1.00  0.00     0.000 C 
BRANCH   4   5
ATOM      5  C   UNL     1      21.731  34.489  34.297  1.00  0.00     0.006 C 
BRANCH   5   6
ATOM      6  C   UNL     1      20.824  35.100  35.370  1.00  0.00     0.053 C 
BRANCH   6   7
ATOM      7  C   UNL     1      19.395  34.741  35.115  1.00  0.00     0.041 C 
ATOM      8  O   UNL     1      18.843  35.070  34.031  1.00  0.00    -0.550 OA
ATOM      9  O   UNL     1      18.686  34.000  36.051  1.00  0.00    -0.550 OA
ENDBRANCH   6   7
ENDBRANCH   5   6
ENDBRANCH   4   5
ENDBRANCH   3   4
ENDBRANCH   2   3
ENDBRANCH   1   2
BRANCH   1  10
ATOM     10  C   UNL     1      19.861  29.678  36.991  1.00  0.00     0.000 C 
BRANCH  10  11
ATOM     11  C   UNL     1      19.794  28.143  36.937  1.00  0.00    -0.000 C 
BRANCH  11  12
ATOM     12  C   UNL     1      18.400  27.626  36.553  1.00  0.00    -0.000 C 
BRANCH  12  13
ATOM     13  C   UNL     1      18.406  26.101  36.389  1.00  0.00    -0.000 C 
BRANCH  13  14
ATOM     14  C   UNL     1      19.781  25.600  35.932  1.00  0.00    -0.000 C 
BRANCH  14  15
ATOM     15  C   UNL     1      19.642  24.469  34.907  1.00  0.00    -0.003 C 
ATOM     16  C   UNL     1      18.196  24.321  34.442  1.00  0.00     0.004 C 
ENDBRANCH  14  15
ENDBRANCH  13  14
ENDBRANCH  12  13
ENDBRANCH  11  12
ENDBRANCH  10  11
ENDBRANCH   1  10
TORSDOF 12
ENDMDL
MODEL 4
REMARK VINA RESULT:    -4.654     15.423     18.368
REMARK INTER + INTRA:          -8.530
REMARK INTER:                  -7.530
REMARK INTRA:                  -1.000
REMARK UNBOUND:                -0.610
REMARK SMILES CCCCCCCCCCCCCC(=O)[O-]
REMARK SMILES IDX 8 1 9 2 10 3 11 4 12 5 13 6 14 7 15 8 16 9 7 10 6 11 5 12
REMARK SMILES IDX 4 13 3 14 2 15 1 16
REMARK H PARENT
REMARK Flexibility Score: inf
ROOT
ATOM      1  C   UNL     1      22.512  22.412  19.996  1.00  0.00     0.000 C 
ENDROOT
BRANCH   1   2
ATOM      2  C   UNL     1      21.980  22.528  18.559  1.00  0.00     0.000 C 
BRANCH   2   3
ATOM      3  C   UNL     1      20.444  22.601  18.504  1.00  0.00     0.000 C 
BRANCH   3   4
ATOM      4  C   UNL     1      19.927  24.043  18.373  1.00  0.00     0.000 C 
BRANCH   4   5
ATOM      5  C   UNL     1      19.137  24.504  19.608  1.00  0.00     0.006 C 
BRANCH   5   6
ATOM      6  C   UNL     1      18.751  23.310  20.487  1.00  0.00     0.053 C 
BRANCH   6   7
ATOM      7  C   UNL     1      19.179  23.539  21.901  1.00  0.00     0.041 C 
ATOM      8  O   UNL     1      20.270  24.119  22.147  1.00  0.00    -0.550 OA
ATOM      9  O   UNL     1      18.350  23.159  22.949  1.00  0.00    -0.550 OA
ENDBRANCH   6   7
ENDBRANCH   5   6
ENDBRANCH   4   5
ENDBRANCH   3   4
ENDBRANCH   2   3
ENDBRANCH   1   2
BRANCH   1  10
ATOM     10  C   UNL     1      21.850  21.268  20.785  1.00  0.00     0.000 C 
BRANCH  10  11
ATOM     11  C   UNL     1      22.877  20.320  21.425  1.00  0.00    -0.000 C 
BRANCH  11  12
ATOM     12  C   UNL     1      22.337  18.893  21.598  1.00  0.00    -0.000 C 
BRANCH  12  13
ATOM     13  C   UNL     1      23.316  17.861  21.026  1.00  0.00    -0.000 C 
BRANCH  13  14
ATOM     14  C   UNL     1      24.768  18.256  21.321  1.00  0.00    -0.000 C 
BRANCH  14  15
ATOM     15  C   UNL     1      25.590  18.331  20.030  1.00  0.00    -0.003 C 
ATOM     16  C   UNL     1      26.989  17.754  20.232  1.00  0.00     0.004 C 
ENDBRANCH  14  15
ENDBRANCH  13  14
ENDBRANCH  12  13
ENDBRANCH  11  12
ENDBRANCH  10  11
ENDBRANCH   1  10
TORSDOF 12
ENDMDL
MODEL 5
REMARK VINA RESULT:    -4.654     15.668     17.955
REMARK INTER + INTRA:          -8.530
REMARK INTER:                  -6.694
REMARK INTRA:                  -1.835
REMARK UNBOUND:                -0.610
REMARK SMILES CCCCCCCCCCCCCC(=O)[O-]
REMARK SMILES IDX 8 1 9 2 10 3 11 4 12 5 13 6 14 7 15 8 16 9 7 10 6 11 5 12
REMARK SMILES IDX 4 13 3 14 2 15 1 16
REMARK H PARENT
REMARK Flexibility Score: inf
ROOT
ATOM      1  C   UNL     1      19.418  22.497  17.054  1.00  0.00     0.000 C 
ENDROOT
BRANCH   1   2
ATOM      2  C   UNL     1      18.117  21.684  17.148  1.00  0.00     0.000 C 
BRANCH   2   3
ATOM      3  C   UNL     1      18.253  20.461  18.072  1.00  0.00     0.000 C 
BRANCH   3   4
ATOM      4  C   UNL     1      19.122  20.750  19.308  1.00  0.00     0.000 C 
BRANCH   4   5
ATOM      5  C   UNL     1      18.291  21.157  20.534  1.00  0.00     0.006 C 
BRANCH   5   6
ATOM      6  C   UNL     1      18.321  22.676  20.734  1.00  0.00     0.053 C 
BRANCH   6   7
ATOM      7  C   UNL     1      18.577  23.011  22.169  1.00  0.00     0.041 C 
ATOM      8  O   UNL     1      19.482  23.832  22.475  1.00  0.00    -0.550 OA
ATOM      9  O   UNL     1      17.785  22.457  23.165  1.00  0.00    -0.550 OA
ENDBRANCH   6   7
ENDBRANCH   5   6
ENDBRANCH   4   5
ENDBRANCH   3   4
ENDBRANCH   2   3
ENDBRANCH   1   2
BRANCH   1  10
ATOM     10  C   UNL     1      19.188  24.009  17.232  1.00  0.00     0.000 C 
BRANCH  10  11
ATOM     11  C   UNL     1      20.357  24.702  17.951  1.00  0.00    -0.000 C 
BRANCH  11  12
ATOM     12  C   UNL     1      21.539  23.757  18.205  1.00  0.00    -0.000 C 
BRANCH  12  13
ATOM     13  C   UNL     1      21.683  23.444  19.699  1.00  0.00    -0.000 C 
BRANCH  13  14
ATOM     14  C   UNL     1      22.508  22.171  19.920  1.00  0.00    -0.000 C 
BRANCH  14  15
ATOM     15  C   UNL     1      22.201  21.546  21.285  1.00  0.00    -0.003 C 
ATOM     16  C   UNL     1      22.811  20.152  21.403  1.00  0.00     0.004 C 
ENDBRANCH  14  15
ENDBRANCH  13  14
ENDBRANCH  12  13
ENDBRANCH  11  12
ENDBRANCH  10  11
ENDBRANCH   1  10
TORSDOF 12
ENDMDL
MODEL 6
REMARK VINA RESULT:    -4.585     16.562     18.105
REMARK INTER + INTRA:          -8.411
REMARK INTER:                  -7.338
REMARK INTRA:                  -1.073
REMARK UNBOUND:                -0.610
REMARK SMILES CCCCCCCCCCCCCC(=O)[O-]
REMARK SMILES IDX 8 1 9 2 10 3 11 4 12 5 13 6 14 7 15 8 16 9 7 10 6 11 5 12
REMARK SMILES IDX 4 13 3 14 2 15 1 16
REMARK H PARENT
REMARK Flexibility Score: inf
ROOT
ATOM      1  C   UNL     1      22.503  22.335  19.776  1.00  0.00     0.000 C 
ENDROOT
BRANCH   1   2
ATOM      2  C   UNL     1      21.834  21.359  20.756  1.00  0.00     0.000 C 
BRANCH   2   3
ATOM      3  C   UNL     1      22.858  20.546  21.567  1.00  0.00     0.000 C 
BRANCH   3   4
ATOM      4  C   UNL     1      22.545  19.040  21.571  1.00  0.00     0.000 C 
BRANCH   4   5
ATOM      5  C   UNL     1      23.780  18.177  21.269  1.00  0.00     0.006 C 
BRANCH   5   6
ATOM      6  C   UNL     1      24.685  18.860  20.239  1.00  0.00     0.053 C 
BRANCH   6   7
ATOM      7  C   UNL     1      25.758  17.925  19.781  1.00  0.00     0.041 C 
ATOM      8  O   UNL     1      26.900  17.962  20.311  1.00  0.00    -0.550 OA
ATOM      9  O   UNL     1      25.484  16.976  18.804  1.00  0.00    -0.550 OA
ENDBRANCH   6   7
ENDBRANCH   5   6
ENDBRANCH   4   5
ENDBRANCH   3   4
ENDBRANCH   2   3
ENDBRANCH   1   2
BRANCH   1  10
ATOM     10  C   UNL     1      21.532  22.855  18.699  1.00  0.00     0.000 C 
BRANCH  10  11
ATOM     11  C   UNL     1      21.040  24.282  18.987  1.00  0.00    -0.000 C 
BRANCH  11  12
ATOM     12  C   UNL     1      19.510  24.399  18.946  1.00  0.00    -0.000 C 
BRANCH  12  13
ATOM     13  C   UNL     1      18.847  23.170  19.582  1.00  0.00    -0.000 C 
BRANCH  13  14
ATOM     14  C   UNL     1      18.784  23.304  21.107  1.00  0.00    -0.000 C 
BRANCH  14  15
ATOM     15  C   UNL     1      17.946  22.179  21.724  1.00  0.00    -0.003 C 
ATOM     16  C   UNL     1      18.200  20.850  21.017  1.00  0.00     0.004 C 
ENDBRANCH  14  15
ENDBRANCH  13  14
ENDBRANCH  12  13
ENDBRANCH  11  12
ENDBRANCH  10  11
ENDBRANCH   1  10
TORSDOF 12
ENDMDL
MODEL 7
REMARK VINA RESULT:    -4.556     16.074     18.022
REMARK INTER + INTRA:          -8.362
REMARK INTER:                  -7.317
REMARK INTRA:                  -1.046
REMARK UNBOUND:                -0.610
REMARK SMILES CCCCCCCCCCCCCC(=O)[O-]
REMARK SMILES IDX 8 1 9 2 10 3 11 4 12 5 13 6 14 7 15 8 16 9 7 10 6 11 5 12
REMARK SMILES IDX 4 13 3 14 2 15 1 16
REMARK H PARENT
REMARK Flexibility Score: inf
ROOT
ATOM      1  C   UNL     1      20.574  22.629  21.265  1.00  0.00     0.000 C 
ENDROOT
BRANCH   1   2
ATOM      2  C   UNL     1      22.053  22.291  21.507  1.00  0.00     0.000 C 
BRANCH   2   3
ATOM      3  C   UNL     1      22.484  20.996  20.797  1.00  0.00     0.000 C 
BRANCH   3   4
ATOM      4  C   UNL     1      22.941  19.907  21.784  1.00  0.00     0.000 C 
BRANCH   4   5
ATOM      5  C   UNL     1      23.318  18.593  21.083  1.00  0.00     0.006 C 
BRANCH   5   6
ATOM      6  C   UNL     1      24.737  18.158  21.464  1.00  0.00     0.053 C 
BRANCH   6   7
ATOM      7  C   UNL     1      25.588  18.017  20.242  1.00  0.00     0.041 C 
ATOM      8  O   UNL     1      25.068  18.075  19.097  1.00  0.00    -0.550 OA
ATOM      9  O   UNL     1      26.964  17.872  20.366  1.00  0.00    -0.550 OA
ENDBRANCH   6   7
ENDBRANCH   5   6
ENDBRANCH   4   5
ENDBRANCH   3   4
ENDBRANCH   2   3
ENDBRANCH   1   2
BRANCH   1  10
ATOM     10  C   UNL     1      20.276  24.133  21.411  1.00  0.00     0.000 C 
BRANCH  10  11
ATOM     11  C   UNL     1      19.803  24.772  20.096  1.00  0.00    -0.000 C 
BRANCH  11  12
ATOM     12  C   UNL     1      20.929  24.888  19.058  1.00  0.00    -0.000 C 
BRANCH  12  13
ATOM     13  C   UNL     1      20.406  24.600  17.645  1.00  0.00    -0.000 C 
BRANCH  13  14
ATOM     14  C   UNL     1      19.126  23.758  17.692  1.00  0.00    -0.000 C 
BRANCH  14  15
ATOM     15  C   UNL     1      19.423  22.289  17.371  1.00  0.00    -0.003 C 
ATOM     16  C   UNL     1      18.766  21.358  18.387  1.00  0.00     0.004 C 
ENDBRANCH  14  15
ENDBRANCH  13  14
ENDBRANCH  12  13
ENDBRANCH  11  12
ENDBRANCH  10  11
ENDBRANCH   1  10
TORSDOF 12
ENDMDL
MODEL 8
REMARK VINA RESULT:    -4.516     15.894     17.684
REMARK INTER + INTRA:          -8.293
REMARK INTER:                  -7.268
REMARK INTRA:                  -1.026
REMARK UNBOUND:                -0.610
REMARK SMILES CCCCCCCCCCCCCC(=O)[O-]
REMARK SMILES IDX 8 1 9 2 10 3 11 4 12 5 13 6 14 7 15 8 16 9 7 10 6 11 5 12
REMARK SMILES IDX 4 13 3 14 2 15 1 16
REMARK H PARENT
REMARK Flexibility Score: inf
ROOT
ATOM      1  C   UNL     1      21.540  22.835  18.734  1.00  0.00     0.000 C 
ENDROOT
BRANCH   1   2
ATOM      2  C   UNL     1      22.426  22.452  19.929  1.00  0.00     0.000 C 
BRANCH   2   3
ATOM      3  C   UNL     1      21.846  21.281  20.740  1.00  0.00     0.000 C 
BRANCH   3   4
ATOM      4  C   UNL     1      22.937  20.441  21.426  1.00  0.00     0.000 C 
BRANCH   4   5
ATOM      5  C   UNL     1      22.613  18.939  21.431  1.00  0.00     0.006 C 
BRANCH   5   6
ATOM      6  C   UNL     1      23.897  18.103  21.485  1.00  0.00     0.053 C 
BRANCH   6   7
ATOM      7  C   UNL     1      24.364  17.771  20.103  1.00  0.00     0.041 C 
ATOM      8  O   UNL     1      25.253  18.470  19.550  1.00  0.00    -0.550 OA
ATOM      9  O   UNL     1      23.855  16.659  19.446  1.00  0.00    -0.550 OA
ENDBRANCH   6   7
ENDBRANCH   5   6
ENDBRANCH   4   5
ENDBRANCH   3   4
ENDBRANCH   2   3
ENDBRANCH   1   2
BRANCH   1  10
ATOM     10  C   UNL     1      21.013  24.279  18.822  1.00  0.00     0.000 C 
BRANCH  10  11
ATOM     11  C   UNL     1      19.682  24.377  19.585  1.00  0.00    -0.000 C 
BRANCH  11  12
ATOM     12  C   UNL     1      19.880  24.593  21.092  1.00  0.00    -0.000 C 
BRANCH  12  13
ATOM     13  C   UNL     1      19.142  23.521  21.902  1.00  0.00    -0.000 C 
BRANCH  13  14
ATOM     14  C   UNL     1      18.377  22.563  20.982  1.00  0.00    -0.000 C 
BRANCH  14  15
ATOM     15  C   UNL     1      17.320  21.775  21.764  1.00  0.00    -0.003 C 
ATOM     16  C   UNL     1      17.598  20.275  21.710  1.00  0.00     0.004 C 
ENDBRANCH  14  15
ENDBRANCH  13  14
ENDBRANCH  12  13
ENDBRANCH  11  12
ENDBRANCH  10  11
ENDBRANCH   1  10
TORSDOF 12
ENDMDL
MODEL 9
REMARK VINA RESULT:    -4.505     16.631     18.326
REMARK INTER + INTRA:          -8.276
REMARK INTER:                  -7.055
REMARK INTRA:                  -1.221
REMARK UNBOUND:                -0.610
REMARK SMILES CCCCCCCCCCCCCC(=O)[O-]
REMARK SMILES IDX 8 1 9 2 10 3 11 4 12 5 13 6 14 7 15 8 16 9 7 10 6 11 5 12
REMARK SMILES IDX 4 13 3 14 2 15 1 16
REMARK H PARENT
REMARK Flexibility Score: inf
ROOT
ATOM      1  C   UNL     1      21.492  22.584  21.428  1.00  0.00     0.000 C 
ENDROOT
BRANCH   1   2
ATOM      2  C   UNL     1      21.840  21.265  20.720  1.00  0.00     0.000 C 
BRANCH   2   3
ATOM      3  C   UNL     1      22.949  20.483  21.445  1.00  0.00     0.000 C 
BRANCH   3   4
ATOM      4  C   UNL     1      22.697  18.965  21.444  1.00  0.00     0.000 C 
BRANCH   4   5
ATOM      5  C   UNL     1      23.998  18.149  21.482  1.00  0.00     0.006 C 
BRANCH   5   6
ATOM      6  C   UNL     1      24.893  18.492  20.287  1.00  0.00     0.053 C 
BRANCH   6   7
ATOM      7  C   UNL     1      25.120  17.282  19.437  1.00  0.00     0.041 C 
ATOM      8  O   UNL     1      24.142  16.606  19.023  1.00  0.00    -0.550 OA
ATOM      9  O   UNL     1      26.409  16.930  19.060  1.00  0.00    -0.550 OA
ENDBRANCH   6   7
ENDBRANCH   5   6
ENDBRANCH   4   5
ENDBRANCH   3   4
ENDBRANCH   2   3
ENDBRANCH   1   2
BRANCH   1  10
ATOM     10  C   UNL     1      19.983  22.888  21.409  1.00  0.00     0.000 C 
BRANCH  10  11
ATOM     11  C   UNL     1      19.167  21.787  20.714  1.00  0.00    -0.000 C 
BRANCH  11  12
ATOM     12  C   UNL     1      18.259  22.336  19.604  1.00  0.00    -0.000 C 
BRANCH  12  13
ATOM     13  C   UNL     1      19.076  22.722  18.366  1.00  0.00    -0.000 C 
BRANCH  13  14
ATOM     14  C   UNL     1      19.251  24.242  18.273  1.00  0.00    -0.000 C 
BRANCH  14  15
ATOM     15  C   UNL     1      20.720  24.614  18.038  1.00  0.00    -0.003 C 
ATOM     16  C   UNL     1      21.553  23.380  17.701  1.00  0.00     0.004 C 
ENDBRANCH  14  15
ENDBRANCH  13  14
ENDBRANCH  12  13
ENDBRANCH  11  12
ENDBRANCH  10  11
ENDBRANCH   1  10
TORSDOF 12
ENDMDL
