MODEL 1
REMARK VINA RESULT:    -4.751      0.000      0.000
REMARK INTER + INTRA:         -11.443
REMARK INTER:                  -8.917
REMARK INTRA:                  -2.526
REMARK UNBOUND:                -2.526
REMARK SMILES CCCCCCCCC=CCCCCCCCC(=O)[O-]
REMARK SMILES IDX 10 1 9 2 11 3 12 4 13 5 14 6 15 7 16 8 17 9 18 10 19 11
REMARK SMILES IDX 20 12 8 13 7 14 6 15 5 16 4 17 3 18 2 19 1 20
REMARK H PARENT
REMARK Flexibility Score: inf
ROOT
ATOM      1  C   UNL     1     -37.873 -30.221   7.527  1.00  0.00    -0.031 C 
ATOM      2  C   UNL     1     -36.674 -30.754   7.809  1.00  0.00    -0.031 C 
ENDROOT
BRANCH   1   3
ATOM      3  C   UNL     1     -39.150 -30.968   7.796  1.00  0.00     0.027 C 
BRANCH   3   4
ATOM      4  C   UNL     1     -39.199 -32.283   7.006  1.00  0.00     0.004 C 
BRANCH   4   5
ATOM      5  C   UNL     1     -40.195 -32.187   5.842  1.00  0.00     0.000 C 
BRANCH   5   6
ATOM      6  C   UNL     1     -39.503 -32.223   4.469  1.00  0.00     0.000 C 
BRANCH   6   7
ATOM      7  C   UNL     1     -37.978 -32.392   4.580  1.00  0.00     0.000 C 
BRANCH   7   8
ATOM      8  C   UNL     1     -37.197 -31.187   4.026  1.00  0.00     0.006 C 
BRANCH   8   9
ATOM      9  C   UNL     1     -36.008 -31.573   3.129  1.00  0.00     0.053 C 
BRANCH   9  10
ATOM     10  C   UNL     1     -34.771 -31.892   3.911  1.00  0.00     0.041 C 
ATOM     11  O   UNL     1     -34.555 -33.068   4.308  1.00  0.00    -0.550 OA
ATOM     12  O   UNL     1     -33.840 -30.896   4.176  1.00  0.00    -0.550 OA
ENDBRANCH   9  10
ENDBRANCH   8   9
ENDBRANCH   7   8
ENDBRANCH   6   7
ENDBRANCH   5   6
ENDBRANCH   4   5
ENDBRANCH   3   4
ENDBRANCH   1   3
BRANCH   2  13
ATOM     13  C   UNL     1     -35.396 -30.013   7.525  1.00  0.00     0.027 C 
BRANCH  13  14
ATOM     14  C   UNL     1     -35.638 -28.850   6.552  1.00  0.00     0.004 C 
BRANCH  14  15
ATOM     15  C   UNL     1     -34.760 -27.628   6.862  1.00  0.00     0.000 C 
BRANCH  15  16
ATOM     16  C   UNL     1     -35.430 -26.653   7.841  1.00  0.00     0.000 C 
BRANCH  16  17
ATOM     17  C   UNL     1     -36.936 -26.545   7.566  1.00  0.00    -0.000 C 
BRANCH  17  18
ATOM     18  C   UNL     1     -37.738 -26.572   8.872  1.00  0.00    -0.000 C 
BRANCH  18  19
ATOM     19  C   UNL     1     -37.099 -27.523   9.890  1.00  0.00    -0.003 C 
ATOM     20  C   UNL     1     -36.808 -26.807  11.206  1.00  0.00     0.004 C 
ENDBRANCH  18  19
ENDBRANCH  17  18
ENDBRANCH  16  17
ENDBRANCH  15  16
ENDBRANCH  14  15
ENDBRANCH  13  14
ENDBRANCH   2  13
TORSDOF 15
ENDMDL
MODEL 2
REMARK VINA RESULT:    -4.700      1.955      4.342
REMARK INTER + INTRA:         -11.348
REMARK INTER:                  -8.804
REMARK INTRA:                  -2.544
REMARK UNBOUND:                -2.526
REMARK SMILES CCCCCCCCC=CCCCCCCCC(=O)[O-]
REMARK SMILES IDX 10 1 9 2 11 3 12 4 13 5 14 6 15 7 16 8 17 9 18 10 19 11
REMARK SMILES IDX 20 12 8 13 7 14 6 15 5 16 4 17 3 18 2 19 1 20
REMARK H PARENT
REMARK Flexibility Score: inf
ROOT
ATOM      1  C   UNL     1     -38.020 -31.179   4.385  1.00  0.00    -0.031 C 
ATOM      2  C   UNL     1     -38.095 -31.835   5.553  1.00  0.00    -0.031 C 
ENDROOT
BRANCH   1   3
ATOM      3  C   UNL     1     -36.741 -31.116   3.597  1.00  0.00     0.027 C 
BRANCH   3   4
ATOM      4  C   UNL     1     -35.975 -32.443   3.680  1.00  0.00     0.004 C 
BRANCH   4   5
ATOM      5  C   UNL     1     -34.542 -32.219   4.186  1.00  0.00     0.000 C 
BRANCH   5   6
ATOM      6  C   UNL     1     -34.384 -32.558   5.677  1.00  0.00     0.000 C 
BRANCH   6   7
ATOM      7  C   UNL     1     -34.550 -31.326   6.584  1.00  0.00     0.000 C 
BRANCH   7   8
ATOM      8  C   UNL     1     -34.216 -30.004   5.870  1.00  0.00     0.006 C 
BRANCH   8   9
ATOM      9  C   UNL     1     -33.701 -28.900   6.810  1.00  0.00     0.053 C 
BRANCH   9  10
ATOM     10  C   UNL     1     -32.590 -28.096   6.206  1.00  0.00     0.041 C 
ATOM     11  O   UNL     1     -32.292 -26.968   6.678  1.00  0.00    -0.550 OA
ATOM     12  O   UNL     1     -31.862 -28.609   5.139  1.00  0.00    -0.550 OA
ENDBRANCH   9  10
ENDBRANCH   8   9
ENDBRANCH   7   8
ENDBRANCH   6   7
ENDBRANCH   5   6
ENDBRANCH   4   5
ENDBRANCH   3   4
ENDBRANCH   1   3
BRANCH   2  13
ATOM     13  C   UNL     1     -39.370 -31.884   6.348  1.00  0.00     0.027 C 
BRANCH  13  14
ATOM     14  C   UNL     1     -39.188 -31.225   7.723  1.00  0.00     0.004 C 
BRANCH  14  15
ATOM     15  C   UNL     1     -37.746 -31.331   8.243  1.00  0.00     0.000 C 
BRANCH  15  16
ATOM     16  C   UNL     1     -37.139 -29.962   8.583  1.00  0.00     0.000 C 
BRANCH  16  17
ATOM     17  C   UNL     1     -37.974 -28.825   7.981  1.00  0.00    -0.000 C 
BRANCH  17  18
ATOM     18  C   UNL     1     -37.253 -28.181   6.790  1.00  0.00    -0.000 C 
BRANCH  18  19
ATOM     19  C   UNL     1     -37.247 -26.653   6.913  1.00  0.00    -0.003 C 
ATOM     20  C   UNL     1     -37.486 -26.215   8.354  1.00  0.00     0.004 C 
ENDBRANCH  18  19
ENDBRANCH  17  18
ENDBRANCH  16  17
ENDBRANCH  15  16
ENDBRANCH  14  15
ENDBRANCH  13  14
ENDBRANCH   2  13
TORSDOF 15
ENDMDL
MODEL 3
REMARK VINA RESULT:    -4.680      2.245      5.776
REMARK INTER + INTRA:         -11.310
REMARK INTER:                  -8.750
REMARK INTRA:                  -2.559
REMARK UNBOUND:                -2.526
REMARK SMILES CCCCCCCCC=CCCCCCCCC(=O)[O-]
REMARK SMILES IDX 10 1 9 2 11 3 12 4 13 5 14 6 15 7 16 8 17 9 18 10 19 11
REMARK SMILES IDX 20 12 8 13 7 14 6 15 5 16 4 17 3 18 2 19 1 20
REMARK H PARENT
REMARK Flexibility Score: inf
ROOT
ATOM      1  C   UNL     1     -36.515 -31.392   7.792  1.00  0.00    -0.031 C 
ATOM      2  C   UNL     1     -36.461 -32.730   7.709  1.00  0.00    -0.031 C 
ENDROOT
BRANCH   1   3
ATOM      3  C   UNL     1     -37.658 -30.690   8.470  1.00  0.00     0.027 C 
BRANCH   3   4
ATOM      4  C   UNL     1     -38.019 -29.389   7.741  1.00  0.00     0.004 C 
BRANCH   4   5
ATOM      5  C   UNL     1     -36.886 -28.955   6.799  1.00  0.00     0.000 C 
BRANCH   5   6
ATOM      6  C   UNL     1     -36.929 -27.452   6.479  1.00  0.00     0.000 C 
BRANCH   6   7
ATOM      7  C   UNL     1     -36.715 -26.576   7.725  1.00  0.00     0.000 C 
BRANCH   7   8
ATOM      8  C   UNL     1     -35.392 -26.877   8.453  1.00  0.00     0.006 C 
BRANCH   8   9
ATOM      9  C   UNL     1     -34.279 -25.852   8.172  1.00  0.00     0.053 C 
BRANCH   9  10
ATOM     10  C   UNL     1     -33.221 -26.383   7.253  1.00  0.00     0.041 C 
ATOM     11  O   UNL     1     -33.425 -27.431   6.586  1.00  0.00    -0.550 OA
ATOM     12  O   UNL     1     -32.020 -25.700   7.109  1.00  0.00    -0.550 OA
ENDBRANCH   9  10
ENDBRANCH   8   9
ENDBRANCH   7   8
ENDBRANCH   6   7
ENDBRANCH   5   6
ENDBRANCH   4   5
ENDBRANCH   3   4
ENDBRANCH   1   3
BRANCH   2  13
ATOM     13  C   UNL     1     -35.326 -33.432   7.017  1.00  0.00     0.027 C 
BRANCH  13  14
ATOM     14  C   UNL     1     -34.480 -32.442   6.204  1.00  0.00     0.004 C 
BRANCH  14  15
ATOM     15  C   UNL     1     -34.472 -32.764   4.702  1.00  0.00     0.000 C 
BRANCH  15  16
ATOM     16  C   UNL     1     -34.826 -31.547   3.835  1.00  0.00     0.000 C 
BRANCH  16  17
ATOM     17  C   UNL     1     -36.232 -31.688   3.236  1.00  0.00    -0.000 C 
BRANCH  17  18
ATOM     18  C   UNL     1     -37.248 -30.835   4.006  1.00  0.00    -0.000 C 
BRANCH  18  19
ATOM     19  C   UNL     1     -38.334 -31.713   4.639  1.00  0.00    -0.003 C 
ATOM     20  C   UNL     1     -38.114 -33.186   4.308  1.00  0.00     0.004 C 
ENDBRANCH  18  19
ENDBRANCH  17  18
ENDBRANCH  16  17
ENDBRANCH  15  16
ENDBRANCH  14  15
ENDBRANCH  13  14
ENDBRANCH   2  13
TORSDOF 15
ENDMDL
MODEL 4
REMARK VINA RESULT:    -4.585      2.738      6.211
REMARK INTER + INTRA:         -11.132
REMARK INTER:                  -8.450
REMARK INTRA:                  -2.683
REMARK UNBOUND:                -2.526
REMARK SMILES CCCCCCCCC=CCCCCCCCC(=O)[O-]
REMARK SMILES IDX 10 1 9 2 11 3 12 4 13 5 14 6 15 7 16 8 17 9 18 10 19 11
REMARK SMILES IDX 20 12 8 13 7 14 6 15 5 16 4 17 3 18 2 19 1 20
REMARK H PARENT
REMARK Flexibility Score: inf
ROOT
ATOM      1  C   UNL     1     -37.694 -31.761   8.358  1.00  0.00    -0.031 C 
ATOM      2  C   UNL     1     -38.878 -31.143   8.234  1.00  0.00    -0.031 C 
ENDROOT
BRANCH   1   3
ATOM      3  C   UNL     1     -36.682 -31.328   9.382  1.00  0.00     0.027 C 
BRANCH   3   4
ATOM      4  C   UNL     1     -35.840 -30.154   8.866  1.00  0.00     0.004 C 
BRANCH   4   5
ATOM      5  C   UNL     1     -35.370 -30.407   7.426  1.00  0.00     0.000 C 
BRANCH   5   6
ATOM      6  C   UNL     1     -35.449 -29.145   6.550  1.00  0.00     0.000 C 
BRANCH   6   7
ATOM      7  C   UNL     1     -36.889 -28.808   6.126  1.00  0.00     0.000 C 
BRANCH   7   8
ATOM      8  C   UNL     1     -37.298 -27.366   6.477  1.00  0.00     0.006 C 
BRANCH   8   9
ATOM      9  C   UNL     1     -36.368 -26.684   7.496  1.00  0.00     0.053 C 
BRANCH   9  10
ATOM     10  C   UNL     1     -36.999 -26.534   8.846  1.00  0.00     0.041 C 
ATOM     11  O   UNL     1     -36.493 -25.764   9.704  1.00  0.00    -0.550 OA
ATOM     12  O   UNL     1     -38.168 -27.223   9.147  1.00  0.00    -0.550 OA
ENDBRANCH   9  10
ENDBRANCH   8   9
ENDBRANCH   7   8
ENDBRANCH   6   7
ENDBRANCH   5   6
ENDBRANCH   4   5
ENDBRANCH   3   4
ENDBRANCH   1   3
BRANCH   2  13
ATOM     13  C   UNL     1     -39.883 -31.566   7.199  1.00  0.00     0.027 C 
BRANCH  13  14
ATOM     14  C   UNL     1     -39.398 -32.804   6.432  1.00  0.00     0.004 C 
BRANCH  14  15
ATOM     15  C   UNL     1     -39.515 -32.640   4.909  1.00  0.00     0.000 C 
BRANCH  15  16
ATOM     16  C   UNL     1     -38.457 -31.686   4.335  1.00  0.00     0.000 C 
BRANCH  16  17
ATOM     17  C   UNL     1     -37.069 -32.338   4.340  1.00  0.00    -0.000 C 
BRANCH  17  18
ATOM     18  C   UNL     1     -36.047 -31.466   3.600  1.00  0.00    -0.000 C 
BRANCH  18  19
ATOM     19  C   UNL     1     -34.634 -32.049   3.723  1.00  0.00    -0.003 C 
ATOM     20  C   UNL     1     -34.491 -32.881   4.995  1.00  0.00     0.004 C 
ENDBRANCH  18  19
ENDBRANCH  17  18
ENDBRANCH  16  17
ENDBRANCH  15  16
ENDBRANCH  14  15
ENDBRANCH  13  14
ENDBRANCH   2  13
TORSDOF 15
ENDMDL
MODEL 5
REMARK VINA RESULT:    -4.556     14.499     16.123
REMARK INTER + INTRA:         -11.078
REMARK INTER:                  -9.903
REMARK INTRA:                  -1.175
REMARK UNBOUND:                -2.526
REMARK SMILES CCCCCCCCC=CCCCCCCCC(=O)[O-]
REMARK SMILES IDX 10 1 9 2 11 3 12 4 13 5 14 6 15 7 16 8 17 9 18 10 19 11
REMARK SMILES IDX 20 12 8 13 7 14 6 15 5 16 4 17 3 18 2 19 1 20
REMARK H PARENT
REMARK Flexibility Score: inf
ROOT
ATOM      1  C   UNL     1     -45.691 -15.830   7.331  1.00  0.00    -0.031 C 
ATOM      2  C   UNL     1     -44.363 -15.759   7.153  1.00  0.00    -0.031 C 
ENDROOT
BRANCH   1   3
ATOM      3  C   UNL     1     -46.632 -14.890   6.630  1.00  0.00     0.027 C 
BRANCH   3   4
ATOM      4  C   UNL     1     -45.961 -14.241   5.413  1.00  0.00     0.004 C 
BRANCH   4   5
ATOM      5  C   UNL     1     -46.706 -14.600   4.119  1.00  0.00     0.000 C 
BRANCH   5   6
ATOM      6  C   UNL     1     -45.770 -14.677   2.901  1.00  0.00     0.000 C 
BRANCH   6   7
ATOM      7  C   UNL     1     -44.495 -15.489   3.186  1.00  0.00     0.000 C 
BRANCH   7   8
ATOM      8  C   UNL     1     -44.528 -16.898   2.564  1.00  0.00     0.006 C 
BRANCH   8   9
ATOM      9  C   UNL     1     -45.614 -17.081   1.490  1.00  0.00     0.053 C 
BRANCH   9  10
ATOM     10  C   UNL     1     -45.753 -18.504   1.043  1.00  0.00     0.041 C 
ATOM     11  O   UNL     1     -46.072 -18.769  -0.146  1.00  0.00    -0.550 OA
ATOM     12  O   UNL     1     -45.500 -19.540   1.934  1.00  0.00    -0.550 OA
ENDBRANCH   9  10
ENDBRANCH   8   9
ENDBRANCH   7   8
ENDBRANCH   6   7
ENDBRANCH   5   6
ENDBRANCH   4   5
ENDBRANCH   3   4
ENDBRANCH   1   3
BRANCH   2  13
ATOM     13  C   UNL     1     -43.422 -16.689   7.866  1.00  0.00     0.027 C 
BRANCH  13  14
ATOM     14  C   UNL     1     -44.186 -17.632   8.807  1.00  0.00     0.004 C 
BRANCH  14  15
ATOM     15  C   UNL     1     -43.467 -17.839  10.149  1.00  0.00     0.000 C 
BRANCH  15  16
ATOM     16  C   UNL     1     -44.330 -18.593  11.171  1.00  0.00     0.000 C 
BRANCH  16  17
ATOM     17  C   UNL     1     -45.372 -17.662  11.804  1.00  0.00    -0.000 C 
BRANCH  17  18
ATOM     18  C   UNL     1     -45.956 -18.276  13.082  1.00  0.00    -0.000 C 
BRANCH  18  19
ATOM     19  C   UNL     1     -46.173 -19.785  12.918  1.00  0.00    -0.003 C 
ATOM     20  C   UNL     1     -47.660 -20.129  12.905  1.00  0.00     0.004 C 
ENDBRANCH  18  19
ENDBRANCH  17  18
ENDBRANCH  16  17
ENDBRANCH  15  16
ENDBRANCH  14  15
ENDBRANCH  13  14
ENDBRANCH   2  13
TORSDOF 15
ENDMDL
MODEL 6
REMARK VINA RESULT:    -4.544     14.270     15.908
REMARK INTER + INTRA:         -11.054
REMARK INTER:                  -9.667
REMARK INTRA:                  -1.387
REMARK UNBOUND:                -2.526
REMARK SMILES CCCCCCCCC=CCCCCCCCC(=O)[O-]
REMARK SMILES IDX 10 1 9 2 11 3 12 4 13 5 14 6 15 7 16 8 17 9 18 10 19 11
REMARK SMILES IDX 20 12 8 13 7 14 6 15 5 16 4 17 3 18 2 19 1 20
REMARK H PARENT
REMARK Flexibility Score: inf
ROOT
ATOM      1  C   UNL     1     -43.830 -16.088   7.371  1.00  0.00    -0.031 C 
ATOM      2  C   UNL     1     -44.598 -16.920   8.092  1.00  0.00    -0.031 C 
ENDROOT
BRANCH   1   3
ATOM      3  C   UNL     1     -44.428 -15.089   6.420  1.00  0.00     0.027 C 
BRANCH   3   4
ATOM      4  C   UNL     1     -45.959 -15.083   6.514  1.00  0.00     0.004 C 
BRANCH   4   5
ATOM      5  C   UNL     1     -46.578 -14.324   5.331  1.00  0.00     0.000 C 
BRANCH   5   6
ATOM      6  C   UNL     1     -45.649 -14.281   4.106  1.00  0.00     0.000 C 
BRANCH   6   7
ATOM      7  C   UNL     1     -46.128 -15.199   2.969  1.00  0.00     0.000 C 
BRANCH   7   8
ATOM      8  C   UNL     1     -44.971 -15.895   2.229  1.00  0.00     0.006 C 
BRANCH   8   9
ATOM      9  C   UNL     1     -43.602 -15.723   2.910  1.00  0.00     0.053 C 
BRANCH   9  10
ATOM     10  C   UNL     1     -42.982 -17.028   3.302  1.00  0.00     0.041 C 
ATOM     11  O   UNL     1     -42.297 -17.117   4.355  1.00  0.00    -0.550 OA
ATOM     12  O   UNL     1     -43.186 -18.158   2.518  1.00  0.00    -0.550 OA
ENDBRANCH   9  10
ENDBRANCH   8   9
ENDBRANCH   7   8
ENDBRANCH   6   7
ENDBRANCH   5   6
ENDBRANCH   4   5
ENDBRANCH   3   4
ENDBRANCH   1   3
BRANCH   2  13
ATOM     13  C   UNL     1     -44.000 -17.930   9.030  1.00  0.00     0.027 C 
BRANCH  13  14
ATOM     14  C   UNL     1     -42.909 -17.294   9.904  1.00  0.00     0.004 C 
BRANCH  14  15
ATOM     15  C   UNL     1     -42.738 -18.009  11.252  1.00  0.00     0.000 C 
BRANCH  15  16
ATOM     16  C   UNL     1     -44.056 -18.593  11.782  1.00  0.00     0.000 C 
BRANCH  16  17
ATOM     17  C   UNL     1     -44.740 -17.618  12.749  1.00  0.00    -0.000 C 
BRANCH  17  18
ATOM     18  C   UNL     1     -46.024 -18.225  13.327  1.00  0.00    -0.000 C 
BRANCH  18  19
ATOM     19  C   UNL     1     -46.351 -19.563  12.654  1.00  0.00    -0.003 C 
ATOM     20  C   UNL     1     -47.757 -20.032  13.016  1.00  0.00     0.004 C 
ENDBRANCH  18  19
ENDBRANCH  17  18
ENDBRANCH  16  17
ENDBRANCH  15  16
ENDBRANCH  14  15
ENDBRANCH  13  14
ENDBRANCH   2  13
TORSDOF 15
ENDMDL
MODEL 7
REMARK VINA RESULT:    -4.526      2.988      6.203
REMARK INTER + INTRA:         -11.021
REMARK INTER:                  -8.614
REMARK INTRA:                  -2.407
REMARK UNBOUND:                -2.526
REMARK SMILES CCCCCCCCC=CCCCCCCCC(=O)[O-]
REMARK SMILES IDX 10 1 9 2 11 3 12 4 13 5 14 6 15 7 16 8 17 9 18 10 19 11
REMARK SMILES IDX 20 12 8 13 7 14 6 15 5 16 4 17 3 18 2 19 1 20
REMARK H PARENT
REMARK Flexibility Score: inf
ROOT
ATOM      1  C   UNL     1     -36.773 -32.421   7.324  1.00  0.00    -0.031 C 
ATOM      2  C   UNL     1     -36.260 -33.649   7.152  1.00  0.00    -0.031 C 
ENDROOT
BRANCH   1   3
ATOM      3  C   UNL     1     -37.951 -32.177   8.225  1.00  0.00     0.027 C 
BRANCH   3   4
ATOM      4  C   UNL     1     -38.464 -30.738   8.088  1.00  0.00     0.004 C 
BRANCH   4   5
ATOM      5  C   UNL     1     -37.306 -29.733   8.165  1.00  0.00     0.000 C 
BRANCH   5   6
ATOM      6  C   UNL     1     -37.264 -28.788   6.952  1.00  0.00     0.000 C 
BRANCH   6   7
ATOM      7  C   UNL     1     -36.383 -27.551   7.197  1.00  0.00     0.000 C 
BRANCH   7   8
ATOM      8  C   UNL     1     -37.199 -26.273   7.463  1.00  0.00     0.006 C 
BRANCH   8   9
ATOM      9  C   UNL     1     -37.870 -26.238   8.847  1.00  0.00     0.053 C 
BRANCH   9  10
ATOM     10  C   UNL     1     -36.881 -26.300   9.971  1.00  0.00     0.041 C 
ATOM     11  O   UNL     1     -35.903 -25.509  10.004  1.00  0.00    -0.550 OA
ATOM     12  O   UNL     1     -37.059 -27.216  11.002  1.00  0.00    -0.550 OA
ENDBRANCH   9  10
ENDBRANCH   8   9
ENDBRANCH   7   8
ENDBRANCH   6   7
ENDBRANCH   5   6
ENDBRANCH   4   5
ENDBRANCH   3   4
ENDBRANCH   1   3
BRANCH   2  13
ATOM     13  C   UNL     1     -35.092 -33.895   6.239  1.00  0.00     0.027 C 
BRANCH  13  14
ATOM     14  C   UNL     1     -34.560 -32.577   5.656  1.00  0.00     0.004 C 
BRANCH  14  15
ATOM     15  C   UNL     1     -34.375 -32.636   4.133  1.00  0.00     0.000 C 
BRANCH  15  16
ATOM     16  C   UNL     1     -35.626 -32.181   3.367  1.00  0.00     0.000 C 
BRANCH  16  17
ATOM     17  C   UNL     1     -36.238 -30.929   4.009  1.00  0.00    -0.000 C 
BRANCH  17  18
ATOM     18  C   UNL     1     -37.744 -31.105   4.234  1.00  0.00    -0.000 C 
BRANCH  18  19
ATOM     19  C   UNL     1     -38.142 -32.584   4.161  1.00  0.00    -0.003 C 
ATOM     20  C   UNL     1     -39.585 -32.789   4.612  1.00  0.00     0.004 C 
ENDBRANCH  18  19
ENDBRANCH  17  18
ENDBRANCH  16  17
ENDBRANCH  15  16
ENDBRANCH  14  15
ENDBRANCH  13  14
ENDBRANCH   2  13
TORSDOF 15
ENDMDL
MODEL 8
REMARK VINA RESULT:    -4.498      2.064      3.700
REMARK INTER + INTRA:         -10.968
REMARK INTER:                  -8.628
REMARK INTRA:                  -2.340
REMARK UNBOUND:                -2.526
REMARK SMILES CCCCCCCCC=CCCCCCCCC(=O)[O-]
REMARK SMILES IDX 10 1 9 2 11 3 12 4 13 5 14 6 15 7 16 8 17 9 18 10 19 11
REMARK SMILES IDX 20 12 8 13 7 14 6 15 5 16 4 17 3 18 2 19 1 20
REMARK H PARENT
REMARK Flexibility Score: inf
ROOT
ATOM      1  C   UNL     1     -34.358 -30.823   5.044  1.00  0.00    -0.031 C 
ATOM      2  C   UNL     1     -34.405 -30.846   6.385  1.00  0.00    -0.031 C 
ENDROOT
BRANCH   1   3
ATOM      3  C   UNL     1     -34.412 -32.087   4.231  1.00  0.00     0.027 C 
BRANCH   3   4
ATOM      4  C   UNL     1     -35.775 -32.247   3.546  1.00  0.00     0.004 C 
BRANCH   4   5
ATOM      5  C   UNL     1     -36.685 -31.047   3.847  1.00  0.00     0.000 C 
BRANCH   5   6
ATOM      6  C   UNL     1     -37.996 -31.460   4.537  1.00  0.00     0.000 C 
BRANCH   6   7
ATOM      7  C   UNL     1     -37.776 -31.956   5.976  1.00  0.00     0.000 C 
BRANCH   7   8
ATOM      8  C   UNL     1     -38.777 -31.355   6.980  1.00  0.00     0.006 C 
BRANCH   8   9
ATOM      9  C   UNL     1     -38.571 -31.832   8.428  1.00  0.00     0.053 C 
BRANCH   9  10
ATOM     10  C   UNL     1     -37.180 -31.585   8.927  1.00  0.00     0.041 C 
ATOM     11  O   UNL     1     -36.861 -30.458   9.390  1.00  0.00    -0.550 OA
ATOM     12  O   UNL     1     -36.243 -32.611   8.909  1.00  0.00    -0.550 OA
ENDBRANCH   9  10
ENDBRANCH   8   9
ENDBRANCH   7   8
ENDBRANCH   6   7
ENDBRANCH   5   6
ENDBRANCH   4   5
ENDBRANCH   3   4
ENDBRANCH   1   3
BRANCH   2  13
ATOM     13  C   UNL     1     -34.335 -29.583   7.197  1.00  0.00     0.027 C 
BRANCH  13  14
ATOM     14  C   UNL     1     -35.039 -28.425   6.478  1.00  0.00     0.004 C 
BRANCH  14  15
ATOM     15  C   UNL     1     -36.570 -28.505   6.584  1.00  0.00     0.000 C 
BRANCH  15  16
ATOM     16  C   UNL     1     -37.256 -27.171   6.255  1.00  0.00     0.000 C 
BRANCH  16  17
ATOM     17  C   UNL     1     -37.286 -26.252   7.483  1.00  0.00    -0.000 C 
BRANCH  17  18
ATOM     18  C   UNL     1     -37.670 -27.030   8.746  1.00  0.00    -0.000 C 
BRANCH  18  19
ATOM     19  C   UNL     1     -36.854 -26.554   9.954  1.00  0.00    -0.003 C 
ATOM     20  C   UNL     1     -35.511 -25.977   9.519  1.00  0.00     0.004 C 
ENDBRANCH  18  19
ENDBRANCH  17  18
ENDBRANCH  16  17
ENDBRANCH  15  16
ENDBRANCH  14  15
ENDBRANCH  13  14
ENDBRANCH   2  13
TORSDOF 15
ENDMDL
MODEL 9
REMARK VINA RESULT:    -4.496     14.754     16.787
REMARK INTER + INTRA:         -10.965
REMARK INTER:                  -8.496
REMARK INTRA:                  -2.470
REMARK UNBOUND:                -2.526
REMARK SMILES CCCCCCCCC=CCCCCCCCC(=O)[O-]
REMARK SMILES IDX 10 1 9 2 11 3 12 4 13 5 14 6 15 7 16 8 17 9 18 10 19 11
REMARK SMILES IDX 20 12 8 13 7 14 6 15 5 16 4 17 3 18 2 19 1 20
REMARK H PARENT
REMARK Flexibility Score: inf
ROOT
ATOM      1  C   UNL     1     -45.163 -19.000  -2.425  1.00  0.00    -0.031 C 
ATOM      2  C   UNL     1     -45.384 -18.396  -3.603  1.00  0.00    -0.031 C 
ENDROOT
BRANCH   1   3
ATOM      3  C   UNL     1     -45.988 -18.682  -1.209  1.00  0.00     0.027 C 
BRANCH   3   4
ATOM      4  C   UNL     1     -45.815 -19.755  -0.127  1.00  0.00     0.004 C 
BRANCH   4   5
ATOM      5  C   UNL     1     -45.735 -19.119   1.269  1.00  0.00     0.000 C 
BRANCH   5   6
ATOM      6  C   UNL     1     -45.794 -17.583   1.221  1.00  0.00     0.000 C 
BRANCH   6   7
ATOM      7  C   UNL     1     -44.795 -16.923   2.187  1.00  0.00     0.000 C 
BRANCH   7   8
ATOM      8  C   UNL     1     -43.398 -16.730   1.568  1.00  0.00     0.006 C 
BRANCH   8   9
ATOM      9  C   UNL     1     -42.433 -17.900   1.829  1.00  0.00     0.053 C 
BRANCH   9  10
ATOM     10  C   UNL     1     -42.107 -18.670   0.586  1.00  0.00     0.041 C 
ATOM     11  O   UNL     1     -41.686 -19.854   0.663  1.00  0.00    -0.550 OA
ATOM     12  O   UNL     1     -42.298 -18.088  -0.662  1.00  0.00    -0.550 OA
ENDBRANCH   9  10
ENDBRANCH   8   9
ENDBRANCH   7   8
ENDBRANCH   6   7
ENDBRANCH   5   6
ENDBRANCH   4   5
ENDBRANCH   3   4
ENDBRANCH   1   3
BRANCH   2  13
ATOM     13  C   UNL     1     -44.548 -18.703  -4.815  1.00  0.00     0.027 C 
BRANCH  13  14
ATOM     14  C   UNL     1     -44.798 -20.136  -5.309  1.00  0.00     0.004 C 
BRANCH  14  15
ATOM     15  C   UNL     1     -46.198 -20.317  -5.913  1.00  0.00     0.000 C 
BRANCH  15  16
ATOM     16  C   UNL     1     -47.002 -21.427  -5.220  1.00  0.00     0.000 C 
BRANCH  16  17
ATOM     17  C   UNL     1     -46.121 -22.215  -4.242  1.00  0.00    -0.000 C 
BRANCH  17  18
ATOM     18  C   UNL     1     -46.726 -22.216  -2.833  1.00  0.00    -0.000 C 
BRANCH  18  19
ATOM     19  C   UNL     1     -48.044 -21.432  -2.800  1.00  0.00    -0.003 C 
ATOM     20  C   UNL     1     -48.685 -21.490  -1.416  1.00  0.00     0.004 C 
ENDBRANCH  18  19
ENDBRANCH  17  18
ENDBRANCH  16  17
ENDBRANCH  15  16
ENDBRANCH  14  15
ENDBRANCH  13  14
ENDBRANCH   2  13
TORSDOF 15
ENDMDL
