MODEL 1
REMARK VINA RESULT:    -6.249      0.000      0.000
REMARK INTER + INTRA:          -6.615
REMARK INTER:                  -6.615
REMARK INTRA:                   0.000
REMARK UNBOUND:                 0.000
REMARK SMILES O=c1ccc2cc(O)c(O)cc2o1
REMARK SMILES IDX 4 1 3 2 2 3 1 4 13 5 12 6 11 7 9 8 7 9 6 10 5 11 8 12 10 14
REMARK H PARENT 8 13 10 15
REMARK Flexibility Score: inf
ROOT
ATOM      1  C   UNL     1     -31.481  -3.983 -16.762  1.00  0.00     0.019 A 
ATOM      2  C   UNL     1     -32.473  -4.596 -15.999  1.00  0.00     0.094 A 
ATOM      3  C   UNL     1     -33.792  -4.585 -16.467  1.00  0.00     0.336 A 
ATOM      4  O   UNL     1     -34.702  -5.134 -15.792  1.00  0.00    -0.246 OA
ATOM      5  O   UNL     1     -34.092  -3.997 -17.621  1.00  0.00    -0.423 OA
ATOM      6  C   UNL     1     -33.176  -3.400 -18.380  1.00  0.00     0.142 A 
ATOM      7  C   UNL     1     -33.551  -2.797 -19.584  1.00  0.00     0.098 A 
ATOM      8  C   UNL     1     -32.592  -2.167 -20.388  1.00  0.00     0.161 A 
ATOM      9  C   UNL     1     -31.245  -2.138 -19.983  1.00  0.00     0.158 A 
ATOM     10  C   UNL     1     -30.865  -2.741 -18.775  1.00  0.00     0.062 A 
ATOM     11  C   UNL     1     -31.825  -3.372 -17.972  1.00  0.00     0.022 A 
ENDROOT
BRANCH   9  12
ATOM     12  O   UNL     1     -30.290  -1.510 -20.782  1.00  0.00    -0.504 OA
ATOM     13  H   UNL     1     -30.332  -1.554 -21.793  1.00  0.00     0.293 HD
ENDBRANCH   9  12
BRANCH   8  14
ATOM     14  O   UNL     1     -32.997  -1.575 -21.584  1.00  0.00    -0.504 OA
ATOM     15  H   UNL     1     -32.443  -1.637 -22.430  1.00  0.00     0.293 HD
ENDBRANCH   8  14
TORSDOF 2
ENDMDL
MODEL 2
REMARK VINA RESULT:    -5.997      1.258      2.404
REMARK INTER + INTRA:          -6.348
REMARK INTER:                  -6.348
REMARK INTRA:                   0.000
REMARK UNBOUND:                 0.000
REMARK SMILES O=c1ccc2cc(O)c(O)cc2o1
REMARK SMILES IDX 4 1 3 2 2 3 1 4 13 5 12 6 11 7 9 8 7 9 6 10 5 11 8 12 10 14
REMARK H PARENT 8 13 10 15
REMARK Flexibility Score: inf
ROOT
ATOM      1  C   UNL     1     -34.296  -3.111 -18.901  1.00  0.00     0.019 A 
ATOM      2  C   UNL     1     -34.576  -3.640 -17.641  1.00  0.00     0.094 A 
ATOM      3  C   UNL     1     -33.514  -3.942 -16.781  1.00  0.00     0.336 A 
ATOM      4  O   UNL     1     -33.746  -4.419 -15.640  1.00  0.00    -0.246 OA
ATOM      5  O   UNL     1     -32.257  -3.727 -17.162  1.00  0.00    -0.423 OA
ATOM      6  C   UNL     1     -31.946  -3.225 -18.355  1.00  0.00     0.142 A 
ATOM      7  C   UNL     1     -30.607  -3.022 -18.700  1.00  0.00     0.098 A 
ATOM      8  C   UNL     1     -30.272  -2.493 -19.953  1.00  0.00     0.161 A 
ATOM      9  C   UNL     1     -31.286  -2.166 -20.871  1.00  0.00     0.158 A 
ATOM     10  C   UNL     1     -32.631  -2.369 -20.529  1.00  0.00     0.062 A 
ATOM     11  C   UNL     1     -32.966  -2.896 -19.274  1.00  0.00     0.022 A 
ENDROOT
BRANCH   9  12
ATOM     12  O   UNL     1     -30.954  -1.640 -22.119  1.00  0.00    -0.504 OA
ATOM     13  H   UNL     1     -30.661  -2.234 -22.886  1.00  0.00     0.293 HD
ENDBRANCH   9  12
BRANCH   8  14
ATOM     14  O   UNL     1     -28.927  -2.302 -20.267  1.00  0.00    -0.504 OA
ATOM     15  H   UNL     1     -28.187  -2.820 -19.807  1.00  0.00     0.293 HD
ENDBRANCH   8  14
TORSDOF 2
ENDMDL
MODEL 3
REMARK VINA RESULT:    -5.964      2.235      3.716
REMARK INTER + INTRA:          -6.312
REMARK INTER:                  -6.312
REMARK INTRA:                   0.000
REMARK UNBOUND:                 0.000
REMARK SMILES O=c1ccc2cc(O)c(O)cc2o1
REMARK SMILES IDX 4 1 3 2 2 3 1 4 13 5 12 6 11 7 9 8 7 9 6 10 5 11 8 12 10 14
REMARK H PARENT 8 13 10 15
REMARK Flexibility Score: inf
ROOT
ATOM      1  C   UNL     1     -34.807  -5.284 -17.404  1.00  0.00     0.019 A 
ATOM      2  C   UNL     1     -35.845  -4.533 -17.953  1.00  0.00     0.094 A 
ATOM      3  C   UNL     1     -35.553  -3.291 -18.527  1.00  0.00     0.336 A 
ATOM      4  O   UNL     1     -36.476  -2.598 -19.028  1.00  0.00    -0.246 OA
ATOM      5  O   UNL     1     -34.303  -2.836 -18.548  1.00  0.00    -0.423 OA
ATOM      6  C   UNL     1     -33.283  -3.521 -18.035  1.00  0.00     0.142 A 
ATOM      7  C   UNL     1     -31.990  -2.991 -18.086  1.00  0.00     0.098 A 
ATOM      8  C   UNL     1     -30.912  -3.706 -17.549  1.00  0.00     0.161 A 
ATOM      9  C   UNL     1     -31.128  -4.962 -16.954  1.00  0.00     0.158 A 
ATOM     10  C   UNL     1     -32.425  -5.497 -16.901  1.00  0.00     0.062 A 
ATOM     11  C   UNL     1     -33.502  -4.781 -17.440  1.00  0.00     0.022 A 
ENDROOT
BRANCH   9  12
ATOM     12  O   UNL     1     -30.056  -5.674 -16.419  1.00  0.00    -0.504 OA
ATOM     13  H   UNL     1     -29.461  -5.279 -15.700  1.00  0.00     0.293 HD
ENDBRANCH   9  12
BRANCH   8  14
ATOM     14  O   UNL     1     -29.634  -3.151 -17.615  1.00  0.00    -0.504 OA
ATOM     15  H   UNL     1     -29.100  -3.130 -18.475  1.00  0.00     0.293 HD
ENDBRANCH   8  14
TORSDOF 2
ENDMDL
MODEL 4
REMARK VINA RESULT:    -5.908      1.685      5.194
REMARK INTER + INTRA:          -6.253
REMARK INTER:                  -6.253
REMARK INTRA:                   0.000
REMARK UNBOUND:                 0.000
REMARK SMILES O=c1ccc2cc(O)c(O)cc2o1
REMARK SMILES IDX 4 1 3 2 2 3 1 4 13 5 12 6 11 7 9 8 7 9 6 10 5 11 8 12 10 14
REMARK H PARENT 8 13 10 15
REMARK Flexibility Score: inf
ROOT
ATOM      1  C   UNL     1     -31.621  -1.931 -21.093  1.00  0.00     0.019 A 
ATOM      2  C   UNL     1     -30.359  -1.669 -21.624  1.00  0.00     0.094 A 
ATOM      3  C   UNL     1     -29.225  -1.999 -20.872  1.00  0.00     0.336 A 
ATOM      4  O   UNL     1     -28.077  -1.770 -21.334  1.00  0.00    -0.246 OA
ATOM      5  O   UNL     1     -29.353  -2.553 -19.669  1.00  0.00    -0.423 OA
ATOM      6  C   UNL     1     -30.539  -2.819 -19.126  1.00  0.00     0.142 A 
ATOM      7  C   UNL     1     -30.611  -3.402 -17.857  1.00  0.00     0.098 A 
ATOM      8  C   UNL     1     -31.854  -3.686 -17.279  1.00  0.00     0.161 A 
ATOM      9  C   UNL     1     -33.038  -3.382 -17.975  1.00  0.00     0.158 A 
ATOM     10  C   UNL     1     -32.970  -2.797 -19.249  1.00  0.00     0.062 A 
ATOM     11  C   UNL     1     -31.725  -2.514 -19.827  1.00  0.00     0.022 A 
ENDROOT
BRANCH   9  12
ATOM     12  O   UNL     1     -34.277  -3.664 -17.401  1.00  0.00    -0.504 OA
ATOM     13  H   UNL     1     -34.396  -3.725 -16.397  1.00  0.00     0.293 HD
ENDBRANCH   9  12
BRANCH   8  14
ATOM     14  O   UNL     1     -31.893  -4.268 -16.012  1.00  0.00    -0.504 OA
ATOM     15  H   UNL     1     -32.610  -4.932 -15.747  1.00  0.00     0.293 HD
ENDBRANCH   8  14
TORSDOF 2
ENDMDL
MODEL 5
REMARK VINA RESULT:    -5.837      6.527      8.212
REMARK INTER + INTRA:          -6.178
REMARK INTER:                  -6.178
REMARK INTRA:                   0.000
REMARK UNBOUND:                 0.000
REMARK SMILES O=c1ccc2cc(O)c(O)cc2o1
REMARK SMILES IDX 4 1 3 2 2 3 1 4 13 5 12 6 11 7 9 8 7 9 6 10 5 11 8 12 10 14
REMARK H PARENT 8 13 10 15
REMARK Flexibility Score: inf
ROOT
ATOM      1  C   UNL     1     -37.395  -8.415 -13.837  1.00  0.00     0.019 A 
ATOM      2  C   UNL     1     -38.622  -9.069 -13.735  1.00  0.00     0.094 A 
ATOM      3  C   UNL     1     -39.774  -8.314 -13.487  1.00  0.00     0.336 A 
ATOM      4  O   UNL     1     -40.891  -8.886 -13.392  1.00  0.00    -0.246 OA
ATOM      5  O   UNL     1     -39.697  -6.993 -13.350  1.00  0.00    -0.423 OA
ATOM      6  C   UNL     1     -38.547  -6.330 -13.440  1.00  0.00     0.142 A 
ATOM      7  C   UNL     1     -38.527  -4.940 -13.287  1.00  0.00     0.098 A 
ATOM      8  C   UNL     1     -37.321  -4.235 -13.380  1.00  0.00     0.161 A 
ATOM      9  C   UNL     1     -36.121  -4.926 -13.627  1.00  0.00     0.158 A 
ATOM     10  C   UNL     1     -36.136  -6.321 -13.781  1.00  0.00     0.062 A 
ATOM     11  C   UNL     1     -37.344  -7.025 -13.689  1.00  0.00     0.022 A 
ENDROOT
BRANCH   9  12
ATOM     12  O   UNL     1     -34.919  -4.226 -13.720  1.00  0.00    -0.504 OA
ATOM     13  H   UNL     1     -34.516  -3.978 -14.616  1.00  0.00     0.293 HD
ENDBRANCH   9  12
BRANCH   8  14
ATOM     14  O   UNL     1     -37.334  -2.850 -13.223  1.00  0.00    -0.504 OA
ATOM     15  H   UNL     1     -38.087  -2.369 -12.746  1.00  0.00     0.293 HD
ENDBRANCH   8  14
TORSDOF 2
ENDMDL
MODEL 6
REMARK VINA RESULT:    -5.835      2.263      3.621
REMARK INTER + INTRA:          -6.176
REMARK INTER:                  -6.176
REMARK INTRA:                   0.000
REMARK UNBOUND:                 0.000
REMARK SMILES O=c1ccc2cc(O)c(O)cc2o1
REMARK SMILES IDX 4 1 3 2 2 3 1 4 13 5 12 6 11 7 9 8 7 9 6 10 5 11 8 12 10 14
REMARK H PARENT 8 13 10 15
REMARK Flexibility Score: inf
ROOT
ATOM      1  C   UNL     1     -34.493  -2.811 -18.744  1.00  0.00     0.019 A 
ATOM      2  C   UNL     1     -35.760  -3.392 -18.732  1.00  0.00     0.094 A 
ATOM      3  C   UNL     1     -35.926  -4.644 -18.128  1.00  0.00     0.336 A 
ATOM      4  O   UNL     1     -37.063  -5.184 -18.106  1.00  0.00    -0.246 OA
ATOM      5  O   UNL     1     -34.889  -5.268 -17.576  1.00  0.00    -0.423 OA
ATOM      6  C   UNL     1     -33.664  -4.749 -17.567  1.00  0.00     0.142 A 
ATOM      7  C   UNL     1     -32.612  -5.452 -16.972  1.00  0.00     0.098 A 
ATOM      8  C   UNL     1     -31.320  -4.913 -16.957  1.00  0.00     0.161 A 
ATOM      9  C   UNL     1     -31.075  -3.658 -17.545  1.00  0.00     0.158 A 
ATOM     10  C   UNL     1     -32.128  -2.950 -18.144  1.00  0.00     0.062 A 
ATOM     11  C   UNL     1     -33.421  -3.490 -18.156  1.00  0.00     0.022 A 
ENDROOT
BRANCH   9  12
ATOM     12  O   UNL     1     -29.789  -3.120 -17.532  1.00  0.00    -0.504 OA
ATOM     13  H   UNL     1     -29.145  -3.264 -18.300  1.00  0.00     0.293 HD
ENDBRANCH   9  12
BRANCH   8  14
ATOM     14  O   UNL     1     -30.292  -5.638 -16.356  1.00  0.00    -0.504 OA
ATOM     15  H   UNL     1     -29.621  -5.206 -15.731  1.00  0.00     0.293 HD
ENDBRANCH   8  14
TORSDOF 2
ENDMDL
MODEL 7
REMARK VINA RESULT:    -5.723      7.518      9.341
REMARK INTER + INTRA:          -6.058
REMARK INTER:                  -6.058
REMARK INTRA:                   0.000
REMARK UNBOUND:                 0.000
REMARK SMILES O=c1ccc2cc(O)c(O)cc2o1
REMARK SMILES IDX 4 1 3 2 2 3 1 4 13 5 12 6 11 7 9 8 7 9 6 10 5 11 8 12 10 14
REMARK H PARENT 8 13 10 15
REMARK Flexibility Score: inf
ROOT
ATOM      1  C   UNL     1     -36.563  -5.973 -13.456  1.00  0.00     0.019 A 
ATOM      2  C   UNL     1     -36.194  -4.727 -12.953  1.00  0.00     0.094 A 
ATOM      3  C   UNL     1     -37.191  -3.854 -12.506  1.00  0.00     0.336 A 
ATOM      4  O   UNL     1     -36.878  -2.724 -12.048  1.00  0.00    -0.246 OA
ATOM      5  O   UNL     1     -38.472  -4.210 -12.562  1.00  0.00    -0.423 OA
ATOM      6  C   UNL     1     -38.867  -5.389 -13.035  1.00  0.00     0.142 A 
ATOM      7  C   UNL     1     -40.228  -5.708 -13.070  1.00  0.00     0.098 A 
ATOM      8  C   UNL     1     -40.652  -6.947 -13.566  1.00  0.00     0.161 A 
ATOM      9  C   UNL     1     -39.706  -7.877 -14.034  1.00  0.00     0.158 A 
ATOM     10  C   UNL     1     -38.339  -7.561 -14.001  1.00  0.00     0.062 A 
ATOM     11  C   UNL     1     -37.916  -6.321 -13.504  1.00  0.00     0.022 A 
ENDROOT
BRANCH   9  12
ATOM     12  O   UNL     1     -40.127  -9.111 -14.529  1.00  0.00    -0.504 OA
ATOM     13  H   UNL     1     -40.304  -9.897 -13.915  1.00  0.00     0.293 HD
ENDBRANCH   9  12
BRANCH   8  14
ATOM     14  O   UNL     1     -42.017  -7.235 -13.588  1.00  0.00    -0.504 OA
ATOM     15  H   UNL     1     -42.369  -8.155 -13.823  1.00  0.00     0.293 HD
ENDBRANCH   8  14
TORSDOF 2
ENDMDL
MODEL 8
REMARK VINA RESULT:    -5.702      7.336      8.219
REMARK INTER + INTRA:          -6.036
REMARK INTER:                  -6.036
REMARK INTRA:                   0.000
REMARK UNBOUND:                 0.000
REMARK SMILES O=c1ccc2cc(O)c(O)cc2o1
REMARK SMILES IDX 4 1 3 2 2 3 1 4 13 5 12 6 11 7 9 8 7 9 6 10 5 11 8 12 10 14
REMARK H PARENT 8 13 10 15
REMARK Flexibility Score: inf
ROOT
ATOM      1  C   UNL     1     -36.048  -4.876 -12.963  1.00  0.00     0.019 A 
ATOM      2  C   UNL     1     -36.643  -3.849 -12.232  1.00  0.00     0.094 A 
ATOM      3  C   UNL     1     -38.039  -3.804 -12.139  1.00  0.00     0.336 A 
ATOM      4  O   UNL     1     -38.595  -2.885 -11.483  1.00  0.00    -0.246 OA
ATOM      5  O   UNL     1     -38.783  -4.727 -12.742  1.00  0.00    -0.423 OA
ATOM      6  C   UNL     1     -38.256  -5.722 -13.450  1.00  0.00     0.142 A 
ATOM      7  C   UNL     1     -39.090  -6.663 -14.062  1.00  0.00     0.098 A 
ATOM      8  C   UNL     1     -38.542  -7.714 -14.808  1.00  0.00     0.161 A 
ATOM      9  C   UNL     1     -37.147  -7.825 -14.946  1.00  0.00     0.158 A 
ATOM     10  C   UNL     1     -36.306  -6.883 -14.334  1.00  0.00     0.062 A 
ATOM     11  C   UNL     1     -36.855  -5.832 -13.586  1.00  0.00     0.022 A 
ENDROOT
BRANCH   9  12
ATOM     12  O   UNL     1     -36.600  -8.870 -15.689  1.00  0.00    -0.504 OA
ATOM     13  H   UNL     1     -36.836  -9.010 -16.664  1.00  0.00     0.293 HD
ENDBRANCH   9  12
BRANCH   8  14
ATOM     14  O   UNL     1     -39.400  -8.637 -15.406  1.00  0.00    -0.504 OA
ATOM     15  H   UNL     1     -39.056  -9.403 -15.973  1.00  0.00     0.293 HD
ENDBRANCH   8  14
TORSDOF 2
ENDMDL
MODEL 9
REMARK VINA RESULT:    -5.686      6.002      9.475
REMARK INTER + INTRA:          -6.018
REMARK INTER:                  -6.018
REMARK INTRA:                   0.000
REMARK UNBOUND:                 0.000
REMARK SMILES O=c1ccc2cc(O)c(O)cc2o1
REMARK SMILES IDX 4 1 3 2 2 3 1 4 13 5 12 6 11 7 9 8 7 9 6 10 5 11 8 12 10 14
REMARK H PARENT 8 13 10 15
REMARK Flexibility Score: inf
ROOT
ATOM      1  C   UNL     1     -37.401  -8.302 -15.653  1.00  0.00     0.019 A 
ATOM      2  C   UNL     1     -36.336  -7.471 -15.997  1.00  0.00     0.094 A 
ATOM      3  C   UNL     1     -36.252  -6.201 -15.415  1.00  0.00     0.336 A 
ATOM      4  O   UNL     1     -35.297  -5.436 -15.712  1.00  0.00    -0.246 OA
ATOM      5  O   UNL     1     -37.176  -5.794 -14.549  1.00  0.00    -0.423 OA
ATOM      6  C   UNL     1     -38.209  -6.555 -14.194  1.00  0.00     0.142 A 
ATOM      7  C   UNL     1     -39.149  -6.074 -13.279  1.00  0.00     0.098 A 
ATOM      8  C   UNL     1     -40.238  -6.868 -12.900  1.00  0.00     0.161 A 
ATOM      9  C   UNL     1     -40.390  -8.157 -13.443  1.00  0.00     0.158 A 
ATOM     10  C   UNL     1     -39.448  -8.644 -14.363  1.00  0.00     0.062 A 
ATOM     11  C   UNL     1     -38.358  -7.848 -14.740  1.00  0.00     0.022 A 
ENDROOT
BRANCH   9  12
ATOM     12  O   UNL     1     -41.474  -8.949 -13.068  1.00  0.00    -0.504 OA
ATOM     13  H   UNL     1     -41.369  -9.939 -12.876  1.00  0.00     0.293 HD
ENDBRANCH   9  12
BRANCH   8  14
ATOM     14  O   UNL     1     -41.160  -6.360 -11.985  1.00  0.00    -0.504 OA
ATOM     15  H   UNL     1     -41.489  -5.403 -12.028  1.00  0.00     0.293 HD
ENDBRANCH   8  14
TORSDOF 2
ENDMDL
