MODEL 1
REMARK VINA RESULT:    -3.130      0.000      0.000
REMARK INTER + INTRA:          -5.336
REMARK INTER:                  -4.228
REMARK INTRA:                  -1.108
REMARK UNBOUND:                -1.108
REMARK SMILES C=C[C@](C)(CCC=C(C)C)OC(C)=O
REMARK SMILES IDX 3 1 4 2 5 3 6 4 7 5 9 6 8 7 10 8 2 9 1 10 11 11 12 12 14 13
REMARK SMILES IDX 13 14
REMARK H PARENT
REMARK Flexibility Score: inf
ROOT
ATOM      1  C   UNL     1      -1.805   3.015  -2.082  1.00  0.00     0.127 C 
ATOM      2  C   UNL     1      -1.396   3.237  -0.611  1.00  0.00     0.061 C 
ENDROOT
BRANCH   1   3
ATOM      3  C   UNL     1      -0.649   2.316  -2.850  1.00  0.00     0.057 C 
BRANCH   3   4
ATOM      4  C   UNL     1       0.696   2.381  -2.103  1.00  0.00     0.032 C 
BRANCH   4   5
ATOM      5  C   UNL     1       1.723   3.123  -2.920  1.00  0.00    -0.028 C 
ATOM      6  C   UNL     1       1.430   5.258  -1.643  1.00  0.00     0.039 C 
ATOM      7  C   UNL     1       2.081   4.410  -2.710  1.00  0.00    -0.080 C 
ATOM      8  C   UNL     1       3.151   5.009  -3.585  1.00  0.00     0.039 C 
ENDBRANCH   4   5
ENDBRANCH   3   4
ENDBRANCH   1   3
BRANCH   1   9
ATOM      9  C   UNL     1      -2.079   4.373  -2.705  1.00  0.00     0.013 C 
ATOM     10  C   UNL     1      -1.622   4.706  -3.917  1.00  0.00     0.008 C 
ENDBRANCH   1   9
BRANCH   1  11
ATOM     11  O   UNL     1      -3.014   2.239  -2.154  1.00  0.00    -0.455 OA
BRANCH  11  12
ATOM     12  C   UNL     1      -3.098   0.844  -2.275  1.00  0.00     0.303 C 
ATOM     13  O   UNL     1      -2.742   0.080  -1.337  1.00  0.00    -0.253 OA
ATOM     14  C   UNL     1      -3.657   0.255  -3.525  1.00  0.00     0.139 C 
ENDBRANCH  11  12
ENDBRANCH   1  11
TORSDOF 6
ENDMDL
MODEL 2
REMARK VINA RESULT:    -3.057      1.375      1.515
REMARK INTER + INTRA:          -5.237
REMARK INTER:                  -4.169
REMARK INTRA:                  -1.067
REMARK UNBOUND:                -1.108
REMARK SMILES C=C[C@](C)(CCC=C(C)C)OC(C)=O
REMARK SMILES IDX 3 1 4 2 5 3 6 4 7 5 9 6 8 7 10 8 2 9 1 10 11 11 12 12 14 13
REMARK SMILES IDX 13 14
REMARK H PARENT
REMARK Flexibility Score: inf
ROOT
ATOM      1  C   UNL     1      -1.915   1.869  -2.716  1.00  0.00     0.127 C 
ATOM      2  C   UNL     1      -1.680   1.356  -1.281  1.00  0.00     0.061 C 
ENDROOT
BRANCH   1   3
ATOM      3  C   UNL     1      -0.566   1.919  -3.485  1.00  0.00     0.057 C 
BRANCH   3   4
ATOM      4  C   UNL     1       0.658   1.952  -2.553  1.00  0.00     0.032 C 
BRANCH   4   5
ATOM      5  C   UNL     1       1.455   3.214  -2.765  1.00  0.00    -0.028 C 
ATOM      6  C   UNL     1       0.471   4.361  -0.768  1.00  0.00     0.039 C 
ATOM      7  C   UNL     1       1.399   4.297  -1.957  1.00  0.00    -0.080 C 
ATOM      8  C   UNL     1       2.282   5.476  -2.275  1.00  0.00     0.039 C 
ENDBRANCH   4   5
ENDBRANCH   3   4
ENDBRANCH   1   3
BRANCH   1   9
ATOM      9  C   UNL     1      -2.499   3.269  -2.626  1.00  0.00     0.013 C 
ATOM     10  C   UNL     1      -2.152   4.242  -3.477  1.00  0.00     0.008 C 
ENDBRANCH   1   9
BRANCH   1  11
ATOM     11  O   UNL     1      -2.866   1.032  -3.397  1.00  0.00    -0.455 OA
BRANCH  11  12
ATOM     12  C   UNL     1      -4.262   1.176  -3.375  1.00  0.00     0.303 C 
ATOM     13  O   UNL     1      -4.925   0.977  -2.322  1.00  0.00    -0.253 OA
ATOM     14  C   UNL     1      -4.968   1.611  -4.613  1.00  0.00     0.139 C 
ENDBRANCH  11  12
ENDBRANCH   1  11
TORSDOF 6
ENDMDL
MODEL 3
REMARK VINA RESULT:    -2.926      1.903      3.325
REMARK INTER + INTRA:          -5.060
REMARK INTER:                  -4.208
REMARK INTRA:                  -0.852
REMARK UNBOUND:                -1.108
REMARK SMILES C=C[C@](C)(CCC=C(C)C)OC(C)=O
REMARK SMILES IDX 3 1 4 2 5 3 6 4 7 5 9 6 8 7 10 8 2 9 1 10 11 11 12 12 14 13
REMARK SMILES IDX 13 14
REMARK H PARENT
REMARK Flexibility Score: inf
ROOT
ATOM      1  C   UNL     1      -3.055   2.895  -2.543  1.00  0.00     0.127 C 
ATOM      2  C   UNL     1      -2.388   3.337  -3.862  1.00  0.00     0.061 C 
ENDROOT
BRANCH   1   3
ATOM      3  C   UNL     1      -2.548   3.783  -1.373  1.00  0.00     0.057 C 
BRANCH   3   4
ATOM      4  C   UNL     1      -1.248   3.257  -0.738  1.00  0.00     0.032 C 
BRANCH   4   5
ATOM      5  C   UNL     1      -0.068   4.088  -1.173  1.00  0.00    -0.028 C 
ATOM      6  C   UNL     1       0.961   2.223  -2.491  1.00  0.00     0.039 C 
ATOM      7  C   UNL     1       0.921   3.644  -1.980  1.00  0.00    -0.080 C 
ATOM      8  C   UNL     1       2.021   4.601  -2.362  1.00  0.00     0.039 C 
ENDBRANCH   4   5
ENDBRANCH   3   4
ENDBRANCH   1   3
BRANCH   1   9
ATOM      9  C   UNL     1      -2.672   1.448  -2.284  1.00  0.00     0.013 C 
ATOM     10  C   UNL     1      -3.527   0.438  -2.482  1.00  0.00     0.008 C 
ENDBRANCH   1   9
BRANCH   1  11
ATOM     11  O   UNL     1      -4.487   2.963  -2.658  1.00  0.00    -0.455 OA
BRANCH  11  12
ATOM     12  C   UNL     1      -5.297   4.049  -2.294  1.00  0.00     0.303 C 
ATOM     13  O   UNL     1      -5.783   4.147  -1.135  1.00  0.00    -0.253 OA
ATOM     14  C   UNL     1      -5.556   5.129  -3.289  1.00  0.00     0.139 C 
ENDBRANCH  11  12
ENDBRANCH   1  11
TORSDOF 6
ENDMDL
MODEL 4
REMARK VINA RESULT:    -2.925      1.411      3.113
REMARK INTER + INTRA:          -5.058
REMARK INTER:                  -4.130
REMARK INTRA:                  -0.928
REMARK UNBOUND:                -1.108
REMARK SMILES C=C[C@](C)(CCC=C(C)C)OC(C)=O
REMARK SMILES IDX 3 1 4 2 5 3 6 4 7 5 9 6 8 7 10 8 2 9 1 10 11 11 12 12 14 13
REMARK SMILES IDX 13 14
REMARK H PARENT
REMARK Flexibility Score: inf
ROOT
ATOM      1  C   UNL     1      -2.404   2.067  -2.450  1.00  0.00     0.127 C 
ATOM      2  C   UNL     1      -1.902   2.203  -3.902  1.00  0.00     0.061 C 
ENDROOT
BRANCH   1   3
ATOM      3  C   UNL     1      -1.196   1.890  -1.490  1.00  0.00     0.057 C 
BRANCH   3   4
ATOM      4  C   UNL     1       0.162   1.981  -2.207  1.00  0.00     0.032 C 
BRANCH   4   5
ATOM      5  C   UNL     1       0.905   3.224  -1.785  1.00  0.00    -0.028 C 
ATOM      6  C   UNL     1       1.444   3.893  -4.138  1.00  0.00     0.039 C 
ATOM      7  C   UNL     1       1.466   4.105  -2.642  1.00  0.00    -0.080 C 
ATOM      8  C   UNL     1       2.147   5.324  -2.074  1.00  0.00     0.039 C 
ENDBRANCH   4   5
ENDBRANCH   3   4
ENDBRANCH   1   3
BRANCH   1   9
ATOM      9  C   UNL     1      -3.297   0.839  -2.374  1.00  0.00     0.013 C 
ATOM     10  C   UNL     1      -3.641   0.140  -3.462  1.00  0.00     0.008 C 
ENDBRANCH   1   9
BRANCH   1  11
ATOM     11  O   UNL     1      -3.191   3.213  -2.083  1.00  0.00    -0.455 OA
BRANCH  11  12
ATOM     12  C   UNL     1      -2.725   4.364  -1.430  1.00  0.00     0.303 C 
ATOM     13  O   UNL     1      -2.839   4.503  -0.182  1.00  0.00    -0.253 OA
ATOM     14  C   UNL     1      -2.045   5.426  -2.224  1.00  0.00     0.139 C 
ENDBRANCH  11  12
ENDBRANCH   1  11
TORSDOF 6
ENDMDL
MODEL 5
REMARK VINA RESULT:    -2.895      1.364      1.639
REMARK INTER + INTRA:          -5.018
REMARK INTER:                  -4.015
REMARK INTRA:                  -1.002
REMARK UNBOUND:                -1.108
REMARK SMILES C=C[C@](C)(CCC=C(C)C)OC(C)=O
REMARK SMILES IDX 3 1 4 2 5 3 6 4 7 5 9 6 8 7 10 8 2 9 1 10 11 11 12 12 14 13
REMARK SMILES IDX 13 14
REMARK H PARENT
REMARK Flexibility Score: inf
ROOT
ATOM      1  C   UNL     1      -2.251   2.845  -2.307  1.00  0.00     0.127 C 
ATOM      2  C   UNL     1      -1.955   3.503  -0.944  1.00  0.00     0.061 C 
ENDROOT
BRANCH   1   3
ATOM      3  C   UNL     1      -1.086   1.893  -2.696  1.00  0.00     0.057 C 
BRANCH   3   4
ATOM      4  C   UNL     1       0.204   2.164  -1.902  1.00  0.00     0.032 C 
BRANCH   4   5
ATOM      5  C   UNL     1       1.311   2.614  -2.823  1.00  0.00    -0.028 C 
ATOM      6  C   UNL     1       1.391   4.924  -1.857  1.00  0.00     0.039 C 
ATOM      7  C   UNL     1       1.870   3.844  -2.798  1.00  0.00    -0.080 C 
ATOM      8  C   UNL     1       2.995   4.139  -3.757  1.00  0.00     0.039 C 
ENDBRANCH   4   5
ENDBRANCH   3   4
ENDBRANCH   1   3
BRANCH   1   9
ATOM      9  C   UNL     1      -2.372   3.947  -3.346  1.00  0.00     0.013 C 
ATOM     10  C   UNL     1      -1.813   3.849  -4.558  1.00  0.00     0.008 C 
ENDBRANCH   1   9
BRANCH   1  11
ATOM     11  O   UNL     1      -3.502   2.137  -2.260  1.00  0.00    -0.455 OA
BRANCH  11  12
ATOM     12  C   UNL     1      -4.769   2.674  -2.534  1.00  0.00     0.303 C 
ATOM     13  O   UNL     1      -5.304   3.520  -1.767  1.00  0.00    -0.253 OA
ATOM     14  C   UNL     1      -5.479   2.264  -3.779  1.00  0.00     0.139 C 
ENDBRANCH  11  12
ENDBRANCH   1  11
TORSDOF 6
ENDMDL
MODEL 6
REMARK VINA RESULT:    -2.882      2.236      5.357
REMARK INTER + INTRA:          -5.000
REMARK INTER:                  -3.984
REMARK INTRA:                  -1.016
REMARK UNBOUND:                -1.108
REMARK SMILES C=C[C@](C)(CCC=C(C)C)OC(C)=O
REMARK SMILES IDX 3 1 4 2 5 3 6 4 7 5 9 6 8 7 10 8 2 9 1 10 11 11 12 12 14 13
REMARK SMILES IDX 13 14
REMARK H PARENT
REMARK Flexibility Score: inf
ROOT
ATOM      1  C   UNL     1      -2.509   2.684  -2.147  1.00  0.00     0.127 C 
ATOM      2  C   UNL     1      -2.200   1.248  -1.678  1.00  0.00     0.061 C 
ENDROOT
BRANCH   1   3
ATOM      3  C   UNL     1      -4.031   2.831  -2.425  1.00  0.00     0.057 C 
BRANCH   3   4
ATOM      4  C   UNL     1      -4.693   1.514  -2.865  1.00  0.00     0.032 C 
BRANCH   4   5
ATOM      5  C   UNL     1      -4.966   1.524  -4.348  1.00  0.00    -0.028 C 
ATOM      6  C   UNL     1      -3.507  -0.464  -4.790  1.00  0.00     0.039 C 
ATOM      7  C   UNL     1      -4.458   0.627  -5.222  1.00  0.00    -0.080 C 
ATOM      8  C   UNL     1      -4.848   0.740  -6.674  1.00  0.00     0.039 C 
ENDBRANCH   4   5
ENDBRANCH   3   4
ENDBRANCH   1   3
BRANCH   1   9
ATOM      9  C   UNL     1      -1.733   2.937  -3.430  1.00  0.00     0.013 C 
ATOM     10  C   UNL     1      -0.863   2.049  -3.923  1.00  0.00     0.008 C 
ENDBRANCH   1   9
BRANCH   1  11
ATOM     11  O   UNL     1      -2.069   3.638  -1.165  1.00  0.00    -0.455 OA
BRANCH  11  12
ATOM     12  C   UNL     1      -1.037   3.452  -0.233  1.00  0.00     0.303 C 
ATOM     13  O   UNL     1      -1.278   3.114   0.957  1.00  0.00    -0.253 OA
ATOM     14  C   UNL     1       0.378   3.621  -0.673  1.00  0.00     0.139 C 
ENDBRANCH  11  12
ENDBRANCH   1  11
TORSDOF 6
ENDMDL
MODEL 7
REMARK VINA RESULT:    -2.803      2.275      4.996
REMARK INTER + INTRA:          -4.894
REMARK INTER:                  -3.944
REMARK INTRA:                  -0.950
REMARK UNBOUND:                -1.108
REMARK SMILES C=C[C@](C)(CCC=C(C)C)OC(C)=O
REMARK SMILES IDX 3 1 4 2 5 3 6 4 7 5 9 6 8 7 10 8 2 9 1 10 11 11 12 12 14 13
REMARK SMILES IDX 13 14
REMARK H PARENT
REMARK Flexibility Score: inf
ROOT
ATOM      1  C   UNL     1      -0.545   2.546  -2.081  1.00  0.00     0.127 C 
ATOM      2  C   UNL     1       0.408   1.995  -3.161  1.00  0.00     0.061 C 
ENDROOT
BRANCH   1   3
ATOM      3  C   UNL     1      -1.570   1.452  -1.674  1.00  0.00     0.057 C 
BRANCH   3   4
ATOM      4  C   UNL     1      -2.968   1.683  -2.276  1.00  0.00     0.032 C 
BRANCH   4   5
ATOM      5  C   UNL     1      -3.386   0.506  -3.120  1.00  0.00    -0.028 C 
ATOM      6  C   UNL     1      -2.710   1.603  -5.268  1.00  0.00     0.039 C 
ATOM      7  C   UNL     1      -3.255   0.446  -4.464  1.00  0.00    -0.080 C 
ATOM      8  C   UNL     1      -3.685  -0.813  -5.171  1.00  0.00     0.039 C 
ENDBRANCH   4   5
ENDBRANCH   3   4
ENDBRANCH   1   3
BRANCH   1   9
ATOM      9  C   UNL     1      -1.282   3.739  -2.667  1.00  0.00     0.013 C 
ATOM     10  C   UNL     1      -0.757   4.493  -3.640  1.00  0.00     0.008 C 
ENDBRANCH   1   9
BRANCH   1  11
ATOM     11  O   UNL     1       0.203   3.002  -0.940  1.00  0.00    -0.455 OA
BRANCH  11  12
ATOM     12  C   UNL     1      -0.197   3.991  -0.028  1.00  0.00     0.303 C 
ATOM     13  O   UNL     1       0.235   5.172  -0.109  1.00  0.00    -0.253 OA
ATOM     14  C   UNL     1      -1.184   3.644   1.034  1.00  0.00     0.139 C 
ENDBRANCH  11  12
ENDBRANCH   1  11
TORSDOF 6
ENDMDL
MODEL 8
REMARK VINA RESULT:    -2.757      2.105      5.394
REMARK INTER + INTRA:          -4.831
REMARK INTER:                  -4.218
REMARK INTRA:                  -0.614
REMARK UNBOUND:                -1.108
REMARK SMILES C=C[C@](C)(CCC=C(C)C)OC(C)=O
REMARK SMILES IDX 3 1 4 2 5 3 6 4 7 5 9 6 8 7 10 8 2 9 1 10 11 11 12 12 14 13
REMARK SMILES IDX 13 14
REMARK H PARENT
REMARK Flexibility Score: inf
ROOT
ATOM      1  C   UNL     1      -1.471   2.109  -2.606  1.00  0.00     0.127 C 
ATOM      2  C   UNL     1      -1.921   1.183  -1.457  1.00  0.00     0.061 C 
ENDROOT
BRANCH   1   3
ATOM      3  C   UNL     1      -2.170   1.687  -3.928  1.00  0.00     0.057 C 
BRANCH   3   4
ATOM      4  C   UNL     1      -3.493   0.936  -3.696  1.00  0.00     0.032 C 
BRANCH   4   5
ATOM      5  C   UNL     1      -3.517  -0.355  -4.475  1.00  0.00    -0.028 C 
ATOM      6  C   UNL     1      -4.742   0.653  -6.414  1.00  0.00     0.039 C 
ATOM      7  C   UNL     1      -4.054  -0.492  -5.708  1.00  0.00    -0.080 C 
ATOM      8  C   UNL     1      -3.972  -1.838  -6.381  1.00  0.00     0.039 C 
ENDBRANCH   4   5
ENDBRANCH   3   4
ENDBRANCH   1   3
BRANCH   1   9
ATOM      9  C   UNL     1       0.035   1.968  -2.762  1.00  0.00     0.013 C 
ATOM     10  C   UNL     1       0.896   2.639  -1.988  1.00  0.00     0.008 C 
ENDBRANCH   1   9
BRANCH   1  11
ATOM     11  O   UNL     1      -1.759   3.481  -2.286  1.00  0.00    -0.455 OA
BRANCH  11  12
ATOM     12  C   UNL     1      -2.731   3.935  -1.381  1.00  0.00     0.303 C 
ATOM     13  O   UNL     1      -2.439   4.211  -0.187  1.00  0.00    -0.253 OA
ATOM     14  C   UNL     1      -4.130   4.131  -1.856  1.00  0.00     0.139 C 
ENDBRANCH  11  12
ENDBRANCH   1  11
TORSDOF 6
ENDMDL
MODEL 9
REMARK VINA RESULT:    -2.659      2.406      5.314
REMARK INTER + INTRA:          -4.699
REMARK INTER:                  -3.589
REMARK INTRA:                  -1.110
REMARK UNBOUND:                -1.108
REMARK SMILES C=C[C@](C)(CCC=C(C)C)OC(C)=O
REMARK SMILES IDX 3 1 4 2 5 3 6 4 7 5 9 6 8 7 10 8 2 9 1 10 11 11 12 12 14 13
REMARK SMILES IDX 13 14
REMARK H PARENT
REMARK Flexibility Score: inf
ROOT
ATOM      1  C   UNL     1      -1.117   2.550  -2.389  1.00  0.00     0.127 C 
ATOM      2  C   UNL     1      -1.744   1.483  -1.468  1.00  0.00     0.061 C 
ENDROOT
BRANCH   1   3
ATOM      3  C   UNL     1      -2.014   3.818  -2.412  1.00  0.00     0.057 C 
BRANCH   3   4
ATOM      4  C   UNL     1      -3.428   3.566  -1.859  1.00  0.00     0.032 C 
BRANCH   4   5
ATOM      5  C   UNL     1      -4.472   3.875  -2.902  1.00  0.00    -0.028 C 
ATOM      6  C   UNL     1      -4.863   1.464  -3.454  1.00  0.00     0.039 C 
ATOM      7  C   UNL     1      -5.142   2.940  -3.611  1.00  0.00    -0.080 C 
ATOM      8  C   UNL     1      -6.186   3.398  -4.597  1.00  0.00     0.039 C 
ENDBRANCH   4   5
ENDBRANCH   3   4
ENDBRANCH   1   3
BRANCH   1   9
ATOM      9  C   UNL     1      -1.026   1.968  -3.791  1.00  0.00     0.013 C 
ATOM     10  C   UNL     1      -1.361   2.673  -4.878  1.00  0.00     0.008 C 
ENDBRANCH   1   9
BRANCH   1  11
ATOM     11  O   UNL     1       0.215   2.869  -1.952  1.00  0.00    -0.455 OA
BRANCH  11  12
ATOM     12  C   UNL     1       0.574   3.899  -1.069  1.00  0.00     0.303 C 
ATOM     13  O   UNL     1       0.314   3.828   0.162  1.00  0.00    -0.253 OA
ATOM     14  C   UNL     1       1.313   5.082  -1.594  1.00  0.00     0.139 C 
ENDBRANCH  11  12
ENDBRANCH   1  11
TORSDOF 6
ENDMDL
