MODEL 1
REMARK VINA RESULT:    -4.286      0.000      0.000
REMARK INTER + INTRA:          -9.718
REMARK INTER:                  -8.045
REMARK INTRA:                  -1.673
REMARK UNBOUND:                -1.673
REMARK SMILES CCCCCCCCC=CCCCCCCCC(=O)[O-]
REMARK SMILES IDX 10 1 9 2 11 3 12 4 13 5 14 6 15 7 16 8 17 9 18 10 19 11
REMARK SMILES IDX 20 12 8 13 7 14 6 15 5 16 4 17 3 18 2 19 1 20
REMARK H PARENT
REMARK Flexibility Score: inf
ROOT
ATOM      1  C   UNL     1       9.220 -28.001  33.696  1.00  0.00    -0.031 C 
ATOM      2  C   UNL     1       8.871 -29.297  33.800  1.00  0.00    -0.031 C 
ENDROOT
BRANCH   1   3
ATOM      3  C   UNL     1       8.494 -26.984  32.853  1.00  0.00     0.027 C 
BRANCH   3   4
ATOM      4  C   UNL     1       9.481 -26.212  31.969  1.00  0.00     0.004 C 
BRANCH   4   5
ATOM      5  C   UNL     1      10.440 -27.168  31.250  1.00  0.00     0.000 C 
BRANCH   5   6
ATOM      6  C   UNL     1      10.927 -26.563  29.923  1.00  0.00     0.000 C 
BRANCH   6   7
ATOM      7  C   UNL     1      10.929 -25.026  29.937  1.00  0.00     0.000 C 
BRANCH   7   8
ATOM      8  C   UNL     1      11.293 -24.422  28.570  1.00  0.00     0.006 C 
BRANCH   8   9
ATOM      9  C   UNL     1      10.074 -23.815  27.863  1.00  0.00     0.053 C 
BRANCH   9  10
ATOM     10  C   UNL     1       9.665 -24.619  26.668  1.00  0.00     0.041 C 
ATOM     11  O   UNL     1      10.314 -25.648  26.344  1.00  0.00    -0.550 OA
ATOM     12  O   UNL     1       8.547 -24.250  25.929  1.00  0.00    -0.550 OA
ENDBRANCH   9  10
ENDBRANCH   8   9
ENDBRANCH   7   8
ENDBRANCH   6   7
ENDBRANCH   5   6
ENDBRANCH   4   5
ENDBRANCH   3   4
ENDBRANCH   1   3
BRANCH   2  13
ATOM     13  C   UNL     1       7.761 -29.953  33.016  1.00  0.00     0.027 C 
BRANCH  13  14
ATOM     14  C   UNL     1       8.302 -30.975  32.006  1.00  0.00     0.004 C 
BRANCH  14  15
ATOM     15  C   UNL     1       7.643 -32.355  32.171  1.00  0.00     0.000 C 
BRANCH  15  16
ATOM     16  C   UNL     1       8.521 -33.340  32.959  1.00  0.00     0.000 C 
BRANCH  16  17
ATOM     17  C   UNL     1      10.016 -33.187  32.639  1.00  0.00    -0.000 C 
BRANCH  17  18
ATOM     18  C   UNL     1      10.820 -32.879  33.910  1.00  0.00    -0.000 C 
BRANCH  18  19
ATOM     19  C   UNL     1       9.937 -32.802  35.165  1.00  0.00    -0.003 C 
ATOM     20  C   UNL     1      10.375 -31.701  36.129  1.00  0.00     0.004 C 
ENDBRANCH  18  19
ENDBRANCH  17  18
ENDBRANCH  16  17
ENDBRANCH  15  16
ENDBRANCH  14  15
ENDBRANCH  13  14
ENDBRANCH   2  13
TORSDOF 15
ENDMDL
MODEL 2
REMARK VINA RESULT:    -4.170      2.098      4.476
REMARK INTER + INTRA:          -9.499
REMARK INTER:                  -7.520
REMARK INTRA:                  -1.979
REMARK UNBOUND:                -1.673
REMARK SMILES CCCCCCCCC=CCCCCCCCC(=O)[O-]
REMARK SMILES IDX 10 1 9 2 11 3 12 4 13 5 14 6 15 7 16 8 17 9 18 10 19 11
REMARK SMILES IDX 20 12 8 13 7 14 6 15 5 16 4 17 3 18 2 19 1 20
REMARK H PARENT
REMARK Flexibility Score: inf
ROOT
ATOM      1  C   UNL     1      10.923 -28.509  29.156  1.00  0.00    -0.031 C 
ATOM      2  C   UNL     1      10.454 -27.928  30.277  1.00  0.00    -0.031 C 
ENDROOT
BRANCH   1   3
ATOM      3  C   UNL     1      11.050 -27.818  27.823  1.00  0.00     0.027 C 
BRANCH   3   4
ATOM      4  C   UNL     1       9.780 -28.018  26.987  1.00  0.00     0.004 C 
BRANCH   4   5
ATOM      5  C   UNL     1       8.976 -26.716  26.887  1.00  0.00     0.000 C 
BRANCH   5   6
ATOM      6  C   UNL     1       9.874 -25.551  26.439  1.00  0.00     0.000 C 
BRANCH   6   7
ATOM      7  C   UNL     1       9.573 -24.246  27.193  1.00  0.00     0.000 C 
BRANCH   7   8
ATOM      8  C   UNL     1      10.668 -23.885  28.211  1.00  0.00     0.006 C 
BRANCH   8   9
ATOM      9  C   UNL     1      12.072 -24.222  27.694  1.00  0.00     0.053 C 
BRANCH   9  10
ATOM     10  C   UNL     1      12.939 -24.800  28.770  1.00  0.00     0.041 C 
ATOM     11  O   UNL     1      12.748 -24.485  29.975  1.00  0.00    -0.550 OA
ATOM     12  O   UNL     1      13.937 -25.712  28.448  1.00  0.00    -0.550 OA
ENDBRANCH   9  10
ENDBRANCH   8   9
ENDBRANCH   7   8
ENDBRANCH   6   7
ENDBRANCH   5   6
ENDBRANCH   4   5
ENDBRANCH   3   4
ENDBRANCH   1   3
BRANCH   2  13
ATOM     13  C   UNL     1       9.895 -26.528  30.348  1.00  0.00     0.027 C 
BRANCH  13  14
ATOM     14  C   UNL     1       9.689 -26.069  31.799  1.00  0.00     0.004 C 
BRANCH  14  15
ATOM     15  C   UNL     1       8.660 -26.939  32.541  1.00  0.00     0.000 C 
BRANCH  15  16
ATOM     16  C   UNL     1       9.296 -27.788  33.653  1.00  0.00     0.000 C 
BRANCH  16  17
ATOM     17  C   UNL     1       8.407 -28.968  34.078  1.00  0.00    -0.000 C 
BRANCH  17  18
ATOM     18  C   UNL     1       7.737 -29.617  32.858  1.00  0.00    -0.000 C 
BRANCH  18  19
ATOM     19  C   UNL     1       7.967 -31.134  32.795  1.00  0.00    -0.003 C 
ATOM     20  C   UNL     1       9.162 -31.586  33.633  1.00  0.00     0.004 C 
ENDBRANCH  18  19
ENDBRANCH  17  18
ENDBRANCH  16  17
ENDBRANCH  15  16
ENDBRANCH  14  15
ENDBRANCH  13  14
ENDBRANCH   2  13
TORSDOF 15
ENDMDL
MODEL 3
REMARK VINA RESULT:    -4.159      1.800      4.412
REMARK INTER + INTRA:          -9.478
REMARK INTER:                  -7.994
REMARK INTRA:                  -1.484
REMARK UNBOUND:                -1.673
REMARK SMILES CCCCCCCCC=CCCCCCCCC(=O)[O-]
REMARK SMILES IDX 10 1 9 2 11 3 12 4 13 5 14 6 15 7 16 8 17 9 18 10 19 11
REMARK SMILES IDX 20 12 8 13 7 14 6 15 5 16 4 17 3 18 2 19 1 20
REMARK H PARENT
REMARK Flexibility Score: inf
ROOT
ATOM      1  C   UNL     1      11.776 -25.207  29.890  1.00  0.00    -0.031 C 
ATOM      2  C   UNL     1      11.542 -26.407  30.456  1.00  0.00    -0.031 C 
ENDROOT
BRANCH   1   3
ATOM      3  C   UNL     1      10.725 -24.151  29.660  1.00  0.00     0.027 C 
BRANCH   3   4
ATOM      4  C   UNL     1       9.930 -24.448  28.383  1.00  0.00     0.004 C 
BRANCH   4   5
ATOM      5  C   UNL     1      10.864 -24.846  27.234  1.00  0.00     0.000 C 
BRANCH   5   6
ATOM      6  C   UNL     1      10.382 -26.140  26.558  1.00  0.00     0.000 C 
BRANCH   6   7
ATOM      7  C   UNL     1       9.175 -26.768  27.272  1.00  0.00     0.000 C 
BRANCH   7   8
ATOM      8  C   UNL     1       7.922 -26.821  26.381  1.00  0.00     0.006 C 
BRANCH   8   9
ATOM      9  C   UNL     1       8.223 -26.405  24.935  1.00  0.00     0.053 C 
BRANCH   9  10
ATOM     10  C   UNL     1       7.506 -25.146  24.557  1.00  0.00     0.041 C 
ATOM     11  O   UNL     1       7.630 -24.110  25.261  1.00  0.00    -0.550 OA
ATOM     12  O   UNL     1       6.725 -25.107  23.408  1.00  0.00    -0.550 OA
ENDBRANCH   9  10
ENDBRANCH   8   9
ENDBRANCH   7   8
ENDBRANCH   6   7
ENDBRANCH   5   6
ENDBRANCH   4   5
ENDBRANCH   3   4
ENDBRANCH   1   3
BRANCH   2  13
ATOM     13  C   UNL     1      10.180 -26.915  30.859  1.00  0.00     0.027 C 
BRANCH  13  14
ATOM     14  C   UNL     1       9.710 -26.298  32.185  1.00  0.00     0.004 C 
BRANCH  14  15
ATOM     15  C   UNL     1       8.371 -26.891  32.655  1.00  0.00     0.000 C 
BRANCH  15  16
ATOM     16  C   UNL     1       8.551 -28.029  33.671  1.00  0.00     0.000 C 
BRANCH  16  17
ATOM     17  C   UNL     1       7.718 -29.272  33.321  1.00  0.00    -0.000 C 
BRANCH  17  18
ATOM     18  C   UNL     1       8.542 -30.271  32.496  1.00  0.00    -0.000 C 
BRANCH  18  19
ATOM     19  C   UNL     1       8.194 -31.732  32.816  1.00  0.00    -0.003 C 
ATOM     20  C   UNL     1       7.097 -32.290  31.911  1.00  0.00     0.004 C 
ENDBRANCH  18  19
ENDBRANCH  17  18
ENDBRANCH  16  17
ENDBRANCH  15  16
ENDBRANCH  14  15
ENDBRANCH  13  14
ENDBRANCH   2  13
TORSDOF 15
ENDMDL
MODEL 4
REMARK VINA RESULT:    -4.125      1.815      3.645
REMARK INTER + INTRA:          -9.416
REMARK INTER:                  -7.202
REMARK INTRA:                  -2.214
REMARK UNBOUND:                -1.673
REMARK SMILES CCCCCCCCC=CCCCCCCCC(=O)[O-]
REMARK SMILES IDX 10 1 9 2 11 3 12 4 13 5 14 6 15 7 16 8 17 9 18 10 19 11
REMARK SMILES IDX 20 12 8 13 7 14 6 15 5 16 4 17 3 18 2 19 1 20
REMARK H PARENT
REMARK Flexibility Score: inf
ROOT
ATOM      1  C   UNL     1      11.148 -27.650  30.377  1.00  0.00    -0.031 C 
ATOM      2  C   UNL     1       9.832 -27.859  30.578  1.00  0.00    -0.031 C 
ENDROOT
BRANCH   1   3
ATOM      3  C   UNL     1      11.908 -26.447  30.874  1.00  0.00     0.027 C 
BRANCH   3   4
ATOM      4  C   UNL     1      12.115 -25.433  29.742  1.00  0.00     0.004 C 
BRANCH   4   5
ATOM      5  C   UNL     1      11.251 -24.185  29.957  1.00  0.00     0.000 C 
BRANCH   5   6
ATOM      6  C   UNL     1      10.019 -24.205  29.039  1.00  0.00     0.000 C 
BRANCH   6   7
ATOM      7  C   UNL     1      10.372 -24.529  27.579  1.00  0.00     0.000 C 
BRANCH   7   8
ATOM      8  C   UNL     1       9.227 -25.239  26.836  1.00  0.00     0.006 C 
BRANCH   8   9
ATOM      9  C   UNL     1       9.230 -26.754  27.083  1.00  0.00     0.053 C 
BRANCH   9  10
ATOM     10  C   UNL     1       8.172 -27.451  26.284  1.00  0.00     0.041 C 
ATOM     11  O   UNL     1       8.425 -28.548  25.719  1.00  0.00    -0.550 OA
ATOM     12  O   UNL     1       6.898 -26.906  26.188  1.00  0.00    -0.550 OA
ENDBRANCH   9  10
ENDBRANCH   8   9
ENDBRANCH   7   8
ENDBRANCH   6   7
ENDBRANCH   5   6
ENDBRANCH   4   5
ENDBRANCH   3   4
ENDBRANCH   1   3
BRANCH   2  13
ATOM     13  C   UNL     1       8.899 -26.878  31.245  1.00  0.00     0.027 C 
BRANCH  13  14
ATOM     14  C   UNL     1       9.141 -26.800  32.759  1.00  0.00     0.004 C 
BRANCH  14  15
ATOM     15  C   UNL     1       9.174 -28.193  33.412  1.00  0.00     0.000 C 
BRANCH  15  16
ATOM     16  C   UNL     1       7.782 -28.838  33.498  1.00  0.00     0.000 C 
BRANCH  16  17
ATOM     17  C   UNL     1       7.721 -30.208  32.804  1.00  0.00    -0.000 C 
BRANCH  17  18
ATOM     18  C   UNL     1       8.907 -31.088  33.222  1.00  0.00    -0.000 C 
BRANCH  18  19
ATOM     19  C   UNL     1       9.287 -32.119  32.148  1.00  0.00    -0.003 C 
ATOM     20  C   UNL     1       9.886 -31.475  30.898  1.00  0.00     0.004 C 
ENDBRANCH  18  19
ENDBRANCH  17  18
ENDBRANCH  16  17
ENDBRANCH  15  16
ENDBRANCH  14  15
ENDBRANCH  13  14
ENDBRANCH   2  13
TORSDOF 15
ENDMDL
MODEL 5
REMARK VINA RESULT:    -4.122      3.868      7.712
REMARK INTER + INTRA:          -9.409
REMARK INTER:                  -7.541
REMARK INTRA:                  -1.868
REMARK UNBOUND:                -1.673
REMARK SMILES CCCCCCCCC=CCCCCCCCC(=O)[O-]
REMARK SMILES IDX 10 1 9 2 11 3 12 4 13 5 14 6 15 7 16 8 17 9 18 10 19 11
REMARK SMILES IDX 20 12 8 13 7 14 6 15 5 16 4 17 3 18 2 19 1 20
REMARK H PARENT
REMARK Flexibility Score: inf
ROOT
ATOM      1  C   UNL     1      10.752 -26.398  31.380  1.00  0.00    -0.031 C 
ATOM      2  C   UNL     1      11.291 -25.593  30.444  1.00  0.00    -0.031 C 
ENDROOT
BRANCH   1   3
ATOM      3  C   UNL     1       9.460 -26.120  32.105  1.00  0.00     0.027 C 
BRANCH   3   4
ATOM      4  C   UNL     1       8.525 -27.333  32.028  1.00  0.00     0.004 C 
BRANCH   4   5
ATOM      5  C   UNL     1       8.409 -28.025  33.391  1.00  0.00     0.000 C 
BRANCH   5   6
ATOM      6  C   UNL     1       7.764 -29.413  33.249  1.00  0.00     0.000 C 
BRANCH   6   7
ATOM      7  C   UNL     1       8.568 -30.350  32.334  1.00  0.00     0.000 C 
BRANCH   7   8
ATOM      8  C   UNL     1       8.609 -31.797  32.857  1.00  0.00     0.006 C 
BRANCH   8   9
ATOM      9  C   UNL     1       9.287 -31.896  34.230  1.00  0.00     0.053 C 
BRANCH   9  10
ATOM     10  C   UNL     1      10.430 -32.863  34.219  1.00  0.00     0.041 C 
ATOM     11  O   UNL     1      10.681 -33.559  35.238  1.00  0.00    -0.550 OA
ATOM     12  O   UNL     1      11.199 -33.020  33.072  1.00  0.00    -0.550 OA
ENDBRANCH   9  10
ENDBRANCH   8   9
ENDBRANCH   7   8
ENDBRANCH   6   7
ENDBRANCH   5   6
ENDBRANCH   4   5
ENDBRANCH   3   4
ENDBRANCH   1   3
BRANCH   2  13
ATOM     13  C   UNL     1      10.737 -24.247  30.047  1.00  0.00     0.027 C 
BRANCH  13  14
ATOM     14  C   UNL     1      10.151 -24.268  28.627  1.00  0.00     0.004 C 
BRANCH  14  15
ATOM     15  C   UNL     1      10.531 -25.547  27.863  1.00  0.00     0.000 C 
BRANCH  15  16
ATOM     16  C   UNL     1       9.303 -26.355  27.415  1.00  0.00     0.000 C 
BRANCH  16  17
ATOM     17  C   UNL     1       9.616 -27.846  27.218  1.00  0.00    -0.000 C 
BRANCH  17  18
ATOM     18  C   UNL     1      10.815 -28.273  28.076  1.00  0.00    -0.000 C 
BRANCH  18  19
ATOM     19  C   UNL     1      10.424 -29.249  29.196  1.00  0.00    -0.003 C 
ATOM     20  C   UNL     1      11.129 -30.600  29.076  1.00  0.00     0.004 C 
ENDBRANCH  18  19
ENDBRANCH  17  18
ENDBRANCH  16  17
ENDBRANCH  15  16
ENDBRANCH  14  15
ENDBRANCH  13  14
ENDBRANCH   2  13
TORSDOF 15
ENDMDL
MODEL 6
REMARK VINA RESULT:    -4.121      1.943      3.453
REMARK INTER + INTRA:          -9.408
REMARK INTER:                  -7.900
REMARK INTRA:                  -1.509
REMARK UNBOUND:                -1.673
REMARK SMILES CCCCCCCCC=CCCCCCCCC(=O)[O-]
REMARK SMILES IDX 10 1 9 2 11 3 12 4 13 5 14 6 15 7 16 8 17 9 18 10 19 11
REMARK SMILES IDX 20 12 8 13 7 14 6 15 5 16 4 17 3 18 2 19 1 20
REMARK H PARENT
REMARK Flexibility Score: inf
ROOT
ATOM      1  C   UNL     1      10.479 -26.552  30.518  1.00  0.00    -0.031 C 
ATOM      2  C   UNL     1       9.823 -27.570  31.107  1.00  0.00    -0.031 C 
ENDROOT
BRANCH   1   3
ATOM      3  C   UNL     1      10.169 -25.093  30.737  1.00  0.00     0.027 C 
BRANCH   3   4
ATOM      4  C   UNL     1      10.784 -24.236  29.624  1.00  0.00     0.004 C 
BRANCH   4   5
ATOM      5  C   UNL     1       9.928 -24.290  28.353  1.00  0.00     0.000 C 
BRANCH   5   6
ATOM      6  C   UNL     1      10.726 -24.878  27.179  1.00  0.00     0.000 C 
BRANCH   6   7
ATOM      7  C   UNL     1       9.893 -25.840  26.318  1.00  0.00     0.000 C 
BRANCH   7   8
ATOM      8  C   UNL     1       8.949 -26.719  27.156  1.00  0.00     0.006 C 
BRANCH   8   9
ATOM      9  C   UNL     1       7.606 -26.959  26.454  1.00  0.00     0.053 C 
BRANCH   9  10
ATOM     10  C   UNL     1       7.760 -27.809  25.230  1.00  0.00     0.041 C 
ATOM     11  O   UNL     1       7.287 -27.425  24.128  1.00  0.00    -0.550 OA
ATOM     12  O   UNL     1       8.455 -29.010  25.299  1.00  0.00    -0.550 OA
ENDBRANCH   9  10
ENDBRANCH   8   9
ENDBRANCH   7   8
ENDBRANCH   6   7
ENDBRANCH   5   6
ENDBRANCH   4   5
ENDBRANCH   3   4
ENDBRANCH   1   3
BRANCH   2  13
ATOM     13  C   UNL     1       8.618 -27.411  32.002  1.00  0.00     0.027 C 
BRANCH  13  14
ATOM     14  C   UNL     1       8.965 -27.662  33.477  1.00  0.00     0.004 C 
BRANCH  14  15
ATOM     15  C   UNL     1       8.329 -28.957  34.008  1.00  0.00     0.000 C 
BRANCH  15  16
ATOM     16  C   UNL     1       7.690 -29.802  32.895  1.00  0.00     0.000 C 
BRANCH  16  17
ATOM     17  C   UNL     1       8.026 -31.297  33.019  1.00  0.00    -0.000 C 
BRANCH  17  18
ATOM     18  C   UNL     1       9.466 -31.496  33.510  1.00  0.00    -0.000 C 
BRANCH  18  19
ATOM     19  C   UNL     1       9.545 -32.359  34.778  1.00  0.00    -0.003 C 
ATOM     20  C   UNL     1      10.341 -31.692  35.899  1.00  0.00     0.004 C 
ENDBRANCH  18  19
ENDBRANCH  17  18
ENDBRANCH  16  17
ENDBRANCH  15  16
ENDBRANCH  14  15
ENDBRANCH  13  14
ENDBRANCH   2  13
TORSDOF 15
ENDMDL
MODEL 7
REMARK VINA RESULT:    -4.110      1.332      3.029
REMARK INTER + INTRA:          -9.387
REMARK INTER:                  -7.787
REMARK INTRA:                  -1.600
REMARK UNBOUND:                -1.673
REMARK SMILES CCCCCCCCC=CCCCCCCCC(=O)[O-]
REMARK SMILES IDX 10 1 9 2 11 3 12 4 13 5 14 6 15 7 16 8 17 9 18 10 19 11
REMARK SMILES IDX 20 12 8 13 7 14 6 15 5 16 4 17 3 18 2 19 1 20
REMARK H PARENT
REMARK Flexibility Score: inf
ROOT
ATOM      1  C   UNL     1       7.466 -31.694  32.494  1.00  0.00    -0.031 C 
ATOM      2  C   UNL     1       7.511 -32.534  31.442  1.00  0.00    -0.031 C 
ENDROOT
BRANCH   1   3
ATOM      3  C   UNL     1       8.357 -30.490  32.665  1.00  0.00     0.027 C 
BRANCH   3   4
ATOM      4  C   UNL     1       7.584 -29.334  33.311  1.00  0.00     0.004 C 
BRANCH   4   5
ATOM      5  C   UNL     1       8.539 -28.228  33.780  1.00  0.00     0.000 C 
BRANCH   5   6
ATOM      6  C   UNL     1       8.586 -27.077  32.762  1.00  0.00     0.000 C 
BRANCH   6   7
ATOM      7  C   UNL     1       9.937 -26.983  32.036  1.00  0.00     0.000 C 
BRANCH   7   8
ATOM      8  C   UNL     1      10.103 -25.663  31.263  1.00  0.00     0.006 C 
BRANCH   8   9
ATOM      9  C   UNL     1      10.903 -25.849  29.967  1.00  0.00     0.053 C 
BRANCH   9  10
ATOM     10  C   UNL     1      10.202 -25.248  28.788  1.00  0.00     0.041 C 
ATOM     11  O   UNL     1       9.769 -25.986  27.864  1.00  0.00    -0.550 OA
ATOM     12  O   UNL     1       9.999 -23.875  28.723  1.00  0.00    -0.550 OA
ENDBRANCH   9  10
ENDBRANCH   8   9
ENDBRANCH   7   8
ENDBRANCH   6   7
ENDBRANCH   5   6
ENDBRANCH   4   5
ENDBRANCH   3   4
ENDBRANCH   1   3
BRANCH   2  13
ATOM     13  C   UNL     1       8.519 -32.456  30.323  1.00  0.00     0.027 C 
BRANCH  13  14
ATOM     14  C   UNL     1       9.618 -33.519  30.469  1.00  0.00     0.004 C 
BRANCH  14  15
ATOM     15  C   UNL     1      10.767 -33.042  31.372  1.00  0.00     0.000 C 
BRANCH  15  16
ATOM     16  C   UNL     1      10.794 -33.766  32.727  1.00  0.00     0.000 C 
BRANCH  16  17
ATOM     17  C   UNL     1      11.987 -33.346  33.599  1.00  0.00    -0.000 C 
BRANCH  17  18
ATOM     18  C   UNL     1      11.580 -33.251  35.076  1.00  0.00    -0.000 C 
BRANCH  18  19
ATOM     19  C   UNL     1      10.167 -32.678  35.265  1.00  0.00    -0.003 C 
ATOM     20  C   UNL     1      10.178 -31.214  35.704  1.00  0.00     0.004 C 
ENDBRANCH  18  19
ENDBRANCH  17  18
ENDBRANCH  16  17
ENDBRANCH  15  16
ENDBRANCH  14  15
ENDBRANCH  13  14
ENDBRANCH   2  13
TORSDOF 15
ENDMDL
MODEL 8
REMARK VINA RESULT:    -4.096      0.929      1.960
REMARK INTER + INTRA:          -9.361
REMARK INTER:                  -7.968
REMARK INTRA:                  -1.393
REMARK UNBOUND:                -1.673
REMARK SMILES CCCCCCCCC=CCCCCCCCC(=O)[O-]
REMARK SMILES IDX 10 1 9 2 11 3 12 4 13 5 14 6 15 7 16 8 17 9 18 10 19 11
REMARK SMILES IDX 20 12 8 13 7 14 6 15 5 16 4 17 3 18 2 19 1 20
REMARK H PARENT
REMARK Flexibility Score: inf
ROOT
ATOM      1  C   UNL     1       9.268 -26.670  31.424  1.00  0.00    -0.031 C 
ATOM      2  C   UNL     1       8.545 -26.689  32.560  1.00  0.00    -0.031 C 
ENDROOT
BRANCH   1   3
ATOM      3  C   UNL     1      10.224 -27.756  31.000  1.00  0.00     0.027 C 
BRANCH   3   4
ATOM      4  C   UNL     1      11.039 -27.313  29.779  1.00  0.00     0.004 C 
BRANCH   4   5
ATOM      5  C   UNL     1      12.299 -26.551  30.207  1.00  0.00     0.000 C 
BRANCH   5   6
ATOM      6  C   UNL     1      12.189 -25.061  29.848  1.00  0.00     0.000 C 
BRANCH   6   7
ATOM      7  C   UNL     1      12.069 -24.822  28.334  1.00  0.00     0.000 C 
BRANCH   7   8
ATOM      8  C   UNL     1      10.960 -23.816  27.979  1.00  0.00     0.006 C 
BRANCH   8   9
ATOM      9  C   UNL     1       9.599 -24.499  27.792  1.00  0.00     0.053 C 
BRANCH   9  10
ATOM     10  C   UNL     1       9.593 -25.415  26.607  1.00  0.00     0.041 C 
ATOM     11  O   UNL     1       9.314 -26.635  26.751  1.00  0.00    -0.550 OA
ATOM     12  O   UNL     1       9.864 -24.916  25.339  1.00  0.00    -0.550 OA
ENDBRANCH   9  10
ENDBRANCH   8   9
ENDBRANCH   7   8
ENDBRANCH   6   7
ENDBRANCH   5   6
ENDBRANCH   4   5
ENDBRANCH   3   4
ENDBRANCH   1   3
BRANCH   2  13
ATOM     13  C   UNL     1       8.652 -27.750  33.628  1.00  0.00     0.027 C 
BRANCH  13  14
ATOM     14  C   UNL     1       7.778 -28.972  33.307  1.00  0.00     0.004 C 
BRANCH  14  15
ATOM     15  C   UNL     1       8.614 -30.253  33.144  1.00  0.00     0.000 C 
BRANCH  15  16
ATOM     16  C   UNL     1       7.781 -31.442  32.641  1.00  0.00     0.000 C 
BRANCH  16  17
ATOM     17  C   UNL     1       8.467 -32.794  32.894  1.00  0.00    -0.000 C 
BRANCH  17  18
ATOM     18  C   UNL     1       9.830 -32.600  33.574  1.00  0.00    -0.000 C 
BRANCH  18  19
ATOM     19  C   UNL     1       9.805 -32.967  35.065  1.00  0.00    -0.003 C 
ATOM     20  C   UNL     1      10.384 -31.867  35.954  1.00  0.00     0.004 C 
ENDBRANCH  18  19
ENDBRANCH  17  18
ENDBRANCH  16  17
ENDBRANCH  15  16
ENDBRANCH  14  15
ENDBRANCH  13  14
ENDBRANCH   2  13
TORSDOF 15
ENDMDL
MODEL 9
REMARK VINA RESULT:    -4.061      2.556      5.296
REMARK INTER + INTRA:          -9.296
REMARK INTER:                  -7.311
REMARK INTRA:                  -1.985
REMARK UNBOUND:                -1.673
REMARK SMILES CCCCCCCCC=CCCCCCCCC(=O)[O-]
REMARK SMILES IDX 10 1 9 2 11 3 12 4 13 5 14 6 15 7 16 8 17 9 18 10 19 11
REMARK SMILES IDX 20 12 8 13 7 14 6 15 5 16 4 17 3 18 2 19 1 20
REMARK H PARENT
REMARK Flexibility Score: inf
ROOT
ATOM      1  C   UNL     1       7.038 -32.257  32.090  1.00  0.00    -0.031 C 
ATOM      2  C   UNL     1       6.610 -33.016  31.063  1.00  0.00    -0.031 C 
ENDROOT
BRANCH   1   3
ATOM      3  C   UNL     1       8.391 -32.385  32.743  1.00  0.00     0.027 C 
BRANCH   3   4
ATOM      4  C   UNL     1       8.875 -31.023  33.256  1.00  0.00     0.004 C 
BRANCH   4   5
ATOM      5  C   UNL     1       8.083 -29.880  32.610  1.00  0.00     0.000 C 
BRANCH   5   6
ATOM      6  C   UNL     1       7.782 -28.773  33.633  1.00  0.00     0.000 C 
BRANCH   6   7
ATOM      7  C   UNL     1       8.793 -27.618  33.573  1.00  0.00     0.000 C 
BRANCH   7   8
ATOM      8  C   UNL     1       9.175 -27.239  32.131  1.00  0.00     0.006 C 
BRANCH   8   9
ATOM      9  C   UNL     1       9.257 -25.720  31.935  1.00  0.00     0.053 C 
BRANCH   9  10
ATOM     10  C   UNL     1      10.362 -25.337  31.000  1.00  0.00     0.041 C 
ATOM     11  O   UNL     1      10.254 -24.312  30.277  1.00  0.00    -0.550 OA
ATOM     12  O   UNL     1      11.527 -26.094  30.951  1.00  0.00    -0.550 OA
ENDBRANCH   9  10
ENDBRANCH   8   9
ENDBRANCH   7   8
ENDBRANCH   6   7
ENDBRANCH   5   6
ENDBRANCH   4   5
ENDBRANCH   3   4
ENDBRANCH   1   3
BRANCH   2  13
ATOM     13  C   UNL     1       7.379 -34.172  30.471  1.00  0.00     0.027 C 
BRANCH  13  14
ATOM     14  C   UNL     1       7.930 -33.837  29.077  1.00  0.00     0.004 C 
BRANCH  14  15
ATOM     15  C   UNL     1       9.356 -33.265  29.141  1.00  0.00     0.000 C 
BRANCH  15  16
ATOM     16  C   UNL     1       9.407 -31.764  28.816  1.00  0.00     0.000 C 
BRANCH  16  17
ATOM     17  C   UNL     1      10.294 -30.977  29.793  1.00  0.00    -0.000 C 
BRANCH  17  18
ATOM     18  C   UNL     1      11.145 -29.940  29.048  1.00  0.00    -0.000 C 
BRANCH  18  19
ATOM     19  C   UNL     1      10.408 -28.608  28.840  1.00  0.00    -0.003 C 
ATOM     20  C   UNL     1      10.164 -28.292  27.365  1.00  0.00     0.004 C 
ENDBRANCH  18  19
ENDBRANCH  17  18
ENDBRANCH  16  17
ENDBRANCH  15  16
ENDBRANCH  14  15
ENDBRANCH  13  14
ENDBRANCH   2  13
TORSDOF 15
ENDMDL
