MODEL 1
REMARK VINA RESULT:    -4.722      0.000      0.000
REMARK INTER + INTRA:         -10.381
REMARK INTER:                  -8.587
REMARK INTRA:                  -1.795
REMARK UNBOUND:                -1.795
REMARK SMILES CCCCCCCCCCCCCCCC(=O)[O-]
REMARK SMILES IDX 9 1 10 2 11 3 12 4 13 5 14 6 15 7 16 8 17 9 18 10 8 11 7 12
REMARK SMILES IDX 6 13 5 14 4 15 3 16 2 17 1 18
REMARK H PARENT
REMARK Flexibility Score: inf
ROOT
ATOM      1  C   UNL     1      10.926 -18.950 -11.943  1.00  0.00     0.000 C 
ENDROOT
BRANCH   1   2
ATOM      2  C   UNL     1      11.229 -18.159 -13.229  1.00  0.00     0.000 C 
BRANCH   2   3
ATOM      3  C   UNL     1      11.097 -19.011 -14.504  1.00  0.00     0.000 C 
BRANCH   3   4
ATOM      4  C   UNL     1      12.458 -19.346 -15.143  1.00  0.00     0.000 C 
BRANCH   4   5
ATOM      5  C   UNL     1      12.645 -20.818 -15.563  1.00  0.00     0.000 C 
BRANCH   5   6
ATOM      6  C   UNL     1      12.746 -21.824 -14.400  1.00  0.00     0.006 C 
BRANCH   6   7
ATOM      7  C   UNL     1      11.547 -22.778 -14.282  1.00  0.00     0.053 C 
BRANCH   7   8
ATOM      8  C   UNL     1      11.978 -24.199 -14.087  1.00  0.00     0.041 C 
ATOM      9  O   UNL     1      11.120 -25.116 -14.002  1.00  0.00    -0.550 OA
ATOM     10  O   UNL     1      13.328 -24.506 -13.966  1.00  0.00    -0.550 OA
ENDBRANCH   7   8
ENDBRANCH   6   7
ENDBRANCH   5   6
ENDBRANCH   4   5
ENDBRANCH   3   4
ENDBRANCH   2   3
ENDBRANCH   1   2
BRANCH   1  11
ATOM     11  C   UNL     1      11.344 -18.261 -10.631  1.00  0.00     0.000 C 
BRANCH  11  12
ATOM     12  C   UNL     1      12.856 -18.353 -10.359  1.00  0.00    -0.000 C 
BRANCH  12  13
ATOM     13  C   UNL     1      13.561 -16.994 -10.491  1.00  0.00    -0.000 C 
BRANCH  13  14
ATOM     14  C   UNL     1      14.482 -16.920 -11.718  1.00  0.00    -0.000 C 
BRANCH  14  15
ATOM     15  C   UNL     1      14.813 -18.322 -12.242  1.00  0.00    -0.000 C 
BRANCH  15  16
ATOM     16  C   UNL     1      15.557 -18.250 -13.581  1.00  0.00    -0.000 C 
BRANCH  16  17
ATOM     17  C   UNL     1      15.628 -16.806 -14.093  1.00  0.00    -0.003 C 
ATOM     18  C   UNL     1      14.688 -16.594 -15.275  1.00  0.00     0.004 C 
ENDBRANCH  16  17
ENDBRANCH  15  16
ENDBRANCH  14  15
ENDBRANCH  13  14
ENDBRANCH  12  13
ENDBRANCH  11  12
ENDBRANCH   1  11
TORSDOF 14
ENDMDL
MODEL 2
REMARK VINA RESULT:    -4.720      4.295      6.511
REMARK INTER + INTRA:         -10.377
REMARK INTER:                  -8.481
REMARK INTRA:                  -1.896
REMARK UNBOUND:                -1.795
REMARK SMILES CCCCCCCCCCCCCCCC(=O)[O-]
REMARK SMILES IDX 9 1 10 2 11 3 12 4 13 5 14 6 15 7 16 8 17 9 18 10 8 11 7 12
REMARK SMILES IDX 6 13 5 14 4 15 3 16 2 17 1 18
REMARK H PARENT
REMARK Flexibility Score: inf
ROOT
ATOM      1  C   UNL     1      11.359 -19.243 -14.274  1.00  0.00     0.000 C 
ENDROOT
BRANCH   1   2
ATOM      2  C   UNL     1      11.632 -19.476 -12.776  1.00  0.00     0.000 C 
BRANCH   2   3
ATOM      3  C   UNL     1      10.858 -18.506 -11.867  1.00  0.00     0.000 C 
BRANCH   3   4
ATOM      4  C   UNL     1      10.446 -19.141 -10.526  1.00  0.00     0.000 C 
BRANCH   4   5
ATOM      5  C   UNL     1      11.439 -18.934  -9.365  1.00  0.00     0.000 C 
BRANCH   5   6
ATOM      6  C   UNL     1      10.962 -17.975  -8.256  1.00  0.00     0.006 C 
BRANCH   6   7
ATOM      7  C   UNL     1      11.330 -16.502  -8.491  1.00  0.00     0.053 C 
BRANCH   7   8
ATOM      8  C   UNL     1      10.427 -15.572  -7.740  1.00  0.00     0.041 C 
ATOM      9  O   UNL     1      10.484 -14.331  -7.944  1.00  0.00    -0.550 OA
ATOM     10  O   UNL     1       9.545 -16.074  -6.791  1.00  0.00    -0.550 OA
ENDBRANCH   7   8
ENDBRANCH   6   7
ENDBRANCH   5   6
ENDBRANCH   4   5
ENDBRANCH   3   4
ENDBRANCH   2   3
ENDBRANCH   1   2
BRANCH   1  11
ATOM     11  C   UNL     1      12.416 -19.823 -15.234  1.00  0.00     0.000 C 
BRANCH  11  12
ATOM     12  C   UNL     1      13.140 -18.742 -16.054  1.00  0.00    -0.000 C 
BRANCH  12  13
ATOM     13  C   UNL     1      14.263 -18.056 -15.261  1.00  0.00    -0.000 C 
BRANCH  13  14
ATOM     14  C   UNL     1      13.989 -16.565 -15.010  1.00  0.00    -0.000 C 
BRANCH  14  15
ATOM     15  C   UNL     1      13.532 -16.327 -13.566  1.00  0.00    -0.000 C 
BRANCH  15  16
ATOM     16  C   UNL     1      14.477 -17.010 -12.569  1.00  0.00    -0.000 C 
BRANCH  16  17
ATOM     17  C   UNL     1      14.012 -16.782 -11.126  1.00  0.00    -0.003 C 
ATOM     18  C   UNL     1      14.799 -17.651 -10.150  1.00  0.00     0.004 C 
ENDBRANCH  16  17
ENDBRANCH  15  16
ENDBRANCH  14  15
ENDBRANCH  13  14
ENDBRANCH  12  13
ENDBRANCH  11  12
ENDBRANCH   1  11
TORSDOF 14
ENDMDL
MODEL 3
REMARK VINA RESULT:    -4.678      2.074      4.647
REMARK INTER + INTRA:         -10.301
REMARK INTER:                  -9.035
REMARK INTRA:                  -1.266
REMARK UNBOUND:                -1.795
REMARK SMILES CCCCCCCCCCCCCCCC(=O)[O-]
REMARK SMILES IDX 9 1 10 2 11 3 12 4 13 5 14 6 15 7 16 8 17 9 18 10 8 11 7 12
REMARK SMILES IDX 6 13 5 14 4 15 3 16 2 17 1 18
REMARK H PARENT
REMARK Flexibility Score: inf
ROOT
ATOM      1  C   UNL     1      12.674 -20.956 -15.426  1.00  0.00     0.000 C 
ENDROOT
BRANCH   1   2
ATOM      2  C   UNL     1      11.502 -21.836 -14.954  1.00  0.00     0.000 C 
BRANCH   2   3
ATOM      3  C   UNL     1      11.932 -22.930 -13.961  1.00  0.00     0.000 C 
BRANCH   3   4
ATOM      4  C   UNL     1      10.997 -24.153 -13.974  1.00  0.00     0.000 C 
BRANCH   4   5
ATOM      5  C   UNL     1      11.694 -25.514 -14.176  1.00  0.00     0.000 C 
BRANCH   5   6
ATOM      6  C   UNL     1      13.231 -25.487 -14.064  1.00  0.00     0.006 C 
BRANCH   6   7
ATOM      7  C   UNL     1      13.915 -26.817 -14.419  1.00  0.00     0.053 C 
BRANCH   7   8
ATOM      8  C   UNL     1      15.275 -26.608 -15.009  1.00  0.00     0.041 C 
ATOM      9  O   UNL     1      15.633 -27.260 -16.024  1.00  0.00    -0.550 OA
ATOM     10  O   UNL     1      16.161 -25.717 -14.416  1.00  0.00    -0.550 OA
ENDBRANCH   7   8
ENDBRANCH   6   7
ENDBRANCH   5   6
ENDBRANCH   4   5
ENDBRANCH   3   4
ENDBRANCH   2   3
ENDBRANCH   1   2
BRANCH   1  11
ATOM     11  C   UNL     1      12.317 -19.891 -16.479  1.00  0.00     0.000 C 
BRANCH  11  12
ATOM     12  C   UNL     1      13.339 -18.743 -16.543  1.00  0.00    -0.000 C 
BRANCH  12  13
ATOM     13  C   UNL     1      14.009 -18.475 -15.187  1.00  0.00    -0.000 C 
BRANCH  13  14
ATOM     14  C   UNL     1      13.603 -17.124 -14.580  1.00  0.00    -0.000 C 
BRANCH  14  15
ATOM     15  C   UNL     1      12.894 -17.318 -13.234  1.00  0.00    -0.000 C 
BRANCH  15  16
ATOM     16  C   UNL     1      11.524 -17.980 -13.423  1.00  0.00    -0.000 C 
BRANCH  16  17
ATOM     17  C   UNL     1      11.319 -19.117 -12.416  1.00  0.00    -0.003 C 
ATOM     18  C   UNL     1      11.195 -18.578 -10.995  1.00  0.00     0.004 C 
ENDBRANCH  16  17
ENDBRANCH  15  16
ENDBRANCH  14  15
ENDBRANCH  13  14
ENDBRANCH  12  13
ENDBRANCH  11  12
ENDBRANCH   1  11
TORSDOF 14
ENDMDL
MODEL 4
REMARK VINA RESULT:    -4.671      1.115      3.416
REMARK INTER + INTRA:         -10.289
REMARK INTER:                  -8.821
REMARK INTRA:                  -1.468
REMARK UNBOUND:                -1.795
REMARK SMILES CCCCCCCCCCCCCCCC(=O)[O-]
REMARK SMILES IDX 9 1 10 2 11 3 12 4 13 5 14 6 15 7 16 8 17 9 18 10 8 11 7 12
REMARK SMILES IDX 6 13 5 14 4 15 3 16 2 17 1 18
REMARK H PARENT
REMARK Flexibility Score: inf
ROOT
ATOM      1  C   UNL     1      14.086 -18.320 -15.338  1.00  0.00     0.000 C 
ENDROOT
BRANCH   1   2
ATOM      2  C   UNL     1      13.192 -18.703 -16.533  1.00  0.00     0.000 C 
BRANCH   2   3
ATOM      3  C   UNL     1      12.156 -19.785 -16.186  1.00  0.00     0.000 C 
BRANCH   3   4
ATOM      4  C   UNL     1      11.583 -19.632 -14.765  1.00  0.00     0.000 C 
BRANCH   4   5
ATOM      5  C   UNL     1      12.013 -20.720 -13.760  1.00  0.00     0.000 C 
BRANCH   5   6
ATOM      6  C   UNL     1      12.375 -22.083 -14.382  1.00  0.00     0.006 C 
BRANCH   6   7
ATOM      7  C   UNL     1      11.346 -23.193 -14.120  1.00  0.00     0.053 C 
BRANCH   7   8
ATOM      8  C   UNL     1      11.978 -24.550 -14.098  1.00  0.00     0.041 C 
ATOM      9  O   UNL     1      11.335 -25.556 -14.496  1.00  0.00    -0.550 OA
ATOM     10  O   UNL     1      13.268 -24.709 -13.605  1.00  0.00    -0.550 OA
ENDBRANCH   7   8
ENDBRANCH   6   7
ENDBRANCH   5   6
ENDBRANCH   4   5
ENDBRANCH   3   4
ENDBRANCH   2   3
ENDBRANCH   1   2
BRANCH   1  11
ATOM     11  C   UNL     1      14.085 -16.825 -14.967  1.00  0.00     0.000 C 
BRANCH  11  12
ATOM     12  C   UNL     1      13.458 -16.548 -13.590  1.00  0.00    -0.000 C 
BRANCH  12  13
ATOM     13  C   UNL     1      13.751 -17.664 -12.574  1.00  0.00    -0.000 C 
BRANCH  13  14
ATOM     14  C   UNL     1      14.342 -17.132 -11.260  1.00  0.00    -0.000 C 
BRANCH  14  15
ATOM     15  C   UNL     1      13.245 -16.925 -10.209  1.00  0.00    -0.000 C 
BRANCH  15  16
ATOM     16  C   UNL     1      12.808 -18.262  -9.598  1.00  0.00    -0.000 C 
BRANCH  16  17
ATOM     17  C   UNL     1      11.280 -18.356  -9.517  1.00  0.00    -0.003 C 
ATOM     18  C   UNL     1      10.689 -18.857 -10.830  1.00  0.00     0.004 C 
ENDBRANCH  16  17
ENDBRANCH  15  16
ENDBRANCH  14  15
ENDBRANCH  13  14
ENDBRANCH  12  13
ENDBRANCH  11  12
ENDBRANCH   1  11
TORSDOF 14
ENDMDL
MODEL 5
REMARK VINA RESULT:    -4.645      1.519      4.112
REMARK INTER + INTRA:         -10.241
REMARK INTER:                  -7.993
REMARK INTRA:                  -2.248
REMARK UNBOUND:                -1.795
REMARK SMILES CCCCCCCCCCCCCCCC(=O)[O-]
REMARK SMILES IDX 9 1 10 2 11 3 12 4 13 5 14 6 15 7 16 8 17 9 18 10 8 11 7 12
REMARK SMILES IDX 6 13 5 14 4 15 3 16 2 17 1 18
REMARK H PARENT
REMARK Flexibility Score: inf
ROOT
ATOM      1  C   UNL     1      15.051 -17.068 -12.899  1.00  0.00     0.000 C 
ENDROOT
BRANCH   1   2
ATOM      2  C   UNL     1      14.630 -17.641 -11.533  1.00  0.00     0.000 C 
BRANCH   2   3
ATOM      3  C   UNL     1      15.009 -19.122 -11.361  1.00  0.00     0.000 C 
BRANCH   3   4
ATOM      4  C   UNL     1      15.311 -19.822 -12.699  1.00  0.00     0.000 C 
BRANCH   4   5
ATOM      5  C   UNL     1      15.124 -21.353 -12.700  1.00  0.00     0.000 C 
BRANCH   5   6
ATOM      6  C   UNL     1      14.381 -21.923 -13.924  1.00  0.00     0.006 C 
BRANCH   6   7
ATOM      7  C   UNL     1      14.095 -23.431 -13.846  1.00  0.00     0.053 C 
BRANCH   7   8
ATOM      8  C   UNL     1      12.627 -23.726 -13.896  1.00  0.00     0.041 C 
ATOM      9  O   UNL     1      11.789 -22.813 -13.677  1.00  0.00    -0.550 OA
ATOM     10  O   UNL     1      12.186 -25.018 -14.152  1.00  0.00    -0.550 OA
ENDBRANCH   7   8
ENDBRANCH   6   7
ENDBRANCH   5   6
ENDBRANCH   4   5
ENDBRANCH   3   4
ENDBRANCH   2   3
ENDBRANCH   1   2
BRANCH   1  11
ATOM     11  C   UNL     1      13.905 -16.496 -13.756  1.00  0.00     0.000 C 
BRANCH  11  12
ATOM     12  C   UNL     1      14.040 -16.844 -15.248  1.00  0.00    -0.000 C 
BRANCH  12  13
ATOM     13  C   UNL     1      14.078 -18.359 -15.499  1.00  0.00    -0.000 C 
BRANCH  13  14
ATOM     14  C   UNL     1      12.905 -18.848 -16.363  1.00  0.00    -0.000 C 
BRANCH  14  15
ATOM     15  C   UNL     1      12.005 -19.806 -15.574  1.00  0.00    -0.000 C 
BRANCH  15  16
ATOM     16  C   UNL     1      11.205 -19.055 -14.502  1.00  0.00    -0.000 C 
BRANCH  16  17
ATOM     17  C   UNL     1      11.677 -19.439 -13.095  1.00  0.00    -0.003 C 
ATOM     18  C   UNL     1      10.953 -18.622 -12.029  1.00  0.00     0.004 C 
ENDBRANCH  16  17
ENDBRANCH  15  16
ENDBRANCH  14  15
ENDBRANCH  13  14
ENDBRANCH  12  13
ENDBRANCH  11  12
ENDBRANCH   1  11
TORSDOF 14
ENDMDL
MODEL 6
REMARK VINA RESULT:    -4.619      3.567      6.336
REMARK INTER + INTRA:         -10.193
REMARK INTER:                  -8.690
REMARK INTRA:                  -1.503
REMARK UNBOUND:                -1.795
REMARK SMILES CCCCCCCCCCCCCCCC(=O)[O-]
REMARK SMILES IDX 9 1 10 2 11 3 12 4 13 5 14 6 15 7 16 8 17 9 18 10 8 11 7 12
REMARK SMILES IDX 6 13 5 14 4 15 3 16 2 17 1 18
REMARK H PARENT
REMARK Flexibility Score: inf
ROOT
ATOM      1  C   UNL     1      14.044 -16.776 -15.008  1.00  0.00     0.000 C 
ENDROOT
BRANCH   1   2
ATOM      2  C   UNL     1      13.542 -16.622 -13.560  1.00  0.00     0.000 C 
BRANCH   2   3
ATOM      3  C   UNL     1      12.197 -17.327 -13.312  1.00  0.00     0.000 C 
BRANCH   3   4
ATOM      4  C   UNL     1      12.046 -17.838 -11.868  1.00  0.00     0.000 C 
BRANCH   4   5
ATOM      5  C   UNL     1      10.641 -18.352 -11.493  1.00  0.00     0.000 C 
BRANCH   5   6
ATOM      6  C   UNL     1      10.577 -19.219 -10.221  1.00  0.00     0.006 C 
BRANCH   6   7
ATOM      7  C   UNL     1      11.549 -18.790  -9.111  1.00  0.00     0.053 C 
BRANCH   7   8
ATOM      8  C   UNL     1      10.938 -17.778  -8.191  1.00  0.00     0.041 C 
ATOM      9  O   UNL     1      11.263 -16.565  -8.277  1.00  0.00    -0.550 OA
ATOM     10  O   UNL     1      10.034 -18.182  -7.215  1.00  0.00    -0.550 OA
ENDBRANCH   7   8
ENDBRANCH   6   7
ENDBRANCH   5   6
ENDBRANCH   4   5
ENDBRANCH   3   4
ENDBRANCH   2   3
ENDBRANCH   1   2
BRANCH   1  11
ATOM     11  C   UNL     1      14.267 -18.225 -15.479  1.00  0.00     0.000 C 
BRANCH  11  12
ATOM     12  C   UNL     1      13.224 -18.690 -16.509  1.00  0.00    -0.000 C 
BRANCH  12  13
ATOM     13  C   UNL     1      12.684 -20.097 -16.207  1.00  0.00    -0.000 C 
BRANCH  13  14
ATOM     14  C   UNL     1      11.520 -20.083 -15.203  1.00  0.00    -0.000 C 
BRANCH  14  15
ATOM     15  C   UNL     1      11.829 -20.973 -13.994  1.00  0.00    -0.000 C 
BRANCH  15  16
ATOM     16  C   UNL     1      13.085 -21.819 -14.238  1.00  0.00    -0.000 C 
BRANCH  16  17
ATOM     17  C   UNL     1      12.823 -23.296 -13.921  1.00  0.00    -0.003 C 
ATOM     18  C   UNL     1      11.330 -23.608 -13.943  1.00  0.00     0.004 C 
ENDBRANCH  16  17
ENDBRANCH  15  16
ENDBRANCH  14  15
ENDBRANCH  13  14
ENDBRANCH  12  13
ENDBRANCH  11  12
ENDBRANCH   1  11
TORSDOF 14
ENDMDL
MODEL 7
REMARK VINA RESULT:    -4.604      3.875      6.204
REMARK INTER + INTRA:         -10.166
REMARK INTER:                  -9.291
REMARK INTRA:                  -0.876
REMARK UNBOUND:                -1.795
REMARK SMILES CCCCCCCCCCCCCCCC(=O)[O-]
REMARK SMILES IDX 9 1 10 2 11 3 12 4 13 5 14 6 15 7 16 8 17 9 18 10 8 11 7 12
REMARK SMILES IDX 6 13 5 14 4 15 3 16 2 17 1 18
REMARK H PARENT
REMARK Flexibility Score: inf
ROOT
ATOM      1  C   UNL     1      13.156 -23.223 -13.851  1.00  0.00     0.000 C 
ENDROOT
BRANCH   1   2
ATOM      2  C   UNL     1      13.596 -24.695 -13.738  1.00  0.00     0.000 C 
BRANCH   2   3
ATOM      3  C   UNL     1      12.481 -25.686 -14.113  1.00  0.00     0.000 C 
BRANCH   3   4
ATOM      4  C   UNL     1      13.018 -27.084 -14.470  1.00  0.00     0.000 C 
BRANCH   4   5
ATOM      5  C   UNL     1      14.489 -27.344 -14.085  1.00  0.00     0.000 C 
BRANCH   5   6
ATOM      6  C   UNL     1      15.217 -28.394 -14.946  1.00  0.00     0.006 C 
BRANCH   6   7
ATOM      7  C   UNL     1      16.172 -29.306 -14.160  1.00  0.00     0.053 C 
BRANCH   7   8
ATOM      8  C   UNL     1      15.537 -30.617 -13.814  1.00  0.00     0.041 C 
ATOM      9  O   UNL     1      15.833 -31.656 -14.461  1.00  0.00    -0.550 OA
ATOM     10  O   UNL     1      14.591 -30.686 -12.798  1.00  0.00    -0.550 OA
ENDBRANCH   7   8
ENDBRANCH   6   7
ENDBRANCH   5   6
ENDBRANCH   4   5
ENDBRANCH   3   4
ENDBRANCH   2   3
ENDBRANCH   1   2
BRANCH   1  11
ATOM     11  C   UNL     1      11.653 -23.002 -14.104  1.00  0.00     0.000 C 
BRANCH  11  12
ATOM     12  C   UNL     1      11.375 -21.916 -15.158  1.00  0.00    -0.000 C 
BRANCH  12  13
ATOM     13  C   UNL     1      12.604 -21.035 -15.434  1.00  0.00    -0.000 C 
BRANCH  13  14
ATOM     14  C   UNL     1      12.232 -19.577 -15.743  1.00  0.00    -0.000 C 
BRANCH  14  15
ATOM     15  C   UNL     1      11.168 -19.063 -14.766  1.00  0.00    -0.000 C 
BRANCH  15  16
ATOM     16  C   UNL     1      11.795 -18.167 -13.690  1.00  0.00    -0.000 C 
BRANCH  16  17
ATOM     17  C   UNL     1      13.168 -17.652 -14.135  1.00  0.00    -0.003 C 
ATOM     18  C   UNL     1      13.374 -16.199 -13.716  1.00  0.00     0.004 C 
ENDBRANCH  16  17
ENDBRANCH  15  16
ENDBRANCH  14  15
ENDBRANCH  13  14
ENDBRANCH  12  13
ENDBRANCH  11  12
ENDBRANCH   1  11
TORSDOF 14
ENDMDL
MODEL 8
REMARK VINA RESULT:    -4.585      3.039      5.618
REMARK INTER + INTRA:         -10.133
REMARK INTER:                  -9.073
REMARK INTRA:                  -1.060
REMARK UNBOUND:                -1.795
REMARK SMILES CCCCCCCCCCCCCCCC(=O)[O-]
REMARK SMILES IDX 9 1 10 2 11 3 12 4 13 5 14 6 15 7 16 8 17 9 18 10 8 11 7 12
REMARK SMILES IDX 6 13 5 14 4 15 3 16 2 17 1 18
REMARK H PARENT
REMARK Flexibility Score: inf
ROOT
ATOM      1  C   UNL     1      12.874 -22.697 -13.752  1.00  0.00     0.000 C 
ENDROOT
BRANCH   1   2
ATOM      2  C   UNL     1      11.454 -23.190 -14.091  1.00  0.00     0.000 C 
BRANCH   2   3
ATOM      3  C   UNL     1      11.334 -24.724 -14.089  1.00  0.00     0.000 C 
BRANCH   3   4
ATOM      4  C   UNL     1      12.700 -25.431 -14.021  1.00  0.00     0.000 C 
BRANCH   4   5
ATOM      5  C   UNL     1      12.689 -26.925 -14.405  1.00  0.00     0.000 C 
BRANCH   5   6
ATOM      6  C   UNL     1      14.075 -27.596 -14.471  1.00  0.00     0.006 C 
BRANCH   6   7
ATOM      7  C   UNL     1      15.205 -26.781 -13.824  1.00  0.00     0.053 C 
BRANCH   7   8
ATOM      8  C   UNL     1      16.354 -27.647 -13.409  1.00  0.00     0.041 C 
ATOM      9  O   UNL     1      16.153 -28.832 -13.036  1.00  0.00    -0.550 OA
ATOM     10  O   UNL     1      17.646 -27.134 -13.402  1.00  0.00    -0.550 OA
ENDBRANCH   7   8
ENDBRANCH   6   7
ENDBRANCH   5   6
ENDBRANCH   4   5
ENDBRANCH   3   4
ENDBRANCH   2   3
ENDBRANCH   1   2
BRANCH   1  11
ATOM     11  C   UNL     1      13.360 -21.479 -14.561  1.00  0.00     0.000 C 
BRANCH  11  12
ATOM     12  C   UNL     1      12.380 -21.067 -15.673  1.00  0.00    -0.000 C 
BRANCH  12  13
ATOM     13  C   UNL     1      12.184 -19.545 -15.750  1.00  0.00    -0.000 C 
BRANCH  13  14
ATOM     14  C   UNL     1      11.017 -19.052 -14.880  1.00  0.00    -0.000 C 
BRANCH  14  15
ATOM     15  C   UNL     1      11.531 -18.346 -13.621  1.00  0.00    -0.000 C 
BRANCH  15  16
ATOM     16  C   UNL     1      11.357 -19.232 -12.381  1.00  0.00    -0.000 C 
BRANCH  16  17
ATOM     17  C   UNL     1      10.455 -18.556 -11.343  1.00  0.00    -0.003 C 
ATOM     18  C   UNL     1      10.708 -19.113  -9.946  1.00  0.00     0.004 C 
ENDBRANCH  16  17
ENDBRANCH  15  16
ENDBRANCH  14  15
ENDBRANCH  13  14
ENDBRANCH  12  13
ENDBRANCH  11  12
ENDBRANCH   1  11
TORSDOF 14
ENDMDL
MODEL 9
REMARK VINA RESULT:    -4.511      4.510      6.732
REMARK INTER + INTRA:          -9.998
REMARK INTER:                  -8.640
REMARK INTRA:                  -1.357
REMARK UNBOUND:                -1.795
REMARK SMILES CCCCCCCCCCCCCCCC(=O)[O-]
REMARK SMILES IDX 9 1 10 2 11 3 12 4 13 5 14 6 15 7 16 8 17 9 18 10 8 11 7 12
REMARK SMILES IDX 6 13 5 14 4 15 3 16 2 17 1 18
REMARK H PARENT
REMARK Flexibility Score: inf
ROOT
ATOM      1  C   UNL     1      11.452 -19.196 -12.725  1.00  0.00     0.000 C 
ENDROOT
BRANCH   1   2
ATOM      2  C   UNL     1      10.674 -18.431 -11.638  1.00  0.00     0.000 C 
BRANCH   2   3
ATOM      3  C   UNL     1      10.579 -19.203 -10.311  1.00  0.00     0.000 C 
BRANCH   3   4
ATOM      4  C   UNL     1      11.550 -18.674  -9.240  1.00  0.00     0.000 C 
BRANCH   4   5
ATOM      5  C   UNL     1      11.362 -17.193  -8.852  1.00  0.00     0.000 C 
BRANCH   5   6
ATOM      6  C   UNL     1      10.814 -16.950  -7.433  1.00  0.00     0.006 C 
BRANCH   6   7
ATOM      7  C   UNL     1       9.715 -17.934  -7.002  1.00  0.00     0.053 C 
BRANCH   7   8
ATOM      8  C   UNL     1       8.895 -17.397  -5.869  1.00  0.00     0.041 C 
ATOM      9  O   UNL     1       8.380 -16.251  -5.947  1.00  0.00    -0.550 OA
ATOM     10  O   UNL     1       8.728 -18.149  -4.712  1.00  0.00    -0.550 OA
ENDBRANCH   7   8
ENDBRANCH   6   7
ENDBRANCH   5   6
ENDBRANCH   4   5
ENDBRANCH   3   4
ENDBRANCH   2   3
ENDBRANCH   1   2
BRANCH   1  11
ATOM     11  C   UNL     1      11.150 -18.772 -14.175  1.00  0.00     0.000 C 
BRANCH  11  12
ATOM     12  C   UNL     1      11.848 -19.660 -15.219  1.00  0.00    -0.000 C 
BRANCH  12  13
ATOM     13  C   UNL     1      12.847 -18.876 -16.085  1.00  0.00    -0.000 C 
BRANCH  13  14
ATOM     14  C   UNL     1      14.094 -18.436 -15.303  1.00  0.00    -0.000 C 
BRANCH  14  15
ATOM     15  C   UNL     1      14.067 -16.927 -15.031  1.00  0.00    -0.000 C 
BRANCH  15  16
ATOM     16  C   UNL     1      15.012 -16.558 -13.880  1.00  0.00    -0.000 C 
BRANCH  16  17
ATOM     17  C   UNL     1      14.824 -17.503 -12.689  1.00  0.00    -0.003 C 
ATOM     18  C   UNL     1      14.022 -16.835 -11.577  1.00  0.00     0.004 C 
ENDBRANCH  16  17
ENDBRANCH  15  16
ENDBRANCH  14  15
ENDBRANCH  13  14
ENDBRANCH  12  13
ENDBRANCH  11  12
ENDBRANCH   1  11
TORSDOF 14
ENDMDL
