MODEL 1
REMARK VINA RESULT:    -4.506      0.000      0.000
REMARK INTER + INTRA:          -4.946
REMARK INTER:                  -4.901
REMARK INTRA:                  -0.046
REMARK UNBOUND:                -0.046
REMARK SMILES COc1cc2ccc(=O)oc2cc1O
REMARK SMILES IDX 3 1 13 2 12 3 11 4 5 5 4 6 6 7 7 8 8 9 9 10 10 11 2 12 1 13
REMARK SMILES IDX 14 14
REMARK H PARENT 14 15
REMARK Flexibility Score: inf
ROOT
ATOM      1  C   UNL     1      35.016 -39.467  13.450  1.00  0.00     0.161 A 
ATOM      2  C   UNL     1      34.908 -38.112  13.801  1.00  0.00     0.161 A 
ATOM      3  C   UNL     1      34.594 -37.152  12.829  1.00  0.00     0.098 A 
ATOM      4  C   UNL     1      34.386 -37.535  11.502  1.00  0.00     0.142 A 
ATOM      5  C   UNL     1      34.494 -38.894  11.140  1.00  0.00     0.022 A 
ATOM      6  C   UNL     1      34.807 -39.855  12.112  1.00  0.00     0.062 A 
ATOM      7  C   UNL     1      34.281 -39.246   9.803  1.00  0.00     0.019 A 
ATOM      8  C   UNL     1      33.971 -38.254   8.874  1.00  0.00     0.094 A 
ATOM      9  C   UNL     1      33.881 -36.927   9.305  1.00  0.00     0.336 A 
ATOM     10  O   UNL     1      33.604 -36.015   8.482  1.00  0.00    -0.246 OA
ATOM     11  O   UNL     1      34.089 -36.618  10.583  1.00  0.00    -0.423 OA
ENDROOT
BRANCH   1  12
ATOM     12  O   UNL     1      35.331 -40.394  14.456  1.00  0.00    -0.493 OA
ATOM     13  C   UNL     1      35.822 -41.709  14.216  1.00  0.00     0.278 C 
ENDBRANCH   1  12
BRANCH   2  14
ATOM     14  O   UNL     1      35.113 -37.727  15.125  1.00  0.00    -0.504 OA
ATOM     15  H   UNL     1      34.487 -37.083  15.594  1.00  0.00     0.293 HD
ENDBRANCH   2  14
TORSDOF 2
ENDMDL
MODEL 2
REMARK VINA RESULT:    -4.316      1.593      5.075
REMARK INTER + INTRA:          -4.741
REMARK INTER:                  -4.696
REMARK INTRA:                  -0.045
REMARK UNBOUND:                -0.046
REMARK SMILES COc1cc2ccc(=O)oc2cc1O
REMARK SMILES IDX 3 1 13 2 12 3 11 4 5 5 4 6 6 7 7 8 8 9 9 10 10 11 2 12 1 13
REMARK SMILES IDX 14 14
REMARK H PARENT 14 15
REMARK Flexibility Score: inf
ROOT
ATOM      1  C   UNL     1      34.709 -38.315  12.450  1.00  0.00     0.161 A 
ATOM      2  C   UNL     1      35.176 -38.214  13.770  1.00  0.00     0.161 A 
ATOM      3  C   UNL     1      35.519 -39.366  14.491  1.00  0.00     0.098 A 
ATOM      4  C   UNL     1      35.399 -40.626  13.902  1.00  0.00     0.142 A 
ATOM      5  C   UNL     1      34.930 -40.738  12.576  1.00  0.00     0.022 A 
ATOM      6  C   UNL     1      34.587 -39.586  11.854  1.00  0.00     0.062 A 
ATOM      7  C   UNL     1      34.821 -42.015  12.013  1.00  0.00     0.019 A 
ATOM      8  C   UNL     1      35.176 -43.129  12.771  1.00  0.00     0.094 A 
ATOM      9  C   UNL     1      35.632 -42.942  14.080  1.00  0.00     0.336 A 
ATOM     10  O   UNL     1      35.956 -43.936  14.782  1.00  0.00    -0.246 OA
ATOM     11  O   UNL     1      35.726 -41.718  14.591  1.00  0.00    -0.423 OA
ENDROOT
BRANCH   1  12
ATOM     12  O   UNL     1      34.377 -37.135  11.767  1.00  0.00    -0.493 OA
ATOM     13  C   UNL     1      34.014 -37.074  10.391  1.00  0.00     0.278 C 
ENDBRANCH   1  12
BRANCH   2  14
ATOM     14  O   UNL     1      35.297 -36.956  14.361  1.00  0.00    -0.504 OA
ATOM     15  H   UNL     1      34.659 -36.201  14.140  1.00  0.00     0.293 HD
ENDBRANCH   2  14
TORSDOF 2
ENDMDL
MODEL 3
REMARK VINA RESULT:    -4.266     14.612     16.036
REMARK INTER + INTRA:          -4.686
REMARK INTER:                  -4.638
REMARK INTRA:                  -0.048
REMARK UNBOUND:                -0.046
REMARK SMILES COc1cc2ccc(=O)oc2cc1O
REMARK SMILES IDX 3 1 13 2 12 3 11 4 5 5 4 6 6 7 7 8 8 9 9 10 10 11 2 12 1 13
REMARK SMILES IDX 14 14
REMARK H PARENT 14 15
REMARK Flexibility Score: inf
ROOT
ATOM      1  C   UNL     1      32.884 -41.793  -3.594  1.00  0.00     0.161 A 
ATOM      2  C   UNL     1      32.918 -40.747  -2.658  1.00  0.00     0.161 A 
ATOM      3  C   UNL     1      34.065 -39.952  -2.527  1.00  0.00     0.098 A 
ATOM      4  C   UNL     1      35.185 -40.193  -3.325  1.00  0.00     0.142 A 
ATOM      5  C   UNL     1      35.160 -41.244  -4.267  1.00  0.00     0.022 A 
ATOM      6  C   UNL     1      34.013 -42.039  -4.400  1.00  0.00     0.062 A 
ATOM      7  C   UNL     1      36.298 -41.461  -5.052  1.00  0.00     0.019 A 
ATOM      8  C   UNL     1      37.413 -40.642  -4.883  1.00  0.00     0.094 A 
ATOM      9  C   UNL     1      37.366 -39.621  -3.929  1.00  0.00     0.336 A 
ATOM     10  O   UNL     1      38.363 -38.871  -3.760  1.00  0.00    -0.246 OA
ATOM     11  O   UNL     1      36.272 -39.435  -3.195  1.00  0.00    -0.423 OA
ENDROOT
BRANCH   1  12
ATOM     12  O   UNL     1      31.714 -42.563  -3.691  1.00  0.00    -0.493 OA
ATOM     13  C   UNL     1      31.681 -43.933  -4.080  1.00  0.00     0.278 C 
ENDBRANCH   1  12
BRANCH   2  14
ATOM     14  O   UNL     1      31.801 -40.502  -1.860  1.00  0.00    -0.504 OA
ATOM     15  H   UNL     1      30.956 -41.055  -1.945  1.00  0.00     0.293 HD
ENDBRANCH   2  14
TORSDOF 2
ENDMDL
MODEL 4
REMARK VINA RESULT:    -4.043     16.480     17.111
REMARK INTER + INTRA:          -4.443
REMARK INTER:                  -4.379
REMARK INTRA:                  -0.064
REMARK UNBOUND:                -0.046
REMARK SMILES COc1cc2ccc(=O)oc2cc1O
REMARK SMILES IDX 3 1 13 2 12 3 11 4 5 5 4 6 6 7 7 8 8 9 9 10 10 11 2 12 1 13
REMARK SMILES IDX 14 14
REMARK H PARENT 14 15
REMARK Flexibility Score: inf
ROOT
ATOM      1  C   UNL     1      32.758 -42.766  -3.873  1.00  0.00     0.161 A 
ATOM      2  C   UNL     1      33.337 -41.514  -4.134  1.00  0.00     0.161 A 
ATOM      3  C   UNL     1      34.720 -41.401  -4.332  1.00  0.00     0.098 A 
ATOM      4  C   UNL     1      35.536 -42.533  -4.271  1.00  0.00     0.142 A 
ATOM      5  C   UNL     1      34.963 -43.795  -4.008  1.00  0.00     0.022 A 
ATOM      6  C   UNL     1      33.580 -43.910  -3.811  1.00  0.00     0.062 A 
ATOM      7  C   UNL     1      35.806 -44.911  -3.954  1.00  0.00     0.019 A 
ATOM      8  C   UNL     1      37.175 -44.745  -4.158  1.00  0.00     0.094 A 
ATOM      9  C   UNL     1      37.672 -43.463  -4.413  1.00  0.00     0.336 A 
ATOM     10  O   UNL     1      38.905 -43.292  -4.599  1.00  0.00    -0.246 OA
ATOM     11  O   UNL     1      36.849 -42.419  -4.459  1.00  0.00    -0.423 OA
ENDROOT
BRANCH   1  12
ATOM     12  O   UNL     1      31.369 -42.833  -3.681  1.00  0.00    -0.493 OA
ATOM     13  C   UNL     1      30.454 -43.409  -4.608  1.00  0.00     0.278 C 
ENDBRANCH   1  12
BRANCH   2  14
ATOM     14  O   UNL     1      32.526 -40.382  -4.196  1.00  0.00    -0.504 OA
ATOM     15  H   UNL     1      31.885 -40.146  -3.448  1.00  0.00     0.293 HD
ENDBRANCH   2  14
TORSDOF 2
ENDMDL
MODEL 5
REMARK VINA RESULT:    -4.031      1.364      5.379
REMARK INTER + INTRA:          -4.430
REMARK INTER:                  -4.386
REMARK INTRA:                  -0.044
REMARK UNBOUND:                -0.046
REMARK SMILES COc1cc2ccc(=O)oc2cc1O
REMARK SMILES IDX 3 1 13 2 12 3 11 4 5 5 4 6 6 7 7 8 8 9 9 10 10 11 2 12 1 13
REMARK SMILES IDX 14 14
REMARK H PARENT 14 15
REMARK Flexibility Score: inf
ROOT
ATOM      1  C   UNL     1      34.003 -37.307  10.383  1.00  0.00     0.161 A 
ATOM      2  C   UNL     1      34.194 -38.575   9.814  1.00  0.00     0.161 A 
ATOM      3  C   UNL     1      34.572 -39.662  10.616  1.00  0.00     0.098 A 
ATOM      4  C   UNL     1      34.761 -39.491  11.989  1.00  0.00     0.142 A 
ATOM      5  C   UNL     1      34.573 -38.220  12.569  1.00  0.00     0.022 A 
ATOM      6  C   UNL     1      34.194 -37.133  11.769  1.00  0.00     0.062 A 
ATOM      7  C   UNL     1      34.771 -38.080  13.948  1.00  0.00     0.019 A 
ATOM      8  C   UNL     1      35.145 -39.192  14.701  1.00  0.00     0.094 A 
ATOM      9  C   UNL     1      35.315 -40.421  14.057  1.00  0.00     0.336 A 
ATOM     10  O   UNL     1      35.654 -41.437  14.720  1.00  0.00    -0.246 OA
ATOM     11  O   UNL     1      35.121 -40.527  12.745  1.00  0.00    -0.423 OA
ENDROOT
BRANCH   1  12
ATOM     12  O   UNL     1      33.625 -36.248   9.543  1.00  0.00    -0.493 OA
ATOM     13  C   UNL     1      32.277 -35.875   9.272  1.00  0.00     0.278 C 
ENDBRANCH   1  12
BRANCH   2  14
ATOM     14  O   UNL     1      34.004 -38.749   8.444  1.00  0.00    -0.504 OA
ATOM     15  H   UNL     1      33.518 -39.557   8.073  1.00  0.00     0.293 HD
ENDBRANCH   2  14
TORSDOF 2
ENDMDL
MODEL 6
REMARK VINA RESULT:    -4.011     15.238     16.446
REMARK INTER + INTRA:          -4.408
REMARK INTER:                  -4.346
REMARK INTRA:                  -0.062
REMARK UNBOUND:                -0.046
REMARK SMILES COc1cc2ccc(=O)oc2cc1O
REMARK SMILES IDX 3 1 13 2 12 3 11 4 5 5 4 6 6 7 7 8 8 9 9 10 10 11 2 12 1 13
REMARK SMILES IDX 14 14
REMARK H PARENT 14 15
REMARK Flexibility Score: inf
ROOT
ATOM      1  C   UNL     1      37.760 -39.807  -3.600  1.00  0.00     0.161 A 
ATOM      2  C   UNL     1      37.840 -40.862  -4.523  1.00  0.00     0.161 A 
ATOM      3  C   UNL     1      36.696 -41.602  -4.853  1.00  0.00     0.098 A 
ATOM      4  C   UNL     1      35.466 -41.297  -4.267  1.00  0.00     0.142 A 
ATOM      5  C   UNL     1      35.376 -40.239  -3.338  1.00  0.00     0.022 A 
ATOM      6  C   UNL     1      36.519 -39.498  -3.007  1.00  0.00     0.062 A 
ATOM      7  C   UNL     1      34.130 -39.957  -2.767  1.00  0.00     0.019 A 
ATOM      8  C   UNL     1      33.023 -40.723  -3.129  1.00  0.00     0.094 A 
ATOM      9  C   UNL     1      33.187 -41.756  -4.056  1.00  0.00     0.336 A 
ATOM     10  O   UNL     1      32.200 -42.460  -4.396  1.00  0.00    -0.246 OA
ATOM     11  O   UNL     1      34.383 -42.004  -4.584  1.00  0.00    -0.423 OA
ENDROOT
BRANCH   1  12
ATOM     12  O   UNL     1      38.930 -39.093  -3.299  1.00  0.00    -0.493 OA
ATOM     13  C   UNL     1      39.134 -37.715  -3.599  1.00  0.00     0.278 C 
ENDBRANCH   1  12
BRANCH   2  14
ATOM     14  O   UNL     1      39.066 -41.168  -5.111  1.00  0.00    -0.504 OA
ATOM     15  H   UNL     1      39.556 -40.502  -5.696  1.00  0.00     0.293 HD
ENDBRANCH   2  14
TORSDOF 2
ENDMDL
MODEL 7
REMARK VINA RESULT:    -3.949      5.830      8.964
REMARK INTER + INTRA:          -4.341
REMARK INTER:                  -4.292
REMARK INTRA:                  -0.050
REMARK UNBOUND:                -0.046
REMARK SMILES COc1cc2ccc(=O)oc2cc1O
REMARK SMILES IDX 3 1 13 2 12 3 11 4 5 5 4 6 6 7 7 8 8 9 9 10 10 11 2 12 1 13
REMARK SMILES IDX 14 14
REMARK H PARENT 14 15
REMARK Flexibility Score: inf
ROOT
ATOM      1  C   UNL     1      35.115 -37.235   2.731  1.00  0.00     0.161 A 
ATOM      2  C   UNL     1      33.762 -37.588   2.607  1.00  0.00     0.161 A 
ATOM      3  C   UNL     1      32.884 -37.422   3.687  1.00  0.00     0.098 A 
ATOM      4  C   UNL     1      33.348 -36.903   4.898  1.00  0.00     0.142 A 
ATOM      5  C   UNL     1      34.707 -36.547   5.033  1.00  0.00     0.022 A 
ATOM      6  C   UNL     1      35.585 -36.712   3.953  1.00  0.00     0.062 A 
ATOM      7  C   UNL     1      35.142 -36.030   6.258  1.00  0.00     0.019 A 
ATOM      8  C   UNL     1      34.229 -35.884   7.302  1.00  0.00     0.094 A 
ATOM      9  C   UNL     1      32.898 -36.260   7.096  1.00  0.00     0.336 A 
ATOM     10  O   UNL     1      32.058 -36.136   8.026  1.00  0.00    -0.246 OA
ATOM     11  O   UNL     1      32.510 -36.748   5.921  1.00  0.00    -0.423 OA
ENDROOT
BRANCH   1  12
ATOM     12  O   UNL     1      35.958 -37.418   1.624  1.00  0.00    -0.493 OA
ATOM     13  C   UNL     1      37.019 -36.539   1.263  1.00  0.00     0.278 C 
ENDBRANCH   1  12
BRANCH   2  14
ATOM     14  O   UNL     1      33.296 -38.105   1.399  1.00  0.00    -0.504 OA
ATOM     15  H   UNL     1      32.715 -37.556   0.775  1.00  0.00     0.293 HD
ENDBRANCH   2  14
TORSDOF 2
ENDMDL
MODEL 8
REMARK VINA RESULT:    -3.820      5.315      7.895
REMARK INTER + INTRA:          -4.201
REMARK INTER:                  -4.155
REMARK INTRA:                  -0.045
REMARK UNBOUND:                -0.046
REMARK SMILES COc1cc2ccc(=O)oc2cc1O
REMARK SMILES IDX 3 1 13 2 12 3 11 4 5 5 4 6 6 7 7 8 8 9 9 10 10 11 2 12 1 13
REMARK SMILES IDX 14 14
REMARK H PARENT 14 15
REMARK Flexibility Score: inf
ROOT
ATOM      1  C   UNL     1      32.645 -36.386   6.485  1.00  0.00     0.161 A 
ATOM      2  C   UNL     1      31.708 -36.687   5.484  1.00  0.00     0.161 A 
ATOM      3  C   UNL     1      32.136 -37.097   4.213  1.00  0.00     0.098 A 
ATOM      4  C   UNL     1      33.499 -37.209   3.932  1.00  0.00     0.142 A 
ATOM      5  C   UNL     1      34.448 -36.907   4.932  1.00  0.00     0.022 A 
ATOM      6  C   UNL     1      34.021 -36.498   6.203  1.00  0.00     0.062 A 
ATOM      7  C   UNL     1      35.807 -37.029   4.619  1.00  0.00     0.019 A 
ATOM      8  C   UNL     1      36.181 -37.441   3.341  1.00  0.00     0.094 A 
ATOM      9  C   UNL     1      35.185 -37.722   2.401  1.00  0.00     0.336 A 
ATOM     10  O   UNL     1      35.502 -38.094   1.240  1.00  0.00    -0.246 OA
ATOM     11  O   UNL     1      33.900 -37.598   2.723  1.00  0.00    -0.423 OA
ENDROOT
BRANCH   1  12
ATOM     12  O   UNL     1      32.171 -35.980   7.743  1.00  0.00    -0.493 OA
ATOM     13  C   UNL     1      32.976 -35.875   8.913  1.00  0.00     0.278 C 
ENDBRANCH   1  12
BRANCH   2  14
ATOM     14  O   UNL     1      30.346 -36.577   5.762  1.00  0.00    -0.504 OA
ATOM     15  H   UNL     1      29.994 -36.606   6.711  1.00  0.00     0.293 HD
ENDBRANCH   2  14
TORSDOF 2
ENDMDL
MODEL 9
REMARK VINA RESULT:    -2.647      1.305      4.889
REMARK INTER + INTRA:          -2.925
REMARK INTER:                  -2.860
REMARK INTRA:                  -0.065
REMARK UNBOUND:                -0.046
REMARK SMILES COc1cc2ccc(=O)oc2cc1O
REMARK SMILES IDX 3 1 13 2 12 3 11 4 5 5 4 6 6 7 7 8 8 9 9 10 10 11 2 12 1 13
REMARK SMILES IDX 14 14
REMARK H PARENT 14 15
REMARK Flexibility Score: inf
ROOT
ATOM      1  C   UNL     1      34.344 -38.439   8.926  1.00  0.00     0.161 A 
ATOM      2  C   UNL     1      33.982 -37.191   9.457  1.00  0.00     0.161 A 
ATOM      3  C   UNL     1      34.002 -36.978  10.842  1.00  0.00     0.098 A 
ATOM      4  C   UNL     1      34.381 -38.006  11.708  1.00  0.00     0.142 A 
ATOM      5  C   UNL     1      34.745 -39.264  11.183  1.00  0.00     0.022 A 
ATOM      6  C   UNL     1      34.727 -39.478   9.798  1.00  0.00     0.062 A 
ATOM      7  C   UNL     1      35.120 -40.275  12.076  1.00  0.00     0.019 A 
ATOM      8  C   UNL     1      35.123 -40.012  13.445  1.00  0.00     0.094 A 
ATOM      9  C   UNL     1      34.749 -38.741  13.892  1.00  0.00     0.336 A 
ATOM     10  O   UNL     1      34.745 -38.484  15.125  1.00  0.00    -0.246 OA
ATOM     11  O   UNL     1      34.397 -37.798  13.023  1.00  0.00    -0.423 OA
ENDROOT
BRANCH   1  12
ATOM     12  O   UNL     1      34.310 -38.608   7.533  1.00  0.00    -0.493 OA
ATOM     13  C   UNL     1      35.463 -38.646   6.697  1.00  0.00     0.278 C 
ENDBRANCH   1  12
BRANCH   2  14
ATOM     14  O   UNL     1      33.604 -36.162   8.595  1.00  0.00    -0.504 OA
ATOM     15  H   UNL     1      33.041 -36.338   7.772  1.00  0.00     0.293 HD
ENDBRANCH   2  14
TORSDOF 2
ENDMDL
