MODEL 1
REMARK VINA RESULT:    -7.352      0.000      0.000
REMARK INTER + INTRA:          -9.268
REMARK INTER:                  -8.857
REMARK INTRA:                  -0.411
REMARK UNBOUND:                -0.411
REMARK SMILES O=c1c(O)c(-c2ccc(O)cc2O)oc2cc(O)cc(O)c12
REMARK SMILES IDX 5 1 3 2 2 3 1 4 22 5 20 6 19 7 17 8 16 9 15 10 14 11 6 12
REMARK SMILES IDX 8 13 7 14 9 15 11 16 12 17 10 18 13 20 4 22 21 24 18 26
REMARK H PARENT 10 19 13 21 4 23 21 25 18 27
REMARK Flexibility Score: inf
ROOT
ATOM      1  C   UNL     1       4.001  70.710   6.577  1.00  0.00     0.184 A 
ATOM      2  C   UNL     1       2.872  70.594   7.401  1.00  0.00     0.208 A 
ATOM      3  C   UNL     1       1.715  71.321   7.078  1.00  0.00     0.238 A 
ATOM      4  O   UNL     1       0.688  71.170   7.790  1.00  0.00    -0.285 OA
ATOM      5  C   UNL     1       1.711  72.168   5.943  1.00  0.00     0.111 A 
ATOM      6  C   UNL     1       0.609  72.983   5.544  1.00  0.00     0.134 A 
ATOM      7  C   UNL     1       0.671  73.682   4.332  1.00  0.00     0.093 A 
ATOM      8  C   UNL     1       1.820  73.648   3.538  1.00  0.00     0.123 A 
ATOM      9  C   UNL     1       2.922  72.903   3.948  1.00  0.00     0.094 A 
ATOM     10  C   UNL     1       2.878  72.166   5.134  1.00  0.00     0.146 A 
ATOM     11  O   UNL     1       3.947  71.460   5.483  1.00  0.00    -0.451 OA
ENDROOT
BRANCH   1  12
ATOM     12  C   UNL     1       5.256  69.984   6.869  1.00  0.00     0.063 A 
ATOM     13  C   UNL     1       7.408  69.927   7.999  1.00  0.00     0.047 A 
ATOM     14  C   UNL     1       6.214  70.588   7.697  1.00  0.00     0.020 A 
ATOM     15  C   UNL     1       7.652  68.650   7.488  1.00  0.00     0.119 A 
ATOM     16  C   UNL     1       6.691  68.029   6.679  1.00  0.00     0.093 A 
ATOM     17  C   UNL     1       5.489  68.683   6.376  1.00  0.00     0.130 A 
BRANCH  15  18
ATOM     18  O   UNL     1       8.849  68.004   7.793  1.00  0.00    -0.508 OA
ATOM     19  H   UNL     1       9.647  68.512   8.156  1.00  0.00     0.293 HD
ENDBRANCH  15  18
BRANCH  17  20
ATOM     20  O   UNL     1       4.519  68.034   5.611  1.00  0.00    -0.507 OA
ATOM     21  H   UNL     1       4.765  67.327   4.928  1.00  0.00     0.293 HD
ENDBRANCH  17  20
ENDBRANCH   1  12
BRANCH   2  22
ATOM     22  O   UNL     1       2.897  69.736   8.504  1.00  0.00    -0.502 OA
ATOM     23  H   UNL     1       2.110  69.150   8.755  1.00  0.00     0.293 HD
ENDBRANCH   2  22
BRANCH   6  24
ATOM     24  O   UNL     1      -0.547  73.159   6.309  1.00  0.00    -0.507 OA
ATOM     25  H   UNL     1      -0.621  72.963   7.295  1.00  0.00     0.293 HD
ENDBRANCH   6  24
BRANCH   8  26
ATOM     26  O   UNL     1       1.877  74.359   2.342  1.00  0.00    -0.508 OA
ATOM     27  H   UNL     1       1.459  75.277   2.250  1.00  0.00     0.293 HD
ENDBRANCH   8  26
TORSDOF 6
ENDMDL
MODEL 2
REMARK VINA RESULT:    -7.299      1.198      2.821
REMARK INTER + INTRA:          -9.204
REMARK INTER:                  -8.829
REMARK INTRA:                  -0.374
REMARK UNBOUND:                -0.411
REMARK SMILES O=c1c(O)c(-c2ccc(O)cc2O)oc2cc(O)cc(O)c12
REMARK SMILES IDX 5 1 3 2 2 3 1 4 22 5 20 6 19 7 17 8 16 9 15 10 14 11 6 12
REMARK SMILES IDX 8 13 7 14 9 15 11 16 12 17 10 18 13 20 4 22 21 24 18 26
REMARK H PARENT 10 19 13 21 4 23 21 25 18 27
REMARK Flexibility Score: inf
ROOT
ATOM      1  C   UNL     1       4.248  70.882   5.725  1.00  0.00     0.184 A 
ATOM      2  C   UNL     1       4.256  71.328   4.394  1.00  0.00     0.208 A 
ATOM      3  C   UNL     1       3.160  72.066   3.917  1.00  0.00     0.238 A 
ATOM      4  O   UNL     1       3.198  72.510   2.740  1.00  0.00    -0.285 OA
ATOM      5  C   UNL     1       2.066  72.333   4.774  1.00  0.00     0.111 A 
ATOM      6  C   UNL     1       0.886  73.036   4.386  1.00  0.00     0.134 A 
ATOM      7  C   UNL     1      -0.077  73.355   5.352  1.00  0.00     0.093 A 
ATOM      8  C   UNL     1       0.067  72.940   6.678  1.00  0.00     0.123 A 
ATOM      9  C   UNL     1       1.187  72.202   7.054  1.00  0.00     0.094 A 
ATOM     10  C   UNL     1       2.182  71.899   6.122  1.00  0.00     0.146 A 
ATOM     11  O   UNL     1       3.239  71.204   6.524  1.00  0.00    -0.451 OA
ENDROOT
BRANCH   1  12
ATOM     12  C   UNL     1       5.362  70.087   6.285  1.00  0.00     0.063 A 
ATOM     13  C   UNL     1       7.365  69.998   7.659  1.00  0.00     0.047 A 
ATOM     14  C   UNL     1       6.304  70.722   7.108  1.00  0.00     0.020 A 
ATOM     15  C   UNL     1       7.491  68.631   7.403  1.00  0.00     0.119 A 
ATOM     16  C   UNL     1       6.542  67.983   6.601  1.00  0.00     0.093 A 
ATOM     17  C   UNL     1       5.471  68.700   6.049  1.00  0.00     0.130 A 
BRANCH  15  18
ATOM     18  O   UNL     1       8.557  67.923   7.955  1.00  0.00    -0.508 OA
ATOM     19  H   UNL     1       8.613  67.741   8.950  1.00  0.00     0.293 HD
ENDBRANCH  15  18
BRANCH  17  20
ATOM     20  O   UNL     1       4.506  68.035   5.293  1.00  0.00    -0.507 OA
ATOM     21  H   UNL     1       4.002  68.499   4.546  1.00  0.00     0.293 HD
ENDBRANCH  17  20
ENDBRANCH   1  12
BRANCH   2  22
ATOM     22  O   UNL     1       5.358  71.066   3.575  1.00  0.00    -0.502 OA
ATOM     23  H   UNL     1       5.533  70.153   3.176  1.00  0.00     0.293 HD
ENDBRANCH   2  22
BRANCH   6  24
ATOM     24  O   UNL     1       0.601  73.416   3.072  1.00  0.00    -0.507 OA
ATOM     25  H   UNL     1       0.990  72.980   2.249  1.00  0.00     0.293 HD
ENDBRANCH   6  24
BRANCH   8  26
ATOM     26  O   UNL     1      -0.903  73.249   7.629  1.00  0.00    -0.508 OA
ATOM     27  H   UNL     1      -1.604  72.574   7.911  1.00  0.00     0.293 HD
ENDBRANCH   8  26
TORSDOF 6
ENDMDL
MODEL 3
REMARK VINA RESULT:    -7.292      2.585      3.389
REMARK INTER + INTRA:          -9.196
REMARK INTER:                  -8.920
REMARK INTRA:                  -0.276
REMARK UNBOUND:                -0.411
REMARK SMILES O=c1c(O)c(-c2ccc(O)cc2O)oc2cc(O)cc(O)c12
REMARK SMILES IDX 5 1 3 2 2 3 1 4 22 5 20 6 19 7 17 8 16 9 15 10 14 11 6 12
REMARK SMILES IDX 8 13 7 14 9 15 11 16 12 17 10 18 13 20 4 22 21 24 18 26
REMARK H PARENT 10 19 13 21 4 23 21 25 18 27
REMARK Flexibility Score: inf
ROOT
ATOM      1  C   UNL     1       6.080  70.028   6.834  1.00  0.00     0.184 A 
ATOM      2  C   UNL     1       5.427  68.998   6.140  1.00  0.00     0.208 A 
ATOM      3  C   UNL     1       4.497  69.333   5.143  1.00  0.00     0.238 A 
ATOM      4  O   UNL     1       3.955  68.407   4.486  1.00  0.00    -0.285 OA
ATOM      5  C   UNL     1       4.221  70.694   4.867  1.00  0.00     0.111 A 
ATOM      6  C   UNL     1       3.268  71.150   3.908  1.00  0.00     0.134 A 
ATOM      7  C   UNL     1       3.170  72.518   3.627  1.00  0.00     0.093 A 
ATOM      8  C   UNL     1       3.946  73.453   4.318  1.00  0.00     0.123 A 
ATOM      9  C   UNL     1       4.836  73.023   5.298  1.00  0.00     0.094 A 
ATOM     10  C   UNL     1       4.982  71.662   5.576  1.00  0.00     0.146 A 
ATOM     11  O   UNL     1       5.851  71.294   6.510  1.00  0.00    -0.451 OA
ENDROOT
BRANCH   1  12
ATOM     12  C   UNL     1       7.058  69.743   7.906  1.00  0.00     0.063 A 
ATOM     13  C   UNL     1       9.126  68.669   8.599  1.00  0.00     0.047 A 
ATOM     14  C   UNL     1       8.179  68.952   7.611  1.00  0.00     0.020 A 
ATOM     15  C   UNL     1       8.972  69.184   9.888  1.00  0.00     0.119 A 
ATOM     16  C   UNL     1       7.868  69.994  10.187  1.00  0.00     0.093 A 
ATOM     17  C   UNL     1       6.916  70.287   9.200  1.00  0.00     0.130 A 
BRANCH  15  18
ATOM     18  O   UNL     1       9.922  68.889  10.865  1.00  0.00    -0.508 OA
ATOM     19  H   UNL     1       9.784  68.135  11.526  1.00  0.00     0.293 HD
ENDBRANCH  15  18
BRANCH  17  20
ATOM     20  O   UNL     1       5.848  71.134   9.496  1.00  0.00    -0.507 OA
ATOM     21  H   UNL     1       5.989  72.117   9.701  1.00  0.00     0.293 HD
ENDBRANCH  17  20
ENDBRANCH   1  12
BRANCH   2  22
ATOM     22  O   UNL     1       5.732  67.663   6.418  1.00  0.00    -0.502 OA
ATOM     23  H   UNL     1       5.111  66.902   6.176  1.00  0.00     0.293 HD
ENDBRANCH   2  22
BRANCH   6  24
ATOM     24  O   UNL     1       2.381  70.309   3.229  1.00  0.00    -0.507 OA
ATOM     25  H   UNL     1       2.093  70.430   2.270  1.00  0.00     0.293 HD
ENDBRANCH   6  24
BRANCH   8  26
ATOM     26  O   UNL     1       3.831  74.813   4.042  1.00  0.00    -0.508 OA
ATOM     27  H   UNL     1       3.295  75.432   4.639  1.00  0.00     0.293 HD
ENDBRANCH   8  26
TORSDOF 6
ENDMDL
MODEL 4
REMARK VINA RESULT:    -7.125      1.745      3.318
REMARK INTER + INTRA:          -8.994
REMARK INTER:                  -9.316
REMARK INTRA:                   0.321
REMARK UNBOUND:                -0.411
REMARK SMILES O=c1c(O)c(-c2ccc(O)cc2O)oc2cc(O)cc(O)c12
REMARK SMILES IDX 5 1 3 2 2 3 1 4 22 5 20 6 19 7 17 8 16 9 15 10 14 11 6 12
REMARK SMILES IDX 8 13 7 14 9 15 11 16 12 17 10 18 13 20 4 22 21 24 18 26
REMARK H PARENT 10 19 13 21 4 23 21 25 18 27
REMARK Flexibility Score: inf
ROOT
ATOM      1  C   UNL     1       4.246  71.570   6.853  1.00  0.00     0.184 A 
ATOM      2  C   UNL     1       4.458  71.828   5.490  1.00  0.00     0.208 A 
ATOM      3  C   UNL     1       3.396  72.328   4.719  1.00  0.00     0.238 A 
ATOM      4  O   UNL     1       3.607  72.609   3.511  1.00  0.00    -0.285 OA
ATOM      5  C   UNL     1       2.132  72.546   5.320  1.00  0.00     0.111 A 
ATOM      6  C   UNL     1       0.975  73.010   4.626  1.00  0.00     0.134 A 
ATOM      7  C   UNL     1      -0.187  73.313   5.347  1.00  0.00     0.093 A 
ATOM      8  C   UNL     1      -0.254  73.106   6.728  1.00  0.00     0.123 A 
ATOM      9  C   UNL     1       0.851  72.597   7.404  1.00  0.00     0.094 A 
ATOM     10  C   UNL     1       2.037  72.319   6.719  1.00  0.00     0.146 A 
ATOM     11  O   UNL     1       3.071  71.846   7.404  1.00  0.00    -0.451 OA
ENDROOT
BRANCH   1  12
ATOM     12  C   UNL     1       5.317  71.029   7.717  1.00  0.00     0.063 A 
ATOM     13  C   UNL     1       7.409  69.807   7.913  1.00  0.00     0.047 A 
ATOM     14  C   UNL     1       6.378  70.326   7.126  1.00  0.00     0.020 A 
ATOM     15  C   UNL     1       7.400  69.994   9.297  1.00  0.00     0.119 A 
ATOM     16  C   UNL     1       6.357  70.714   9.894  1.00  0.00     0.093 A 
ATOM     17  C   UNL     1       5.321  71.243   9.112  1.00  0.00     0.130 A 
BRANCH  15  18
ATOM     18  O   UNL     1       8.433  69.467  10.070  1.00  0.00    -0.508 OA
ATOM     19  H   UNL     1       9.099  70.066  10.542  1.00  0.00     0.293 HD
ENDBRANCH  15  18
BRANCH  17  20
ATOM     20  O   UNL     1       4.314  72.001   9.712  1.00  0.00    -0.507 OA
ATOM     21  H   UNL     1       4.524  72.719  10.395  1.00  0.00     0.293 HD
ENDBRANCH  17  20
ENDBRANCH   1  12
BRANCH   2  22
ATOM     22  O   UNL     1       5.720  71.622   4.927  1.00  0.00    -0.502 OA
ATOM     23  H   UNL     1       5.856  71.487   3.933  1.00  0.00     0.293 HD
ENDBRANCH   2  22
BRANCH   6  24
ATOM     24  O   UNL     1       0.906  73.163   3.239  1.00  0.00    -0.507 OA
ATOM     25  H   UNL     1       1.275  72.506   2.568  1.00  0.00     0.293 HD
ENDBRANCH   6  24
BRANCH   8  26
ATOM     26  O   UNL     1      -1.419  73.395   7.434  1.00  0.00    -0.508 OA
ATOM     27  H   UNL     1      -2.300  73.556   6.960  1.00  0.00     0.293 HD
ENDBRANCH   8  26
TORSDOF 6
ENDMDL
MODEL 5
REMARK VINA RESULT:    -7.100      2.073      2.877
REMARK INTER + INTRA:          -8.964
REMARK INTER:                  -9.015
REMARK INTRA:                   0.051
REMARK UNBOUND:                -0.411
REMARK SMILES O=c1c(O)c(-c2ccc(O)cc2O)oc2cc(O)cc(O)c12
REMARK SMILES IDX 5 1 3 2 2 3 1 4 22 5 20 6 19 7 17 8 16 9 15 10 14 11 6 12
REMARK SMILES IDX 8 13 7 14 9 15 11 16 12 17 10 18 13 20 4 22 21 24 18 26
REMARK H PARENT 10 19 13 21 4 23 21 25 18 27
REMARK Flexibility Score: inf
ROOT
ATOM      1  C   UNL     1       6.101  70.368   7.898  1.00  0.00     0.184 A 
ATOM      2  C   UNL     1       5.021  70.922   8.602  1.00  0.00     0.208 A 
ATOM      3  C   UNL     1       3.961  71.494   7.880  1.00  0.00     0.238 A 
ATOM      4  O   UNL     1       2.969  71.940   8.515  1.00  0.00    -0.285 OA
ATOM      5  C   UNL     1       4.005  71.519   6.466  1.00  0.00     0.111 A 
ATOM      6  C   UNL     1       3.006  72.109   5.634  1.00  0.00     0.134 A 
ATOM      7  C   UNL     1       3.090  71.961   4.244  1.00  0.00     0.093 A 
ATOM      8  C   UNL     1       4.170  71.300   3.653  1.00  0.00     0.123 A 
ATOM      9  C   UNL     1       5.180  70.773   4.453  1.00  0.00     0.094 A 
ATOM     10  C   UNL     1       5.107  70.873   5.844  1.00  0.00     0.146 A 
ATOM     11  O   UNL     1       6.085  70.346   6.571  1.00  0.00    -0.451 OA
ENDROOT
BRANCH   1  12
ATOM     12  C   UNL     1       7.256  69.764   8.597  1.00  0.00     0.063 A 
ATOM     13  C   UNL     1       8.769  69.772  10.499  1.00  0.00     0.047 A 
ATOM     14  C   UNL     1       7.685  70.322   9.810  1.00  0.00     0.020 A 
ATOM     15  C   UNL     1       9.429  68.651   9.991  1.00  0.00     0.119 A 
ATOM     16  C   UNL     1       8.993  68.072   8.792  1.00  0.00     0.093 A 
ATOM     17  C   UNL     1       7.903  68.614   8.097  1.00  0.00     0.130 A 
BRANCH  15  18
ATOM     18  O   UNL     1      10.512  68.116  10.687  1.00  0.00    -0.508 OA
ATOM     19  H   UNL     1      10.788  67.148  10.573  1.00  0.00     0.293 HD
ENDBRANCH  15  18
BRANCH  17  20
ATOM     20  O   UNL     1       7.448  67.999   6.930  1.00  0.00    -0.507 OA
ATOM     21  H   UNL     1       6.489  67.686   6.833  1.00  0.00     0.293 HD
ENDBRANCH  17  20
ENDBRANCH   1  12
BRANCH   2  22
ATOM     22  O   UNL     1       4.993  70.867   9.998  1.00  0.00    -0.502 OA
ATOM     23  H   UNL     1       4.674  70.050  10.504  1.00  0.00     0.293 HD
ENDBRANCH   2  22
BRANCH   6  24
ATOM     24  O   UNL     1       1.937  72.868   6.118  1.00  0.00    -0.507 OA
ATOM     25  H   UNL     1       0.984  72.792   5.794  1.00  0.00     0.293 HD
ENDBRANCH   6  24
BRANCH   8  26
ATOM     26  O   UNL     1       4.252  71.171   2.268  1.00  0.00    -0.508 OA
ATOM     27  H   UNL     1       3.447  71.324   1.672  1.00  0.00     0.293 HD
ENDBRANCH   8  26
TORSDOF 6
ENDMDL
MODEL 6
REMARK VINA RESULT:    -7.041      1.907      6.588
REMARK INTER + INTRA:          -8.893
REMARK INTER:                  -8.864
REMARK INTRA:                  -0.029
REMARK UNBOUND:                -0.411
REMARK SMILES O=c1c(O)c(-c2ccc(O)cc2O)oc2cc(O)cc(O)c12
REMARK SMILES IDX 5 1 3 2 2 3 1 4 22 5 20 6 19 7 17 8 16 9 15 10 14 11 6 12
REMARK SMILES IDX 8 13 7 14 9 15 11 16 12 17 10 18 13 20 4 22 21 24 18 26
REMARK H PARENT 10 19 13 21 4 23 21 25 18 27
REMARK Flexibility Score: inf
ROOT
ATOM      1  C   UNL     1       3.476  71.894   7.345  1.00  0.00     0.184 A 
ATOM      2  C   UNL     1       3.181  72.060   8.707  1.00  0.00     0.208 A 
ATOM      3  C   UNL     1       4.097  71.592   9.662  1.00  0.00     0.238 A 
ATOM      4  O   UNL     1       3.854  71.793  10.881  1.00  0.00    -0.285 OA
ATOM      5  C   UNL     1       5.287  70.951   9.241  1.00  0.00     0.111 A 
ATOM      6  C   UNL     1       6.267  70.402  10.122  1.00  0.00     0.134 A 
ATOM      7  C   UNL     1       7.466  69.905   9.597  1.00  0.00     0.093 A 
ATOM      8  C   UNL     1       7.693  69.878   8.218  1.00  0.00     0.123 A 
ATOM      9  C   UNL     1       6.718  70.357   7.348  1.00  0.00     0.094 A 
ATOM     10  C   UNL     1       5.527  70.892   7.843  1.00  0.00     0.146 A 
ATOM     11  O   UNL     1       4.628  71.349   6.978  1.00  0.00    -0.451 OA
ENDROOT
BRANCH   1  12
ATOM     12  C   UNL     1       2.547  72.350   6.288  1.00  0.00     0.063 A 
ATOM     13  C   UNL     1       0.261  72.603   5.499  1.00  0.00     0.047 A 
ATOM     14  C   UNL     1       1.167  72.178   6.475  1.00  0.00     0.020 A 
ATOM     15  C   UNL     1       0.722  73.215   4.331  1.00  0.00     0.119 A 
ATOM     16  C   UNL     1       2.097  73.412   4.145  1.00  0.00     0.093 A 
ATOM     17  C   UNL     1       3.012  72.994   5.122  1.00  0.00     0.130 A 
BRANCH  15  18
ATOM     18  O   UNL     1      -0.192  73.629   3.365  1.00  0.00    -0.508 OA
ATOM     19  H   UNL     1      -0.389  74.610   3.208  1.00  0.00     0.293 HD
ENDBRANCH  15  18
BRANCH  17  20
ATOM     20  O   UNL     1       4.374  73.240   4.948  1.00  0.00    -0.507 OA
ATOM     21  H   UNL     1       5.064  72.906   5.611  1.00  0.00     0.293 HD
ENDBRANCH  17  20
ENDBRANCH   1  12
BRANCH   2  22
ATOM     22  O   UNL     1       2.009  72.714   9.094  1.00  0.00    -0.502 OA
ATOM     23  H   UNL     1       1.097  72.447   8.746  1.00  0.00     0.293 HD
ENDBRANCH   2  22
BRANCH   6  24
ATOM     24  O   UNL     1       6.100  70.296  11.506  1.00  0.00    -0.507 OA
ATOM     25  H   UNL     1       5.218  70.380  11.987  1.00  0.00     0.293 HD
ENDBRANCH   6  24
BRANCH   8  26
ATOM     26  O   UNL     1       8.883  69.368   7.705  1.00  0.00    -0.508 OA
ATOM     27  H   UNL     1       9.347  68.574   8.129  1.00  0.00     0.293 HD
ENDBRANCH   8  26
TORSDOF 6
ENDMDL
MODEL 7
REMARK VINA RESULT:    -6.891      1.585      6.797
REMARK INTER + INTRA:          -8.712
REMARK INTER:                  -8.294
REMARK INTRA:                  -0.418
REMARK UNBOUND:                -0.411
REMARK SMILES O=c1c(O)c(-c2ccc(O)cc2O)oc2cc(O)cc(O)c12
REMARK SMILES IDX 5 1 3 2 2 3 1 4 22 5 20 6 19 7 17 8 16 9 15 10 14 11 6 12
REMARK SMILES IDX 8 13 7 14 9 15 11 16 12 17 10 18 13 20 4 22 21 24 18 26
REMARK H PARENT 10 19 13 21 4 23 21 25 18 27
REMARK Flexibility Score: inf
ROOT
ATOM      1  C   UNL     1       3.532  70.745   5.598  1.00  0.00     0.184 A 
ATOM      2  C   UNL     1       3.594  69.452   5.058  1.00  0.00     0.208 A 
ATOM      3  C   UNL     1       4.621  68.589   5.475  1.00  0.00     0.238 A 
ATOM      4  O   UNL     1       4.639  67.412   5.029  1.00  0.00    -0.285 OA
ATOM      5  C   UNL     1       5.579  69.039   6.415  1.00  0.00     0.111 A 
ATOM      6  C   UNL     1       6.685  68.265   6.878  1.00  0.00     0.134 A 
ATOM      7  C   UNL     1       7.496  68.765   7.905  1.00  0.00     0.093 A 
ATOM      8  C   UNL     1       7.280  70.037   8.439  1.00  0.00     0.123 A 
ATOM      9  C   UNL     1       6.240  70.824   7.952  1.00  0.00     0.094 A 
ATOM     10  C   UNL     1       5.392  70.340   6.954  1.00  0.00     0.146 A 
ATOM     11  O   UNL     1       4.405  71.118   6.526  1.00  0.00    -0.451 OA
ENDROOT
BRANCH   1  12
ATOM     12  C   UNL     1       2.487  71.708   5.190  1.00  0.00     0.063 A 
ATOM     13  C   UNL     1       0.299  72.692   5.586  1.00  0.00     0.047 A 
ATOM     14  C   UNL     1       1.305  71.788   5.941  1.00  0.00     0.020 A 
ATOM     15  C   UNL     1       0.469  73.535   4.485  1.00  0.00     0.119 A 
ATOM     16  C   UNL     1       1.655  73.478   3.742  1.00  0.00     0.093 A 
ATOM     17  C   UNL     1       2.671  72.579   4.094  1.00  0.00     0.130 A 
BRANCH  15  18
ATOM     18  O   UNL     1      -0.544  74.427   4.140  1.00  0.00    -0.508 OA
ATOM     19  H   UNL     1      -1.490  74.111   3.960  1.00  0.00     0.293 HD
ENDBRANCH  15  18
BRANCH  17  20
ATOM     20  O   UNL     1       3.868  72.567   3.377  1.00  0.00    -0.507 OA
ATOM     21  H   UNL     1       4.588  73.262   3.532  1.00  0.00     0.293 HD
ENDBRANCH  17  20
ENDBRANCH   1  12
BRANCH   2  22
ATOM     22  O   UNL     1       2.624  69.027   4.146  1.00  0.00    -0.502 OA
ATOM     23  H   UNL     1       1.973  69.666   3.708  1.00  0.00     0.293 HD
ENDBRANCH   2  22
BRANCH   6  24
ATOM     24  O   UNL     1       7.044  67.022   6.349  1.00  0.00    -0.507 OA
ATOM     25  H   UNL     1       6.640  66.611   5.521  1.00  0.00     0.293 HD
ENDBRANCH   6  24
BRANCH   8  26
ATOM     26  O   UNL     1       8.101  70.532   9.449  1.00  0.00    -0.508 OA
ATOM     27  H   UNL     1       8.907  71.111   9.243  1.00  0.00     0.293 HD
ENDBRANCH   8  26
TORSDOF 6
ENDMDL
MODEL 8
REMARK VINA RESULT:    -6.513     10.934     13.953
REMARK INTER + INTRA:          -8.256
REMARK INTER:                  -7.855
REMARK INTRA:                  -0.401
REMARK UNBOUND:                -0.411
REMARK SMILES O=c1c(O)c(-c2ccc(O)cc2O)oc2cc(O)cc(O)c12
REMARK SMILES IDX 5 1 3 2 2 3 1 4 22 5 20 6 19 7 17 8 16 9 15 10 14 11 6 12
REMARK SMILES IDX 8 13 7 14 9 15 11 16 12 17 10 18 13 20 4 22 21 24 18 26
REMARK H PARENT 10 19 13 21 4 23 21 25 18 27
REMARK Flexibility Score: inf
ROOT
ATOM      1  C   UNL     1       3.272  81.560  -1.989  1.00  0.00     0.184 A 
ATOM      2  C   UNL     1       2.779  82.873  -2.025  1.00  0.00     0.208 A 
ATOM      3  C   UNL     1       2.230  83.426  -0.856  1.00  0.00     0.238 A 
ATOM      4  O   UNL     1       1.840  84.622  -0.880  1.00  0.00    -0.285 OA
ATOM      5  C   UNL     1       2.167  82.650   0.326  1.00  0.00     0.111 A 
ATOM      6  C   UNL     1       1.595  83.093   1.557  1.00  0.00     0.134 A 
ATOM      7  C   UNL     1       1.704  82.288   2.698  1.00  0.00     0.093 A 
ATOM      8  C   UNL     1       2.306  81.029   2.638  1.00  0.00     0.123 A 
ATOM      9  C   UNL     1       2.814  80.563   1.428  1.00  0.00     0.094 A 
ATOM     10  C   UNL     1       2.753  81.357   0.280  1.00  0.00     0.146 A 
ATOM     11  O   UNL     1       3.260  80.879  -0.850  1.00  0.00    -0.451 OA
ENDROOT
BRANCH   1  12
ATOM     12  C   UNL     1       3.848  80.914  -3.188  1.00  0.00     0.063 A 
ATOM     13  C   UNL     1       3.498  79.682  -5.255  1.00  0.00     0.047 A 
ATOM     14  C   UNL     1       2.987  80.297  -4.108  1.00  0.00     0.020 A 
ATOM     15  C   UNL     1       4.872  79.687  -5.501  1.00  0.00     0.119 A 
ATOM     16  C   UNL     1       5.738  80.321  -4.600  1.00  0.00     0.093 A 
ATOM     17  C   UNL     1       5.233  80.945  -3.451  1.00  0.00     0.130 A 
BRANCH  15  18
ATOM     18  O   UNL     1       5.368  79.066  -6.646  1.00  0.00    -0.508 OA
ATOM     19  H   UNL     1       5.089  79.365  -7.573  1.00  0.00     0.293 HD
ENDBRANCH  15  18
BRANCH  17  20
ATOM     20  O   UNL     1       6.100  81.615  -2.587  1.00  0.00    -0.507 OA
ATOM     21  H   UNL     1       7.101  81.637  -2.748  1.00  0.00     0.293 HD
ENDBRANCH  17  20
ENDBRANCH   1  12
BRANCH   2  22
ATOM     22  O   UNL     1       2.871  83.623  -3.200  1.00  0.00    -0.502 OA
ATOM     23  H   UNL     1       2.115  83.675  -3.872  1.00  0.00     0.293 HD
ENDBRANCH   2  22
BRANCH   6  24
ATOM     24  O   UNL     1       0.892  84.292   1.703  1.00  0.00    -0.507 OA
ATOM     25  H   UNL     1       0.998  85.098   1.106  1.00  0.00     0.293 HD
ENDBRANCH   6  24
BRANCH   8  26
ATOM     26  O   UNL     1       2.396  80.230   3.774  1.00  0.00    -0.508 OA
ATOM     27  H   UNL     1       3.266  80.128   4.284  1.00  0.00     0.293 HD
ENDBRANCH   8  26
TORSDOF 6
ENDMDL
MODEL 9
REMARK VINA RESULT:    -6.502     12.573     14.981
REMARK INTER + INTRA:          -8.243
REMARK INTER:                  -7.851
REMARK INTRA:                  -0.392
REMARK UNBOUND:                -0.411
REMARK SMILES O=c1c(O)c(-c2ccc(O)cc2O)oc2cc(O)cc(O)c12
REMARK SMILES IDX 5 1 3 2 2 3 1 4 22 5 20 6 19 7 17 8 16 9 15 10 14 11 6 12
REMARK SMILES IDX 8 13 7 14 9 15 11 16 12 17 10 18 13 20 4 22 21 24 18 26
REMARK H PARENT 10 19 13 21 4 23 21 25 18 27
REMARK Flexibility Score: inf
ROOT
ATOM      1  C   UNL     1       3.812  82.300  -1.858  1.00  0.00     0.184 A 
ATOM      2  C   UNL     1       3.720  83.391  -2.735  1.00  0.00     0.208 A 
ATOM      3  C   UNL     1       4.288  83.284  -4.015  1.00  0.00     0.238 A 
ATOM      4  O   UNL     1       4.155  84.245  -4.817  1.00  0.00    -0.285 OA
ATOM      5  C   UNL     1       4.954  82.093  -4.392  1.00  0.00     0.111 A 
ATOM      6  C   UNL     1       5.602  81.889  -5.647  1.00  0.00     0.134 A 
ATOM      7  C   UNL     1       6.117  80.625  -5.961  1.00  0.00     0.093 A 
ATOM      8  C   UNL     1       6.067  79.577  -5.039  1.00  0.00     0.123 A 
ATOM      9  C   UNL     1       5.490  79.783  -3.788  1.00  0.00     0.094 A 
ATOM     10  C   UNL     1       4.935  81.022  -3.459  1.00  0.00     0.146 A 
ATOM     11  O   UNL     1       4.384  81.173  -2.261  1.00  0.00    -0.451 OA
ENDROOT
BRANCH   1  12
ATOM     12  C   UNL     1       3.249  82.353  -0.491  1.00  0.00     0.063 A 
ATOM     13  C   UNL     1       1.445  81.785   1.036  1.00  0.00     0.047 A 
ATOM     14  C   UNL     1       2.002  81.758  -0.245  1.00  0.00     0.020 A 
ATOM     15  C   UNL     1       2.132  82.394   2.088  1.00  0.00     0.119 A 
ATOM     16  C   UNL     1       3.388  82.970   1.858  1.00  0.00     0.093 A 
ATOM     17  C   UNL     1       3.957  82.943   0.577  1.00  0.00     0.130 A 
BRANCH  15  18
ATOM     18  O   UNL     1       1.561  82.417   3.360  1.00  0.00    -0.508 OA
ATOM     19  H   UNL     1       1.877  81.793   4.093  1.00  0.00     0.293 HD
ENDBRANCH  15  18
BRANCH  17  20
ATOM     20  O   UNL     1       5.230  83.476   0.371  1.00  0.00    -0.507 OA
ATOM     21  H   UNL     1       5.999  83.275   0.999  1.00  0.00     0.293 HD
ENDBRANCH  17  20
ENDBRANCH   1  12
BRANCH   2  22
ATOM     22  O   UNL     1       3.040  84.548  -2.345  1.00  0.00    -0.502 OA
ATOM     23  H   UNL     1       2.866  85.317  -2.981  1.00  0.00     0.293 HD
ENDBRANCH   2  22
BRANCH   6  24
ATOM     24  O   UNL     1       5.787  82.893  -6.601  1.00  0.00    -0.507 OA
ATOM     25  H   UNL     1       5.631  83.877  -6.440  1.00  0.00     0.293 HD
ENDBRANCH   6  24
BRANCH   8  26
ATOM     26  O   UNL     1       6.596  78.328  -5.354  1.00  0.00    -0.508 OA
ATOM     27  H   UNL     1       6.691  78.019  -6.314  1.00  0.00     0.293 HD
ENDBRANCH   8  26
TORSDOF 6
ENDMDL
