MODEL 1
REMARK VINA RESULT:    -4.074      0.000      0.000
REMARK INTER + INTRA:         -15.832
REMARK INTER:                 -10.742
REMARK INTRA:                  -5.091
REMARK UNBOUND:                -5.091
REMARK SMILES CCCCCCCCCCCCCCCCCCCCCCCCCCCCCC(=O)[O-]
REMARK SMILES IDX 16 1 17 2 18 3 19 4 20 5 21 6 22 7 23 8 24 9 25 10 26 11
REMARK SMILES IDX 27 12 28 13 29 14 30 15 31 16 32 17 15 18 14 19 13 20 12 21
REMARK SMILES IDX 11 22 10 23 9 24 8 25 7 26 6 27 5 28 4 29 3 30 2 31 1 32
REMARK H PARENT
REMARK Flexibility Score: inf
ROOT
ATOM      1  C   UNL     1      -1.094   9.146  -0.119  1.00  0.00     0.000 C 
ENDROOT
BRANCH   1   2
ATOM      2  C   UNL     1      -1.048   8.963  -1.651  1.00  0.00     0.000 C 
BRANCH   2   3
ATOM      3  C   UNL     1       0.205   9.534  -2.339  1.00  0.00     0.000 C 
BRANCH   3   4
ATOM      4  C   UNL     1       1.185   8.438  -2.789  1.00  0.00     0.000 C 
BRANCH   4   5
ATOM      5  C   UNL     1       0.765   7.045  -2.297  1.00  0.00     0.000 C 
BRANCH   5   6
ATOM      6  C   UNL     1       1.644   5.925  -2.882  1.00  0.00     0.000 C 
BRANCH   6   7
ATOM      7  C   UNL     1       2.510   6.393  -4.065  1.00  0.00     0.000 C 
BRANCH   7   8
ATOM      8  C   UNL     1       4.028   6.274  -3.814  1.00  0.00     0.000 C 
BRANCH   8   9
ATOM      9  C   UNL     1       4.389   6.256  -2.316  1.00  0.00     0.000 C 
BRANCH   9  10
ATOM     10  C   UNL     1       4.864   7.625  -1.802  1.00  0.00     0.000 C 
BRANCH  10  11
ATOM     11  C   UNL     1       6.396   7.719  -1.683  1.00  0.00     0.000 C 
BRANCH  11  12
ATOM     12  C   UNL     1       6.888   7.484  -0.245  1.00  0.00     0.000 C 
BRANCH  12  13
ATOM     13  C   UNL     1       7.268   6.017   0.013  1.00  0.00     0.006 C 
BRANCH  13  14
ATOM     14  C   UNL     1       7.563   5.749   1.495  1.00  0.00     0.053 C 
BRANCH  14  15
ATOM     15  C   UNL     1       7.077   4.399   1.927  1.00  0.00     0.041 C 
ATOM     16  O   UNL     1       6.417   3.679   1.131  1.00  0.00    -0.550 OA
ATOM     17  O   UNL     1       7.308   3.959   3.225  1.00  0.00    -0.550 OA
ENDBRANCH  14  15
ENDBRANCH  13  14
ENDBRANCH  12  13
ENDBRANCH  11  12
ENDBRANCH  10  11
ENDBRANCH   9  10
ENDBRANCH   8   9
ENDBRANCH   7   8
ENDBRANCH   6   7
ENDBRANCH   5   6
ENDBRANCH   4   5
ENDBRANCH   3   4
ENDBRANCH   2   3
ENDBRANCH   1   2
BRANCH   1  18
ATOM     18  C   UNL     1       0.134   9.845   0.494  1.00  0.00     0.000 C 
BRANCH  18  19
ATOM     19  C   UNL     1       0.837   8.992   1.558  1.00  0.00     0.000 C 
BRANCH  19  20
ATOM     20  C   UNL     1       0.209   7.595   1.648  1.00  0.00     0.000 C 
BRANCH  20  21
ATOM     21  C   UNL     1       1.181   6.472   1.244  1.00  0.00     0.000 C 
BRANCH  21  22
ATOM     22  C   UNL     1       2.568   6.985   0.799  1.00  0.00     0.000 C 
BRANCH  22  23
ATOM     23  C   UNL     1       3.693   6.515   1.738  1.00  0.00     0.000 C 
BRANCH  23  24
ATOM     24  C   UNL     1       3.170   5.628   2.882  1.00  0.00    -0.000 C 
BRANCH  24  25
ATOM     25  C   UNL     1       3.425   6.247   4.267  1.00  0.00    -0.000 C 
BRANCH  25  26
ATOM     26  C   UNL     1       2.313   7.222   4.689  1.00  0.00    -0.000 C 
BRANCH  26  27
ATOM     27  C   UNL     1       1.414   6.646   5.798  1.00  0.00    -0.000 C 
BRANCH  27  28
ATOM     28  C   UNL     1       0.091   6.072   5.246  1.00  0.00    -0.000 C 
BRANCH  28  29
ATOM     29  C   UNL     1      -0.325   4.733   5.889  1.00  0.00    -0.000 C 
BRANCH  29  30
ATOM     30  C   UNL     1       0.036   3.473   5.076  1.00  0.00    -0.000 C 
BRANCH  30  31
ATOM     31  C   UNL     1       0.292   3.720   3.577  1.00  0.00    -0.003 C 
ATOM     32  C   UNL     1      -0.928   3.412   2.708  1.00  0.00     0.004 C 
ENDBRANCH  30  31
ENDBRANCH  29  30
ENDBRANCH  28  29
ENDBRANCH  27  28
ENDBRANCH  26  27
ENDBRANCH  25  26
ENDBRANCH  24  25
ENDBRANCH  23  24
ENDBRANCH  22  23
ENDBRANCH  21  22
ENDBRANCH  20  21
ENDBRANCH  19  20
ENDBRANCH  18  19
ENDBRANCH   1  18
TORSDOF 28
ENDMDL
MODEL 2
REMARK VINA RESULT:    -4.036      1.707      3.009
REMARK INTER + INTRA:         -15.732
REMARK INTER:                 -10.410
REMARK INTRA:                  -5.322
REMARK UNBOUND:                -5.091
REMARK SMILES CCCCCCCCCCCCCCCCCCCCCCCCCCCCCC(=O)[O-]
REMARK SMILES IDX 16 1 17 2 18 3 19 4 20 5 21 6 22 7 23 8 24 9 25 10 26 11
REMARK SMILES IDX 27 12 28 13 29 14 30 15 31 16 32 17 15 18 14 19 13 20 12 21
REMARK SMILES IDX 11 22 10 23 9 24 8 25 7 26 6 27 5 28 4 29 3 30 2 31 1 32
REMARK H PARENT
REMARK Flexibility Score: inf
ROOT
ATOM      1  C   UNL     1       1.003   7.018  -0.125  1.00  0.00     0.000 C 
ENDROOT
BRANCH   1   2
ATOM      2  C   UNL     1       0.366   8.378  -0.483  1.00  0.00     0.000 C 
BRANCH   2   3
ATOM      3  C   UNL     1      -0.111   8.511  -1.941  1.00  0.00     0.000 C 
BRANCH   3   4
ATOM      4  C   UNL     1       0.778   9.451  -2.772  1.00  0.00     0.000 C 
BRANCH   4   5
ATOM      5  C   UNL     1       1.952   8.708  -3.428  1.00  0.00     0.000 C 
BRANCH   5   6
ATOM      6  C   UNL     1       1.601   7.253  -3.784  1.00  0.00     0.000 C 
BRANCH   6   7
ATOM      7  C   UNL     1       2.747   6.266  -3.496  1.00  0.00     0.000 C 
BRANCH   7   8
ATOM      8  C   UNL     1       4.101   6.949  -3.211  1.00  0.00     0.000 C 
BRANCH   8   9
ATOM      9  C   UNL     1       4.974   6.158  -2.217  1.00  0.00     0.000 C 
BRANCH   9  10
ATOM     10  C   UNL     1       6.065   7.024  -1.564  1.00  0.00     0.000 C 
BRANCH  10  11
ATOM     11  C   UNL     1       6.806   6.293  -0.428  1.00  0.00     0.000 C 
BRANCH  11  12
ATOM     12  C   UNL     1       5.913   5.264   0.286  1.00  0.00     0.000 C 
BRANCH  12  13
ATOM     13  C   UNL     1       5.841   5.502   1.803  1.00  0.00     0.006 C 
BRANCH  13  14
ATOM     14  C   UNL     1       4.490   5.072   2.392  1.00  0.00     0.053 C 
BRANCH  14  15
ATOM     15  C   UNL     1       4.551   4.924   3.882  1.00  0.00     0.041 C 
ATOM     16  O   UNL     1       3.652   4.286   4.492  1.00  0.00    -0.550 OA
ATOM     17  O   UNL     1       5.573   5.535   4.599  1.00  0.00    -0.550 OA
ENDBRANCH  14  15
ENDBRANCH  13  14
ENDBRANCH  12  13
ENDBRANCH  11  12
ENDBRANCH  10  11
ENDBRANCH   9  10
ENDBRANCH   8   9
ENDBRANCH   7   8
ENDBRANCH   6   7
ENDBRANCH   5   6
ENDBRANCH   4   5
ENDBRANCH   3   4
ENDBRANCH   2   3
ENDBRANCH   1   2
BRANCH   1  18
ATOM     18  C   UNL     1       2.504   7.069   0.218  1.00  0.00     0.000 C 
BRANCH  18  19
ATOM     19  C   UNL     1       3.079   8.491   0.168  1.00  0.00     0.000 C 
BRANCH  19  20
ATOM     20  C   UNL     1       4.080   8.721   1.307  1.00  0.00     0.000 C 
BRANCH  20  21
ATOM     21  C   UNL     1       3.434   8.625   2.702  1.00  0.00     0.000 C 
BRANCH  21  22
ATOM     22  C   UNL     1       2.250   9.595   2.903  1.00  0.00     0.000 C 
BRANCH  22  23
ATOM     23  C   UNL     1       1.117   8.967   3.737  1.00  0.00     0.000 C 
BRANCH  23  24
ATOM     24  C   UNL     1      -0.263   9.151   3.083  1.00  0.00    -0.000 C 
BRANCH  24  25
ATOM     25  C   UNL     1      -0.979   7.810   2.839  1.00  0.00    -0.000 C 
BRANCH  25  26
ATOM     26  C   UNL     1      -0.390   6.667   3.683  1.00  0.00    -0.000 C 
BRANCH  26  27
ATOM     27  C   UNL     1      -0.031   5.435   2.835  1.00  0.00    -0.000 C 
BRANCH  27  28
ATOM     28  C   UNL     1      -0.512   4.116   3.478  1.00  0.00    -0.000 C 
BRANCH  28  29
ATOM     29  C   UNL     1       0.497   3.502   4.471  1.00  0.00    -0.000 C 
BRANCH  29  30
ATOM     30  C   UNL     1      -0.127   2.825   5.709  1.00  0.00    -0.000 C 
BRANCH  30  31
ATOM     31  C   UNL     1      -0.582   3.795   6.816  1.00  0.00    -0.003 C 
ATOM     32  C   UNL     1      -0.586   3.152   8.204  1.00  0.00     0.004 C 
ENDBRANCH  30  31
ENDBRANCH  29  30
ENDBRANCH  28  29
ENDBRANCH  27  28
ENDBRANCH  26  27
ENDBRANCH  25  26
ENDBRANCH  24  25
ENDBRANCH  23  24
ENDBRANCH  22  23
ENDBRANCH  21  22
ENDBRANCH  20  21
ENDBRANCH  19  20
ENDBRANCH  18  19
ENDBRANCH   1  18
TORSDOF 28
ENDMDL
MODEL 3
REMARK VINA RESULT:    -3.976      2.199      6.658
REMARK INTER + INTRA:         -15.575
REMARK INTER:                 -10.160
REMARK INTRA:                  -5.415
REMARK UNBOUND:                -5.091
REMARK SMILES CCCCCCCCCCCCCCCCCCCCCCCCCCCCCC(=O)[O-]
REMARK SMILES IDX 16 1 17 2 18 3 19 4 20 5 21 6 22 7 23 8 24 9 25 10 26 11
REMARK SMILES IDX 27 12 28 13 29 14 30 15 31 16 32 17 15 18 14 19 13 20 12 21
REMARK SMILES IDX 11 22 10 23 9 24 8 25 7 26 6 27 5 28 4 29 3 30 2 31 1 32
REMARK H PARENT
REMARK Flexibility Score: inf
ROOT
ATOM      1  C   UNL     1       0.500   8.169  -2.396  1.00  0.00     0.000 C 
ENDROOT
BRANCH   1   2
ATOM      2  C   UNL     1      -0.394   9.019  -1.468  1.00  0.00     0.000 C 
BRANCH   2   3
ATOM      3  C   UNL     1       0.341  10.123  -0.687  1.00  0.00     0.000 C 
BRANCH   3   4
ATOM      4  C   UNL     1       0.113  10.027   0.831  1.00  0.00     0.000 C 
BRANCH   4   5
ATOM      5  C   UNL     1      -0.555   8.704   1.235  1.00  0.00     0.000 C 
BRANCH   5   6
ATOM      6  C   UNL     1      -0.833   8.623   2.747  1.00  0.00     0.000 C 
BRANCH   6   7
ATOM      7  C   UNL     1       0.425   8.845   3.605  1.00  0.00     0.000 C 
BRANCH   7   8
ATOM      8  C   UNL     1       0.622   7.787   4.711  1.00  0.00     0.000 C 
BRANCH   8   9
ATOM      9  C   UNL     1      -0.133   8.129   6.011  1.00  0.00     0.000 C 
BRANCH   9  10
ATOM     10  C   UNL     1      -0.464   6.885   6.852  1.00  0.00     0.000 C 
BRANCH  10  11
ATOM     11  C   UNL     1       0.342   5.644   6.423  1.00  0.00     0.000 C 
BRANCH  11  12
ATOM     12  C   UNL     1      -0.471   4.345   6.552  1.00  0.00     0.000 C 
BRANCH  12  13
ATOM     13  C   UNL     1      -0.060   3.291   5.510  1.00  0.00     0.006 C 
BRANCH  13  14
ATOM     14  C   UNL     1       0.703   3.910   4.332  1.00  0.00     0.053 C 
BRANCH  14  15
ATOM     15  C   UNL     1      -0.176   4.098   3.133  1.00  0.00     0.041 C 
ATOM     16  O   UNL     1      -0.553   5.253   2.799  1.00  0.00    -0.550 OA
ATOM     17  O   UNL     1      -0.621   2.993   2.417  1.00  0.00    -0.550 OA
ENDBRANCH  14  15
ENDBRANCH  13  14
ENDBRANCH  12  13
ENDBRANCH  11  12
ENDBRANCH  10  11
ENDBRANCH   9  10
ENDBRANCH   8   9
ENDBRANCH   7   8
ENDBRANCH   6   7
ENDBRANCH   5   6
ENDBRANCH   4   5
ENDBRANCH   3   4
ENDBRANCH   2   3
ENDBRANCH   1   2
BRANCH   1  18
ATOM     18  C   UNL     1       0.977   6.831  -1.799  1.00  0.00     0.000 C 
BRANCH  18  19
ATOM     19  C   UNL     1       1.668   5.930  -2.832  1.00  0.00     0.000 C 
BRANCH  19  20
ATOM     20  C   UNL     1       2.601   6.744  -3.737  1.00  0.00     0.000 C 
BRANCH  20  21
ATOM     21  C   UNL     1       4.082   6.352  -3.581  1.00  0.00     0.000 C 
BRANCH  21  22
ATOM     22  C   UNL     1       4.852   7.232  -2.573  1.00  0.00     0.000 C 
BRANCH  22  23
ATOM     23  C   UNL     1       4.295   8.666  -2.507  1.00  0.00     0.000 C 
BRANCH  23  24
ATOM     24  C   UNL     1       3.901   9.076  -1.077  1.00  0.00    -0.000 C 
BRANCH  24  25
ATOM     25  C   UNL     1       4.075   7.926  -0.068  1.00  0.00    -0.000 C 
BRANCH  25  26
ATOM     26  C   UNL     1       3.054   7.993   1.080  1.00  0.00    -0.000 C 
BRANCH  26  27
ATOM     27  C   UNL     1       2.615   6.597   1.558  1.00  0.00    -0.000 C 
BRANCH  27  28
ATOM     28  C   UNL     1       3.388   6.133   2.811  1.00  0.00    -0.000 C 
BRANCH  28  29
ATOM     29  C   UNL     1       4.086   4.768   2.644  1.00  0.00    -0.000 C 
BRANCH  29  30
ATOM     30  C   UNL     1       5.593   4.833   2.322  1.00  0.00    -0.000 C 
BRANCH  30  31
ATOM     31  C   UNL     1       5.940   4.728   0.825  1.00  0.00    -0.003 C 
ATOM     32  C   UNL     1       6.928   5.802   0.367  1.00  0.00     0.004 C 
ENDBRANCH  30  31
ENDBRANCH  29  30
ENDBRANCH  28  29
ENDBRANCH  27  28
ENDBRANCH  26  27
ENDBRANCH  25  26
ENDBRANCH  24  25
ENDBRANCH  23  24
ENDBRANCH  22  23
ENDBRANCH  21  22
ENDBRANCH  20  21
ENDBRANCH  19  20
ENDBRANCH  18  19
ENDBRANCH   1  18
TORSDOF 28
ENDMDL
MODEL 4
REMARK VINA RESULT:    -3.949      1.356      2.617
REMARK INTER + INTRA:         -15.503
REMARK INTER:                 -10.169
REMARK INTRA:                  -5.334
REMARK UNBOUND:                -5.091
REMARK SMILES CCCCCCCCCCCCCCCCCCCCCCCCCCCCCC(=O)[O-]
REMARK SMILES IDX 16 1 17 2 18 3 19 4 20 5 21 6 22 7 23 8 24 9 25 10 26 11
REMARK SMILES IDX 27 12 28 13 29 14 30 15 31 16 32 17 15 18 14 19 13 20 12 21
REMARK SMILES IDX 11 22 10 23 9 24 8 25 7 26 6 27 5 28 4 29 3 30 2 31 1 32
REMARK H PARENT
REMARK Flexibility Score: inf
ROOT
ATOM      1  C   UNL     1      -1.232   9.151   0.013  1.00  0.00     0.000 C 
ENDROOT
BRANCH   1   2
ATOM      2  C   UNL     1      -1.149   8.874  -1.504  1.00  0.00     0.000 C 
BRANCH   2   3
ATOM      3  C   UNL     1       0.054   9.515  -2.219  1.00  0.00     0.000 C 
BRANCH   3   4
ATOM      4  C   UNL     1       1.115   8.482  -2.635  1.00  0.00     0.000 C 
BRANCH   4   5
ATOM      5  C   UNL     1       0.724   7.053  -2.228  1.00  0.00     0.000 C 
BRANCH   5   6
ATOM      6  C   UNL     1       1.631   5.990  -2.873  1.00  0.00     0.000 C 
BRANCH   6   7
ATOM      7  C   UNL     1       2.576   6.569  -3.941  1.00  0.00     0.000 C 
BRANCH   7   8
ATOM      8  C   UNL     1       4.069   6.287  -3.673  1.00  0.00     0.000 C 
BRANCH   8   9
ATOM      9  C   UNL     1       4.670   7.210  -2.594  1.00  0.00     0.000 C 
BRANCH   9  10
ATOM     10  C   UNL     1       4.777   6.529  -1.220  1.00  0.00     0.000 C 
BRANCH  10  11
ATOM     11  C   UNL     1       3.827   7.143  -0.175  1.00  0.00     0.000 C 
BRANCH  11  12
ATOM     12  C   UNL     1       4.575   7.977   0.879  1.00  0.00     0.000 C 
BRANCH  12  13
ATOM     13  C   UNL     1       5.673   7.173   1.593  1.00  0.00     0.006 C 
BRANCH  13  14
ATOM     14  C   UNL     1       5.267   6.781   3.020  1.00  0.00     0.053 C 
BRANCH  14  15
ATOM     15  C   UNL     1       5.408   5.308   3.257  1.00  0.00     0.041 C 
ATOM     16  O   UNL     1       5.163   4.491   2.329  1.00  0.00    -0.550 OA
ATOM     17  O   UNL     1       5.758   4.836   4.516  1.00  0.00    -0.550 OA
ENDBRANCH  14  15
ENDBRANCH  13  14
ENDBRANCH  12  13
ENDBRANCH  11  12
ENDBRANCH  10  11
ENDBRANCH   9  10
ENDBRANCH   8   9
ENDBRANCH   7   8
ENDBRANCH   6   7
ENDBRANCH   5   6
ENDBRANCH   4   5
ENDBRANCH   3   4
ENDBRANCH   2   3
ENDBRANCH   1   2
BRANCH   1  18
ATOM     18  C   UNL     1       0.020   9.806   0.628  1.00  0.00     0.000 C 
BRANCH  18  19
ATOM     19  C   UNL     1       0.883   8.814   1.420  1.00  0.00     0.000 C 
BRANCH  19  20
ATOM     20  C   UNL     1       0.045   7.630   1.919  1.00  0.00     0.000 C 
BRANCH  20  21
ATOM     21  C   UNL     1       0.672   6.266   1.577  1.00  0.00     0.000 C 
BRANCH  21  22
ATOM     22  C   UNL     1       1.811   5.851   2.534  1.00  0.00     0.000 C 
BRANCH  22  23
ATOM     23  C   UNL     1       1.647   4.408   3.045  1.00  0.00     0.000 C 
BRANCH  23  24
ATOM     24  C   UNL     1       0.174   3.969   3.101  1.00  0.00    -0.000 C 
BRANCH  24  25
ATOM     25  C   UNL     1      -0.227   3.436   4.488  1.00  0.00    -0.000 C 
BRANCH  25  26
ATOM     26  C   UNL     1       0.548   4.121   5.627  1.00  0.00    -0.000 C 
BRANCH  26  27
ATOM     27  C   UNL     1      -0.364   4.531   6.796  1.00  0.00    -0.000 C 
BRANCH  27  28
ATOM     28  C   UNL     1      -0.923   5.961   6.635  1.00  0.00    -0.000 C 
BRANCH  28  29
ATOM     29  C   UNL     1      -0.248   6.771   5.509  1.00  0.00    -0.000 C 
BRANCH  29  30
ATOM     30  C   UNL     1      -0.180   8.294   5.743  1.00  0.00    -0.000 C 
BRANCH  30  31
ATOM     31  C   UNL     1       1.119   8.966   5.258  1.00  0.00    -0.003 C 
ATOM     32  C   UNL     1       2.316   8.014   5.256  1.00  0.00     0.004 C 
ENDBRANCH  30  31
ENDBRANCH  29  30
ENDBRANCH  28  29
ENDBRANCH  27  28
ENDBRANCH  26  27
ENDBRANCH  25  26
ENDBRANCH  24  25
ENDBRANCH  23  24
ENDBRANCH  22  23
ENDBRANCH  21  22
ENDBRANCH  20  21
ENDBRANCH  19  20
ENDBRANCH  18  19
ENDBRANCH   1  18
TORSDOF 28
ENDMDL
MODEL 5
REMARK VINA RESULT:    -3.936      1.533      4.966
REMARK INTER + INTRA:         -15.468
REMARK INTER:                  -9.757
REMARK INTRA:                  -5.711
REMARK UNBOUND:                -5.091
REMARK SMILES CCCCCCCCCCCCCCCCCCCCCCCCCCCCCC(=O)[O-]
REMARK SMILES IDX 16 1 17 2 18 3 19 4 20 5 21 6 22 7 23 8 24 9 25 10 26 11
REMARK SMILES IDX 27 12 28 13 29 14 30 15 31 16 32 17 15 18 14 19 13 20 12 21
REMARK SMILES IDX 11 22 10 23 9 24 8 25 7 26 6 27 5 28 4 29 3 30 2 31 1 32
REMARK H PARENT
REMARK Flexibility Score: inf
ROOT
ATOM      1  C   UNL     1       5.074   6.565  -2.044  1.00  0.00     0.000 C 
ENDROOT
BRANCH   1   2
ATOM      2  C   UNL     1       4.663   7.998  -1.644  1.00  0.00     0.000 C 
BRANCH   2   3
ATOM      3  C   UNL     1       3.835   8.103  -0.351  1.00  0.00     0.000 C 
BRANCH   3   4
ATOM      4  C   UNL     1       3.699   6.754   0.376  1.00  0.00     0.000 C 
BRANCH   4   5
ATOM      5  C   UNL     1       3.957   6.881   1.885  1.00  0.00     0.000 C 
BRANCH   5   6
ATOM      6  C   UNL     1       3.820   8.330   2.385  1.00  0.00     0.000 C 
BRANCH   6   7
ATOM      7  C   UNL     1       5.162   8.952   2.812  1.00  0.00     0.000 C 
BRANCH   7   8
ATOM      8  C   UNL     1       6.305   7.927   2.965  1.00  0.00     0.000 C 
BRANCH   8   9
ATOM      9  C   UNL     1       7.484   8.194   2.009  1.00  0.00     0.000 C 
BRANCH   9  10
ATOM     10  C   UNL     1       7.401   7.365   0.716  1.00  0.00     0.000 C 
BRANCH  10  11
ATOM     11  C   UNL     1       8.014   5.960   0.869  1.00  0.00     0.000 C 
BRANCH  11  12
ATOM     12  C   UNL     1       6.956   4.892   1.191  1.00  0.00     0.000 C 
BRANCH  12  13
ATOM     13  C   UNL     1       7.442   3.886   2.248  1.00  0.00     0.006 C 
BRANCH  13  14
ATOM     14  C   UNL     1       7.951   4.583   3.518  1.00  0.00     0.053 C 
BRANCH  14  15
ATOM     15  C   UNL     1       6.965   4.488   4.642  1.00  0.00     0.041 C 
ATOM     16  O   UNL     1       7.326   4.048   5.766  1.00  0.00    -0.550 OA
ATOM     17  O   UNL     1       5.635   4.835   4.431  1.00  0.00    -0.550 OA
ENDBRANCH  14  15
ENDBRANCH  13  14
ENDBRANCH  12  13
ENDBRANCH  11  12
ENDBRANCH  10  11
ENDBRANCH   9  10
ENDBRANCH   8   9
ENDBRANCH   7   8
ENDBRANCH   6   7
ENDBRANCH   5   6
ENDBRANCH   4   5
ENDBRANCH   3   4
ENDBRANCH   2   3
ENDBRANCH   1   2
BRANCH   1  18
ATOM     18  C   UNL     1       4.525   6.080  -3.399  1.00  0.00     0.000 C 
BRANCH  18  19
ATOM     19  C   UNL     1       3.178   6.721  -3.761  1.00  0.00     0.000 C 
BRANCH  19  20
ATOM     20  C   UNL     1       2.021   6.018  -3.039  1.00  0.00     0.000 C 
BRANCH  20  21
ATOM     21  C   UNL     1       1.000   7.002  -2.440  1.00  0.00     0.000 C 
BRANCH  21  22
ATOM     22  C   UNL     1       1.138   8.442  -2.981  1.00  0.00     0.000 C 
BRANCH  22  23
ATOM     23  C   UNL     1       0.147   9.413  -2.314  1.00  0.00     0.000 C 
BRANCH  23  24
ATOM     24  C   UNL     1      -0.990   8.679  -1.581  1.00  0.00    -0.000 C 
BRANCH  24  25
ATOM     25  C   UNL     1      -1.179   9.182  -0.139  1.00  0.00    -0.000 C 
BRANCH  25  26
ATOM     26  C   UNL     1       0.123   9.126   0.678  1.00  0.00    -0.000 C 
BRANCH  26  27
ATOM     27  C   UNL     1       0.359   7.745   1.315  1.00  0.00    -0.000 C 
BRANCH  27  28
ATOM     28  C   UNL     1      -0.336   7.602   2.686  1.00  0.00    -0.000 C 
BRANCH  28  29
ATOM     29  C   UNL     1      -0.235   6.187   3.292  1.00  0.00    -0.000 C 
BRANCH  29  30
ATOM     30  C   UNL     1       0.555   5.164   2.449  1.00  0.00    -0.000 C 
BRANCH  30  31
ATOM     31  C   UNL     1       1.495   4.249   3.256  1.00  0.00    -0.003 C 
ATOM     32  C   UNL     1       2.120   4.953   4.461  1.00  0.00     0.004 C 
ENDBRANCH  30  31
ENDBRANCH  29  30
ENDBRANCH  28  29
ENDBRANCH  27  28
ENDBRANCH  26  27
ENDBRANCH  25  26
ENDBRANCH  24  25
ENDBRANCH  23  24
ENDBRANCH  22  23
ENDBRANCH  21  22
ENDBRANCH  20  21
ENDBRANCH  19  20
ENDBRANCH  18  19
ENDBRANCH   1  18
TORSDOF 28
ENDMDL
MODEL 6
REMARK VINA RESULT:    -3.934      1.604      3.261
REMARK INTER + INTRA:         -15.464
REMARK INTER:                  -9.486
REMARK INTRA:                  -5.978
REMARK UNBOUND:                -5.091
REMARK SMILES CCCCCCCCCCCCCCCCCCCCCCCCCCCCCC(=O)[O-]
REMARK SMILES IDX 16 1 17 2 18 3 19 4 20 5 21 6 22 7 23 8 24 9 25 10 26 11
REMARK SMILES IDX 27 12 28 13 29 14 30 15 31 16 32 17 15 18 14 19 13 20 12 21
REMARK SMILES IDX 11 22 10 23 9 24 8 25 7 26 6 27 5 28 4 29 3 30 2 31 1 32
REMARK H PARENT
REMARK Flexibility Score: inf
ROOT
ATOM      1  C   UNL     1       0.336   7.716  -1.891  1.00  0.00     0.000 C 
ENDROOT
BRANCH   1   2
ATOM      2  C   UNL     1       1.239   6.553  -2.353  1.00  0.00     0.000 C 
BRANCH   2   3
ATOM      3  C   UNL     1       1.858   6.724  -3.752  1.00  0.00     0.000 C 
BRANCH   3   4
ATOM      4  C   UNL     1       3.365   6.418  -3.775  1.00  0.00     0.000 C 
BRANCH   4   5
ATOM      5  C   UNL     1       3.900   6.034  -2.387  1.00  0.00     0.000 C 
BRANCH   5   6
ATOM      6  C   UNL     1       5.384   6.399  -2.209  1.00  0.00     0.000 C 
BRANCH   6   7
ATOM      7  C   UNL     1       5.865   7.476  -3.198  1.00  0.00     0.000 C 
BRANCH   7   8
ATOM      8  C   UNL     1       6.752   8.563  -2.556  1.00  0.00     0.000 C 
BRANCH   8   9
ATOM      9  C   UNL     1       7.691   8.006  -1.468  1.00  0.00     0.000 C 
BRANCH   9  10
ATOM     10  C   UNL     1       7.354   8.536  -0.064  1.00  0.00     0.000 C 
BRANCH  10  11
ATOM     11  C   UNL     1       6.976   7.414   0.922  1.00  0.00     0.000 C 
BRANCH  11  12
ATOM     12  C   UNL     1       6.680   7.949   2.333  1.00  0.00     0.000 C 
BRANCH  12  13
ATOM     13  C   UNL     1       5.823   6.977   3.161  1.00  0.00     0.006 C 
BRANCH  13  14
ATOM     14  C   UNL     1       6.597   6.395   4.351  1.00  0.00     0.053 C 
BRANCH  14  15
ATOM     15  C   UNL     1       6.798   4.916   4.218  1.00  0.00     0.041 C 
ATOM     16  O   UNL     1       6.728   4.174   5.234  1.00  0.00    -0.550 OA
ATOM     17  O   UNL     1       7.114   4.366   2.982  1.00  0.00    -0.550 OA
ENDBRANCH  14  15
ENDBRANCH  13  14
ENDBRANCH  12  13
ENDBRANCH  11  12
ENDBRANCH  10  11
ENDBRANCH   9  10
ENDBRANCH   8   9
ENDBRANCH   7   8
ENDBRANCH   6   7
ENDBRANCH   5   6
ENDBRANCH   4   5
ENDBRANCH   3   4
ENDBRANCH   2   3
ENDBRANCH   1   2
BRANCH   1  18
ATOM     18  C   UNL     1       0.592   9.063  -2.593  1.00  0.00     0.000 C 
BRANCH  18  19
ATOM     19  C   UNL     1       1.442  10.024  -1.749  1.00  0.00     0.000 C 
BRANCH  19  20
ATOM     20  C   UNL     1       2.921   9.948  -2.148  1.00  0.00     0.000 C 
BRANCH  20  21
ATOM     21  C   UNL     1       3.851   9.656  -0.956  1.00  0.00     0.000 C 
BRANCH  21  22
ATOM     22  C   UNL     1       3.101   9.217   0.320  1.00  0.00     0.000 C 
BRANCH  22  23
ATOM     23  C   UNL     1       3.267   7.713   0.606  1.00  0.00     0.000 C 
BRANCH  23  24
ATOM     24  C   UNL     1       2.473   7.261   1.844  1.00  0.00    -0.000 C 
BRANCH  24  25
ATOM     25  C   UNL     1       1.077   6.725   1.481  1.00  0.00    -0.000 C 
BRANCH  25  26
ATOM     26  C   UNL     1      -0.018   7.253   2.423  1.00  0.00    -0.000 C 
BRANCH  26  27
ATOM     27  C   UNL     1      -0.432   6.217   3.484  1.00  0.00    -0.000 C 
BRANCH  27  28
ATOM     28  C   UNL     1      -0.274   4.766   2.983  1.00  0.00    -0.000 C 
BRANCH  28  29
ATOM     29  C   UNL     1       0.629   3.892   3.877  1.00  0.00    -0.000 C 
BRANCH  29  30
ATOM     30  C   UNL     1       1.541   4.667   4.850  1.00  0.00    -0.000 C 
BRANCH  30  31
ATOM     31  C   UNL     1       3.009   4.793   4.399  1.00  0.00    -0.003 C 
ATOM     32  C   UNL     1       3.313   3.987   3.136  1.00  0.00     0.004 C 
ENDBRANCH  30  31
ENDBRANCH  29  30
ENDBRANCH  28  29
ENDBRANCH  27  28
ENDBRANCH  26  27
ENDBRANCH  25  26
ENDBRANCH  24  25
ENDBRANCH  23  24
ENDBRANCH  22  23
ENDBRANCH  21  22
ENDBRANCH  20  21
ENDBRANCH  19  20
ENDBRANCH  18  19
ENDBRANCH   1  18
TORSDOF 28
ENDMDL
MODEL 7
REMARK VINA RESULT:    -3.894      1.652      2.996
REMARK INTER + INTRA:         -15.360
REMARK INTER:                  -9.867
REMARK INTRA:                  -5.493
REMARK UNBOUND:                -5.091
REMARK SMILES CCCCCCCCCCCCCCCCCCCCCCCCCCCCCC(=O)[O-]
REMARK SMILES IDX 16 1 17 2 18 3 19 4 20 5 21 6 22 7 23 8 24 9 25 10 26 11
REMARK SMILES IDX 27 12 28 13 29 14 30 15 31 16 32 17 15 18 14 19 13 20 12 21
REMARK SMILES IDX 11 22 10 23 9 24 8 25 7 26 6 27 5 28 4 29 3 30 2 31 1 32
REMARK H PARENT
REMARK Flexibility Score: inf
ROOT
ATOM      1  C   UNL     1      -0.502   8.613   1.043  1.00  0.00     0.000 C 
ENDROOT
BRANCH   1   2
ATOM      2  C   UNL     1       0.887   8.351   0.422  1.00  0.00     0.000 C 
BRANCH   2   3
ATOM      3  C   UNL     1       1.019   7.022  -0.343  1.00  0.00     0.000 C 
BRANCH   3   4
ATOM      4  C   UNL     1       0.520   7.122  -1.794  1.00  0.00     0.000 C 
BRANCH   4   5
ATOM      5  C   UNL     1       0.969   8.424  -2.474  1.00  0.00     0.000 C 
BRANCH   5   6
ATOM      6  C   UNL     1       1.993   8.178  -3.596  1.00  0.00     0.000 C 
BRANCH   6   7
ATOM      7  C   UNL     1       2.344   6.691  -3.779  1.00  0.00     0.000 C 
BRANCH   7   8
ATOM      8  C   UNL     1       3.816   6.352  -3.461  1.00  0.00     0.000 C 
BRANCH   8   9
ATOM      9  C   UNL     1       4.572   7.523  -2.802  1.00  0.00     0.000 C 
BRANCH   9  10
ATOM     10  C   UNL     1       5.379   7.089  -1.566  1.00  0.00     0.000 C 
BRANCH  10  11
ATOM     11  C   UNL     1       4.602   7.281  -0.250  1.00  0.00     0.000 C 
BRANCH  11  12
ATOM     12  C   UNL     1       4.626   6.022   0.632  1.00  0.00     0.000 C 
BRANCH  12  13
ATOM     13  C   UNL     1       5.986   5.811   1.318  1.00  0.00     0.006 C 
BRANCH  13  14
ATOM     14  C   UNL     1       5.924   4.728   2.404  1.00  0.00     0.053 C 
BRANCH  14  15
ATOM     15  C   UNL     1       5.916   5.318   3.781  1.00  0.00     0.041 C 
ATOM     16  O   UNL     1       5.724   6.553   3.940  1.00  0.00    -0.550 OA
ATOM     17  O   UNL     1       6.171   4.512   4.884  1.00  0.00    -0.550 OA
ENDBRANCH  14  15
ENDBRANCH  13  14
ENDBRANCH  12  13
ENDBRANCH  11  12
ENDBRANCH  10  11
ENDBRANCH   9  10
ENDBRANCH   8   9
ENDBRANCH   7   8
ENDBRANCH   6   7
ENDBRANCH   5   6
ENDBRANCH   4   5
ENDBRANCH   3   4
ENDBRANCH   2   3
ENDBRANCH   1   2
BRANCH   1  18
ATOM     18  C   UNL     1      -0.491   8.984   2.538  1.00  0.00     0.000 C 
BRANCH  18  19
ATOM     19  C   UNL     1      -1.240   7.967   3.411  1.00  0.00     0.000 C 
BRANCH  19  20
ATOM     20  C   UNL     1      -0.531   7.769   4.757  1.00  0.00     0.000 C 
BRANCH  20  21
ATOM     21  C   UNL     1       0.966   8.125   4.705  1.00  0.00     0.000 C 
BRANCH  21  22
ATOM     22  C   UNL     1       1.895   6.892   4.690  1.00  0.00     0.000 C 
BRANCH  22  23
ATOM     23  C   UNL     1       2.219   6.423   3.260  1.00  0.00     0.000 C 
BRANCH  23  24
ATOM     24  C   UNL     1       1.833   4.952   3.023  1.00  0.00    -0.000 C 
BRANCH  24  25
ATOM     25  C   UNL     1       0.385   4.799   2.525  1.00  0.00    -0.000 C 
BRANCH  25  26
ATOM     26  C   UNL     1      -0.567   4.307   3.629  1.00  0.00    -0.000 C 
BRANCH  26  27
ATOM     27  C   UNL     1       0.113   3.322   4.597  1.00  0.00    -0.000 C 
BRANCH  27  28
ATOM     28  C   UNL     1       0.286   3.912   6.013  1.00  0.00    -0.000 C 
BRANCH  28  29
ATOM     29  C   UNL     1      -1.006   4.517   6.599  1.00  0.00    -0.000 C 
BRANCH  29  30
ATOM     30  C   UNL     1      -0.801   5.499   7.771  1.00  0.00    -0.000 C 
BRANCH  30  31
ATOM     31  C   UNL     1       0.654   5.960   7.982  1.00  0.00    -0.003 C 
ATOM     32  C   UNL     1       1.213   5.558   9.347  1.00  0.00     0.004 C 
ENDBRANCH  30  31
ENDBRANCH  29  30
ENDBRANCH  28  29
ENDBRANCH  27  28
ENDBRANCH  26  27
ENDBRANCH  25  26
ENDBRANCH  24  25
ENDBRANCH  23  24
ENDBRANCH  22  23
ENDBRANCH  21  22
ENDBRANCH  20  21
ENDBRANCH  19  20
ENDBRANCH  18  19
ENDBRANCH   1  18
TORSDOF 28
ENDMDL
MODEL 8
REMARK VINA RESULT:    -3.890      1.384      3.209
REMARK INTER + INTRA:         -15.347
REMARK INTER:                 -10.219
REMARK INTRA:                  -5.128
REMARK UNBOUND:                -5.091
REMARK SMILES CCCCCCCCCCCCCCCCCCCCCCCCCCCCCC(=O)[O-]
REMARK SMILES IDX 16 1 17 2 18 3 19 4 20 5 21 6 22 7 23 8 24 9 25 10 26 11
REMARK SMILES IDX 27 12 28 13 29 14 30 15 31 16 32 17 15 18 14 19 13 20 12 21
REMARK SMILES IDX 11 22 10 23 9 24 8 25 7 26 6 27 5 28 4 29 3 30 2 31 1 32
REMARK H PARENT
REMARK Flexibility Score: inf
ROOT
ATOM      1  C   UNL     1      -0.574   8.655   1.889  1.00  0.00     0.000 C 
ENDROOT
BRANCH   1   2
ATOM      2  C   UNL     1      -0.560   8.983   0.380  1.00  0.00     0.000 C 
BRANCH   2   3
ATOM      3  C   UNL     1       0.800   8.793  -0.315  1.00  0.00     0.000 C 
BRANCH   3   4
ATOM      4  C   UNL     1       1.051   7.335  -0.737  1.00  0.00     0.000 C 
BRANCH   4   5
ATOM      5  C   UNL     1       0.763   7.105  -2.229  1.00  0.00     0.000 C 
BRANCH   5   6
ATOM      6  C   UNL     1       1.596   5.952  -2.817  1.00  0.00     0.000 C 
BRANCH   6   7
ATOM      7  C   UNL     1       2.456   6.380  -4.019  1.00  0.00     0.000 C 
BRANCH   7   8
ATOM      8  C   UNL     1       3.975   6.303  -3.758  1.00  0.00     0.000 C 
BRANCH   8   9
ATOM      9  C   UNL     1       4.431   7.204  -2.593  1.00  0.00     0.000 C 
BRANCH   9  10
ATOM     10  C   UNL     1       5.276   6.450  -1.553  1.00  0.00     0.000 C 
BRANCH  10  11
ATOM     11  C   UNL     1       4.547   6.273  -0.208  1.00  0.00     0.000 C 
BRANCH  11  12
ATOM     12  C   UNL     1       4.943   7.348   0.819  1.00  0.00     0.000 C 
BRANCH  12  13
ATOM     13  C   UNL     1       5.684   6.758   2.030  1.00  0.00     0.006 C 
BRANCH  13  14
ATOM     14  C   UNL     1       6.957   6.005   1.618  1.00  0.00     0.053 C 
BRANCH  14  15
ATOM     15  C   UNL     1       6.911   4.564   2.028  1.00  0.00     0.041 C 
ATOM     16  O   UNL     1       6.589   3.678   1.193  1.00  0.00    -0.550 OA
ATOM     17  O   UNL     1       7.175   4.209   3.346  1.00  0.00    -0.550 OA
ENDBRANCH  14  15
ENDBRANCH  13  14
ENDBRANCH  12  13
ENDBRANCH  11  12
ENDBRANCH  10  11
ENDBRANCH   9  10
ENDBRANCH   8   9
ENDBRANCH   7   8
ENDBRANCH   6   7
ENDBRANCH   5   6
ENDBRANCH   4   5
ENDBRANCH   3   4
ENDBRANCH   2   3
ENDBRANCH   1   2
BRANCH   1  18
ATOM     18  C   UNL     1       0.618   9.210   2.691  1.00  0.00     0.000 C 
BRANCH  18  19
ATOM     19  C   UNL     1       0.465   9.007   4.204  1.00  0.00     0.000 C 
BRANCH  19  20
ATOM     20  C   UNL     1      -0.988   8.680   4.572  1.00  0.00     0.000 C 
BRANCH  20  21
ATOM     21  C   UNL     1      -1.109   7.479   5.529  1.00  0.00     0.000 C 
BRANCH  21  22
ATOM     22  C   UNL     1       0.250   6.861   5.921  1.00  0.00     0.000 C 
BRANCH  22  23
ATOM     23  C   UNL     1       0.117   5.838   7.064  1.00  0.00     0.000 C 
BRANCH  23  24
ATOM     24  C   UNL     1      -0.878   4.713   6.730  1.00  0.00    -0.000 C 
BRANCH  24  25
ATOM     25  C   UNL     1      -0.187   3.347   6.569  1.00  0.00    -0.000 C 
BRANCH  25  26
ATOM     26  C   UNL     1       0.119   3.013   5.099  1.00  0.00    -0.000 C 
BRANCH  26  27
ATOM     27  C   UNL     1      -0.801   3.764   4.121  1.00  0.00    -0.000 C 
BRANCH  27  28
ATOM     28  C   UNL     1      -0.142   3.986   2.743  1.00  0.00    -0.000 C 
BRANCH  28  29
ATOM     29  C   UNL     1       0.340   5.432   2.508  1.00  0.00    -0.000 C 
BRANCH  29  30
ATOM     30  C   UNL     1       1.868   5.605   2.389  1.00  0.00    -0.000 C 
BRANCH  30  31
ATOM     31  C   UNL     1       2.628   5.576   3.729  1.00  0.00    -0.003 C 
ATOM     32  C   UNL     1       3.399   4.273   3.947  1.00  0.00     0.004 C 
ENDBRANCH  30  31
ENDBRANCH  29  30
ENDBRANCH  28  29
ENDBRANCH  27  28
ENDBRANCH  26  27
ENDBRANCH  25  26
ENDBRANCH  24  25
ENDBRANCH  23  24
ENDBRANCH  22  23
ENDBRANCH  21  22
ENDBRANCH  20  21
ENDBRANCH  19  20
ENDBRANCH  18  19
ENDBRANCH   1  18
TORSDOF 28
ENDMDL
MODEL 9
REMARK VINA RESULT:    -3.846      2.325      4.881
REMARK INTER + INTRA:         -15.232
REMARK INTER:                  -9.533
REMARK INTRA:                  -5.698
REMARK UNBOUND:                -5.091
REMARK SMILES CCCCCCCCCCCCCCCCCCCCCCCCCCCCCC(=O)[O-]
REMARK SMILES IDX 16 1 17 2 18 3 19 4 20 5 21 6 22 7 23 8 24 9 25 10 26 11
REMARK SMILES IDX 27 12 28 13 29 14 30 15 31 16 32 17 15 18 14 19 13 20 12 21
REMARK SMILES IDX 11 22 10 23 9 24 8 25 7 26 6 27 5 28 4 29 3 30 2 31 1 32
REMARK H PARENT
REMARK Flexibility Score: inf
ROOT
ATOM      1  C   UNL     1       2.440   6.837   1.087  1.00  0.00     0.000 C 
ENDROOT
BRANCH   1   2
ATOM      2  C   UNL     1       3.102   7.427   2.350  1.00  0.00     0.000 C 
BRANCH   2   3
ATOM      3  C   UNL     1       4.359   6.683   2.837  1.00  0.00     0.000 C 
BRANCH   3   4
ATOM      4  C   UNL     1       4.524   5.305   2.175  1.00  0.00     0.000 C 
BRANCH   4   5
ATOM      5  C   UNL     1       6.001   4.923   1.991  1.00  0.00     0.000 C 
BRANCH   5   6
ATOM      6  C   UNL     1       6.564   5.390   0.637  1.00  0.00     0.000 C 
BRANCH   6   7
ATOM      7  C   UNL     1       5.520   5.362  -0.494  1.00  0.00     0.000 C 
BRANCH   7   8
ATOM      8  C   UNL     1       5.373   6.704  -1.242  1.00  0.00     0.000 C 
BRANCH   8   9
ATOM      9  C   UNL     1       5.961   7.895  -0.460  1.00  0.00     0.000 C 
BRANCH   9  10
ATOM     10  C   UNL     1       5.014   9.106  -0.420  1.00  0.00     0.000 C 
BRANCH  10  11
ATOM     11  C   UNL     1       4.250   9.310  -1.742  1.00  0.00     0.000 C 
BRANCH  11  12
ATOM     12  C   UNL     1       2.728   9.379  -1.535  1.00  0.00     0.000 C 
BRANCH  12  13
ATOM     13  C   UNL     1       1.947   9.113  -2.833  1.00  0.00     0.006 C 
BRANCH  13  14
ATOM     14  C   UNL     1       0.901   8.003  -2.660  1.00  0.00     0.053 C 
BRANCH  14  15
ATOM     15  C   UNL     1       1.485   6.643  -2.899  1.00  0.00     0.041 C 
ATOM     16  O   UNL     1       1.060   5.650  -2.251  1.00  0.00    -0.550 OA
ATOM     17  O   UNL     1       2.532   6.485  -3.798  1.00  0.00    -0.550 OA
ENDBRANCH  14  15
ENDBRANCH  13  14
ENDBRANCH  12  13
ENDBRANCH  11  12
ENDBRANCH  10  11
ENDBRANCH   9  10
ENDBRANCH   8   9
ENDBRANCH   7   8
ENDBRANCH   6   7
ENDBRANCH   5   6
ENDBRANCH   4   5
ENDBRANCH   3   4
ENDBRANCH   2   3
ENDBRANCH   1   2
BRANCH   1  18
ATOM     18  C   UNL     1       0.902   6.917   1.056  1.00  0.00     0.000 C 
BRANCH  18  19
ATOM     19  C   UNL     1       0.380   8.361   1.049  1.00  0.00     0.000 C 
BRANCH  19  20
ATOM     20  C   UNL     1      -0.490   8.638   2.281  1.00  0.00     0.000 C 
BRANCH  20  21
ATOM     21  C   UNL     1      -0.847   7.361   3.064  1.00  0.00     0.000 C 
BRANCH  21  22
ATOM     22  C   UNL     1      -0.771   7.533   4.596  1.00  0.00     0.000 C 
BRANCH  22  23
ATOM     23  C   UNL     1       0.680   7.613   5.104  1.00  0.00     0.000 C 
BRANCH  23  24
ATOM     24  C   UNL     1       0.768   8.137   6.547  1.00  0.00    -0.000 C 
BRANCH  24  25
ATOM     25  C   UNL     1       0.018   7.237   7.545  1.00  0.00    -0.000 C 
BRANCH  25  26
ATOM     26  C   UNL     1       0.710   5.879   7.747  1.00  0.00    -0.000 C 
BRANCH  26  27
ATOM     27  C   UNL     1      -0.288   4.752   8.065  1.00  0.00    -0.000 C 
BRANCH  27  28
ATOM     28  C   UNL     1      -0.202   3.586   7.056  1.00  0.00    -0.000 C 
BRANCH  28  29
ATOM     29  C   UNL     1      -0.355   4.022   5.585  1.00  0.00    -0.000 C 
BRANCH  29  30
ATOM     30  C   UNL     1       0.925   3.913   4.730  1.00  0.00    -0.000 C 
BRANCH  30  31
ATOM     31  C   UNL     1       0.693   3.972   3.208  1.00  0.00    -0.003 C 
ATOM     32  C   UNL     1      -0.744   3.630   2.812  1.00  0.00     0.004 C 
ENDBRANCH  30  31
ENDBRANCH  29  30
ENDBRANCH  28  29
ENDBRANCH  27  28
ENDBRANCH  26  27
ENDBRANCH  25  26
ENDBRANCH  24  25
ENDBRANCH  23  24
ENDBRANCH  22  23
ENDBRANCH  21  22
ENDBRANCH  20  21
ENDBRANCH  19  20
ENDBRANCH  18  19
ENDBRANCH   1  18
TORSDOF 28
ENDMDL
