MODEL 1
REMARK VINA RESULT:    -8.359      0.000      0.000
REMARK INTER + INTRA:          -9.332
REMARK INTER:                  -9.092
REMARK INTRA:                  -0.239
REMARK UNBOUND:                -0.239
REMARK SMILES CC1(C)CC[C@]2(C(=O)[O-])CC[C@@]3(C)C(=CC[C@@H]4[C@]5(C)CC[C@@H](O)C(C)(C)[C@H]5CC[C@@]43C)[C@@H]2C1
REMARK SMILES IDX 6 1 5 2 10 3 32 4 4 5 11 6 14 7 33 8 2 9 12 10 15 11 1 12
REMARK SMILES IDX 3 13 13 14 30 15 16 16 17 17 29 18 31 19 18 20 28 21 27 22
REMARK SMILES IDX 20 23 19 24 24 25 21 26 22 27 25 28 26 29 7 30 8 31 9 32
REMARK SMILES IDX 23 33
REMARK H PARENT 23 34
REMARK Flexibility Score: inf
ROOT
ATOM      1  C   UNL     1     -30.237 -16.011  -6.242  1.00  0.00     0.017 C 
ATOM      2  C   UNL     1     -31.169 -16.121  -7.485  1.00  0.00     0.014 C 
ATOM      3  C   UNL     1     -31.019 -16.399  -4.931  1.00  0.00     0.014 C 
ATOM      4  C   UNL     1     -29.607 -14.573  -6.165  1.00  0.00     0.028 C 
ATOM      5  C   UNL     1     -32.170 -14.966  -7.619  1.00  0.00     0.007 C 
ATOM      6  C   UNL     1     -30.856 -15.434  -3.741  1.00  0.00     0.013 C 
ATOM      7  C   UNL     1     -28.863 -14.366  -4.849  1.00  0.00    -0.064 C 
ATOM      8  C   UNL     1     -30.602 -13.408  -6.404  1.00  0.00     0.015 C 
ATOM      9  C   UNL     1     -31.485 -13.580  -7.663  1.00  0.00    -0.035 C 
ATOM     10  C   UNL     1     -29.392 -14.923  -3.524  1.00  0.00    -0.006 C 
ATOM     11  C   UNL     1     -27.699 -13.696  -4.849  1.00  0.00    -0.027 C 
ATOM     12  C   UNL     1     -30.652 -13.401  -8.955  1.00  0.00     0.011 C 
ATOM     13  C   UNL     1     -32.581 -12.491  -7.654  1.00  0.00     0.011 C 
ATOM     14  C   UNL     1     -28.520 -16.175  -3.159  1.00  0.00     0.017 C 
ATOM     15  C   UNL     1     -29.300 -13.776  -2.378  1.00  0.00    -0.020 C 
ATOM     16  C   UNL     1     -26.944 -13.477  -3.573  1.00  0.00     0.032 C 
ATOM     17  C   UNL     1     -27.894 -12.959  -2.456  1.00  0.00     0.006 C 
ATOM     18  C   UNL     1     -29.609 -14.436  -0.981  1.00  0.00     0.008 C 
ATOM     19  C   UNL     1     -30.424 -12.710  -2.598  1.00  0.00     0.012 C 
ATOM     20  C   UNL     1     -27.169 -12.539  -1.076  1.00  0.00    -0.025 C 
ATOM     21  C   UNL     1     -29.016 -13.722   0.220  1.00  0.00     0.005 C 
ATOM     22  C   UNL     1     -27.491 -13.594   0.041  1.00  0.00     0.003 C 
ATOM     23  C   UNL     1     -25.614 -12.462  -1.234  1.00  0.00     0.010 C 
ATOM     24  C   UNL     1     -27.656 -11.098  -0.713  1.00  0.00     0.012 C 
ATOM     25  C   UNL     1     -26.677 -13.505   1.404  1.00  0.00    -0.006 C 
ATOM     26  C   UNL     1     -24.866 -12.210   0.079  1.00  0.00     0.033 C 
ATOM     27  C   UNL     1     -25.154 -13.329   1.091  1.00  0.00     0.120 C 
ATOM     28  C   UNL     1     -27.187 -12.388   2.361  1.00  0.00     0.014 C 
ATOM     29  C   UNL     1     -26.818 -14.855   2.169  1.00  0.00     0.014 C 
ENDROOT
BRANCH   1  30
ATOM     30  C   UNL     1     -29.134 -17.049  -6.466  1.00  0.00     0.048 C 
ATOM     31  O   UNL     1     -28.097 -16.736  -7.111  1.00  0.00    -0.550 OA
ATOM     32  O   UNL     1     -29.218 -18.330  -5.927  1.00  0.00    -0.550 OA
ENDBRANCH   1  30
BRANCH  27  33
ATOM     33  O   UNL     1     -24.390 -13.157   2.262  1.00  0.00    -0.393 OA
ATOM     34  H   UNL     1     -23.729 -12.435   2.101  1.00  0.00     0.210 HD
ENDBRANCH  27  33
TORSDOF 2
ENDMDL
MODEL 2
REMARK VINA RESULT:    -8.275      9.274     11.446
REMARK INTER + INTRA:          -9.240
REMARK INTER:                  -8.971
REMARK INTRA:                  -0.269
REMARK UNBOUND:                -0.239
REMARK SMILES CC1(C)CC[C@]2(C(=O)[O-])CC[C@@]3(C)C(=CC[C@@H]4[C@]5(C)CC[C@@H](O)C(C)(C)[C@H]5CC[C@@]43C)[C@@H]2C1
REMARK SMILES IDX 6 1 5 2 10 3 32 4 4 5 11 6 14 7 33 8 2 9 12 10 15 11 1 12
REMARK SMILES IDX 3 13 13 14 30 15 16 16 17 17 29 18 31 19 18 20 28 21 27 22
REMARK SMILES IDX 20 23 19 24 24 25 21 26 22 27 25 28 26 29 7 30 8 31 9 32
REMARK SMILES IDX 23 33
REMARK H PARENT 23 34
REMARK Flexibility Score: inf
ROOT
ATOM      1  C   UNL     1     -33.909 -15.055 -14.305  1.00  0.00     0.017 C 
ATOM      2  C   UNL     1     -32.880 -14.396 -15.271  1.00  0.00     0.014 C 
ATOM      3  C   UNL     1     -34.709 -13.951 -13.516  1.00  0.00     0.014 C 
ATOM      4  C   UNL     1     -33.180 -16.070 -13.352  1.00  0.00     0.028 C 
ATOM      5  C   UNL     1     -31.630 -13.846 -14.572  1.00  0.00     0.007 C 
ATOM      6  C   UNL     1     -34.830 -14.169 -11.996  1.00  0.00     0.013 C 
ATOM      7  C   UNL     1     -34.118 -16.570 -12.256  1.00  0.00    -0.064 C 
ATOM      8  C   UNL     1     -31.860 -15.550 -12.726  1.00  0.00     0.015 C 
ATOM      9  C   UNL     1     -30.883 -14.919 -13.747  1.00  0.00    -0.035 C 
ATOM     10  C   UNL     1     -35.135 -15.648 -11.580  1.00  0.00    -0.006 C 
ATOM     11  C   UNL     1     -34.070 -17.860 -11.887  1.00  0.00    -0.027 C 
ATOM     12  C   UNL     1     -30.258 -16.002 -14.660  1.00  0.00     0.011 C 
ATOM     13  C   UNL     1     -29.733 -14.233 -12.976  1.00  0.00     0.011 C 
ATOM     14  C   UNL     1     -36.550 -16.002 -12.159  1.00  0.00     0.017 C 
ATOM     15  C   UNL     1     -35.078 -15.862  -9.971  1.00  0.00    -0.020 C 
ATOM     16  C   UNL     1     -34.979 -18.382 -10.816  1.00  0.00     0.032 C 
ATOM     17  C   UNL     1     -34.966 -17.439  -9.579  1.00  0.00     0.006 C 
ATOM     18  C   UNL     1     -36.292 -15.099  -9.318  1.00  0.00     0.008 C 
ATOM     19  C   UNL     1     -33.792 -15.187  -9.388  1.00  0.00     0.012 C 
ATOM     20  C   UNL     1     -35.788 -17.974  -8.297  1.00  0.00    -0.025 C 
ATOM     21  C   UNL     1     -36.749 -15.637  -7.975  1.00  0.00     0.005 C 
ATOM     22  C   UNL     1     -37.100 -17.132  -8.112  1.00  0.00     0.003 C 
ATOM     23  C   UNL     1     -36.197 -19.477  -8.453  1.00  0.00     0.010 C 
ATOM     24  C   UNL     1     -34.831 -17.894  -7.063  1.00  0.00     0.012 C 
ATOM     25  C   UNL     1     -38.174 -17.650  -7.061  1.00  0.00    -0.006 C 
ATOM     26  C   UNL     1     -37.104 -19.995  -7.332  1.00  0.00     0.033 C 
ATOM     27  C   UNL     1     -38.407 -19.184  -7.269  1.00  0.00     0.120 C 
ATOM     28  C   UNL     1     -37.803 -17.334  -5.583  1.00  0.00     0.014 C 
ATOM     29  C   UNL     1     -39.539 -16.954  -7.343  1.00  0.00     0.014 C 
ENDROOT
BRANCH   1  30
ATOM     30  C   UNL     1     -34.892 -15.806 -15.207  1.00  0.00     0.048 C 
ATOM     31  O   UNL     1     -35.972 -15.257 -15.556  1.00  0.00    -0.550 OA
ATOM     32  O   UNL     1     -34.603 -17.075 -15.701  1.00  0.00    -0.550 OA
ENDBRANCH   1  30
BRANCH  27  33
ATOM     33  O   UNL     1     -39.287 -19.720  -6.308  1.00  0.00    -0.393 OA
ATOM     34  H   UNL     1     -39.721 -20.524  -6.694  1.00  0.00     0.210 HD
ENDBRANCH  27  33
TORSDOF 2
ENDMDL
MODEL 3
REMARK VINA RESULT:    -7.930      1.980      8.088
REMARK INTER + INTRA:          -8.865
REMARK INTER:                  -8.600
REMARK INTRA:                  -0.265
REMARK UNBOUND:                -0.239
REMARK SMILES CC1(C)CC[C@]2(C(=O)[O-])CC[C@@]3(C)C(=CC[C@@H]4[C@]5(C)CC[C@@H](O)C(C)(C)[C@H]5CC[C@@]43C)[C@@H]2C1
REMARK SMILES IDX 6 1 5 2 10 3 32 4 4 5 11 6 14 7 33 8 2 9 12 10 15 11 1 12
REMARK SMILES IDX 3 13 13 14 30 15 16 16 17 17 29 18 31 19 18 20 28 21 27 22
REMARK SMILES IDX 20 23 19 24 24 25 21 26 22 27 25 28 26 29 7 30 8 31 9 32
REMARK SMILES IDX 23 33
REMARK H PARENT 23 34
REMARK Flexibility Score: inf
ROOT
ATOM      1  C   UNL     1     -28.204 -13.099  -1.066  1.00  0.00     0.017 C 
ATOM      2  C   UNL     1     -28.282 -12.389   0.318  1.00  0.00     0.014 C 
ATOM      3  C   UNL     1     -28.968 -12.261  -2.159  1.00  0.00     0.014 C 
ATOM      4  C   UNL     1     -28.744 -14.571  -0.947  1.00  0.00     0.028 C 
ATOM      5  C   UNL     1     -29.641 -12.527   1.016  1.00  0.00     0.007 C 
ATOM      6  C   UNL     1     -29.933 -13.055  -3.060  1.00  0.00     0.013 C 
ATOM      7  C   UNL     1     -28.881 -15.221  -2.321  1.00  0.00    -0.064 C 
ATOM      8  C   UNL     1     -30.066 -14.722  -0.151  1.00  0.00     0.015 C 
ATOM      9  C   UNL     1     -30.065 -14.000   1.217  1.00  0.00    -0.035 C 
ATOM     10  C   UNL     1     -29.373 -14.437  -3.541  1.00  0.00    -0.006 C 
ATOM     11  C   UNL     1     -28.542 -16.510  -2.476  1.00  0.00    -0.027 C 
ATOM     12  C   UNL     1     -29.140 -14.722   2.227  1.00  0.00     0.011 C 
ATOM     13  C   UNL     1     -31.498 -14.024   1.793  1.00  0.00     0.011 C 
ATOM     14  C   UNL     1     -28.124 -14.135  -4.441  1.00  0.00     0.017 C 
ATOM     15  C   UNL     1     -30.486 -15.312  -4.337  1.00  0.00    -0.020 C 
ATOM     16  C   UNL     1     -28.664 -17.177  -3.813  1.00  0.00     0.032 C 
ATOM     17  C   UNL     1     -30.051 -16.878  -4.449  1.00  0.00     0.006 C 
ATOM     18  C   UNL     1     -30.793 -14.606  -5.711  1.00  0.00     0.008 C 
ATOM     19  C   UNL     1     -31.837 -15.302  -3.547  1.00  0.00     0.012 C 
ATOM     20  C   UNL     1     -30.363 -17.666  -5.823  1.00  0.00    -0.025 C 
ATOM     21  C   UNL     1     -31.314 -15.517  -6.807  1.00  0.00     0.005 C 
ATOM     22  C   UNL     1     -30.317 -16.670  -7.036  1.00  0.00     0.003 C 
ATOM     23  C   UNL     1     -29.321 -18.802  -6.092  1.00  0.00     0.010 C 
ATOM     24  C   UNL     1     -31.754 -18.361  -5.656  1.00  0.00     0.012 C 
ATOM     25  C   UNL     1     -30.351 -17.282  -8.503  1.00  0.00    -0.006 C 
ATOM     26  C   UNL     1     -29.484 -19.487  -7.453  1.00  0.00     0.033 C 
ATOM     27  C   UNL     1     -29.335 -18.469  -8.594  1.00  0.00     0.120 C 
ATOM     28  C   UNL     1     -31.772 -17.721  -8.962  1.00  0.00     0.014 C 
ATOM     29  C   UNL     1     -29.861 -16.203  -9.515  1.00  0.00     0.014 C 
ENDROOT
BRANCH   1  30
ATOM     30  C   UNL     1     -26.717 -13.121  -1.431  1.00  0.00     0.048 C 
ATOM     31  O   UNL     1     -26.241 -12.230  -2.185  1.00  0.00    -0.550 OA
ATOM     32  O   UNL     1     -25.852 -14.077  -0.906  1.00  0.00    -0.550 OA
ENDBRANCH   1  30
BRANCH  27  33
ATOM     33  O   UNL     1     -29.382 -19.109  -9.848  1.00  0.00    -0.393 OA
ATOM     34  H   UNL     1     -28.460 -19.374 -10.099  1.00  0.00     0.210 HD
ENDBRANCH  27  33
TORSDOF 2
ENDMDL
MODEL 4
REMARK VINA RESULT:    -7.903      2.344      4.181
REMARK INTER + INTRA:          -8.836
REMARK INTER:                  -8.600
REMARK INTRA:                  -0.235
REMARK UNBOUND:                -0.239
REMARK SMILES CC1(C)CC[C@]2(C(=O)[O-])CC[C@@]3(C)C(=CC[C@@H]4[C@]5(C)CC[C@@H](O)C(C)(C)[C@H]5CC[C@@]43C)[C@@H]2C1
REMARK SMILES IDX 6 1 5 2 10 3 32 4 4 5 11 6 14 7 33 8 2 9 12 10 15 11 1 12
REMARK SMILES IDX 3 13 13 14 30 15 16 16 17 17 29 18 31 19 18 20 28 21 27 22
REMARK SMILES IDX 20 23 19 24 24 25 21 26 22 27 25 28 26 29 7 30 8 31 9 32
REMARK SMILES IDX 23 33
REMARK H PARENT 23 34
REMARK Flexibility Score: inf
ROOT
ATOM      1  C   UNL     1     -30.718 -17.928  -7.633  1.00  0.00     0.017 C 
ATOM      2  C   UNL     1     -31.367 -19.113  -8.407  1.00  0.00     0.014 C 
ATOM      3  C   UNL     1     -29.391 -18.394  -6.923  1.00  0.00     0.014 C 
ATOM      4  C   UNL     1     -31.755 -17.309  -6.627  1.00  0.00     0.028 C 
ATOM      5  C   UNL     1     -32.085 -20.129  -7.508  1.00  0.00     0.007 C 
ATOM      6  C   UNL     1     -29.238 -17.977  -5.448  1.00  0.00     0.013 C 
ATOM      7  C   UNL     1     -31.090 -16.291  -5.705  1.00  0.00    -0.064 C 
ATOM      8  C   UNL     1     -32.555 -18.341  -5.792  1.00  0.00     0.015 C 
ATOM      9  C   UNL     1     -33.180 -19.482  -6.629  1.00  0.00    -0.035 C 
ATOM     10  C   UNL     1     -29.681 -16.505  -5.146  1.00  0.00    -0.006 C 
ATOM     11  C   UNL     1     -31.745 -15.162  -5.388  1.00  0.00    -0.027 C 
ATOM     12  C   UNL     1     -34.360 -18.961  -7.486  1.00  0.00     0.011 C 
ATOM     13  C   UNL     1     -33.736 -20.557  -5.668  1.00  0.00     0.011 C 
ATOM     14  C   UNL     1     -28.711 -15.564  -5.943  1.00  0.00     0.017 C 
ATOM     15  C   UNL     1     -29.669 -16.169  -3.557  1.00  0.00    -0.020 C 
ATOM     16  C   UNL     1     -31.118 -14.143  -4.487  1.00  0.00     0.032 C 
ATOM     17  C   UNL     1     -30.522 -14.823  -3.222  1.00  0.00     0.006 C 
ATOM     18  C   UNL     1     -28.175 -16.152  -3.058  1.00  0.00     0.008 C 
ATOM     19  C   UNL     1     -30.366 -17.323  -2.762  1.00  0.00     0.012 C 
ATOM     20  C   UNL     1     -29.953 -13.811  -2.099  1.00  0.00    -0.025 C 
ATOM     21  C   UNL     1     -27.913 -15.312  -1.822  1.00  0.00     0.005 C 
ATOM     22  C   UNL     1     -28.384 -13.866  -2.073  1.00  0.00     0.003 C 
ATOM     23  C   UNL     1     -30.380 -12.332  -2.378  1.00  0.00     0.010 C 
ATOM     24  C   UNL     1     -30.602 -14.217  -0.735  1.00  0.00     0.012 C 
ATOM     25  C   UNL     1     -27.616 -12.769  -1.216  1.00  0.00    -0.006 C 
ATOM     26  C   UNL     1     -29.748 -11.311  -1.427  1.00  0.00     0.033 C 
ATOM     27  C   UNL     1     -28.216 -11.356  -1.522  1.00  0.00     0.120 C 
ATOM     28  C   UNL     1     -27.618 -13.061   0.313  1.00  0.00     0.014 C 
ATOM     29  C   UNL     1     -26.126 -12.724  -1.666  1.00  0.00     0.014 C 
ENDROOT
BRANCH   1  30
ATOM     30  C   UNL     1     -30.352 -16.894  -8.701  1.00  0.00     0.048 C 
ATOM     31  O   UNL     1     -29.262 -16.994  -9.327  1.00  0.00    -0.550 OA
ATOM     32  O   UNL     1     -31.221 -15.861  -9.043  1.00  0.00    -0.550 OA
ENDBRANCH   1  30
BRANCH  27  33
ATOM     33  O   UNL     1     -27.632 -10.351  -0.725  1.00  0.00    -0.393 OA
ATOM     34  H   UNL     1     -26.654 -10.352  -0.888  1.00  0.00     0.210 HD
ENDBRANCH  27  33
TORSDOF 2
ENDMDL
MODEL 5
REMARK VINA RESULT:    -7.859      1.943      7.817
REMARK INTER + INTRA:          -8.787
REMARK INTER:                  -8.519
REMARK INTRA:                  -0.269
REMARK UNBOUND:                -0.239
REMARK SMILES CC1(C)CC[C@]2(C(=O)[O-])CC[C@@]3(C)C(=CC[C@@H]4[C@]5(C)CC[C@@H](O)C(C)(C)[C@H]5CC[C@@]43C)[C@@H]2C1
REMARK SMILES IDX 6 1 5 2 10 3 32 4 4 5 11 6 14 7 33 8 2 9 12 10 15 11 1 12
REMARK SMILES IDX 3 13 13 14 30 15 16 16 17 17 29 18 31 19 18 20 28 21 27 22
REMARK SMILES IDX 20 23 19 24 24 25 21 26 22 27 25 28 26 29 7 30 8 31 9 32
REMARK SMILES IDX 23 33
REMARK H PARENT 23 34
REMARK Flexibility Score: inf
ROOT
ATOM      1  C   UNL     1     -27.376 -12.543  -0.016  1.00  0.00     0.017 C 
ATOM      2  C   UNL     1     -27.336 -11.342   0.975  1.00  0.00     0.014 C 
ATOM      3  C   UNL     1     -26.981 -12.073  -1.467  1.00  0.00     0.014 C 
ATOM      4  C   UNL     1     -28.787 -13.234   0.031  1.00  0.00     0.028 C 
ATOM      5  C   UNL     1     -28.531 -10.388   0.849  1.00  0.00     0.007 C 
ATOM      6  C   UNL     1     -27.906 -12.552  -2.602  1.00  0.00     0.013 C 
ATOM      7  C   UNL     1     -28.929 -14.274  -1.077  1.00  0.00    -0.064 C 
ATOM      8  C   UNL     1     -29.994 -12.262   0.008  1.00  0.00     0.015 C 
ATOM      9  C   UNL     1     -29.890 -11.102   1.027  1.00  0.00    -0.035 C 
ATOM     10  C   UNL     1     -28.356 -14.047  -2.478  1.00  0.00    -0.006 C 
ATOM     11  C   UNL     1     -29.555 -15.433  -0.815  1.00  0.00    -0.027 C 
ATOM     12  C   UNL     1     -30.074 -11.616   2.475  1.00  0.00     0.011 C 
ATOM     13  C   UNL     1     -31.019 -10.087   0.740  1.00  0.00     0.011 C 
ATOM     14  C   UNL     1     -27.062 -14.925  -2.605  1.00  0.00     0.017 C 
ATOM     15  C   UNL     1     -29.465 -14.453  -3.592  1.00  0.00    -0.020 C 
ATOM     16  C   UNL     1     -29.709 -16.475  -1.882  1.00  0.00     0.032 C 
ATOM     17  C   UNL     1     -30.232 -15.836  -3.200  1.00  0.00     0.006 C 
ATOM     18  C   UNL     1     -28.778 -14.453  -5.010  1.00  0.00     0.008 C 
ATOM     19  C   UNL     1     -30.579 -13.356  -3.662  1.00  0.00     0.012 C 
ATOM     20  C   UNL     1     -30.585 -16.881  -4.379  1.00  0.00    -0.025 C 
ATOM     21  C   UNL     1     -29.436 -15.340  -6.050  1.00  0.00     0.005 C 
ATOM     22  C   UNL     1     -29.512 -16.785  -5.520  1.00  0.00     0.003 C 
ATOM     23  C   UNL     1     -30.608 -18.358  -3.861  1.00  0.00     0.010 C 
ATOM     24  C   UNL     1     -32.033 -16.555  -4.872  1.00  0.00     0.012 C 
ATOM     25  C   UNL     1     -29.533 -17.898  -6.656  1.00  0.00    -0.006 C 
ATOM     26  C   UNL     1     -30.795 -19.403  -4.965  1.00  0.00     0.033 C 
ATOM     27  C   UNL     1     -29.660 -19.312  -5.996  1.00  0.00     0.120 C 
ATOM     28  C   UNL     1     -30.641 -17.675  -7.726  1.00  0.00     0.014 C 
ATOM     29  C   UNL     1     -28.168 -17.883  -7.407  1.00  0.00     0.014 C 
ENDROOT
BRANCH   1  30
ATOM     30  C   UNL     1     -26.304 -13.518   0.480  1.00  0.00     0.048 C 
ATOM     31  O   UNL     1     -25.147 -13.490  -0.020  1.00  0.00    -0.550 OA
ATOM     32  O   UNL     1     -26.557 -14.412   1.517  1.00  0.00    -0.550 OA
ENDBRANCH   1  30
BRANCH  27  33
ATOM     33  O   UNL     1     -29.771 -20.335  -6.958  1.00  0.00    -0.393 OA
ATOM     34  H   UNL     1     -29.420 -21.175  -6.563  1.00  0.00     0.210 HD
ENDBRANCH  27  33
TORSDOF 2
ENDMDL
MODEL 6
REMARK VINA RESULT:    -7.734      2.421      3.317
REMARK INTER + INTRA:          -8.652
REMARK INTER:                  -8.383
REMARK INTRA:                  -0.269
REMARK UNBOUND:                -0.239
REMARK SMILES CC1(C)CC[C@]2(C(=O)[O-])CC[C@@]3(C)C(=CC[C@@H]4[C@]5(C)CC[C@@H](O)C(C)(C)[C@H]5CC[C@@]43C)[C@@H]2C1
REMARK SMILES IDX 6 1 5 2 10 3 32 4 4 5 11 6 14 7 33 8 2 9 12 10 15 11 1 12
REMARK SMILES IDX 3 13 13 14 30 15 16 16 17 17 29 18 31 19 18 20 28 21 27 22
REMARK SMILES IDX 20 23 19 24 24 25 21 26 22 27 25 28 26 29 7 30 8 31 9 32
REMARK SMILES IDX 23 33
REMARK H PARENT 23 34
REMARK Flexibility Score: inf
ROOT
ATOM      1  C   UNL     1     -30.390 -18.507  -3.753  1.00  0.00     0.017 C 
ATOM      2  C   UNL     1     -30.755 -19.387  -4.986  1.00  0.00     0.014 C 
ATOM      3  C   UNL     1     -31.675 -17.793  -3.187  1.00  0.00     0.014 C 
ATOM      4  C   UNL     1     -29.253 -17.491  -4.133  1.00  0.00     0.028 C 
ATOM      5  C   UNL     1     -31.002 -18.588  -6.272  1.00  0.00     0.007 C 
ATOM      6  C   UNL     1     -31.531 -16.287  -2.895  1.00  0.00     0.013 C 
ATOM      7  C   UNL     1     -29.023 -16.476  -3.017  1.00  0.00    -0.064 C 
ATOM      8  C   UNL     1     -29.452 -16.760  -5.486  1.00  0.00     0.015 C 
ATOM      9  C   UNL     1     -29.800 -17.698  -6.666  1.00  0.00    -0.035 C 
ATOM     10  C   UNL     1     -30.182 -15.891  -2.205  1.00  0.00    -0.006 C 
ATOM     11  C   UNL     1     -27.770 -16.098  -2.718  1.00  0.00    -0.027 C 
ATOM     12  C   UNL     1     -28.576 -18.551  -7.078  1.00  0.00     0.011 C 
ATOM     13  C   UNL     1     -30.205 -16.837  -7.882  1.00  0.00     0.011 C 
ATOM     14  C   UNL     1     -30.168 -16.586  -0.798  1.00  0.00     0.017 C 
ATOM     15  C   UNL     1     -30.000 -14.283  -2.079  1.00  0.00    -0.020 C 
ATOM     16  C   UNL     1     -27.512 -15.105  -1.626  1.00  0.00     0.032 C 
ATOM     17  C   UNL     1     -28.453 -13.875  -1.770  1.00  0.00     0.006 C 
ATOM     18  C   UNL     1     -31.051 -13.737  -1.040  1.00  0.00     0.008 C 
ATOM     19  C   UNL     1     -30.357 -13.597  -3.440  1.00  0.00     0.012 C 
ATOM     20  C   UNL     1     -28.167 -12.664  -0.742  1.00  0.00    -0.025 C 
ATOM     21  C   UNL     1     -30.675 -12.435  -0.358  1.00  0.00     0.005 C 
ATOM     22  C   UNL     1     -29.307 -12.594   0.335  1.00  0.00     0.003 C 
ATOM     23  C   UNL     1     -26.806 -12.847   0.008  1.00  0.00     0.010 C 
ATOM     24  C   UNL     1     -28.042 -11.354  -1.588  1.00  0.00     0.012 C 
ATOM     25  C   UNL     1     -29.092 -11.634   1.584  1.00  0.00    -0.006 C 
ATOM     26  C   UNL     1     -26.552 -11.803   1.101  1.00  0.00     0.033 C 
ATOM     27  C   UNL     1     -27.656 -11.854   2.167  1.00  0.00     0.120 C 
ATOM     28  C   UNL     1     -29.346 -10.131   1.266  1.00  0.00     0.014 C 
ATOM     29  C   UNL     1     -30.091 -12.033   2.710  1.00  0.00     0.014 C 
ENDROOT
BRANCH   1  30
ATOM     30  C   UNL     1     -29.878 -19.485  -2.691  1.00  0.00     0.048 C 
ATOM     31  O   UNL     1     -30.663 -19.923  -1.808  1.00  0.00    -0.550 OA
ATOM     32  O   UNL     1     -28.566 -19.951  -2.703  1.00  0.00    -0.550 OA
ENDBRANCH   1  30
BRANCH  27  33
ATOM     33  O   UNL     1     -27.374 -10.967   3.225  1.00  0.00    -0.393 OA
ATOM     34  H   UNL     1     -26.466 -11.168   3.569  1.00  0.00     0.210 HD
ENDBRANCH  27  33
TORSDOF 2
ENDMDL
MODEL 7
REMARK VINA RESULT:    -7.715      2.229      3.469
REMARK INTER + INTRA:          -8.632
REMARK INTER:                  -8.363
REMARK INTRA:                  -0.269
REMARK UNBOUND:                -0.239
REMARK SMILES CC1(C)CC[C@]2(C(=O)[O-])CC[C@@]3(C)C(=CC[C@@H]4[C@]5(C)CC[C@@H](O)C(C)(C)[C@H]5CC[C@@]43C)[C@@H]2C1
REMARK SMILES IDX 6 1 5 2 10 3 32 4 4 5 11 6 14 7 33 8 2 9 12 10 15 11 1 12
REMARK SMILES IDX 3 13 13 14 30 15 16 16 17 17 29 18 31 19 18 20 28 21 27 22
REMARK SMILES IDX 20 23 19 24 24 25 21 26 22 27 25 28 26 29 7 30 8 31 9 32
REMARK SMILES IDX 23 33
REMARK H PARENT 23 34
REMARK Flexibility Score: inf
ROOT
ATOM      1  C   UNL     1     -31.436 -17.477  -4.975  1.00  0.00     0.017 C 
ATOM      2  C   UNL     1     -31.879 -18.209  -6.276  1.00  0.00     0.014 C 
ATOM      3  C   UNL     1     -31.800 -15.946  -5.053  1.00  0.00     0.014 C 
ATOM      4  C   UNL     1     -29.906 -17.721  -4.712  1.00  0.00     0.028 C 
ATOM      5  C   UNL     1     -30.964 -17.949  -7.481  1.00  0.00     0.007 C 
ATOM      6  C   UNL     1     -30.679 -14.969  -4.649  1.00  0.00     0.013 C 
ATOM      7  C   UNL     1     -29.395 -16.847  -3.570  1.00  0.00    -0.064 C 
ATOM      8  C   UNL     1     -28.994 -17.560  -5.955  1.00  0.00     0.015 C 
ATOM      9  C   UNL     1     -29.489 -18.324  -7.206  1.00  0.00    -0.035 C 
ATOM     10  C   UNL     1     -29.872 -15.405  -3.379  1.00  0.00    -0.006 C 
ATOM     11  C   UNL     1     -28.520 -17.359  -2.690  1.00  0.00    -0.027 C 
ATOM     12  C   UNL     1     -29.318 -19.852  -7.028  1.00  0.00     0.011 C 
ATOM     13  C   UNL     1     -28.639 -17.893  -8.422  1.00  0.00     0.011 C 
ATOM     14  C   UNL     1     -30.878 -15.397  -2.175  1.00  0.00     0.017 C 
ATOM     15  C   UNL     1     -28.595 -14.443  -3.098  1.00  0.00    -0.020 C 
ATOM     16  C   UNL     1     -28.001 -16.527  -1.557  1.00  0.00     0.032 C 
ATOM     17  C   UNL     1     -27.538 -15.133  -2.068  1.00  0.00     0.006 C 
ATOM     18  C   UNL     1     -29.121 -13.024  -2.659  1.00  0.00     0.008 C 
ATOM     19  C   UNL     1     -27.801 -14.206  -4.426  1.00  0.00     0.012 C 
ATOM     20  C   UNL     1     -26.817 -14.200  -0.965  1.00  0.00    -0.025 C 
ATOM     21  C   UNL     1     -28.161 -12.209  -1.813  1.00  0.00     0.005 C 
ATOM     22  C   UNL     1     -27.765 -13.016  -0.561  1.00  0.00     0.003 C 
ATOM     23  C   UNL     1     -26.463 -15.000   0.333  1.00  0.00     0.010 C 
ATOM     24  C   UNL     1     -25.462 -13.716  -1.579  1.00  0.00     0.012 C 
ATOM     25  C   UNL     1     -27.350 -12.124   0.688  1.00  0.00    -0.006 C 
ATOM     26  C   UNL     1     -25.909 -14.132   1.467  1.00  0.00     0.033 C 
ATOM     27  C   UNL     1     -26.925 -13.055   1.873  1.00  0.00     0.120 C 
ATOM     28  C   UNL     1     -26.241 -11.081   0.367  1.00  0.00     0.014 C 
ATOM     29  C   UNL     1     -28.595 -11.326   1.178  1.00  0.00     0.014 C 
ENDROOT
BRANCH   1  30
ATOM     30  C   UNL     1     -32.262 -18.108  -3.851  1.00  0.00     0.048 C 
ATOM     31  O   UNL     1     -33.345 -17.574  -3.489  1.00  0.00    -0.550 OA
ATOM     32  O   UNL     1     -31.874 -19.299  -3.242  1.00  0.00    -0.550 OA
ENDBRANCH   1  30
BRANCH  27  33
ATOM     33  O   UNL     1     -26.464 -12.319   2.982  1.00  0.00    -0.393 OA
ATOM     34  H   UNL     1     -25.711 -12.816   3.396  1.00  0.00     0.210 HD
ENDBRANCH  27  33
TORSDOF 2
ENDMDL
MODEL 8
REMARK VINA RESULT:    -7.680      1.249      1.612
REMARK INTER + INTRA:          -8.593
REMARK INTER:                  -8.345
REMARK INTRA:                  -0.248
REMARK UNBOUND:                -0.239
REMARK SMILES CC1(C)CC[C@]2(C(=O)[O-])CC[C@@]3(C)C(=CC[C@@H]4[C@]5(C)CC[C@@H](O)C(C)(C)[C@H]5CC[C@@]43C)[C@@H]2C1
REMARK SMILES IDX 6 1 5 2 10 3 32 4 4 5 11 6 14 7 33 8 2 9 12 10 15 11 1 12
REMARK SMILES IDX 3 13 13 14 30 15 16 16 17 17 29 18 31 19 18 20 28 21 27 22
REMARK SMILES IDX 20 23 19 24 24 25 21 26 22 27 25 28 26 29 7 30 8 31 9 32
REMARK SMILES IDX 23 33
REMARK H PARENT 23 34
REMARK Flexibility Score: inf
ROOT
ATOM      1  C   UNL     1     -30.439 -17.505  -6.676  1.00  0.00     0.017 C 
ATOM      2  C   UNL     1     -31.405 -17.920  -7.824  1.00  0.00     0.014 C 
ATOM      3  C   UNL     1     -30.997 -17.988  -5.284  1.00  0.00     0.014 C 
ATOM      4  C   UNL     1     -30.184 -15.955  -6.720  1.00  0.00     0.028 C 
ATOM      5  C   UNL     1     -32.671 -17.057  -7.918  1.00  0.00     0.007 C 
ATOM      6  C   UNL     1     -30.989 -16.937  -4.158  1.00  0.00     0.013 C 
ATOM      7  C   UNL     1     -29.416 -15.486  -5.486  1.00  0.00    -0.064 C 
ATOM      8  C   UNL     1     -31.453 -15.087  -6.919  1.00  0.00     0.015 C 
ATOM      9  C   UNL     1     -32.359 -15.552  -8.084  1.00  0.00    -0.035 C 
ATOM     10  C   UNL     1     -29.687 -16.069  -4.096  1.00  0.00    -0.006 C 
ATOM     11  C   UNL     1     -28.461 -14.554  -5.620  1.00  0.00    -0.027 C 
ATOM     12  C   UNL     1     -31.698 -15.258  -9.453  1.00  0.00     0.011 C 
ATOM     13  C   UNL     1     -33.688 -14.766  -8.024  1.00  0.00     0.011 C 
ATOM     14  C   UNL     1     -28.505 -17.044  -3.757  1.00  0.00     0.017 C 
ATOM     15  C   UNL     1     -29.798 -14.864  -3.014  1.00  0.00    -0.020 C 
ATOM     16  C   UNL     1     -27.689 -14.074  -4.429  1.00  0.00     0.032 C 
ATOM     17  C   UNL     1     -28.650 -13.733  -3.254  1.00  0.00     0.006 C 
ATOM     18  C   UNL     1     -29.824 -15.487  -1.567  1.00  0.00     0.008 C 
ATOM     19  C   UNL     1     -31.166 -14.122  -3.178  1.00  0.00     0.012 C 
ATOM     20  C   UNL     1     -27.950 -13.060  -1.965  1.00  0.00    -0.025 C 
ATOM     21  C   UNL     1     -29.339 -14.573  -0.458  1.00  0.00     0.005 C 
ATOM     22  C   UNL     1     -27.911 -14.087  -0.778  1.00  0.00     0.003 C 
ATOM     23  C   UNL     1     -26.480 -12.615  -2.265  1.00  0.00     0.010 C 
ATOM     24  C   UNL     1     -28.752 -11.762  -1.623  1.00  0.00     0.012 C 
ATOM     25  C   UNL     1     -27.045 -13.713   0.501  1.00  0.00    -0.006 C 
ATOM     26  C   UNL     1     -25.720 -12.103  -1.038  1.00  0.00     0.033 C 
ATOM     27  C   UNL     1     -25.642 -13.190   0.044  1.00  0.00     0.120 C 
ATOM     28  C   UNL     1     -27.742 -12.696   1.450  1.00  0.00     0.014 C 
ATOM     29  C   UNL     1     -26.785 -15.004   1.334  1.00  0.00     0.014 C 
ENDROOT
BRANCH   1  30
ATOM     30  C   UNL     1     -29.131 -18.253  -6.953  1.00  0.00     0.048 C 
ATOM     31  O   UNL     1     -28.965 -19.419  -6.503  1.00  0.00    -0.550 OA
ATOM     32  O   UNL     1     -28.127 -17.697  -7.741  1.00  0.00    -0.550 OA
ENDBRANCH   1  30
BRANCH  27  33
ATOM     33  O   UNL     1     -24.858 -12.760   1.134  1.00  0.00    -0.393 OA
ATOM     34  H   UNL     1     -25.255 -11.925   1.494  1.00  0.00     0.210 HD
ENDBRANCH  27  33
TORSDOF 2
ENDMDL
MODEL 9
REMARK VINA RESULT:    -7.605      2.563      8.188
REMARK INTER + INTRA:          -8.511
REMARK INTER:                  -8.291
REMARK INTRA:                  -0.220
REMARK UNBOUND:                -0.239
REMARK SMILES CC1(C)CC[C@]2(C(=O)[O-])CC[C@@]3(C)C(=CC[C@@H]4[C@]5(C)CC[C@@H](O)C(C)(C)[C@H]5CC[C@@]43C)[C@@H]2C1
REMARK SMILES IDX 6 1 5 2 10 3 32 4 4 5 11 6 14 7 33 8 2 9 12 10 15 11 1 12
REMARK SMILES IDX 3 13 13 14 30 15 16 16 17 17 29 18 31 19 18 20 28 21 27 22
REMARK SMILES IDX 20 23 19 24 24 25 21 26 22 27 25 28 26 29 7 30 8 31 9 32
REMARK SMILES IDX 23 33
REMARK H PARENT 23 34
REMARK Flexibility Score: inf
ROOT
ATOM      1  C   UNL     1     -29.395 -13.244  -0.885  1.00  0.00     0.017 C 
ATOM      2  C   UNL     1     -28.710 -12.711   0.409  1.00  0.00     0.014 C 
ATOM      3  C   UNL     1     -30.137 -14.603  -0.596  1.00  0.00     0.014 C 
ATOM      4  C   UNL     1     -28.338 -13.368  -2.042  1.00  0.00     0.028 C 
ATOM      5  C   UNL     1     -27.421 -13.453   0.784  1.00  0.00     0.007 C 
ATOM      6  C   UNL     1     -29.880 -15.736  -1.608  1.00  0.00     0.013 C 
ATOM      7  C   UNL     1     -28.927 -14.085  -3.254  1.00  0.00    -0.064 C 
ATOM      8  C   UNL     1     -26.994 -14.024  -1.635  1.00  0.00     0.015 C 
ATOM      9  C   UNL     1     -26.368 -13.437  -0.348  1.00  0.00    -0.035 C 
ATOM     10  C   UNL     1     -29.881 -15.274  -3.105  1.00  0.00    -0.006 C 
ATOM     11  C   UNL     1     -28.623 -13.652  -4.487  1.00  0.00    -0.027 C 
ATOM     12  C   UNL     1     -25.826 -12.008  -0.596  1.00  0.00     0.011 C 
ATOM     13  C   UNL     1     -25.178 -14.325   0.076  1.00  0.00     0.011 C 
ATOM     14  C   UNL     1     -31.328 -14.759  -3.423  1.00  0.00     0.017 C 
ATOM     15  C   UNL     1     -29.432 -16.461  -4.118  1.00  0.00    -0.020 C 
ATOM     16  C   UNL     1     -29.186 -14.334  -5.697  1.00  0.00     0.032 C 
ATOM     17  C   UNL     1     -29.021 -15.877  -5.583  1.00  0.00     0.006 C 
ATOM     18  C   UNL     1     -30.558 -17.562  -4.134  1.00  0.00     0.008 C 
ATOM     19  C   UNL     1     -28.151 -17.174  -3.571  1.00  0.00     0.012 C 
ATOM     20  C   UNL     1     -29.452 -16.714  -6.893  1.00  0.00    -0.025 C 
ATOM     21  C   UNL     1     -30.623 -18.407  -5.392  1.00  0.00     0.005 C 
ATOM     22  C   UNL     1     -30.790 -17.489  -6.619  1.00  0.00     0.003 C 
ATOM     23  C   UNL     1     -29.678 -15.784  -8.131  1.00  0.00     0.010 C 
ATOM     24  C   UNL     1     -28.260 -17.661  -7.255  1.00  0.00     0.012 C 
ATOM     25  C   UNL     1     -31.518 -18.176  -7.855  1.00  0.00    -0.006 C 
ATOM     26  C   UNL     1     -30.229 -16.509  -9.364  1.00  0.00     0.033 C 
ATOM     27  C   UNL     1     -31.581 -17.165  -9.049  1.00  0.00     0.120 C 
ATOM     28  C   UNL     1     -30.868 -19.521  -8.292  1.00  0.00     0.014 C 
ATOM     29  C   UNL     1     -32.992 -18.491  -7.465  1.00  0.00     0.014 C 
ENDROOT
BRANCH   1  30
ATOM     30  C   UNL     1     -30.446 -12.193  -1.253  1.00  0.00     0.048 C 
ATOM     31  O   UNL     1     -31.569 -12.198  -0.682  1.00  0.00    -0.550 OA
ATOM     32  O   UNL     1     -30.176 -11.185  -2.176  1.00  0.00    -0.550 OA
ENDBRANCH   1  30
BRANCH  27  33
ATOM     33  O   UNL     1     -32.140 -17.746 -10.204  1.00  0.00    -0.393 OA
ATOM     34  H   UNL     1     -32.090 -17.085 -10.942  1.00  0.00     0.210 HD
ENDBRANCH  27  33
TORSDOF 2
ENDMDL
