MODEL 1
REMARK VINA RESULT:    -3.801      0.000      0.000
REMARK INTER + INTRA:          -6.473
REMARK INTER:                  -6.023
REMARK INTRA:                  -0.450
REMARK UNBOUND:                -0.450
REMARK SMILES CCCCCCCCCCCC(=O)[O-]
REMARK SMILES IDX 7 1 8 2 9 3 10 4 11 5 12 6 13 7 14 8 6 9 5 10 4 11 3 12 2 13
REMARK SMILES IDX 1 14
REMARK H PARENT
REMARK Flexibility Score: inf
ROOT
ATOM      1  C   UNL     1      -4.287 -68.124 -10.112  1.00  0.00     0.000 C 
ENDROOT
BRANCH   1   2
ATOM      2  C   UNL     1      -5.638 -67.908  -9.401  1.00  0.00     0.000 C 
BRANCH   2   3
ATOM      3  C   UNL     1      -5.796 -66.547  -8.694  1.00  0.00     0.000 C 
BRANCH   3   4
ATOM      4  C   UNL     1      -4.662 -66.188  -7.712  1.00  0.00     0.006 C 
BRANCH   4   5
ATOM      5  C   UNL     1      -4.558 -67.119  -6.494  1.00  0.00     0.053 C 
BRANCH   5   6
ATOM      6  C   UNL     1      -3.390 -66.774  -5.623  1.00  0.00     0.041 C 
ATOM      7  O   UNL     1      -2.457 -66.056  -6.069  1.00  0.00    -0.550 OA
ATOM      8  O   UNL     1      -3.347 -67.218  -4.307  1.00  0.00    -0.550 OA
ENDBRANCH   5   6
ENDBRANCH   4   5
ENDBRANCH   3   4
ENDBRANCH   2   3
ENDBRANCH   1   2
BRANCH   1   9
ATOM      9  C   UNL     1      -3.960 -69.588 -10.453  1.00  0.00     0.000 C 
BRANCH   9  10
ATOM     10  C   UNL     1      -4.017 -69.877 -11.961  1.00  0.00    -0.000 C 
BRANCH  10  11
ATOM     11  C   UNL     1      -3.879 -71.378 -12.239  1.00  0.00    -0.000 C 
BRANCH  11  12
ATOM     12  C   UNL     1      -5.247 -72.074 -12.196  1.00  0.00    -0.000 C 
BRANCH  12  13
ATOM     13  C   UNL     1      -5.132 -73.590 -11.970  1.00  0.00    -0.003 C 
ATOM     14  C   UNL     1      -3.745 -74.012 -11.483  1.00  0.00     0.004 C 
ENDBRANCH  12  13
ENDBRANCH  11  12
ENDBRANCH  10  11
ENDBRANCH   9  10
ENDBRANCH   1   9
TORSDOF 10
ENDMDL
MODEL 2
REMARK VINA RESULT:    -3.786      4.420      6.558
REMARK INTER + INTRA:          -6.449
REMARK INTER:                  -5.419
REMARK INTRA:                  -1.030
REMARK UNBOUND:                -0.450
REMARK SMILES CCCCCCCCCCCC(=O)[O-]
REMARK SMILES IDX 7 1 8 2 9 3 10 4 11 5 12 6 13 7 14 8 6 9 5 10 4 11 3 12 2 13
REMARK SMILES IDX 1 14
REMARK H PARENT
REMARK Flexibility Score: inf
ROOT
ATOM      1  C   UNL     1      -3.742 -68.341 -11.006  1.00  0.00     0.000 C 
ENDROOT
BRANCH   1   2
ATOM      2  C   UNL     1      -3.928 -69.864 -10.861  1.00  0.00     0.000 C 
BRANCH   2   3
ATOM      3  C   UNL     1      -4.288 -70.607 -12.163  1.00  0.00     0.000 C 
BRANCH   3   4
ATOM      4  C   UNL     1      -3.901 -72.099 -12.191  1.00  0.00     0.006 C 
BRANCH   4   5
ATOM      5  C   UNL     1      -5.093 -73.066 -12.117  1.00  0.00     0.053 C 
BRANCH   5   6
ATOM      6  C   UNL     1      -4.692 -74.411 -11.591  1.00  0.00     0.041 C 
ATOM      7  O   UNL     1      -5.509 -75.368 -11.613  1.00  0.00    -0.550 OA
ATOM      8  O   UNL     1      -3.406 -74.615 -11.109  1.00  0.00    -0.550 OA
ENDBRANCH   5   6
ENDBRANCH   4   5
ENDBRANCH   3   4
ENDBRANCH   2   3
ENDBRANCH   1   2
BRANCH   1   9
ATOM      9  C   UNL     1      -4.982 -67.499 -10.658  1.00  0.00     0.000 C 
BRANCH   9  10
ATOM     10  C   UNL     1      -5.981 -68.248  -9.764  1.00  0.00    -0.000 C 
BRANCH  10  11
ATOM     11  C   UNL     1      -7.389 -68.220 -10.370  1.00  0.00    -0.000 C 
BRANCH  11  12
ATOM     12  C   UNL     1      -7.699 -69.534 -11.103  1.00  0.00    -0.000 C 
BRANCH  12  13
ATOM     13  C   UNL     1      -7.646 -70.756 -10.173  1.00  0.00    -0.003 C 
ATOM     14  C   UNL     1      -8.820 -70.806  -9.195  1.00  0.00     0.004 C 
ENDBRANCH  12  13
ENDBRANCH  11  12
ENDBRANCH  10  11
ENDBRANCH   9  10
ENDBRANCH   1   9
TORSDOF 10
ENDMDL
MODEL 3
REMARK VINA RESULT:    -3.713      4.733      7.392
REMARK INTER + INTRA:          -6.334
REMARK INTER:                  -5.140
REMARK INTRA:                  -1.194
REMARK UNBOUND:                -0.450
REMARK SMILES CCCCCCCCCCCC(=O)[O-]
REMARK SMILES IDX 7 1 8 2 9 3 10 4 11 5 12 6 13 7 14 8 6 9 5 10 4 11 3 12 2 13
REMARK SMILES IDX 1 14
REMARK H PARENT
REMARK Flexibility Score: inf
ROOT
ATOM      1  C   UNL     1      -8.440 -65.071  -8.592  1.00  0.00     0.000 C 
ENDROOT
BRANCH   1   2
ATOM      2  C   UNL     1      -7.047 -65.707  -8.765  1.00  0.00     0.000 C 
BRANCH   2   3
ATOM      3  C   UNL     1      -6.070 -65.475  -7.595  1.00  0.00     0.000 C 
BRANCH   3   4
ATOM      4  C   UNL     1      -4.783 -66.322  -7.643  1.00  0.00     0.006 C 
BRANCH   4   5
ATOM      5  C   UNL     1      -4.592 -67.256  -6.437  1.00  0.00     0.053 C 
BRANCH   5   6
ATOM      6  C   UNL     1      -3.459 -66.818  -5.562  1.00  0.00     0.041 C 
ATOM      7  O   UNL     1      -3.391 -67.214  -4.369  1.00  0.00    -0.550 OA
ATOM      8  O   UNL     1      -2.459 -66.001  -6.073  1.00  0.00    -0.550 OA
ENDBRANCH   5   6
ENDBRANCH   4   5
ENDBRANCH   3   4
ENDBRANCH   2   3
ENDBRANCH   1   2
BRANCH   1   9
ATOM      9  C   UNL     1      -8.761 -64.586  -7.167  1.00  0.00     0.000 C 
BRANCH   9  10
ATOM     10  C   UNL     1      -9.246 -63.130  -7.127  1.00  0.00    -0.000 C 
BRANCH  10  11
ATOM     11  C   UNL     1      -8.283 -62.209  -7.885  1.00  0.00    -0.000 C 
BRANCH  11  12
ATOM     12  C   UNL     1      -6.989 -61.990  -7.088  1.00  0.00    -0.000 C 
BRANCH  12  13
ATOM     13  C   UNL     1      -5.796 -61.625  -7.985  1.00  0.00    -0.003 C 
ATOM     14  C   UNL     1      -5.907 -62.223  -9.388  1.00  0.00     0.004 C 
ENDBRANCH  12  13
ENDBRANCH  11  12
ENDBRANCH  10  11
ENDBRANCH   9  10
ENDBRANCH   1   9
TORSDOF 10
ENDMDL
MODEL 4
REMARK VINA RESULT:    -3.706      4.941      7.110
REMARK INTER + INTRA:          -6.323
REMARK INTER:                  -5.059
REMARK INTRA:                  -1.265
REMARK UNBOUND:                -0.450
REMARK SMILES CCCCCCCCCCCC(=O)[O-]
REMARK SMILES IDX 7 1 8 2 9 3 10 4 11 5 12 6 13 7 14 8 6 9 5 10 4 11 3 12 2 13
REMARK SMILES IDX 1 14
REMARK H PARENT
REMARK Flexibility Score: inf
ROOT
ATOM      1  C   UNL     1      -5.281 -65.747  -6.870  1.00  0.00     0.000 C 
ENDROOT
BRANCH   1   2
ATOM      2  C   UNL     1      -4.466 -64.612  -7.522  1.00  0.00     0.000 C 
BRANCH   2   3
ATOM      3  C   UNL     1      -3.831 -63.611  -6.536  1.00  0.00     0.000 C 
BRANCH   3   4
ATOM      4  C   UNL     1      -2.381 -63.934  -6.123  1.00  0.00     0.006 C 
BRANCH   4   5
ATOM      5  C   UNL     1      -1.499 -64.463  -7.265  1.00  0.00     0.053 C 
BRANCH   5   6
ATOM      6  C   UNL     1      -0.041 -64.373  -6.935  1.00  0.00     0.041 C 
ATOM      7  O   UNL     1       0.603 -63.323  -7.192  1.00  0.00    -0.550 OA
ATOM      8  O   UNL     1       0.599 -65.437  -6.312  1.00  0.00    -0.550 OA
ENDBRANCH   5   6
ENDBRANCH   4   5
ENDBRANCH   3   4
ENDBRANCH   2   3
ENDBRANCH   1   2
BRANCH   1   9
ATOM      9  C   UNL     1      -4.649 -67.146  -6.980  1.00  0.00     0.000 C 
BRANCH   9  10
ATOM     10  C   UNL     1      -4.541 -67.861  -5.625  1.00  0.00    -0.000 C 
BRANCH  10  11
ATOM     11  C   UNL     1      -3.731 -67.026  -4.627  1.00  0.00    -0.000 C 
BRANCH  11  12
ATOM     12  C   UNL     1      -4.570 -66.686  -3.386  1.00  0.00    -0.000 C 
BRANCH  12  13
ATOM     13  C   UNL     1      -4.766 -65.174  -3.201  1.00  0.00    -0.003 C 
ATOM     14  C   UNL     1      -3.683 -64.539  -2.327  1.00  0.00     0.004 C 
ENDBRANCH  12  13
ENDBRANCH  11  12
ENDBRANCH  10  11
ENDBRANCH   9  10
ENDBRANCH   1   9
TORSDOF 10
ENDMDL
MODEL 5
REMARK VINA RESULT:    -3.700      8.592     10.112
REMARK INTER + INTRA:          -6.313
REMARK INTER:                  -5.559
REMARK INTRA:                  -0.754
REMARK UNBOUND:                -0.450
REMARK SMILES CCCCCCCCCCCC(=O)[O-]
REMARK SMILES IDX 7 1 8 2 9 3 10 4 11 5 12 6 13 7 14 8 6 9 5 10 4 11 3 12 2 13
REMARK SMILES IDX 1 14
REMARK H PARENT
REMARK Flexibility Score: inf
ROOT
ATOM      1  C   UNL     1     -13.831 -73.817 -10.084  1.00  0.00     0.000 C 
ENDROOT
BRANCH   1   2
ATOM      2  C   UNL     1     -12.799 -73.136  -9.164  1.00  0.00     0.000 C 
BRANCH   2   3
ATOM      3  C   UNL     1     -11.354 -73.658  -9.302  1.00  0.00     0.000 C 
BRANCH   3   4
ATOM      4  C   UNL     1     -10.374 -72.689  -9.993  1.00  0.00     0.006 C 
BRANCH   4   5
ATOM      5  C   UNL     1      -9.914 -71.516  -9.112  1.00  0.00     0.053 C 
BRANCH   5   6
ATOM      6  C   UNL     1      -8.427 -71.500  -8.931  1.00  0.00     0.041 C 
ATOM      7  O   UNL     1      -7.931 -71.480  -7.775  1.00  0.00    -0.550 OA
ATOM      8  O   UNL     1      -7.590 -71.543 -10.039  1.00  0.00    -0.550 OA
ENDBRANCH   5   6
ENDBRANCH   4   5
ENDBRANCH   3   4
ENDBRANCH   2   3
ENDBRANCH   1   2
BRANCH   1   9
ATOM      9  C   UNL     1     -13.402 -75.186 -10.642  1.00  0.00     0.000 C 
BRANCH   9  10
ATOM     10  C   UNL     1     -14.310 -76.332 -10.173  1.00  0.00    -0.000 C 
BRANCH  10  11
ATOM     11  C   UNL     1     -13.555 -77.286  -9.240  1.00  0.00    -0.000 C 
BRANCH  11  12
ATOM     12  C   UNL     1     -13.520 -76.738  -7.806  1.00  0.00    -0.000 C 
BRANCH  12  13
ATOM     13  C   UNL     1     -14.561 -77.404  -6.893  1.00  0.00    -0.003 C 
ATOM     14  C   UNL     1     -15.782 -76.517  -6.644  1.00  0.00     0.004 C 
ENDBRANCH  12  13
ENDBRANCH  11  12
ENDBRANCH  10  11
ENDBRANCH   9  10
ENDBRANCH   1   9
TORSDOF 10
ENDMDL
MODEL 6
REMARK VINA RESULT:    -3.673      4.968      6.949
REMARK INTER + INTRA:          -6.271
REMARK INTER:                  -4.812
REMARK INTRA:                  -1.459
REMARK UNBOUND:                -0.450
REMARK SMILES CCCCCCCCCCCC(=O)[O-]
REMARK SMILES IDX 7 1 8 2 9 3 10 4 11 5 12 6 13 7 14 8 6 9 5 10 4 11 3 12 2 13
REMARK SMILES IDX 1 14
REMARK H PARENT
REMARK Flexibility Score: inf
ROOT
ATOM      1  C   UNL     1      -5.929 -62.179  -6.548  1.00  0.00     0.000 C 
ENDROOT
BRANCH   1   2
ATOM      2  C   UNL     1      -4.993 -63.349  -6.914  1.00  0.00     0.000 C 
BRANCH   2   3
ATOM      3  C   UNL     1      -5.135 -64.603  -6.029  1.00  0.00     0.000 C 
BRANCH   3   4
ATOM      4  C   UNL     1      -5.335 -65.924  -6.799  1.00  0.00     0.006 C 
BRANCH   4   5
ATOM      5  C   UNL     1      -4.122 -66.867  -6.768  1.00  0.00     0.053 C 
BRANCH   5   6
ATOM      6  C   UNL     1      -3.920 -67.477  -5.414  1.00  0.00     0.041 C 
ATOM      7  O   UNL     1      -2.849 -67.277  -4.784  1.00  0.00    -0.550 OA
ATOM      8  O   UNL     1      -4.928 -68.237  -4.836  1.00  0.00    -0.550 OA
ENDBRANCH   5   6
ENDBRANCH   4   5
ENDBRANCH   3   4
ENDBRANCH   2   3
ENDBRANCH   1   2
BRANCH   1   9
ATOM      9  C   UNL     1      -7.234 -62.588  -5.842  1.00  0.00     0.000 C 
BRANCH   9  10
ATOM     10  C   UNL     1      -8.400 -62.798  -6.819  1.00  0.00    -0.000 C 
BRANCH  10  11
ATOM     11  C   UNL     1      -8.900 -64.247  -6.776  1.00  0.00    -0.000 C 
BRANCH  11  12
ATOM     12  C   UNL     1      -8.828 -64.895  -8.166  1.00  0.00    -0.000 C 
BRANCH  12  13
ATOM     13  C   UNL     1      -8.233 -63.956  -9.227  1.00  0.00    -0.003 C 
ATOM     14  C   UNL     1      -6.926 -64.483  -9.817  1.00  0.00     0.004 C 
ENDBRANCH  12  13
ENDBRANCH  11  12
ENDBRANCH  10  11
ENDBRANCH   9  10
ENDBRANCH   1   9
TORSDOF 10
ENDMDL
MODEL 7
REMARK VINA RESULT:    -3.670      5.022      7.454
REMARK INTER + INTRA:          -6.265
REMARK INTER:                  -5.393
REMARK INTRA:                  -0.872
REMARK UNBOUND:                -0.450
REMARK SMILES CCCCCCCCCCCC(=O)[O-]
REMARK SMILES IDX 7 1 8 2 9 3 10 4 11 5 12 6 13 7 14 8 6 9 5 10 4 11 3 12 2 13
REMARK SMILES IDX 1 14
REMARK H PARENT
REMARK Flexibility Score: inf
ROOT
ATOM      1  C   UNL     1      -4.544 -67.581  -6.078  1.00  0.00     0.000 C 
ENDROOT
BRANCH   1   2
ATOM      2  C   UNL     1      -3.618 -66.922  -5.037  1.00  0.00     0.000 C 
BRANCH   2   3
ATOM      3  C   UNL     1      -4.276 -66.613  -3.677  1.00  0.00     0.000 C 
BRANCH   3   4
ATOM      4  C   UNL     1      -4.113 -65.159  -3.190  1.00  0.00     0.006 C 
BRANCH   4   5
ATOM      5  C   UNL     1      -4.559 -64.922  -1.738  1.00  0.00     0.053 C 
BRANCH   5   6
ATOM      6  C   UNL     1      -3.507 -64.221  -0.936  1.00  0.00     0.041 C 
ATOM      7  O   UNL     1      -3.524 -64.283   0.321  1.00  0.00    -0.550 OA
ATOM      8  O   UNL     1      -2.488 -63.528  -1.577  1.00  0.00    -0.550 OA
ENDBRANCH   5   6
ENDBRANCH   4   5
ENDBRANCH   3   4
ENDBRANCH   2   3
ENDBRANCH   1   2
BRANCH   1   9
ATOM      9  C   UNL     1      -4.750 -66.771  -7.371  1.00  0.00     0.000 C 
BRANCH   9  10
ATOM     10  C   UNL     1      -5.168 -65.318  -7.104  1.00  0.00    -0.000 C 
BRANCH  10  11
ATOM     11  C   UNL     1      -6.578 -65.044  -7.641  1.00  0.00    -0.000 C 
BRANCH  11  12
ATOM     12  C   UNL     1      -7.336 -64.072  -6.725  1.00  0.00    -0.000 C 
BRANCH  12  13
ATOM     13  C   UNL     1      -6.461 -63.529  -5.585  1.00  0.00    -0.003 C 
ATOM     14  C   UNL     1      -7.159 -62.440  -4.771  1.00  0.00     0.004 C 
ENDBRANCH  12  13
ENDBRANCH  11  12
ENDBRANCH  10  11
ENDBRANCH   9  10
ENDBRANCH   1   9
TORSDOF 10
ENDMDL
MODEL 8
REMARK VINA RESULT:    -3.592      4.762      7.630
REMARK INTER + INTRA:          -6.142
REMARK INTER:                  -4.862
REMARK INTRA:                  -1.281
REMARK UNBOUND:                -0.450
REMARK SMILES CCCCCCCCCCCC(=O)[O-]
REMARK SMILES IDX 7 1 8 2 9 3 10 4 11 5 12 6 13 7 14 8 6 9 5 10 4 11 3 12 2 13
REMARK SMILES IDX 1 14
REMARK H PARENT
REMARK Flexibility Score: inf
ROOT
ATOM      1  C   UNL     1      -4.626 -67.816  -5.959  1.00  0.00     0.000 C 
ENDROOT
BRANCH   1   2
ATOM      2  C   UNL     1      -4.708 -66.960  -7.238  1.00  0.00     0.000 C 
BRANCH   2   3
ATOM      3  C   UNL     1      -5.502 -65.646  -7.097  1.00  0.00     0.000 C 
BRANCH   3   4
ATOM      4  C   UNL     1      -4.688 -64.362  -7.354  1.00  0.00     0.006 C 
BRANCH   4   5
ATOM      5  C   UNL     1      -3.243 -64.608  -7.816  1.00  0.00     0.053 C 
BRANCH   5   6
ATOM      6  C   UNL     1      -2.250 -64.307  -6.735  1.00  0.00     0.041 C 
ATOM      7  O   UNL     1      -2.328 -63.231  -6.086  1.00  0.00    -0.550 OA
ATOM      8  O   UNL     1      -1.261 -65.230  -6.422  1.00  0.00    -0.550 OA
ENDBRANCH   5   6
ENDBRANCH   4   5
ENDBRANCH   3   4
ENDBRANCH   2   3
ENDBRANCH   1   2
BRANCH   1   9
ATOM      9  C   UNL     1      -3.645 -67.299  -4.893  1.00  0.00     0.000 C 
BRANCH   9  10
ATOM     10  C   UNL     1      -4.353 -66.649  -3.695  1.00  0.00    -0.000 C 
BRANCH  10  11
ATOM     11  C   UNL     1      -4.037 -65.151  -3.615  1.00  0.00    -0.000 C 
BRANCH  11  12
ATOM     12  C   UNL     1      -5.322 -64.313  -3.678  1.00  0.00    -0.000 C 
BRANCH  12  13
ATOM     13  C   UNL     1      -5.753 -63.787  -2.300  1.00  0.00    -0.003 C 
ATOM     14  C   UNL     1      -6.847 -64.639  -1.658  1.00  0.00     0.004 C 
ENDBRANCH  12  13
ENDBRANCH  11  12
ENDBRANCH  10  11
ENDBRANCH   9  10
ENDBRANCH   1   9
TORSDOF 10
ENDMDL
MODEL 9
REMARK VINA RESULT:    -3.578     10.788     12.621
REMARK INTER + INTRA:          -6.121
REMARK INTER:                  -4.947
REMARK INTRA:                  -1.173
REMARK UNBOUND:                -0.450
REMARK SMILES CCCCCCCCCCCC(=O)[O-]
REMARK SMILES IDX 7 1 8 2 9 3 10 4 11 5 12 6 13 7 14 8 6 9 5 10 4 11 3 12 2 13
REMARK SMILES IDX 1 14
REMARK H PARENT
REMARK Flexibility Score: inf
ROOT
ATOM      1  C   UNL     1     -13.560 -76.692  -8.059  1.00  0.00     0.000 C 
ENDROOT
BRANCH   1   2
ATOM      2  C   UNL     1     -13.806 -76.683  -9.581  1.00  0.00     0.000 C 
BRANCH   2   3
ATOM      3  C   UNL     1     -13.589 -75.322 -10.272  1.00  0.00     0.000 C 
BRANCH   3   4
ATOM      4  C   UNL     1     -12.915 -74.247  -9.395  1.00  0.00     0.006 C 
BRANCH   4   5
ATOM      5  C   UNL     1     -13.330 -72.805  -9.728  1.00  0.00     0.053 C 
BRANCH   5   6
ATOM      6  C   UNL     1     -12.249 -72.064 -10.453  1.00  0.00     0.041 C 
ATOM      7  O   UNL     1     -11.166 -72.640 -10.735  1.00  0.00    -0.550 OA
ATOM      8  O   UNL     1     -12.450 -70.747 -10.847  1.00  0.00    -0.550 OA
ENDBRANCH   5   6
ENDBRANCH   4   5
ENDBRANCH   3   4
ENDBRANCH   2   3
ENDBRANCH   1   2
BRANCH   1   9
ATOM      9  C   UNL     1     -14.392 -77.720  -7.273  1.00  0.00     0.000 C 
BRANCH   9  10
ATOM     10  C   UNL     1     -15.366 -77.067  -6.281  1.00  0.00    -0.000 C 
BRANCH  10  11
ATOM     11  C   UNL     1     -16.671 -76.663  -6.977  1.00  0.00    -0.000 C 
BRANCH  11  12
ATOM     12  C   UNL     1     -16.890 -75.145  -6.899  1.00  0.00    -0.000 C 
BRANCH  12  13
ATOM     13  C   UNL     1     -16.652 -74.444  -8.246  1.00  0.00    -0.003 C 
ATOM     14  C   UNL     1     -16.712 -72.920  -8.137  1.00  0.00     0.004 C 
ENDBRANCH  12  13
ENDBRANCH  11  12
ENDBRANCH  10  11
ENDBRANCH   9  10
ENDBRANCH   1   9
TORSDOF 10
ENDMDL
