MODEL 1
REMARK VINA RESULT:    -4.646      0.000      0.000
REMARK INTER + INTRA:         -16.128
REMARK INTER:                 -11.707
REMARK INTRA:                  -4.421
REMARK UNBOUND:                -4.421
REMARK SMILES CCCCCCCCCCCCCCCCCCCCCCCCCCCC(=O)[O-]
REMARK SMILES IDX 15 1 16 2 17 3 18 4 19 5 20 6 21 7 22 8 23 9 24 10 25 11
REMARK SMILES IDX 26 12 27 13 28 14 29 15 30 16 14 17 13 18 12 19 11 20 10 21
REMARK SMILES IDX 9 22 8 23 7 24 6 25 5 26 4 27 3 28 2 29 1 30
REMARK H PARENT
REMARK Flexibility Score: inf
ROOT
ATOM      1  C   UNL     1       6.715   6.296  18.120  1.00  0.00     0.000 C 
ENDROOT
BRANCH   1   2
ATOM      2  C   UNL     1       6.355   4.848  18.501  1.00  0.00     0.000 C 
BRANCH   2   3
ATOM      3  C   UNL     1       7.565   4.069  19.055  1.00  0.00     0.000 C 
BRANCH   3   4
ATOM      4  C   UNL     1       7.180   2.898  19.979  1.00  0.00     0.000 C 
BRANCH   4   5
ATOM      5  C   UNL     1       5.658   2.769  20.165  1.00  0.00     0.000 C 
BRANCH   5   6
ATOM      6  C   UNL     1       5.272   2.432  21.614  1.00  0.00     0.000 C 
BRANCH   6   7
ATOM      7  C   UNL     1       4.890   3.685  22.423  1.00  0.00     0.000 C 
BRANCH   7   8
ATOM      8  C   UNL     1       4.460   4.865  21.533  1.00  0.00     0.000 C 
BRANCH   8   9
ATOM      9  C   UNL     1       5.250   6.164  21.759  1.00  0.00     0.000 C 
BRANCH   9  10
ATOM     10  C   UNL     1       6.726   5.916  22.104  1.00  0.00     0.000 C 
BRANCH  10  11
ATOM     11  C   UNL     1       7.559   7.193  21.909  1.00  0.00     0.000 C 
BRANCH  11  12
ATOM     12  C   UNL     1       6.722   8.369  21.381  1.00  0.00     0.006 C 
BRANCH  12  13
ATOM     13  C   UNL     1       7.477   9.704  21.441  1.00  0.00     0.053 C 
BRANCH  13  14
ATOM     14  C   UNL     1       6.812  10.644  22.398  1.00  0.00     0.041 C 
ATOM     15  O   UNL     1       6.416  10.232  23.522  1.00  0.00    -0.550 OA
ATOM     16  O   UNL     1       6.604  11.971  22.040  1.00  0.00    -0.550 OA
ENDBRANCH  13  14
ENDBRANCH  12  13
ENDBRANCH  11  12
ENDBRANCH  10  11
ENDBRANCH   9  10
ENDBRANCH   8   9
ENDBRANCH   7   8
ENDBRANCH   6   7
ENDBRANCH   5   6
ENDBRANCH   4   5
ENDBRANCH   3   4
ENDBRANCH   2   3
ENDBRANCH   1   2
BRANCH   1  17
ATOM     17  C   UNL     1       6.455   6.607  16.638  1.00  0.00     0.000 C 
BRANCH  17  18
ATOM     18  C   UNL     1       6.336   5.338  15.778  1.00  0.00     0.000 C 
BRANCH  18  19
ATOM     19  C   UNL     1       7.686   4.875  15.199  1.00  0.00     0.000 C 
BRANCH  19  20
ATOM     20  C   UNL     1       7.608   4.179  13.820  1.00  0.00     0.000 C 
BRANCH  20  21
ATOM     21  C   UNL     1       8.603   3.017  13.600  1.00  0.00     0.000 C 
BRANCH  21  22
ATOM     22  C   UNL     1       9.879   3.094  14.460  1.00  0.00    -0.000 C 
BRANCH  22  23
ATOM     23  C   UNL     1      11.144   3.292  13.612  1.00  0.00    -0.000 C 
BRANCH  23  24
ATOM     24  C   UNL     1      10.829   3.776  12.186  1.00  0.00    -0.000 C 
BRANCH  24  25
ATOM     25  C   UNL     1      11.328   5.201  11.854  1.00  0.00    -0.000 C 
BRANCH  25  26
ATOM     26  C   UNL     1      11.626   6.099  13.074  1.00  0.00    -0.000 C 
BRANCH  26  27
ATOM     27  C   UNL     1      10.388   6.866  13.568  1.00  0.00    -0.000 C 
BRANCH  27  28
ATOM     28  C   UNL     1      10.520   7.226  15.055  1.00  0.00    -0.000 C 
BRANCH  28  29
ATOM     29  C   UNL     1      11.449   6.268  15.820  1.00  0.00    -0.003 C 
ATOM     30  C   UNL     1      10.796   5.664  17.066  1.00  0.00     0.004 C 
ENDBRANCH  28  29
ENDBRANCH  27  28
ENDBRANCH  26  27
ENDBRANCH  25  26
ENDBRANCH  24  25
ENDBRANCH  23  24
ENDBRANCH  22  23
ENDBRANCH  21  22
ENDBRANCH  20  21
ENDBRANCH  19  20
ENDBRANCH  18  19
ENDBRANCH  17  18
ENDBRANCH   1  17
TORSDOF 26
ENDMDL
MODEL 2
REMARK VINA RESULT:    -4.539      1.279      3.248
REMARK INTER + INTRA:         -15.860
REMARK INTER:                 -11.015
REMARK INTRA:                  -4.845
REMARK UNBOUND:                -4.421
REMARK SMILES CCCCCCCCCCCCCCCCCCCCCCCCCCCC(=O)[O-]
REMARK SMILES IDX 15 1 16 2 17 3 18 4 19 5 20 6 21 7 22 8 23 9 24 10 25 11
REMARK SMILES IDX 26 12 27 13 28 14 29 15 30 16 14 17 13 18 12 19 11 20 10 21
REMARK SMILES IDX 9 22 8 23 7 24 6 25 5 26 4 27 3 28 2 29 1 30
REMARK H PARENT
REMARK Flexibility Score: inf
ROOT
ATOM      1  C   UNL     1       7.470   4.034  19.479  1.00  0.00     0.000 C 
ENDROOT
BRANCH   1   2
ATOM      2  C   UNL     1       6.002   3.615  19.269  1.00  0.00     0.000 C 
BRANCH   2   3
ATOM      3  C   UNL     1       5.421   2.878  20.492  1.00  0.00     0.000 C 
BRANCH   3   4
ATOM      4  C   UNL     1       4.514   3.757  21.374  1.00  0.00     0.000 C 
BRANCH   4   5
ATOM      5  C   UNL     1       4.526   3.321  22.850  1.00  0.00     0.000 C 
BRANCH   5   6
ATOM      6  C   UNL     1       5.113   4.400  23.774  1.00  0.00     0.000 C 
BRANCH   6   7
ATOM      7  C   UNL     1       5.930   5.451  23.000  1.00  0.00     0.000 C 
BRANCH   7   8
ATOM      8  C   UNL     1       7.447   5.198  23.068  1.00  0.00     0.000 C 
BRANCH   8   9
ATOM      9  C   UNL     1       8.242   6.254  23.855  1.00  0.00     0.000 C 
BRANCH   9  10
ATOM     10  C   UNL     1       9.213   7.053  22.972  1.00  0.00     0.000 C 
BRANCH  10  11
ATOM     11  C   UNL     1       9.049   8.563  23.203  1.00  0.00     0.000 C 
BRANCH  11  12
ATOM     12  C   UNL     1       8.590   9.307  21.938  1.00  0.00     0.006 C 
BRANCH  12  13
ATOM     13  C   UNL     1       7.098   9.104  21.643  1.00  0.00     0.053 C 
BRANCH  13  14
ATOM     14  C   UNL     1       6.258   9.710  22.725  1.00  0.00     0.041 C 
ATOM     15  O   UNL     1       5.640   8.970  23.539  1.00  0.00    -0.550 OA
ATOM     16  O   UNL     1       6.134  11.091  22.820  1.00  0.00    -0.550 OA
ENDBRANCH  13  14
ENDBRANCH  12  13
ENDBRANCH  11  12
ENDBRANCH  10  11
ENDBRANCH   9  10
ENDBRANCH   8   9
ENDBRANCH   7   8
ENDBRANCH   6   7
ENDBRANCH   5   6
ENDBRANCH   4   5
ENDBRANCH   3   4
ENDBRANCH   2   3
ENDBRANCH   1   2
BRANCH   1  17
ATOM     17  C   UNL     1       7.670   5.557  19.432  1.00  0.00     0.000 C 
BRANCH  17  18
ATOM     18  C   UNL     1       6.361   6.320  19.174  1.00  0.00     0.000 C 
BRANCH  18  19
ATOM     19  C   UNL     1       6.555   7.567  18.292  1.00  0.00     0.000 C 
BRANCH  19  20
ATOM     20  C   UNL     1       6.548   7.305  16.767  1.00  0.00     0.000 C 
BRANCH  20  21
ATOM     21  C   UNL     1       5.609   6.176  16.287  1.00  0.00     0.000 C 
BRANCH  21  22
ATOM     22  C   UNL     1       6.330   4.891  15.838  1.00  0.00    -0.000 C 
BRANCH  22  23
ATOM     23  C   UNL     1       7.687   5.182  15.179  1.00  0.00    -0.000 C 
BRANCH  23  24
ATOM     24  C   UNL     1       8.869   4.630  15.994  1.00  0.00    -0.000 C 
BRANCH  24  25
ATOM     25  C   UNL     1       9.925   5.680  16.409  1.00  0.00    -0.000 C 
BRANCH  25  26
ATOM     26  C   UNL     1      10.150   6.827  15.400  1.00  0.00    -0.000 C 
BRANCH  26  27
ATOM     27  C   UNL     1      11.039   6.414  14.215  1.00  0.00    -0.000 C 
BRANCH  27  28
ATOM     28  C   UNL     1      10.433   6.879  12.882  1.00  0.00    -0.000 C 
BRANCH  28  29
ATOM     29  C   UNL     1       9.747   5.738  12.110  1.00  0.00    -0.003 C 
ATOM     30  C   UNL     1      10.214   4.348  12.550  1.00  0.00     0.004 C 
ENDBRANCH  28  29
ENDBRANCH  27  28
ENDBRANCH  26  27
ENDBRANCH  25  26
ENDBRANCH  24  25
ENDBRANCH  23  24
ENDBRANCH  22  23
ENDBRANCH  21  22
ENDBRANCH  20  21
ENDBRANCH  19  20
ENDBRANCH  18  19
ENDBRANCH  17  18
ENDBRANCH   1  17
TORSDOF 26
ENDMDL
MODEL 3
REMARK VINA RESULT:    -4.511      2.103      4.902
REMARK INTER + INTRA:         -15.788
REMARK INTER:                 -10.729
REMARK INTRA:                  -5.059
REMARK UNBOUND:                -4.421
REMARK SMILES CCCCCCCCCCCCCCCCCCCCCCCCCCCC(=O)[O-]
REMARK SMILES IDX 15 1 16 2 17 3 18 4 19 5 20 6 21 7 22 8 23 9 24 10 25 11
REMARK SMILES IDX 26 12 27 13 28 14 29 15 30 16 14 17 13 18 12 19 11 20 10 21
REMARK SMILES IDX 9 22 8 23 7 24 6 25 5 26 4 27 3 28 2 29 1 30
REMARK H PARENT
REMARK Flexibility Score: inf
ROOT
ATOM      1  C   UNL     1       5.337   4.553  23.710  1.00  0.00     0.000 C 
ENDROOT
BRANCH   1   2
ATOM      2  C   UNL     1       4.566   3.823  22.593  1.00  0.00     0.000 C 
BRANCH   2   3
ATOM      3  C   UNL     1       5.243   2.501  22.181  1.00  0.00     0.000 C 
BRANCH   3   4
ATOM      4  C   UNL     1       5.677   2.459  20.704  1.00  0.00     0.000 C 
BRANCH   4   5
ATOM      5  C   UNL     1       5.453   3.801  19.984  1.00  0.00     0.000 C 
BRANCH   5   6
ATOM      6  C   UNL     1       6.761   4.409  19.458  1.00  0.00     0.000 C 
BRANCH   6   7
ATOM      7  C   UNL     1       7.004   5.831  19.999  1.00  0.00     0.000 C 
BRANCH   7   8
ATOM      8  C   UNL     1       5.706   6.537  20.429  1.00  0.00     0.000 C 
BRANCH   8   9
ATOM      9  C   UNL     1       5.870   7.540  21.583  1.00  0.00     0.000 C 
BRANCH   9  10
ATOM     10  C   UNL     1       7.324   7.992  21.782  1.00  0.00     0.000 C 
BRANCH  10  11
ATOM     11  C   UNL     1       7.482   9.489  21.473  1.00  0.00     0.000 C 
BRANCH  11  12
ATOM     12  C   UNL     1       6.570  10.370  22.341  1.00  0.00     0.006 C 
BRANCH  12  13
ATOM     13  C   UNL     1       6.907  11.863  22.224  1.00  0.00     0.053 C 
BRANCH  13  14
ATOM     14  C   UNL     1       5.727  12.703  22.604  1.00  0.00     0.041 C 
ATOM     15  O   UNL     1       5.457  13.749  21.953  1.00  0.00    -0.550 OA
ATOM     16  O   UNL     1       4.940  12.348  23.693  1.00  0.00    -0.550 OA
ENDBRANCH  13  14
ENDBRANCH  12  13
ENDBRANCH  11  12
ENDBRANCH  10  11
ENDBRANCH   9  10
ENDBRANCH   8   9
ENDBRANCH   7   8
ENDBRANCH   6   7
ENDBRANCH   5   6
ENDBRANCH   4   5
ENDBRANCH   3   4
ENDBRANCH   2   3
ENDBRANCH   1   2
BRANCH   1  17
ATOM     17  C   UNL     1       6.746   3.982  23.936  1.00  0.00     0.000 C 
BRANCH  17  18
ATOM     18  C   UNL     1       7.836   5.065  23.905  1.00  0.00     0.000 C 
BRANCH  18  19
ATOM     19  C   UNL     1       8.907   4.810  22.828  1.00  0.00     0.000 C 
BRANCH  19  20
ATOM     20  C   UNL     1       8.926   3.379  22.242  1.00  0.00     0.000 C 
BRANCH  20  21
ATOM     21  C   UNL     1      10.175   3.015  21.407  1.00  0.00     0.000 C 
BRANCH  21  22
ATOM     22  C   UNL     1      10.093   3.417  19.923  1.00  0.00    -0.000 C 
BRANCH  22  23
ATOM     23  C   UNL     1      10.707   4.800  19.657  1.00  0.00    -0.000 C 
BRANCH  23  24
ATOM     24  C   UNL     1      10.624   5.207  18.175  1.00  0.00    -0.000 C 
BRANCH  24  25
ATOM     25  C   UNL     1       9.565   4.445  17.346  1.00  0.00    -0.000 C 
BRANCH  25  26
ATOM     26  C   UNL     1       9.535   4.783  15.840  1.00  0.00    -0.000 C 
BRANCH  26  27
ATOM     27  C   UNL     1       8.159   5.281  15.366  1.00  0.00    -0.000 C 
BRANCH  27  28
ATOM     28  C   UNL     1       7.602   6.350  16.317  1.00  0.00    -0.000 C 
BRANCH  28  29
ATOM     29  C   UNL     1       6.067   6.319  16.414  1.00  0.00    -0.003 C 
ATOM     30  C   UNL     1       5.458   5.006  15.915  1.00  0.00     0.004 C 
ENDBRANCH  28  29
ENDBRANCH  27  28
ENDBRANCH  26  27
ENDBRANCH  25  26
ENDBRANCH  24  25
ENDBRANCH  23  24
ENDBRANCH  22  23
ENDBRANCH  21  22
ENDBRANCH  20  21
ENDBRANCH  19  20
ENDBRANCH  18  19
ENDBRANCH  17  18
ENDBRANCH   1  17
TORSDOF 26
ENDMDL
MODEL 4
REMARK VINA RESULT:    -4.491      3.538      8.797
REMARK INTER + INTRA:         -15.737
REMARK INTER:                 -11.469
REMARK INTRA:                  -4.267
REMARK UNBOUND:                -4.421
REMARK SMILES CCCCCCCCCCCCCCCCCCCCCCCCCCCC(=O)[O-]
REMARK SMILES IDX 15 1 16 2 17 3 18 4 19 5 20 6 21 7 22 8 23 9 24 10 25 11
REMARK SMILES IDX 26 12 27 13 28 14 29 15 30 16 14 17 13 18 12 19 11 20 10 21
REMARK SMILES IDX 9 22 8 23 7 24 6 25 5 26 4 27 3 28 2 29 1 30
REMARK H PARENT
REMARK Flexibility Score: inf
ROOT
ATOM      1  C   UNL     1       7.604   3.951  19.665  1.00  0.00     0.000 C 
ENDROOT
BRANCH   1   2
ATOM      2  C   UNL     1       7.613   5.479  19.468  1.00  0.00     0.000 C 
BRANCH   2   3
ATOM      3  C   UNL     1       6.313   5.995  18.822  1.00  0.00     0.000 C 
BRANCH   3   4
ATOM      4  C   UNL     1       6.532   7.130  17.804  1.00  0.00     0.000 C 
BRANCH   4   5
ATOM      5  C   UNL     1       6.015   6.771  16.399  1.00  0.00     0.000 C 
BRANCH   5   6
ATOM      6  C   UNL     1       6.170   5.276  16.083  1.00  0.00     0.000 C 
BRANCH   6   7
ATOM      7  C   UNL     1       7.420   4.984  15.233  1.00  0.00     0.000 C 
BRANCH   7   8
ATOM      8  C   UNL     1       8.630   4.547  16.078  1.00  0.00     0.000 C 
BRANCH   8   9
ATOM      9  C   UNL     1       9.649   5.660  16.369  1.00  0.00     0.000 C 
BRANCH   9  10
ATOM     10  C   UNL     1       9.630   6.780  15.318  1.00  0.00     0.000 C 
BRANCH  10  11
ATOM     11  C   UNL     1      10.820   6.649  14.354  1.00  0.00     0.000 C 
BRANCH  11  12
ATOM     12  C   UNL     1      10.426   6.910  12.891  1.00  0.00     0.006 C 
BRANCH  12  13
ATOM     13  C   UNL     1      10.706   5.705  11.982  1.00  0.00     0.053 C 
BRANCH  13  14
ATOM     14  C   UNL     1       9.807   4.560  12.330  1.00  0.00     0.041 C 
ATOM     15  O   UNL     1       8.619   4.533  11.907  1.00  0.00    -0.550 OA
ATOM     16  O   UNL     1      10.270   3.533  13.144  1.00  0.00    -0.550 OA
ENDBRANCH  13  14
ENDBRANCH  12  13
ENDBRANCH  11  12
ENDBRANCH  10  11
ENDBRANCH   9  10
ENDBRANCH   8   9
ENDBRANCH   7   8
ENDBRANCH   6   7
ENDBRANCH   5   6
ENDBRANCH   4   5
ENDBRANCH   3   4
ENDBRANCH   2   3
ENDBRANCH   1   2
BRANCH   1  17
ATOM     17  C   UNL     1       6.235   3.318  19.369  1.00  0.00     0.000 C 
BRANCH  17  18
ATOM     18  C   UNL     1       5.792   2.327  20.458  1.00  0.00     0.000 C 
BRANCH  18  19
ATOM     19  C   UNL     1       4.962   2.989  21.573  1.00  0.00     0.000 C 
BRANCH  19  20
ATOM     20  C   UNL     1       5.742   3.324  22.867  1.00  0.00     0.000 C 
BRANCH  20  21
ATOM     21  C   UNL     1       5.614   4.780  23.367  1.00  0.00     0.000 C 
BRANCH  21  22
ATOM     22  C   UNL     1       5.260   5.805  22.273  1.00  0.00    -0.000 C 
BRANCH  22  23
ATOM     23  C   UNL     1       6.040   7.120  22.429  1.00  0.00    -0.000 C 
BRANCH  23  24
ATOM     24  C   UNL     1       7.532   6.889  22.723  1.00  0.00    -0.000 C 
BRANCH  24  25
ATOM     25  C   UNL     1       8.249   8.064  23.429  1.00  0.00    -0.000 C 
BRANCH  25  26
ATOM     26  C   UNL     1       9.168   8.915  22.527  1.00  0.00    -0.000 C 
BRANCH  26  27
ATOM     27  C   UNL     1       8.774  10.402  22.507  1.00  0.00    -0.000 C 
BRANCH  27  28
ATOM     28  C   UNL     1       7.468  10.616  21.729  1.00  0.00    -0.000 C 
BRANCH  28  29
ATOM     29  C   UNL     1       6.681  11.847  22.213  1.00  0.00    -0.003 C 
ATOM     30  C   UNL     1       6.879  12.140  23.703  1.00  0.00     0.004 C 
ENDBRANCH  28  29
ENDBRANCH  27  28
ENDBRANCH  26  27
ENDBRANCH  25  26
ENDBRANCH  24  25
ENDBRANCH  23  24
ENDBRANCH  22  23
ENDBRANCH  21  22
ENDBRANCH  20  21
ENDBRANCH  19  20
ENDBRANCH  18  19
ENDBRANCH  17  18
ENDBRANCH   1  17
TORSDOF 26
ENDMDL
MODEL 5
REMARK VINA RESULT:    -4.464      3.527      8.465
REMARK INTER + INTRA:         -15.669
REMARK INTER:                 -10.934
REMARK INTRA:                  -4.735
REMARK UNBOUND:                -4.421
REMARK SMILES CCCCCCCCCCCCCCCCCCCCCCCCCCCC(=O)[O-]
REMARK SMILES IDX 15 1 16 2 17 3 18 4 19 5 20 6 21 7 22 8 23 9 24 10 25 11
REMARK SMILES IDX 26 12 27 13 28 14 29 15 30 16 14 17 13 18 12 19 11 20 10 21
REMARK SMILES IDX 9 22 8 23 7 24 6 25 5 26 4 27 3 28 2 29 1 30
REMARK H PARENT
REMARK Flexibility Score: inf
ROOT
ATOM      1  C   UNL     1       6.358   7.097  16.611  1.00  0.00     0.000 C 
ENDROOT
BRANCH   1   2
ATOM      2  C   UNL     1       5.637   5.756  16.372  1.00  0.00     0.000 C 
BRANCH   2   3
ATOM      3  C   UNL     1       6.403   4.845  15.393  1.00  0.00     0.000 C 
BRANCH   3   4
ATOM      4  C   UNL     1       7.895   5.200  15.252  1.00  0.00     0.000 C 
BRANCH   4   5
ATOM      5  C   UNL     1       8.798   3.954  15.227  1.00  0.00     0.000 C 
BRANCH   5   6
ATOM      6  C   UNL     1       9.403   3.641  16.603  1.00  0.00     0.000 C 
BRANCH   6   7
ATOM      7  C   UNL     1      10.888   4.038  16.693  1.00  0.00     0.000 C 
BRANCH   7   8
ATOM      8  C   UNL     1      11.093   5.478  17.195  1.00  0.00     0.000 C 
BRANCH   8   9
ATOM      9  C   UNL     1      11.800   6.414  16.199  1.00  0.00     0.000 C 
BRANCH   9  10
ATOM     10  C   UNL     1      10.848   7.435  15.558  1.00  0.00     0.000 C 
BRANCH  10  11
ATOM     11  C   UNL     1      10.521   7.047  14.107  1.00  0.00     0.000 C 
BRANCH  11  12
ATOM     12  C   UNL     1      11.560   6.088  13.504  1.00  0.00     0.006 C 
BRANCH  12  13
ATOM     13  C   UNL     1      11.297   5.791  12.022  1.00  0.00     0.053 C 
BRANCH  13  14
ATOM     14  C   UNL     1      10.092   4.916  11.863  1.00  0.00     0.041 C 
ATOM     15  O   UNL     1       8.941   5.428  11.784  1.00  0.00    -0.550 OA
ATOM     16  O   UNL     1      10.234   3.534  11.830  1.00  0.00    -0.550 OA
ENDBRANCH  13  14
ENDBRANCH  12  13
ENDBRANCH  11  12
ENDBRANCH  10  11
ENDBRANCH   9  10
ENDBRANCH   8   9
ENDBRANCH   7   8
ENDBRANCH   6   7
ENDBRANCH   5   6
ENDBRANCH   4   5
ENDBRANCH   3   4
ENDBRANCH   2   3
ENDBRANCH   1   2
BRANCH   1  17
ATOM     17  C   UNL     1       6.696   7.339  18.091  1.00  0.00     0.000 C 
BRANCH  17  18
ATOM     18  C   UNL     1       6.388   6.121  18.977  1.00  0.00     0.000 C 
BRANCH  18  19
ATOM     19  C   UNL     1       7.652   5.348  19.397  1.00  0.00     0.000 C 
BRANCH  19  20
ATOM     20  C   UNL     1       7.456   3.829  19.612  1.00  0.00     0.000 C 
BRANCH  20  21
ATOM     21  C   UNL     1       6.001   3.320  19.500  1.00  0.00     0.000 C 
BRANCH  21  22
ATOM     22  C   UNL     1       5.346   2.951  20.844  1.00  0.00    -0.000 C 
BRANCH  22  23
ATOM     23  C   UNL     1       4.420   4.060  21.368  1.00  0.00    -0.000 C 
BRANCH  23  24
ATOM     24  C   UNL     1       4.823   4.552  22.769  1.00  0.00    -0.000 C 
BRANCH  24  25
ATOM     25  C   UNL     1       6.346   4.667  23.009  1.00  0.00    -0.000 C 
BRANCH  25  26
ATOM     26  C   UNL     1       6.931   6.089  22.879  1.00  0.00    -0.000 C 
BRANCH  26  27
ATOM     27  C   UNL     1       5.865   7.145  22.543  1.00  0.00    -0.000 C 
BRANCH  27  28
ATOM     28  C   UNL     1       6.498   8.376  21.878  1.00  0.00    -0.000 C 
BRANCH  28  29
ATOM     29  C   UNL     1       8.015   8.470  22.119  1.00  0.00    -0.003 C 
ATOM     30  C   UNL     1       8.536   9.910  22.125  1.00  0.00     0.004 C 
ENDBRANCH  28  29
ENDBRANCH  27  28
ENDBRANCH  26  27
ENDBRANCH  25  26
ENDBRANCH  24  25
ENDBRANCH  23  24
ENDBRANCH  22  23
ENDBRANCH  21  22
ENDBRANCH  20  21
ENDBRANCH  19  20
ENDBRANCH  18  19
ENDBRANCH  17  18
ENDBRANCH   1  17
TORSDOF 26
ENDMDL
MODEL 6
REMARK VINA RESULT:    -4.463      3.895      9.190
REMARK INTER + INTRA:         -15.666
REMARK INTER:                 -10.811
REMARK INTRA:                  -4.856
REMARK UNBOUND:                -4.421
REMARK SMILES CCCCCCCCCCCCCCCCCCCCCCCCCCCC(=O)[O-]
REMARK SMILES IDX 15 1 16 2 17 3 18 4 19 5 20 6 21 7 22 8 23 9 24 10 25 11
REMARK SMILES IDX 26 12 27 13 28 14 29 15 30 16 14 17 13 18 12 19 11 20 10 21
REMARK SMILES IDX 9 22 8 23 7 24 6 25 5 26 4 27 3 28 2 29 1 30
REMARK H PARENT
REMARK Flexibility Score: inf
ROOT
ATOM      1  C   UNL     1       6.381   6.190  18.093  1.00  0.00     0.000 C 
ENDROOT
BRANCH   1   2
ATOM      2  C   UNL     1       6.214   6.530  16.599  1.00  0.00     0.000 C 
BRANCH   2   3
ATOM      3  C   UNL     1       6.288   5.280  15.702  1.00  0.00     0.000 C 
BRANCH   3   4
ATOM      4  C   UNL     1       7.629   5.126  14.959  1.00  0.00     0.000 C 
BRANCH   4   5
ATOM      5  C   UNL     1       8.708   4.451  15.823  1.00  0.00     0.000 C 
BRANCH   5   6
ATOM      6  C   UNL     1       9.889   5.386  16.122  1.00  0.00     0.000 C 
BRANCH   6   7
ATOM      7  C   UNL     1       9.722   6.768  15.464  1.00  0.00     0.000 C 
BRANCH   7   8
ATOM      8  C   UNL     1      10.781   7.048  14.382  1.00  0.00     0.000 C 
BRANCH   8   9
ATOM      9  C   UNL     1      10.299   6.837  12.938  1.00  0.00     0.000 C 
BRANCH   9  10
ATOM     10  C   UNL     1      11.270   5.992  12.100  1.00  0.00     0.000 C 
BRANCH  10  11
ATOM     11  C   UNL     1      11.759   4.769  12.892  1.00  0.00     0.000 C 
BRANCH  11  12
ATOM     12  C   UNL     1      11.274   3.441  12.287  1.00  0.00     0.006 C 
BRANCH  12  13
ATOM     13  C   UNL     1       9.826   3.112  12.674  1.00  0.00     0.053 C 
BRANCH  13  14
ATOM     14  C   UNL     1       8.930   3.175  11.476  1.00  0.00     0.041 C 
ATOM     15  O   UNL     1       9.087   2.365  10.522  1.00  0.00    -0.550 OA
ATOM     16  O   UNL     1       7.938   4.146  11.398  1.00  0.00    -0.550 OA
ENDBRANCH  13  14
ENDBRANCH  12  13
ENDBRANCH  11  12
ENDBRANCH  10  11
ENDBRANCH   9  10
ENDBRANCH   8   9
ENDBRANCH   7   8
ENDBRANCH   6   7
ENDBRANCH   5   6
ENDBRANCH   4   5
ENDBRANCH   3   4
ENDBRANCH   2   3
ENDBRANCH   1   2
BRANCH   1  17
ATOM     17  C   UNL     1       6.071   4.718  18.409  1.00  0.00     0.000 C 
BRANCH  17  18
ATOM     18  C   UNL     1       7.234   4.006  19.120  1.00  0.00     0.000 C 
BRANCH  18  19
ATOM     19  C   UNL     1       8.262   4.983  19.720  1.00  0.00     0.000 C 
BRANCH  19  20
ATOM     20  C   UNL     1       8.849   4.565  21.088  1.00  0.00     0.000 C 
BRANCH  20  21
ATOM     21  C   UNL     1       8.792   3.053  21.406  1.00  0.00     0.000 C 
BRANCH  21  22
ATOM     22  C   UNL     1       8.402   2.718  22.858  1.00  0.00    -0.000 C 
BRANCH  22  23
ATOM     23  C   UNL     1       7.045   3.321  23.252  1.00  0.00    -0.000 C 
BRANCH  23  24
ATOM     24  C   UNL     1       5.858   2.511  22.702  1.00  0.00    -0.000 C 
BRANCH  24  25
ATOM     25  C   UNL     1       4.964   3.265  21.690  1.00  0.00    -0.000 C 
BRANCH  25  26
ATOM     26  C   UNL     1       4.342   4.579  22.207  1.00  0.00    -0.000 C 
BRANCH  26  27
ATOM     27  C   UNL     1       4.803   5.812  21.412  1.00  0.00    -0.000 C 
BRANCH  27  28
ATOM     28  C   UNL     1       5.866   6.604  22.187  1.00  0.00    -0.000 C 
BRANCH  28  29
ATOM     29  C   UNL     1       6.433   7.787  21.383  1.00  0.00    -0.003 C 
ATOM     30  C   UNL     1       6.577   9.065  22.213  1.00  0.00     0.004 C 
ENDBRANCH  28  29
ENDBRANCH  27  28
ENDBRANCH  26  27
ENDBRANCH  25  26
ENDBRANCH  24  25
ENDBRANCH  23  24
ENDBRANCH  22  23
ENDBRANCH  21  22
ENDBRANCH  20  21
ENDBRANCH  19  20
ENDBRANCH  18  19
ENDBRANCH  17  18
ENDBRANCH   1  17
TORSDOF 26
ENDMDL
MODEL 7
REMARK VINA RESULT:    -4.435      3.816      8.988
REMARK INTER + INTRA:         -15.597
REMARK INTER:                 -11.366
REMARK INTRA:                  -4.231
REMARK UNBOUND:                -4.421
REMARK SMILES CCCCCCCCCCCCCCCCCCCCCCCCCCCC(=O)[O-]
REMARK SMILES IDX 15 1 16 2 17 3 18 4 19 5 20 6 21 7 22 8 23 9 24 10 25 11
REMARK SMILES IDX 26 12 27 13 28 14 29 15 30 16 14 17 13 18 12 19 11 20 10 21
REMARK SMILES IDX 9 22 8 23 7 24 6 25 5 26 4 27 3 28 2 29 1 30
REMARK H PARENT
REMARK Flexibility Score: inf
ROOT
ATOM      1  C   UNL     1       8.357   5.326  19.713  1.00  0.00     0.000 C 
ENDROOT
BRANCH   1   2
ATOM      2  C   UNL     1       7.688   4.126  19.015  1.00  0.00     0.000 C 
BRANCH   2   3
ATOM      3  C   UNL     1       6.326   4.494  18.395  1.00  0.00     0.000 C 
BRANCH   3   4
ATOM      4  C   UNL     1       6.288   5.899  17.766  1.00  0.00     0.000 C 
BRANCH   4   5
ATOM      5  C   UNL     1       6.120   5.857  16.237  1.00  0.00     0.000 C 
BRANCH   5   6
ATOM      6  C   UNL     1       7.412   5.444  15.516  1.00  0.00     0.000 C 
BRANCH   6   7
ATOM      7  C   UNL     1       8.593   6.372  15.857  1.00  0.00     0.000 C 
BRANCH   7   8
ATOM      8  C   UNL     1       9.922   5.613  16.021  1.00  0.00     0.000 C 
BRANCH   8   9
ATOM      9  C   UNL     1      10.997   5.960  14.978  1.00  0.00     0.000 C 
BRANCH   9  10
ATOM     10  C   UNL     1      10.508   6.969  13.928  1.00  0.00     0.000 C 
BRANCH  10  11
ATOM     11  C   UNL     1      10.510   6.346  12.523  1.00  0.00     0.000 C 
BRANCH  11  12
ATOM     12  C   UNL     1       9.268   5.481  12.258  1.00  0.00     0.006 C 
BRANCH  12  13
ATOM     13  C   UNL     1       9.625   4.061  11.799  1.00  0.00     0.053 C 
BRANCH  13  14
ATOM     14  C   UNL     1       8.424   3.169  11.858  1.00  0.00     0.041 C 
ATOM     15  O   UNL     1       7.947   2.675  10.799  1.00  0.00    -0.550 OA
ATOM     16  O   UNL     1       7.813   2.902  13.077  1.00  0.00    -0.550 OA
ENDBRANCH  13  14
ENDBRANCH  12  13
ENDBRANCH  11  12
ENDBRANCH  10  11
ENDBRANCH   9  10
ENDBRANCH   8   9
ENDBRANCH   7   8
ENDBRANCH   6   7
ENDBRANCH   5   6
ENDBRANCH   4   5
ENDBRANCH   3   4
ENDBRANCH   2   3
ENDBRANCH   1   2
BRANCH   1  17
ATOM     17  C   UNL     1       8.718   5.040  21.179  1.00  0.00     0.000 C 
BRANCH  17  18
ATOM     18  C   UNL     1       9.399   3.674  21.367  1.00  0.00     0.000 C 
BRANCH  18  19
ATOM     19  C   UNL     1       8.519   2.663  22.123  1.00  0.00     0.000 C 
BRANCH  19  20
ATOM     20  C   UNL     1       7.699   3.249  23.296  1.00  0.00     0.000 C 
BRANCH  20  21
ATOM     21  C   UNL     1       6.188   2.922  23.285  1.00  0.00     0.000 C 
BRANCH  21  22
ATOM     22  C   UNL     1       5.630   2.522  21.906  1.00  0.00    -0.000 C 
BRANCH  22  23
ATOM     23  C   UNL     1       4.555   3.500  21.405  1.00  0.00    -0.000 C 
BRANCH  23  24
ATOM     24  C   UNL     1       4.605   4.855  22.133  1.00  0.00    -0.000 C 
BRANCH  24  25
ATOM     25  C   UNL     1       4.952   6.066  21.237  1.00  0.00    -0.000 C 
BRANCH  25  26
ATOM     26  C   UNL     1       5.836   7.146  21.897  1.00  0.00    -0.000 C 
BRANCH  26  27
ATOM     27  C   UNL     1       6.455   8.117  20.878  1.00  0.00    -0.000 C 
BRANCH  27  28
ATOM     28  C   UNL     1       7.443   9.076  21.558  1.00  0.00    -0.000 C 
BRANCH  28  29
ATOM     29  C   UNL     1       6.751  10.067  22.511  1.00  0.00    -0.003 C 
ATOM     30  C   UNL     1       6.968  11.531  22.116  1.00  0.00     0.004 C 
ENDBRANCH  28  29
ENDBRANCH  27  28
ENDBRANCH  26  27
ENDBRANCH  25  26
ENDBRANCH  24  25
ENDBRANCH  23  24
ENDBRANCH  22  23
ENDBRANCH  21  22
ENDBRANCH  20  21
ENDBRANCH  19  20
ENDBRANCH  18  19
ENDBRANCH  17  18
ENDBRANCH   1  17
TORSDOF 26
ENDMDL
MODEL 8
REMARK VINA RESULT:    -4.410      2.439      5.476
REMARK INTER + INTRA:         -15.534
REMARK INTER:                 -10.883
REMARK INTRA:                  -4.652
REMARK UNBOUND:                -4.421
REMARK SMILES CCCCCCCCCCCCCCCCCCCCCCCCCCCC(=O)[O-]
REMARK SMILES IDX 15 1 16 2 17 3 18 4 19 5 20 6 21 7 22 8 23 9 24 10 25 11
REMARK SMILES IDX 26 12 27 13 28 14 29 15 30 16 14 17 13 18 12 19 11 20 10 21
REMARK SMILES IDX 9 22 8 23 7 24 6 25 5 26 4 27 3 28 2 29 1 30
REMARK H PARENT
REMARK Flexibility Score: inf
ROOT
ATOM      1  C   UNL     1      11.242   6.963  15.823  1.00  0.00     0.000 C 
ENDROOT
BRANCH   1   2
ATOM      2  C   UNL     1      12.136   5.733  16.072  1.00  0.00     0.000 C 
BRANCH   2   3
ATOM      3  C   UNL     1      11.615   4.854  17.226  1.00  0.00     0.000 C 
BRANCH   3   4
ATOM      4  C   UNL     1      10.745   5.615  18.243  1.00  0.00     0.000 C 
BRANCH   4   5
ATOM      5  C   UNL     1      10.348   4.744  19.448  1.00  0.00     0.000 C 
BRANCH   5   6
ATOM      6  C   UNL     1       9.960   3.316  19.036  1.00  0.00     0.000 C 
BRANCH   6   7
ATOM      7  C   UNL     1       9.524   2.458  20.238  1.00  0.00     0.000 C 
BRANCH   7   8
ATOM      8  C   UNL     1       8.079   2.745  20.685  1.00  0.00     0.000 C 
BRANCH   8   9
ATOM      9  C   UNL     1       7.030   2.670  19.564  1.00  0.00     0.000 C 
BRANCH   9  10
ATOM     10  C   UNL     1       5.588   2.702  20.090  1.00  0.00     0.000 C 
BRANCH  10  11
ATOM     11  C   UNL     1       5.547   2.416  21.600  1.00  0.00     0.000 C 
BRANCH  11  12
ATOM     12  C   UNL     1       4.421   3.181  22.315  1.00  0.00     0.006 C 
BRANCH  12  13
ATOM     13  C   UNL     1       4.116   2.613  23.708  1.00  0.00     0.053 C 
BRANCH  13  14
ATOM     14  C   UNL     1       4.596   3.546  24.776  1.00  0.00     0.041 C 
ATOM     15  O   UNL     1       5.622   4.255  24.586  1.00  0.00    -0.550 OA
ATOM     16  O   UNL     1       3.927   3.616  25.992  1.00  0.00    -0.550 OA
ENDBRANCH  13  14
ENDBRANCH  12  13
ENDBRANCH  11  12
ENDBRANCH  10  11
ENDBRANCH   9  10
ENDBRANCH   8   9
ENDBRANCH   7   8
ENDBRANCH   6   7
ENDBRANCH   5   6
ENDBRANCH   4   5
ENDBRANCH   3   4
ENDBRANCH   2   3
ENDBRANCH   1   2
BRANCH   1  17
ATOM     17  C   UNL     1      10.667   7.007  14.399  1.00  0.00     0.000 C 
BRANCH  17  18
ATOM     18  C   UNL     1      11.556   6.279  13.377  1.00  0.00     0.000 C 
BRANCH  18  19
ATOM     19  C   UNL     1      10.841   6.011  12.040  1.00  0.00     0.000 C 
BRANCH  19  20
ATOM     20  C   UNL     1       9.318   5.760  12.144  1.00  0.00     0.000 C 
BRANCH  20  21
ATOM     21  C   UNL     1       8.887   4.277  12.193  1.00  0.00     0.000 C 
BRANCH  21  22
ATOM     22  C   UNL     1       8.081   3.886  13.446  1.00  0.00    -0.000 C 
BRANCH  22  23
ATOM     23  C   UNL     1       8.952   3.836  14.710  1.00  0.00    -0.000 C 
BRANCH  23  24
ATOM     24  C   UNL     1       8.222   4.379  15.952  1.00  0.00    -0.000 C 
BRANCH  24  25
ATOM     25  C   UNL     1       7.659   5.811  15.805  1.00  0.00    -0.000 C 
BRANCH  25  26
ATOM     26  C   UNL     1       6.204   6.002  16.283  1.00  0.00    -0.000 C 
BRANCH  26  27
ATOM     27  C   UNL     1       6.017   5.676  17.775  1.00  0.00    -0.000 C 
BRANCH  27  28
ATOM     28  C   UNL     1       6.533   6.821  18.659  1.00  0.00    -0.000 C 
BRANCH  28  29
ATOM     29  C   UNL     1       7.114   6.326  19.995  1.00  0.00    -0.003 C 
ATOM     30  C   UNL     1       6.085   6.310  21.129  1.00  0.00     0.004 C 
ENDBRANCH  28  29
ENDBRANCH  27  28
ENDBRANCH  26  27
ENDBRANCH  25  26
ENDBRANCH  24  25
ENDBRANCH  23  24
ENDBRANCH  22  23
ENDBRANCH  21  22
ENDBRANCH  20  21
ENDBRANCH  19  20
ENDBRANCH  18  19
ENDBRANCH  17  18
ENDBRANCH   1  17
TORSDOF 26
ENDMDL
MODEL 9
REMARK VINA RESULT:    -4.385      1.949      2.930
REMARK INTER + INTRA:         -15.470
REMARK INTER:                 -10.863
REMARK INTRA:                  -4.607
REMARK UNBOUND:                -4.421
REMARK SMILES CCCCCCCCCCCCCCCCCCCCCCCCCCCC(=O)[O-]
REMARK SMILES IDX 15 1 16 2 17 3 18 4 19 5 20 6 21 7 22 8 23 9 24 10 25 11
REMARK SMILES IDX 26 12 27 13 28 14 29 15 30 16 14 17 13 18 12 19 11 20 10 21
REMARK SMILES IDX 9 22 8 23 7 24 6 25 5 26 4 27 3 28 2 29 1 30
REMARK H PARENT
REMARK Flexibility Score: inf
ROOT
ATOM      1  C   UNL     1       6.412   6.239  18.736  1.00  0.00     0.000 C 
ENDROOT
BRANCH   1   2
ATOM      2  C   UNL     1       6.170   4.718  18.693  1.00  0.00     0.000 C 
BRANCH   2   3
ATOM      3  C   UNL     1       7.427   3.913  19.079  1.00  0.00     0.000 C 
BRANCH   3   4
ATOM      4  C   UNL     1       7.125   2.648  19.904  1.00  0.00     0.000 C 
BRANCH   4   5
ATOM      5  C   UNL     1       5.656   2.574  20.356  1.00  0.00     0.000 C 
BRANCH   5   6
ATOM      6  C   UNL     1       5.520   2.305  21.862  1.00  0.00     0.000 C 
BRANCH   6   7
ATOM      7  C   UNL     1       4.567   3.301  22.550  1.00  0.00     0.000 C 
BRANCH   7   8
ATOM      8  C   UNL     1       4.351   4.586  21.730  1.00  0.00     0.000 C 
BRANCH   8   9
ATOM      9  C   UNL     1       5.202   5.786  22.175  1.00  0.00     0.000 C 
BRANCH   9  10
ATOM     10  C   UNL     1       5.830   5.593  23.563  1.00  0.00     0.000 C 
BRANCH  10  11
ATOM     11  C   UNL     1       7.353   5.792  23.511  1.00  0.00     0.000 C 
BRANCH  11  12
ATOM     12  C   UNL     1       7.896   5.812  22.073  1.00  0.00     0.006 C 
BRANCH  12  13
ATOM     13  C   UNL     1       8.588   7.136  21.723  1.00  0.00     0.053 C 
BRANCH  13  14
ATOM     14  C   UNL     1      10.069   6.948  21.617  1.00  0.00     0.041 C 
ATOM     15  O   UNL     1      10.552   5.796  21.437  1.00  0.00    -0.550 OA
ATOM     16  O   UNL     1      10.921   8.039  21.745  1.00  0.00    -0.550 OA
ENDBRANCH  13  14
ENDBRANCH  12  13
ENDBRANCH  11  12
ENDBRANCH  10  11
ENDBRANCH   9  10
ENDBRANCH   8   9
ENDBRANCH   7   8
ENDBRANCH   6   7
ENDBRANCH   5   6
ENDBRANCH   4   5
ENDBRANCH   3   4
ENDBRANCH   2   3
ENDBRANCH   1   2
BRANCH   1  17
ATOM     17  C   UNL     1       6.381   6.889  17.344  1.00  0.00     0.000 C 
BRANCH  17  18
ATOM     18  C   UNL     1       5.987   5.899  16.235  1.00  0.00     0.000 C 
BRANCH  18  19
ATOM     19  C   UNL     1       7.201   5.313  15.492  1.00  0.00     0.000 C 
BRANCH  19  20
ATOM     20  C   UNL     1       8.530   6.082  15.688  1.00  0.00     0.000 C 
BRANCH  20  21
ATOM     21  C   UNL     1       9.648   5.308  16.421  1.00  0.00     0.000 C 
BRANCH  21  22
ATOM     22  C   UNL     1      11.011   6.025  16.449  1.00  0.00    -0.000 C 
BRANCH  22  23
ATOM     23  C   UNL     1      11.472   6.459  15.049  1.00  0.00    -0.000 C 
BRANCH  23  24
ATOM     24  C   UNL     1      12.085   5.299  14.244  1.00  0.00    -0.000 C 
BRANCH  24  25
ATOM     25  C   UNL     1      11.875   5.382  12.715  1.00  0.00    -0.000 C 
BRANCH  25  26
ATOM     26  C   UNL     1      10.823   6.410  12.246  1.00  0.00    -0.000 C 
BRANCH  26  27
ATOM     27  C   UNL     1       9.400   5.827  12.196  1.00  0.00    -0.000 C 
BRANCH  27  28
ATOM     28  C   UNL     1       9.427   4.336  11.832  1.00  0.00    -0.000 C 
BRANCH  28  29
ATOM     29  C   UNL     1       8.536   3.482  12.752  1.00  0.00    -0.003 C 
ATOM     30  C   UNL     1       9.330   2.703  13.804  1.00  0.00     0.004 C 
ENDBRANCH  28  29
ENDBRANCH  27  28
ENDBRANCH  26  27
ENDBRANCH  25  26
ENDBRANCH  24  25
ENDBRANCH  23  24
ENDBRANCH  22  23
ENDBRANCH  21  22
ENDBRANCH  20  21
ENDBRANCH  19  20
ENDBRANCH  18  19
ENDBRANCH  17  18
ENDBRANCH   1  17
TORSDOF 26
ENDMDL
