MODEL 1
REMARK VINA RESULT:    -4.533      0.000      0.000
REMARK INTER + INTRA:          -4.798
REMARK INTER:                  -4.798
REMARK INTRA:                   0.000
REMARK UNBOUND:                 0.000
REMARK SMILES O=c1ccc2cc(O)c(O)cc2o1
REMARK SMILES IDX 4 1 3 2 2 3 1 4 13 5 12 6 11 7 9 8 7 9 6 10 5 11 8 12 10 14
REMARK H PARENT 8 13 10 15
REMARK Flexibility Score: inf
ROOT
ATOM      1  C   UNL     1      22.839  51.853  53.715  1.00  0.00     0.019 A 
ATOM      2  C   UNL     1      23.629  50.903  54.360  1.00  0.00     0.094 A 
ATOM      3  C   UNL     1      23.148  50.301  55.528  1.00  0.00     0.336 A 
ATOM      4  O   UNL     1      23.847  49.442  56.125  1.00  0.00    -0.246 OA
ATOM      5  O   UNL     1      21.954  50.631  56.013  1.00  0.00    -0.423 OA
ATOM      6  C   UNL     1      21.168  51.532  55.428  1.00  0.00     0.142 A 
ATOM      7  C   UNL     1      19.922  51.838  55.984  1.00  0.00     0.098 A 
ATOM      8  C   UNL     1      19.089  52.787  55.372  1.00  0.00     0.161 A 
ATOM      9  C   UNL     1      19.506  53.433  54.199  1.00  0.00     0.158 A 
ATOM     10  C   UNL     1      20.754  53.129  53.636  1.00  0.00     0.062 A 
ATOM     11  C   UNL     1      21.587  52.182  54.247  1.00  0.00     0.022 A 
ENDROOT
BRANCH   9  12
ATOM     12  O   UNL     1      18.672  54.374  53.596  1.00  0.00    -0.504 OA
ATOM     13  H   UNL     1      17.979  54.884  54.129  1.00  0.00     0.293 HD
ENDBRANCH   9  12
BRANCH   8  14
ATOM     14  O   UNL     1      17.848  53.095  55.925  1.00  0.00    -0.504 OA
ATOM     15  H   UNL     1      17.575  52.754  56.839  1.00  0.00     0.293 HD
ENDBRANCH   8  14
TORSDOF 2
ENDMDL
MODEL 2
REMARK VINA RESULT:    -4.359      3.229      4.478
REMARK INTER + INTRA:          -4.614
REMARK INTER:                  -4.614
REMARK INTRA:                   0.000
REMARK UNBOUND:                 0.000
REMARK SMILES O=c1ccc2cc(O)c(O)cc2o1
REMARK SMILES IDX 4 1 3 2 2 3 1 4 13 5 12 6 11 7 9 8 7 9 6 10 5 11 8 12 10 14
REMARK H PARENT 8 13 10 15
REMARK Flexibility Score: inf
ROOT
ATOM      1  C   UNL     1      23.721  50.619  53.864  1.00  0.00     0.019 A 
ATOM      2  C   UNL     1      23.036  50.772  55.069  1.00  0.00     0.094 A 
ATOM      3  C   UNL     1      21.726  51.263  55.047  1.00  0.00     0.336 A 
ATOM      4  O   UNL     1      21.092  51.409  56.125  1.00  0.00    -0.246 OA
ATOM      5  O   UNL     1      21.143  51.576  53.893  1.00  0.00    -0.423 OA
ATOM      6  C   UNL     1      21.760  51.445  52.721  1.00  0.00     0.142 A 
ATOM      7  C   UNL     1      21.098  51.791  51.539  1.00  0.00     0.098 A 
ATOM      8  C   UNL     1      21.743  51.654  50.301  1.00  0.00     0.161 A 
ATOM      9  C   UNL     1      23.058  51.170  50.246  1.00  0.00     0.158 A 
ATOM     10  C   UNL     1      23.728  50.821  51.428  1.00  0.00     0.062 A 
ATOM     11  C   UNL     1      23.084  50.957  52.665  1.00  0.00     0.022 A 
ENDROOT
BRANCH   9  12
ATOM     12  O   UNL     1      23.692  51.037  49.011  1.00  0.00    -0.504 OA
ATOM     13  H   UNL     1      23.221  50.626  48.216  1.00  0.00     0.293 HD
ENDBRANCH   9  12
BRANCH   8  14
ATOM     14  O   UNL     1      21.085  51.999  49.123  1.00  0.00    -0.504 OA
ATOM     15  H   UNL     1      21.533  51.908  48.218  1.00  0.00     0.293 HD
ENDBRANCH   8  14
TORSDOF 2
ENDMDL
MODEL 3
REMARK VINA RESULT:    -4.342      3.153      4.304
REMARK INTER + INTRA:          -4.596
REMARK INTER:                  -4.596
REMARK INTRA:                   0.000
REMARK UNBOUND:                 0.000
REMARK SMILES O=c1ccc2cc(O)c(O)cc2o1
REMARK SMILES IDX 4 1 3 2 2 3 1 4 13 5 12 6 11 7 9 8 7 9 6 10 5 11 8 12 10 14
REMARK H PARENT 8 13 10 15
REMARK Flexibility Score: inf
ROOT
ATOM      1  C   UNL     1      21.332  51.593  54.166  1.00  0.00     0.019 A 
ATOM      2  C   UNL     1      22.139  51.104  55.194  1.00  0.00     0.094 A 
ATOM      3  C   UNL     1      23.384  50.552  54.874  1.00  0.00     0.336 A 
ATOM      4  O   UNL     1      24.125  50.105  55.787  1.00  0.00    -0.246 OA
ATOM      5  O   UNL     1      23.791  50.497  53.609  1.00  0.00    -0.423 OA
ATOM      6  C   UNL     1      23.054  50.952  52.599  1.00  0.00     0.142 A 
ATOM      7  C   UNL     1      23.534  50.867  51.288  1.00  0.00     0.098 A 
ATOM      8  C   UNL     1      22.761  51.346  50.220  1.00  0.00     0.161 A 
ATOM      9  C   UNL     1      21.501  51.912  50.464  1.00  0.00     0.158 A 
ATOM     10  C   UNL     1      21.014  52.000  51.776  1.00  0.00     0.062 A 
ATOM     11  C   UNL     1      21.786  51.522  52.844  1.00  0.00     0.022 A 
ENDROOT
BRANCH   9  12
ATOM     12  O   UNL     1      20.740  52.386  49.397  1.00  0.00    -0.504 OA
ATOM     13  H   UNL     1      20.144  53.199  49.491  1.00  0.00     0.293 HD
ENDBRANCH   9  12
BRANCH   8  14
ATOM     14  O   UNL     1      23.238  51.262  48.913  1.00  0.00    -0.504 OA
ATOM     15  H   UNL     1      24.221  51.120  48.715  1.00  0.00     0.293 HD
ENDBRANCH   8  14
TORSDOF 2
ENDMDL
MODEL 4
REMARK VINA RESULT:    -4.270      3.394      3.965
REMARK INTER + INTRA:          -4.519
REMARK INTER:                  -4.519
REMARK INTRA:                   0.000
REMARK UNBOUND:                 0.000
REMARK SMILES O=c1ccc2cc(O)c(O)cc2o1
REMARK SMILES IDX 4 1 3 2 2 3 1 4 13 5 12 6 11 7 9 8 7 9 6 10 5 11 8 12 10 14
REMARK H PARENT 8 13 10 15
REMARK Flexibility Score: inf
ROOT
ATOM      1  C   UNL     1      22.254  53.492  49.930  1.00  0.00     0.019 A 
ATOM      2  C   UNL     1      22.795  52.381  49.283  1.00  0.00     0.094 A 
ATOM      3  C   UNL     1      22.749  51.136  49.921  1.00  0.00     0.336 A 
ATOM      4  O   UNL     1      23.233  50.122  49.353  1.00  0.00    -0.246 OA
ATOM      5  O   UNL     1      22.195  51.016  51.124  1.00  0.00    -0.423 OA
ATOM      6  C   UNL     1      21.666  52.049  51.775  1.00  0.00     0.142 A 
ATOM      7  C   UNL     1      21.097  51.862  53.039  1.00  0.00     0.098 A 
ATOM      8  C   UNL     1      20.539  52.948  53.730  1.00  0.00     0.161 A 
ATOM      9  C   UNL     1      20.551  54.227  53.154  1.00  0.00     0.158 A 
ATOM     10  C   UNL     1      21.120  54.420  51.886  1.00  0.00     0.062 A 
ATOM     11  C   UNL     1      21.678  53.337  51.195  1.00  0.00     0.022 A 
ENDROOT
BRANCH   9  12
ATOM     12  O   UNL     1      19.993  55.301  53.847  1.00  0.00    -0.504 OA
ATOM     13  H   UNL     1      19.113  55.713  53.565  1.00  0.00     0.293 HD
ENDBRANCH   9  12
BRANCH   8  14
ATOM     14  O   UNL     1      19.972  52.765  54.989  1.00  0.00    -0.504 OA
ATOM     15  H   UNL     1      19.874  53.532  55.644  1.00  0.00     0.293 HD
ENDBRANCH   8  14
TORSDOF 2
ENDMDL
MODEL 5
REMARK VINA RESULT:    -4.178      2.236      2.940
REMARK INTER + INTRA:          -4.423
REMARK INTER:                  -4.423
REMARK INTRA:                   0.000
REMARK UNBOUND:                 0.000
REMARK SMILES O=c1ccc2cc(O)c(O)cc2o1
REMARK SMILES IDX 4 1 3 2 2 3 1 4 13 5 12 6 11 7 9 8 7 9 6 10 5 11 8 12 10 14
REMARK H PARENT 8 13 10 15
REMARK Flexibility Score: inf
ROOT
ATOM      1  C   UNL     1      21.499  51.250  54.020  1.00  0.00     0.019 A 
ATOM      2  C   UNL     1      22.674  51.293  53.270  1.00  0.00     0.094 A 
ATOM      3  C   UNL     1      23.068  52.507  52.697  1.00  0.00     0.336 A 
ATOM      4  O   UNL     1      24.125  52.565  52.016  1.00  0.00    -0.246 OA
ATOM      5  O   UNL     1      22.334  53.603  52.868  1.00  0.00    -0.423 OA
ATOM      6  C   UNL     1      21.207  53.606  53.577  1.00  0.00     0.142 A 
ATOM      7  C   UNL     1      20.476  54.789  53.722  1.00  0.00     0.098 A 
ATOM      8  C   UNL     1      19.288  54.798  54.468  1.00  0.00     0.161 A 
ATOM      9  C   UNL     1      18.829  53.617  55.071  1.00  0.00     0.158 A 
ATOM     10  C   UNL     1      19.559  52.428  54.929  1.00  0.00     0.062 A 
ATOM     11  C   UNL     1      20.746  52.418  54.183  1.00  0.00     0.022 A 
ENDROOT
BRANCH   9  12
ATOM     12  O   UNL     1      17.648  53.635  55.811  1.00  0.00    -0.504 OA
ATOM     13  H   UNL     1      16.758  53.397  55.393  1.00  0.00     0.293 HD
ENDBRANCH   9  12
BRANCH   8  14
ATOM     14  O   UNL     1      18.557  55.976  54.614  1.00  0.00    -0.504 OA
ATOM     15  H   UNL     1      18.727  56.782  54.024  1.00  0.00     0.293 HD
ENDBRANCH   8  14
TORSDOF 2
ENDMDL
MODEL 6
REMARK VINA RESULT:    -4.147      3.418      5.499
REMARK INTER + INTRA:          -4.390
REMARK INTER:                  -4.390
REMARK INTRA:                   0.000
REMARK UNBOUND:                 0.000
REMARK SMILES O=c1ccc2cc(O)c(O)cc2o1
REMARK SMILES IDX 4 1 3 2 2 3 1 4 13 5 12 6 11 7 9 8 7 9 6 10 5 11 8 12 10 14
REMARK H PARENT 8 13 10 15
REMARK Flexibility Score: inf
ROOT
ATOM      1  C   UNL     1      21.452  52.282  53.816  1.00  0.00     0.019 A 
ATOM      2  C   UNL     1      20.946  53.424  54.435  1.00  0.00     0.094 A 
ATOM      3  C   UNL     1      20.635  54.539  53.649  1.00  0.00     0.336 A 
ATOM      4  O   UNL     1      20.178  55.580  54.190  1.00  0.00    -0.246 OA
ATOM      5  O   UNL     1      20.817  54.507  52.332  1.00  0.00    -0.423 OA
ATOM      6  C   UNL     1      21.296  53.438  51.702  1.00  0.00     0.142 A 
ATOM      7  C   UNL     1      21.467  53.463  50.314  1.00  0.00     0.098 A 
ATOM      8  C   UNL     1      21.972  52.338  49.644  1.00  0.00     0.161 A 
ATOM      9  C   UNL     1      22.308  51.184  50.367  1.00  0.00     0.158 A 
ATOM     10  C   UNL     1      22.138  51.153  51.758  1.00  0.00     0.062 A 
ATOM     11  C   UNL     1      21.634  52.276  52.429  1.00  0.00     0.022 A 
ENDROOT
BRANCH   9  12
ATOM     12  O   UNL     1      22.808  50.070  49.693  1.00  0.00    -0.504 OA
ATOM     13  H   UNL     1      23.601  50.142  49.067  1.00  0.00     0.293 HD
ENDBRANCH   9  12
BRANCH   8  14
ATOM     14  O   UNL     1      22.143  52.360  48.261  1.00  0.00    -0.504 OA
ATOM     15  H   UNL     1      21.556  51.811  47.645  1.00  0.00     0.293 HD
ENDBRANCH   8  14
TORSDOF 2
ENDMDL
MODEL 7
REMARK VINA RESULT:    -4.114      3.656      5.045
REMARK INTER + INTRA:          -4.355
REMARK INTER:                  -4.355
REMARK INTRA:                   0.000
REMARK UNBOUND:                 0.000
REMARK SMILES O=c1ccc2cc(O)c(O)cc2o1
REMARK SMILES IDX 4 1 3 2 2 3 1 4 13 5 12 6 11 7 9 8 7 9 6 10 5 11 8 12 10 14
REMARK H PARENT 8 13 10 15
REMARK Flexibility Score: inf
ROOT
ATOM      1  C   UNL     1      21.472  55.272  52.128  1.00  0.00     0.019 A 
ATOM      2  C   UNL     1      21.256  55.345  53.503  1.00  0.00     0.094 A 
ATOM      3  C   UNL     1      21.119  54.159  54.232  1.00  0.00     0.336 A 
ATOM      4  O   UNL     1      20.923  54.204  55.475  1.00  0.00    -0.246 OA
ATOM      5  O   UNL     1      21.197  52.980  53.621  1.00  0.00    -0.423 OA
ATOM      6  C   UNL     1      21.403  52.865  52.311  1.00  0.00     0.142 A 
ATOM      7  C   UNL     1      21.474  51.598  51.723  1.00  0.00     0.098 A 
ATOM      8  C   UNL     1      21.691  51.472  50.342  1.00  0.00     0.161 A 
ATOM      9  C   UNL     1      21.836  52.618  49.547  1.00  0.00     0.158 A 
ATOM     10  C   UNL     1      21.765  53.891  50.132  1.00  0.00     0.062 A 
ATOM     11  C   UNL     1      21.548  54.019  51.510  1.00  0.00     0.022 A 
ENDROOT
BRANCH   9  12
ATOM     12  O   UNL     1      22.052  52.483  48.177  1.00  0.00    -0.504 OA
ATOM     13  H   UNL     1      21.475  51.877  47.607  1.00  0.00     0.293 HD
ENDBRANCH   9  12
BRANCH   8  14
ATOM     14  O   UNL     1      21.763  50.211  49.754  1.00  0.00    -0.504 OA
ATOM     15  H   UNL     1      21.636  50.082  48.757  1.00  0.00     0.293 HD
ENDBRANCH   8  14
TORSDOF 2
ENDMDL
MODEL 8
REMARK VINA RESULT:    -3.346     14.813     16.220
REMARK INTER + INTRA:          -3.542
REMARK INTER:                  -3.542
REMARK INTRA:                   0.000
REMARK UNBOUND:                 0.000
REMARK SMILES O=c1ccc2cc(O)c(O)cc2o1
REMARK SMILES IDX 4 1 3 2 2 3 1 4 13 5 12 6 11 7 9 8 7 9 6 10 5 11 8 12 10 14
REMARK H PARENT 8 13 10 15
REMARK Flexibility Score: inf
ROOT
ATOM      1  C   UNL     1      19.001  53.768  37.246  1.00  0.00     0.019 A 
ATOM      2  C   UNL     1      19.563  52.917  36.296  1.00  0.00     0.094 A 
ATOM      3  C   UNL     1      20.446  51.917  36.719  1.00  0.00     0.336 A 
ATOM      4  O   UNL     1      20.964  51.139  35.875  1.00  0.00    -0.246 OA
ATOM      5  O   UNL     1      20.741  51.781  38.008  1.00  0.00    -0.423 OA
ATOM      6  C   UNL     1      20.227  52.571  38.948  1.00  0.00     0.142 A 
ATOM      7  C   UNL     1      20.575  52.380  40.289  1.00  0.00     0.098 A 
ATOM      8  C   UNL     1      20.035  53.210  41.283  1.00  0.00     0.161 A 
ATOM      9  C   UNL     1      19.144  54.236  40.933  1.00  0.00     0.158 A 
ATOM     10  C   UNL     1      18.792  54.431  39.590  1.00  0.00     0.062 A 
ATOM     11  C   UNL     1      19.330  53.603  38.596  1.00  0.00     0.022 A 
ENDROOT
BRANCH   9  12
ATOM     12  O   UNL     1      18.613  55.055  41.928  1.00  0.00    -0.504 OA
ATOM     13  H   UNL     1      18.706  54.826  42.909  1.00  0.00     0.293 HD
ENDBRANCH   9  12
BRANCH   8  14
ATOM     14  O   UNL     1      20.381  53.023  42.620  1.00  0.00    -0.504 OA
ATOM     15  H   UNL     1      19.939  52.309  43.187  1.00  0.00     0.293 HD
ENDBRANCH   8  14
TORSDOF 2
ENDMDL
