MODEL 1
REMARK VINA RESULT:    -3.828      0.000      0.000
REMARK INTER + INTRA:         -10.648
REMARK INTER:                  -8.752
REMARK INTRA:                  -1.896
REMARK UNBOUND:                -1.896
REMARK SMILES CCCCCCCCCCCCCCCCCCCCCCCC(=O)[O-]
REMARK SMILES IDX 13 1 14 2 15 3 16 4 17 5 18 6 19 7 20 8 21 9 22 10 23 11
REMARK SMILES IDX 24 12 25 13 26 14 12 15 11 16 10 17 9 18 8 19 7 20 6 21 5 22
REMARK SMILES IDX 4 23 3 24 2 25 1 26
REMARK H PARENT
REMARK Flexibility Score: inf
ROOT
ATOM      1  C   UNL     1      12.086  10.099  -1.292  1.00  0.00     0.000 C 
ENDROOT
BRANCH   1   2
ATOM      2  C   UNL     1      11.738   8.749  -1.943  1.00  0.00     0.000 C 
BRANCH   2   3
ATOM      3  C   UNL     1      10.214   8.504  -2.026  1.00  0.00     0.000 C 
BRANCH   3   4
ATOM      4  C   UNL     1       9.768   7.167  -1.408  1.00  0.00     0.000 C 
BRANCH   4   5
ATOM      5  C   UNL     1      10.738   6.592  -0.360  1.00  0.00     0.000 C 
BRANCH   5   6
ATOM      6  C   UNL     1      11.052   5.092  -0.562  1.00  0.00     0.000 C 
BRANCH   6   7
ATOM      7  C   UNL     1      10.729   4.604  -1.984  1.00  0.00     0.000 C 
BRANCH   7   8
ATOM      8  C   UNL     1      11.990   4.329  -2.818  1.00  0.00     0.000 C 
BRANCH   8   9
ATOM      9  C   UNL     1      13.262   4.241  -1.955  1.00  0.00     0.000 C 
BRANCH   9  10
ATOM     10  C   UNL     1      14.251   3.176  -2.475  1.00  0.00     0.006 C 
BRANCH  10  11
ATOM     11  C   UNL     1      15.279   2.729  -1.424  1.00  0.00     0.053 C 
BRANCH  11  12
ATOM     12  C   UNL     1      16.264   1.744  -1.973  1.00  0.00     0.041 C 
ATOM     13  O   UNL     1      15.910   0.558  -2.207  1.00  0.00    -0.550 OA
ATOM     14  O   UNL     1      17.578   2.129  -2.207  1.00  0.00    -0.550 OA
ENDBRANCH  11  12
ENDBRANCH  10  11
ENDBRANCH   9  10
ENDBRANCH   8   9
ENDBRANCH   7   8
ENDBRANCH   6   7
ENDBRANCH   5   6
ENDBRANCH   4   5
ENDBRANCH   3   4
ENDBRANCH   2   3
ENDBRANCH   1   2
BRANCH   1  15
ATOM     15  C   UNL     1      11.032  11.183  -1.566  1.00  0.00     0.000 C 
BRANCH  15  16
ATOM     16  C   UNL     1      11.112  12.349  -0.566  1.00  0.00     0.000 C 
BRANCH  16  17
ATOM     17  C   UNL     1       9.819  13.180  -0.526  1.00  0.00     0.000 C 
BRANCH  17  18
ATOM     18  C   UNL     1       9.911  14.451  -1.388  1.00  0.00    -0.000 C 
BRANCH  18  19
ATOM     19  C   UNL     1       8.946  15.555  -0.924  1.00  0.00    -0.000 C 
BRANCH  19  20
ATOM     20  C   UNL     1       9.559  16.962  -1.033  1.00  0.00    -0.000 C 
BRANCH  20  21
ATOM     21  C   UNL     1      10.423  17.321   0.187  1.00  0.00    -0.000 C 
BRANCH  21  22
ATOM     22  C   UNL     1      11.869  17.679  -0.198  1.00  0.00    -0.000 C 
BRANCH  22  23
ATOM     23  C   UNL     1      12.906  16.734   0.436  1.00  0.00    -0.000 C 
BRANCH  23  24
ATOM     24  C   UNL     1      13.996  16.230  -0.528  1.00  0.00    -0.000 C 
BRANCH  24  25
ATOM     25  C   UNL     1      13.582  14.960  -1.286  1.00  0.00    -0.003 C 
ATOM     26  C   UNL     1      14.756  14.381  -2.070  1.00  0.00     0.004 C 
ENDBRANCH  24  25
ENDBRANCH  23  24
ENDBRANCH  22  23
ENDBRANCH  21  22
ENDBRANCH  20  21
ENDBRANCH  19  20
ENDBRANCH  18  19
ENDBRANCH  17  18
ENDBRANCH  16  17
ENDBRANCH  15  16
ENDBRANCH   1  15
TORSDOF 22
ENDMDL
MODEL 2
REMARK VINA RESULT:    -3.647      2.011      4.142
REMARK INTER + INTRA:         -10.232
REMARK INTER:                  -8.747
REMARK INTRA:                  -1.485
REMARK UNBOUND:                -1.896
REMARK SMILES CCCCCCCCCCCCCCCCCCCCCCCC(=O)[O-]
REMARK SMILES IDX 13 1 14 2 15 3 16 4 17 5 18 6 19 7 20 8 21 9 22 10 23 11
REMARK SMILES IDX 24 12 25 13 26 14 12 15 11 16 10 17 9 18 8 19 7 20 6 21 5 22
REMARK SMILES IDX 4 23 3 24 2 25 1 26
REMARK H PARENT
REMARK Flexibility Score: inf
ROOT
ATOM      1  C   UNL     1      11.390   7.379  -1.792  1.00  0.00     0.000 C 
ENDROOT
BRANCH   1   2
ATOM      2  C   UNL     1      10.936   6.545  -0.582  1.00  0.00     0.000 C 
BRANCH   2   3
ATOM      3  C   UNL     1      10.849   5.034  -0.900  1.00  0.00     0.000 C 
BRANCH   3   4
ATOM      4  C   UNL     1      11.905   4.554  -1.911  1.00  0.00     0.000 C 
BRANCH   4   5
ATOM      5  C   UNL     1      13.287   4.258  -1.301  1.00  0.00     0.000 C 
BRANCH   5   6
ATOM      6  C   UNL     1      14.207   3.425  -2.222  1.00  0.00     0.000 C 
BRANCH   6   7
ATOM      7  C   UNL     1      15.435   2.864  -1.484  1.00  0.00     0.000 C 
BRANCH   7   8
ATOM      8  C   UNL     1      15.539   1.334  -1.585  1.00  0.00     0.000 C 
BRANCH   8   9
ATOM      9  C   UNL     1      16.484   0.878  -2.711  1.00  0.00     0.000 C 
BRANCH   9  10
ATOM     10  C   UNL     1      17.851   1.592  -2.655  1.00  0.00     0.006 C 
BRANCH  10  11
ATOM     11  C   UNL     1      19.048   0.635  -2.776  1.00  0.00     0.053 C 
BRANCH  11  12
ATOM     12  C   UNL     1      20.345   1.301  -2.438  1.00  0.00     0.041 C 
ATOM     13  O   UNL     1      20.456   2.552  -2.526  1.00  0.00    -0.550 OA
ATOM     14  O   UNL     1      21.439   0.538  -2.049  1.00  0.00    -0.550 OA
ENDBRANCH  11  12
ENDBRANCH  10  11
ENDBRANCH   9  10
ENDBRANCH   8   9
ENDBRANCH   7   8
ENDBRANCH   6   7
ENDBRANCH   5   6
ENDBRANCH   4   5
ENDBRANCH   3   4
ENDBRANCH   2   3
ENDBRANCH   1   2
BRANCH   1  15
ATOM     15  C   UNL     1      10.327   8.390  -2.251  1.00  0.00     0.000 C 
BRANCH  15  16
ATOM     16  C   UNL     1       8.966   8.165  -1.569  1.00  0.00     0.000 C 
BRANCH  16  17
ATOM     17  C   UNL     1       7.877   9.109  -2.105  1.00  0.00     0.000 C 
BRANCH  17  18
ATOM     18  C   UNL     1       8.428  10.123  -3.123  1.00  0.00    -0.000 C 
BRANCH  18  19
ATOM     19  C   UNL     1       8.290  11.578  -2.646  1.00  0.00    -0.000 C 
BRANCH  19  20
ATOM     20  C   UNL     1       9.649  12.242  -2.367  1.00  0.00    -0.000 C 
BRANCH  20  21
ATOM     21  C   UNL     1      10.130  12.010  -0.925  1.00  0.00    -0.000 C 
BRANCH  21  22
ATOM     22  C   UNL     1      11.490  12.672  -0.642  1.00  0.00    -0.000 C 
BRANCH  22  23
ATOM     23  C   UNL     1      12.194  13.161  -1.920  1.00  0.00    -0.000 C 
BRANCH  23  24
ATOM     24  C   UNL     1      12.485  14.673  -1.960  1.00  0.00    -0.000 C 
BRANCH  24  25
ATOM     25  C   UNL     1      13.678  15.075  -1.081  1.00  0.00    -0.003 C 
ATOM     26  C   UNL     1      13.503  16.488  -0.531  1.00  0.00     0.004 C 
ENDBRANCH  24  25
ENDBRANCH  23  24
ENDBRANCH  22  23
ENDBRANCH  21  22
ENDBRANCH  20  21
ENDBRANCH  19  20
ENDBRANCH  18  19
ENDBRANCH  17  18
ENDBRANCH  16  17
ENDBRANCH  15  16
ENDBRANCH   1  15
TORSDOF 22
ENDMDL
MODEL 3
REMARK VINA RESULT:    -3.614      4.872     10.313
REMARK INTER + INTRA:         -10.157
REMARK INTER:                  -6.805
REMARK INTRA:                  -3.353
REMARK UNBOUND:                -1.896
REMARK SMILES CCCCCCCCCCCCCCCCCCCCCCCC(=O)[O-]
REMARK SMILES IDX 13 1 14 2 15 3 16 4 17 5 18 6 19 7 20 8 21 9 22 10 23 11
REMARK SMILES IDX 24 12 25 13 26 14 12 15 11 16 10 17 9 18 8 19 7 20 6 21 5 22
REMARK SMILES IDX 4 23 3 24 2 25 1 26
REMARK H PARENT
REMARK Flexibility Score: inf
ROOT
ATOM      1  C   UNL     1      11.740  12.520  -1.019  1.00  0.00     0.000 C 
ENDROOT
BRANCH   1   2
ATOM      2  C   UNL     1      10.280  12.503  -0.537  1.00  0.00     0.000 C 
BRANCH   2   3
ATOM      3  C   UNL     1       9.298  12.021  -1.629  1.00  0.00     0.000 C 
BRANCH   3   4
ATOM      4  C   UNL     1       7.994  12.836  -1.691  1.00  0.00     0.000 C 
BRANCH   4   5
ATOM      5  C   UNL     1       7.795  13.815  -0.519  1.00  0.00     0.000 C 
BRANCH   5   6
ATOM      6  C   UNL     1       7.981  15.299  -0.912  1.00  0.00     0.000 C 
BRANCH   6   7
ATOM      7  C   UNL     1       8.417  15.475  -2.376  1.00  0.00     0.000 C 
BRANCH   7   8
ATOM      8  C   UNL     1       9.800  16.133  -2.507  1.00  0.00     0.000 C 
BRANCH   8   9
ATOM      9  C   UNL     1      10.518  16.276  -1.153  1.00  0.00     0.000 C 
BRANCH   9  10
ATOM     10  C   UNL     1      12.049  16.390  -1.310  1.00  0.00     0.006 C 
BRANCH  10  11
ATOM     11  C   UNL     1      12.831  15.867  -0.094  1.00  0.00     0.053 C 
BRANCH  11  12
ATOM     12  C   UNL     1      13.385  16.974   0.746  1.00  0.00     0.041 C 
ATOM     13  O   UNL     1      12.818  17.296   1.823  1.00  0.00    -0.550 OA
ATOM     14  O   UNL     1      14.515  17.666   0.329  1.00  0.00    -0.550 OA
ENDBRANCH  11  12
ENDBRANCH  10  11
ENDBRANCH   9  10
ENDBRANCH   8   9
ENDBRANCH   7   8
ENDBRANCH   6   7
ENDBRANCH   5   6
ENDBRANCH   4   5
ENDBRANCH   3   4
ENDBRANCH   2   3
ENDBRANCH   1   2
BRANCH   1  15
ATOM     15  C   UNL     1      11.862  12.580  -2.550  1.00  0.00     0.000 C 
BRANCH  15  16
ATOM     16  C   UNL     1      13.063  11.776  -3.078  1.00  0.00     0.000 C 
BRANCH  16  17
ATOM     17  C   UNL     1      13.257  10.447  -2.328  1.00  0.00     0.000 C 
BRANCH  17  18
ATOM     18  C   UNL     1      12.271   9.361  -2.794  1.00  0.00    -0.000 C 
BRANCH  18  19
ATOM     19  C   UNL     1      11.444   8.775  -1.638  1.00  0.00    -0.000 C 
BRANCH  19  20
ATOM     20  C   UNL     1       9.971   8.550  -2.019  1.00  0.00    -0.000 C 
BRANCH  20  21
ATOM     21  C   UNL     1       9.409   7.241  -1.440  1.00  0.00    -0.000 C 
BRANCH  21  22
ATOM     22  C   UNL     1      10.022   5.992  -2.098  1.00  0.00    -0.000 C 
BRANCH  22  23
ATOM     23  C   UNL     1      10.457   4.929  -1.073  1.00  0.00    -0.000 C 
BRANCH  23  24
ATOM     24  C   UNL     1      11.836   5.173  -0.433  1.00  0.00    -0.000 C 
BRANCH  24  25
ATOM     25  C   UNL     1      12.973   5.221  -1.464  1.00  0.00    -0.003 C 
ATOM     26  C   UNL     1      13.723   3.893  -1.516  1.00  0.00     0.004 C 
ENDBRANCH  24  25
ENDBRANCH  23  24
ENDBRANCH  22  23
ENDBRANCH  21  22
ENDBRANCH  20  21
ENDBRANCH  19  20
ENDBRANCH  18  19
ENDBRANCH  17  18
ENDBRANCH  16  17
ENDBRANCH  15  16
ENDBRANCH   1  15
TORSDOF 22
ENDMDL
MODEL 4
REMARK VINA RESULT:    -3.589      4.912     11.536
REMARK INTER + INTRA:         -10.100
REMARK INTER:                  -7.908
REMARK INTRA:                  -2.192
REMARK UNBOUND:                -1.896
REMARK SMILES CCCCCCCCCCCCCCCCCCCCCCCC(=O)[O-]
REMARK SMILES IDX 13 1 14 2 15 3 16 4 17 5 18 6 19 7 20 8 21 9 22 10 23 11
REMARK SMILES IDX 24 12 25 13 26 14 12 15 11 16 10 17 9 18 8 19 7 20 6 21 5 22
REMARK SMILES IDX 4 23 3 24 2 25 1 26
REMARK H PARENT
REMARK Flexibility Score: inf
ROOT
ATOM      1  C   UNL     1      10.388  12.855  -0.684  1.00  0.00     0.000 C 
ENDROOT
BRANCH   1   2
ATOM      2  C   UNL     1      11.774  13.509  -0.809  1.00  0.00     0.000 C 
BRANCH   2   3
ATOM      3  C   UNL     1      11.949  14.284  -2.136  1.00  0.00     0.000 C 
BRANCH   3   4
ATOM      4  C   UNL     1      13.285  15.040  -2.239  1.00  0.00     0.000 C 
BRANCH   4   5
ATOM      5  C   UNL     1      13.966  15.322  -0.888  1.00  0.00     0.000 C 
BRANCH   5   6
ATOM      6  C   UNL     1      14.005  16.821  -0.513  1.00  0.00     0.000 C 
BRANCH   6   7
ATOM      7  C   UNL     1      13.673  17.072   0.968  1.00  0.00     0.000 C 
BRANCH   7   8
ATOM      8  C   UNL     1      12.285  17.701   1.166  1.00  0.00     0.000 C 
BRANCH   8   9
ATOM      9  C   UNL     1      11.502  17.833  -0.153  1.00  0.00     0.000 C 
BRANCH   9  10
ATOM     10  C   UNL     1      10.282  16.890  -0.208  1.00  0.00     0.006 C 
BRANCH  10  11
ATOM     11  C   UNL     1       9.489  16.989  -1.522  1.00  0.00     0.053 C 
BRANCH  11  12
ATOM     12  C   UNL     1       8.097  16.457  -1.388  1.00  0.00     0.041 C 
ATOM     13  O   UNL     1       7.879  15.220  -1.490  1.00  0.00    -0.550 OA
ATOM     14  O   UNL     1       7.036  17.327  -1.174  1.00  0.00    -0.550 OA
ENDBRANCH  11  12
ENDBRANCH  10  11
ENDBRANCH   9  10
ENDBRANCH   8   9
ENDBRANCH   7   8
ENDBRANCH   6   7
ENDBRANCH   5   6
ENDBRANCH   4   5
ENDBRANCH   3   4
ENDBRANCH   2   3
ENDBRANCH   1   2
BRANCH   1  15
ATOM     15  C   UNL     1      10.328  11.458  -1.322  1.00  0.00     0.000 C 
BRANCH  15  16
ATOM     16  C   UNL     1      11.659  10.697  -1.201  1.00  0.00     0.000 C 
BRANCH  16  17
ATOM     17  C   UNL     1      11.626   9.335  -1.915  1.00  0.00     0.000 C 
BRANCH  17  18
ATOM     18  C   UNL     1      10.196   8.787  -2.066  1.00  0.00    -0.000 C 
BRANCH  18  19
ATOM     19  C   UNL     1      10.124   7.261  -1.897  1.00  0.00    -0.000 C 
BRANCH  19  20
ATOM     20  C   UNL     1      11.053   6.744  -0.785  1.00  0.00    -0.000 C 
BRANCH  20  21
ATOM     21  C   UNL     1      10.889   5.235  -0.538  1.00  0.00    -0.000 C 
BRANCH  21  22
ATOM     22  C   UNL     1      11.509   4.381  -1.657  1.00  0.00    -0.000 C 
BRANCH  22  23
ATOM     23  C   UNL     1      12.971   4.760  -1.957  1.00  0.00    -0.000 C 
BRANCH  23  24
ATOM     24  C   UNL     1      13.882   3.576  -2.333  1.00  0.00    -0.000 C 
BRANCH  24  25
ATOM     25  C   UNL     1      14.868   3.203  -1.216  1.00  0.00    -0.003 C 
ATOM     26  C   UNL     1      15.609   1.911  -1.547  1.00  0.00     0.004 C 
ENDBRANCH  24  25
ENDBRANCH  23  24
ENDBRANCH  22  23
ENDBRANCH  21  22
ENDBRANCH  20  21
ENDBRANCH  19  20
ENDBRANCH  18  19
ENDBRANCH  17  18
ENDBRANCH  16  17
ENDBRANCH  15  16
ENDBRANCH   1  15
TORSDOF 22
ENDMDL
MODEL 5
REMARK VINA RESULT:    -3.573      2.092      5.054
REMARK INTER + INTRA:         -10.064
REMARK INTER:                  -8.724
REMARK INTRA:                  -1.340
REMARK UNBOUND:                -1.896
REMARK SMILES CCCCCCCCCCCCCCCCCCCCCCCC(=O)[O-]
REMARK SMILES IDX 13 1 14 2 15 3 16 4 17 5 18 6 19 7 20 8 21 9 22 10 23 11
REMARK SMILES IDX 24 12 25 13 26 14 12 15 11 16 10 17 9 18 8 19 7 20 6 21 5 22
REMARK SMILES IDX 4 23 3 24 2 25 1 26
REMARK H PARENT
REMARK Flexibility Score: inf
ROOT
ATOM      1  C   UNL     1      11.312   5.060  -0.711  1.00  0.00     0.000 C 
ENDROOT
BRANCH   1   2
ATOM      2  C   UNL     1      10.718   4.409  -1.971  1.00  0.00     0.000 C 
BRANCH   2   3
ATOM      3  C   UNL     1      11.758   3.580  -2.760  1.00  0.00     0.000 C 
BRANCH   3   4
ATOM      4  C   UNL     1      13.166   4.202  -2.767  1.00  0.00     0.000 C 
BRANCH   4   5
ATOM      5  C   UNL     1      14.297   3.219  -3.120  1.00  0.00     0.000 C 
BRANCH   5   6
ATOM      6  C   UNL     1      15.159   2.802  -1.906  1.00  0.00     0.000 C 
BRANCH   6   7
ATOM      7  C   UNL     1      15.266   1.276  -1.751  1.00  0.00     0.000 C 
BRANCH   7   8
ATOM      8  C   UNL     1      16.359   0.664  -2.641  1.00  0.00     0.000 C 
BRANCH   8   9
ATOM      9  C   UNL     1      17.600   1.568  -2.760  1.00  0.00     0.000 C 
BRANCH   9  10
ATOM     10  C   UNL     1      18.899   0.758  -2.954  1.00  0.00     0.006 C 
BRANCH  10  11
ATOM     11  C   UNL     1      20.176   1.584  -2.726  1.00  0.00     0.053 C 
BRANCH  11  12
ATOM     12  C   UNL     1      21.316   0.747  -2.237  1.00  0.00     0.041 C 
ATOM     13  O   UNL     1      21.859  -0.093  -3.003  1.00  0.00    -0.550 OA
ATOM     14  O   UNL     1      21.764   0.875  -0.928  1.00  0.00    -0.550 OA
ENDBRANCH  11  12
ENDBRANCH  10  11
ENDBRANCH   9  10
ENDBRANCH   8   9
ENDBRANCH   7   8
ENDBRANCH   6   7
ENDBRANCH   5   6
ENDBRANCH   4   5
ENDBRANCH   3   4
ENDBRANCH   2   3
ENDBRANCH   1   2
BRANCH   1  15
ATOM     15  C   UNL     1      11.105   6.582  -0.672  1.00  0.00     0.000 C 
BRANCH  15  16
ATOM     16  C   UNL     1      10.175   7.079  -1.793  1.00  0.00     0.000 C 
BRANCH  16  17
ATOM     17  C   UNL     1      10.909   7.961  -2.818  1.00  0.00     0.000 C 
BRANCH  17  18
ATOM     18  C   UNL     1      12.159   8.634  -2.225  1.00  0.00    -0.000 C 
BRANCH  18  19
ATOM     19  C   UNL     1      11.816   9.803  -1.287  1.00  0.00    -0.000 C 
BRANCH  19  20
ATOM     20  C   UNL     1      11.243  11.017  -2.039  1.00  0.00    -0.000 C 
BRANCH  20  21
ATOM     21  C   UNL     1      10.116  11.712  -1.258  1.00  0.00    -0.000 C 
BRANCH  21  22
ATOM     22  C   UNL     1      10.394  13.208  -1.025  1.00  0.00    -0.000 C 
BRANCH  22  23
ATOM     23  C   UNL     1      11.870  13.582  -1.246  1.00  0.00    -0.000 C 
BRANCH  23  24
ATOM     24  C   UNL     1      12.110  15.040  -1.679  1.00  0.00    -0.000 C 
BRANCH  24  25
ATOM     25  C   UNL     1      13.434  15.611  -1.151  1.00  0.00    -0.003 C 
ATOM     26  C   UNL     1      14.585  14.637  -1.388  1.00  0.00     0.004 C 
ENDBRANCH  24  25
ENDBRANCH  23  24
ENDBRANCH  22  23
ENDBRANCH  21  22
ENDBRANCH  20  21
ENDBRANCH  19  20
ENDBRANCH  18  19
ENDBRANCH  17  18
ENDBRANCH  16  17
ENDBRANCH  15  16
ENDBRANCH   1  15
TORSDOF 22
ENDMDL
MODEL 6
REMARK VINA RESULT:    -3.559      0.913      2.595
REMARK INTER + INTRA:         -10.032
REMARK INTER:                  -7.736
REMARK INTRA:                  -2.296
REMARK UNBOUND:                -1.896
REMARK SMILES CCCCCCCCCCCCCCCCCCCCCCCC(=O)[O-]
REMARK SMILES IDX 13 1 14 2 15 3 16 4 17 5 18 6 19 7 20 8 21 9 22 10 23 11
REMARK SMILES IDX 24 12 25 13 26 14 12 15 11 16 10 17 9 18 8 19 7 20 6 21 5 22
REMARK SMILES IDX 4 23 3 24 2 25 1 26
REMARK H PARENT
REMARK Flexibility Score: inf
ROOT
ATOM      1  C   UNL     1      12.042  10.806  -1.374  1.00  0.00     0.000 C 
ENDROOT
BRANCH   1   2
ATOM      2  C   UNL     1      11.560  10.100  -2.653  1.00  0.00     0.000 C 
BRANCH   2   3
ATOM      3  C   UNL     1      11.231   8.607  -2.421  1.00  0.00     0.000 C 
BRANCH   3   4
ATOM      4  C   UNL     1       9.817   8.366  -1.863  1.00  0.00     0.000 C 
BRANCH   4   5
ATOM      5  C   UNL     1       9.603   6.972  -1.246  1.00  0.00     0.000 C 
BRANCH   5   6
ATOM      6  C   UNL     1      10.826   6.447  -0.458  1.00  0.00     0.000 C 
BRANCH   6   7
ATOM      7  C   UNL     1      11.213   5.011  -0.851  1.00  0.00     0.000 C 
BRANCH   7   8
ATOM      8  C   UNL     1      11.721   4.909  -2.297  1.00  0.00     0.000 C 
BRANCH   8   9
ATOM      9  C   UNL     1      12.211   3.493  -2.652  1.00  0.00     0.000 C 
BRANCH   9  10
ATOM     10  C   UNL     1      13.720   3.459  -2.976  1.00  0.00     0.006 C 
BRANCH  10  11
ATOM     11  C   UNL     1      14.609   3.253  -1.739  1.00  0.00     0.053 C 
BRANCH  11  12
ATOM     12  C   UNL     1      15.588   2.136  -1.921  1.00  0.00     0.041 C 
ATOM     13  O   UNL     1      15.251   1.094  -2.543  1.00  0.00    -0.550 OA
ATOM     14  O   UNL     1      16.865   2.234  -1.383  1.00  0.00    -0.550 OA
ENDBRANCH  11  12
ENDBRANCH  10  11
ENDBRANCH   9  10
ENDBRANCH   8   9
ENDBRANCH   7   8
ENDBRANCH   6   7
ENDBRANCH   5   6
ENDBRANCH   4   5
ENDBRANCH   3   4
ENDBRANCH   2   3
ENDBRANCH   1   2
BRANCH   1  15
ATOM     15  C   UNL     1      11.052  11.867  -0.870  1.00  0.00     0.000 C 
BRANCH  15  16
ATOM     16  C   UNL     1      11.662  13.280  -0.850  1.00  0.00     0.000 C 
BRANCH  16  17
ATOM     17  C   UNL     1      12.333  13.650  -2.183  1.00  0.00     0.000 C 
BRANCH  17  18
ATOM     18  C   UNL     1      12.994  15.039  -2.142  1.00  0.00    -0.000 C 
BRANCH  18  19
ATOM     19  C   UNL     1      14.055  15.159  -1.036  1.00  0.00    -0.000 C 
BRANCH  19  20
ATOM     20  C   UNL     1      13.956  16.484  -0.261  1.00  0.00    -0.000 C 
BRANCH  20  21
ATOM     21  C   UNL     1      12.555  16.716   0.329  1.00  0.00    -0.000 C 
BRANCH  21  22
ATOM     22  C   UNL     1      11.829  17.906  -0.322  1.00  0.00    -0.000 C 
BRANCH  22  23
ATOM     23  C   UNL     1      10.299  17.823  -0.178  1.00  0.00    -0.000 C 
BRANCH  23  24
ATOM     24  C   UNL     1       9.692  16.445  -0.501  1.00  0.00    -0.000 C 
BRANCH  24  25
ATOM     25  C   UNL     1       9.475  16.226  -2.006  1.00  0.00    -0.003 C 
ATOM     26  C   UNL     1       8.666  14.959  -2.266  1.00  0.00     0.004 C 
ENDBRANCH  24  25
ENDBRANCH  23  24
ENDBRANCH  22  23
ENDBRANCH  21  22
ENDBRANCH  20  21
ENDBRANCH  19  20
ENDBRANCH  18  19
ENDBRANCH  17  18
ENDBRANCH  16  17
ENDBRANCH  15  16
ENDBRANCH   1  15
TORSDOF 22
ENDMDL
MODEL 7
REMARK VINA RESULT:    -3.465      4.560     11.026
REMARK INTER + INTRA:          -9.817
REMARK INTER:                  -7.210
REMARK INTRA:                  -2.607
REMARK UNBOUND:                -1.896
REMARK SMILES CCCCCCCCCCCCCCCCCCCCCCCC(=O)[O-]
REMARK SMILES IDX 13 1 14 2 15 3 16 4 17 5 18 6 19 7 20 8 21 9 22 10 23 11
REMARK SMILES IDX 24 12 25 13 26 14 12 15 11 16 10 17 9 18 8 19 7 20 6 21 5 22
REMARK SMILES IDX 4 23 3 24 2 25 1 26
REMARK H PARENT
REMARK Flexibility Score: inf
ROOT
ATOM      1  C   UNL     1      12.784  13.784  -1.628  1.00  0.00     0.000 C 
ENDROOT
BRANCH   1   2
ATOM      2  C   UNL     1      12.818  14.695  -2.867  1.00  0.00     0.000 C 
BRANCH   2   3
ATOM      3  C   UNL     1      13.321  16.121  -2.543  1.00  0.00     0.000 C 
BRANCH   3   4
ATOM      4  C   UNL     1      14.481  16.152  -1.532  1.00  0.00     0.000 C 
BRANCH   4   5
ATOM      5  C   UNL     1      14.300  17.160  -0.383  1.00  0.00     0.000 C 
BRANCH   5   6
ATOM      6  C   UNL     1      13.235  16.734   0.654  1.00  0.00     0.000 C 
BRANCH   6   7
ATOM      7  C   UNL     1      12.237  17.859   0.975  1.00  0.00     0.000 C 
BRANCH   7   8
ATOM      8  C   UNL     1      10.804  17.525   0.532  1.00  0.00     0.000 C 
BRANCH   8   9
ATOM      9  C   UNL     1      10.591  17.726  -0.980  1.00  0.00     0.000 C 
BRANCH   9  10
ATOM     10  C   UNL     1       9.212  17.217  -1.450  1.00  0.00     0.006 C 
BRANCH  10  11
ATOM     11  C   UNL     1       8.559  16.223  -0.476  1.00  0.00     0.053 C 
BRANCH  11  12
ATOM     12  C   UNL     1       8.006  15.020  -1.174  1.00  0.00     0.041 C 
ATOM     13  O   UNL     1       8.258  14.824  -2.392  1.00  0.00    -0.550 OA
ATOM     14  O   UNL     1       7.192  14.128  -0.487  1.00  0.00    -0.550 OA
ENDBRANCH  11  12
ENDBRANCH  10  11
ENDBRANCH   9  10
ENDBRANCH   8   9
ENDBRANCH   7   8
ENDBRANCH   6   7
ENDBRANCH   5   6
ENDBRANCH   4   5
ENDBRANCH   3   4
ENDBRANCH   2   3
ENDBRANCH   1   2
BRANCH   1  15
ATOM     15  C   UNL     1      11.453  13.866  -0.865  1.00  0.00     0.000 C 
BRANCH  15  16
ATOM     16  C   UNL     1      10.883  12.478  -0.522  1.00  0.00     0.000 C 
BRANCH  16  17
ATOM     17  C   UNL     1      10.072  11.872  -1.680  1.00  0.00     0.000 C 
BRANCH  17  18
ATOM     18  C   UNL     1      10.181  10.338  -1.734  1.00  0.00    -0.000 C 
BRANCH  18  19
ATOM     19  C   UNL     1      11.628   9.841  -1.581  1.00  0.00    -0.000 C 
BRANCH  19  20
ATOM     20  C   UNL     1      11.805   8.383  -2.037  1.00  0.00    -0.000 C 
BRANCH  20  21
ATOM     21  C   UNL     1      10.614   7.495  -1.641  1.00  0.00    -0.000 C 
BRANCH  21  22
ATOM     22  C   UNL     1      10.985   6.444  -0.581  1.00  0.00    -0.000 C 
BRANCH  22  23
ATOM     23  C   UNL     1      11.486   5.126  -1.197  1.00  0.00    -0.000 C 
BRANCH  23  24
ATOM     24  C   UNL     1      13.018   4.989  -1.276  1.00  0.00    -0.000 C 
BRANCH  24  25
ATOM     25  C   UNL     1      13.468   3.722  -2.018  1.00  0.00    -0.003 C 
ATOM     26  C   UNL     1      14.765   3.173  -1.430  1.00  0.00     0.004 C 
ENDBRANCH  24  25
ENDBRANCH  23  24
ENDBRANCH  22  23
ENDBRANCH  21  22
ENDBRANCH  20  21
ENDBRANCH  19  20
ENDBRANCH  18  19
ENDBRANCH  17  18
ENDBRANCH  16  17
ENDBRANCH  15  16
ENDBRANCH   1  15
TORSDOF 22
ENDMDL
MODEL 8
REMARK VINA RESULT:    -3.375      1.415      3.615
REMARK INTER + INTRA:          -9.613
REMARK INTER:                  -7.005
REMARK INTRA:                  -2.608
REMARK UNBOUND:                -1.896
REMARK SMILES CCCCCCCCCCCCCCCCCCCCCCCC(=O)[O-]
REMARK SMILES IDX 13 1 14 2 15 3 16 4 17 5 18 6 19 7 20 8 21 9 22 10 23 11
REMARK SMILES IDX 24 12 25 13 26 14 12 15 11 16 10 17 9 18 8 19 7 20 6 21 5 22
REMARK SMILES IDX 4 23 3 24 2 25 1 26
REMARK H PARENT
REMARK Flexibility Score: inf
ROOT
ATOM      1  C   UNL     1      13.138  12.816  -2.405  1.00  0.00     0.000 C 
ENDROOT
BRANCH   1   2
ATOM      2  C   UNL     1      14.068  11.685  -2.877  1.00  0.00     0.000 C 
BRANCH   2   3
ATOM      3  C   UNL     1      13.545  10.283  -2.488  1.00  0.00     0.000 C 
BRANCH   3   4
ATOM      4  C   UNL     1      12.280  10.317  -1.611  1.00  0.00     0.000 C 
BRANCH   4   5
ATOM      5  C   UNL     1      11.050   9.636  -2.237  1.00  0.00     0.000 C 
BRANCH   5   6
ATOM      6  C   UNL     1      10.897   8.148  -1.846  1.00  0.00     0.000 C 
BRANCH   6   7
ATOM      7  C   UNL     1      11.331   7.192  -2.970  1.00  0.00     0.000 C 
BRANCH   7   8
ATOM      8  C   UNL     1      12.710   6.563  -2.714  1.00  0.00     0.000 C 
BRANCH   8   9
ATOM      9  C   UNL     1      12.747   5.726  -1.423  1.00  0.00     0.000 C 
BRANCH   9  10
ATOM     10  C   UNL     1      12.702   4.210  -1.705  1.00  0.00     0.006 C 
BRANCH  10  11
ATOM     11  C   UNL     1      13.713   3.753  -2.769  1.00  0.00     0.053 C 
BRANCH  11  12
ATOM     12  C   UNL     1      14.739   2.816  -2.214  1.00  0.00     0.041 C 
ATOM     13  O   UNL     1      15.376   3.120  -1.172  1.00  0.00    -0.550 OA
ATOM     14  O   UNL     1      15.010   1.616  -2.861  1.00  0.00    -0.550 OA
ENDBRANCH  11  12
ENDBRANCH  10  11
ENDBRANCH   9  10
ENDBRANCH   8   9
ENDBRANCH   7   8
ENDBRANCH   6   7
ENDBRANCH   5   6
ENDBRANCH   4   5
ENDBRANCH   3   4
ENDBRANCH   2   3
ENDBRANCH   1   2
BRANCH   1  15
ATOM     15  C   UNL     1      13.757  14.211  -2.584  1.00  0.00     0.000 C 
BRANCH  15  16
ATOM     16  C   UNL     1      13.959  14.943  -1.246  1.00  0.00     0.000 C 
BRANCH  16  17
ATOM     17  C   UNL     1      14.451  16.388  -1.434  1.00  0.00     0.000 C 
BRANCH  17  18
ATOM     18  C   UNL     1      14.258  17.242  -0.168  1.00  0.00    -0.000 C 
BRANCH  18  19
ATOM     19  C   UNL     1      13.036  16.809   0.660  1.00  0.00    -0.000 C 
BRANCH  19  20
ATOM     20  C   UNL     1      11.947  17.893   0.721  1.00  0.00    -0.000 C 
BRANCH  20  21
ATOM     21  C   UNL     1      10.593  17.395   0.189  1.00  0.00    -0.000 C 
BRANCH  21  22
ATOM     22  C   UNL     1      10.726  16.617  -1.131  1.00  0.00    -0.000 C 
BRANCH  22  23
ATOM     23  C   UNL     1       9.576  15.617  -1.353  1.00  0.00    -0.000 C 
BRANCH  23  24
ATOM     24  C   UNL     1       9.870  14.513  -2.385  1.00  0.00    -0.000 C 
BRANCH  24  25
ATOM     25  C   UNL     1       9.411  13.123  -1.920  1.00  0.00    -0.003 C 
ATOM     26  C   UNL     1       9.901  12.829  -0.505  1.00  0.00     0.004 C 
ENDBRANCH  24  25
ENDBRANCH  23  24
ENDBRANCH  22  23
ENDBRANCH  21  22
ENDBRANCH  20  21
ENDBRANCH  19  20
ENDBRANCH  18  19
ENDBRANCH  17  18
ENDBRANCH  16  17
ENDBRANCH  15  16
ENDBRANCH   1  15
TORSDOF 22
ENDMDL
