MODEL 1
REMARK VINA RESULT:     7.251      0.000      0.000
REMARK INTER + INTRA:           8.507
REMARK INTER:                   8.735
REMARK INTRA:                  -0.229
REMARK UNBOUND:                -0.229
REMARK SMILES O=c1c(O)c(-c2ccc(O)c(O)c2)oc2cc(O)cc(O)c12
REMARK SMILES IDX 5 1 3 2 2 3 1 4 22 5 20 6 19 7 17 8 16 9 15 10 14 11 6 12
REMARK SMILES IDX 7 13 8 14 9 15 13 16 11 17 10 18 12 20 4 22 21 24 18 26
REMARK H PARENT 10 19 12 21 4 23 21 25 18 27
REMARK Flexibility Score: inf
ROOT
ATOM      1  C   UNL     1     -30.963  -0.055 -24.151  1.00  0.00     0.180 A 
ATOM      2  C   UNL     1     -31.345  -0.962 -25.154  1.00  0.00     0.208 A 
ATOM      3  C   UNL     1     -31.682  -0.469 -26.425  1.00  0.00     0.238 A 
ATOM      4  O   UNL     1     -32.076  -1.280 -27.302  1.00  0.00    -0.285 OA
ATOM      5  C   UNL     1     -31.619   0.922 -26.681  1.00  0.00     0.111 A 
ATOM      6  C   UNL     1     -31.900   1.527 -27.942  1.00  0.00     0.134 A 
ATOM      7  C   UNL     1     -31.932   2.923 -28.047  1.00  0.00     0.093 A 
ATOM      8  C   UNL     1     -31.629   3.734 -26.951  1.00  0.00     0.123 A 
ATOM      9  C   UNL     1     -31.295   3.152 -25.730  1.00  0.00     0.094 A 
ATOM     10  C   UNL     1     -31.290   1.762 -25.585  1.00  0.00     0.146 A 
ATOM     11  O   UNL     1     -30.977   1.249 -24.402  1.00  0.00    -0.452 OA
ENDROOT
BRANCH   1  12
ATOM     12  C   UNL     1     -30.569  -0.500 -22.794  1.00  0.00     0.025 A 
ATOM     13  C   UNL     1     -31.364  -0.146 -21.692  1.00  0.00     0.016 A 
ATOM     14  C   UNL     1     -31.000  -0.538 -20.401  1.00  0.00     0.051 A 
ATOM     15  C   UNL     1     -29.828  -1.276 -20.192  1.00  0.00     0.157 A 
ATOM     16  C   UNL     1     -29.382  -1.223 -22.577  1.00  0.00     0.062 A 
ATOM     17  C   UNL     1     -29.015  -1.615 -21.282  1.00  0.00     0.158 A 
BRANCH  15  18
ATOM     18  O   UNL     1     -29.462  -1.670 -18.907  1.00  0.00    -0.504 OA
ATOM     19  H   UNL     1     -29.892  -2.469 -18.455  1.00  0.00     0.293 HD
ENDBRANCH  15  18
BRANCH  17  20
ATOM     20  O   UNL     1     -27.842  -2.337 -21.068  1.00  0.00    -0.504 OA
ATOM     21  H   UNL     1     -27.817  -3.346 -21.153  1.00  0.00     0.293 HD
ENDBRANCH  17  20
ENDBRANCH   1  12
BRANCH   2  22
ATOM     22  O   UNL     1     -31.422  -2.329 -24.873  1.00  0.00    -0.502 OA
ATOM     23  H   UNL     1     -31.619  -2.682 -23.944  1.00  0.00     0.293 HD
ENDBRANCH   2  22
BRANCH   6  24
ATOM     24  O   UNL     1     -32.125   0.808 -29.121  1.00  0.00    -0.507 OA
ATOM     25  H   UNL     1     -32.205   1.220 -30.038  1.00  0.00     0.293 HD
ENDBRANCH   6  24
BRANCH   8  26
ATOM     26  O   UNL     1     -31.648   5.123 -27.067  1.00  0.00    -0.508 OA
ATOM     27  H   UNL     1     -30.794   5.666 -27.062  1.00  0.00     0.293 HD
ENDBRANCH   8  26
TORSDOF 6
ENDMDL
MODEL 2
REMARK VINA RESULT:     7.813      1.435      3.293
REMARK INTER + INTRA:           9.183
REMARK INTER:                   9.295
REMARK INTRA:                  -0.113
REMARK UNBOUND:                -0.229
REMARK SMILES O=c1c(O)c(-c2ccc(O)c(O)c2)oc2cc(O)cc(O)c12
REMARK SMILES IDX 5 1 3 2 2 3 1 4 22 5 20 6 19 7 17 8 16 9 15 10 14 11 6 12
REMARK SMILES IDX 7 13 8 14 9 15 13 16 11 17 10 18 12 20 4 22 21 24 18 26
REMARK H PARENT 10 19 12 21 4 23 21 25 18 27
REMARK Flexibility Score: inf
ROOT
ATOM      1  C   UNL     1     -30.923  -0.339 -24.299  1.00  0.00     0.180 A 
ATOM      2  C   UNL     1     -30.918   0.944 -24.873  1.00  0.00     0.208 A 
ATOM      3  C   UNL     1     -31.218   1.079 -26.238  1.00  0.00     0.238 A 
ATOM      4  O   UNL     1     -31.159   2.223 -26.759  1.00  0.00    -0.285 OA
ATOM      5  C   UNL     1     -31.534  -0.066 -27.008  1.00  0.00     0.111 A 
ATOM      6  C   UNL     1     -31.892  -0.041 -28.388  1.00  0.00     0.134 A 
ATOM      7  C   UNL     1     -32.058  -1.247 -29.081  1.00  0.00     0.093 A 
ATOM      8  C   UNL     1     -31.941  -2.475 -28.427  1.00  0.00     0.123 A 
ATOM      9  C   UNL     1     -31.650  -2.508 -27.065  1.00  0.00     0.094 A 
ATOM     10  C   UNL     1     -31.444  -1.323 -26.354  1.00  0.00     0.146 A 
ATOM     11  O   UNL     1     -31.158  -1.401 -25.061  1.00  0.00    -0.452 OA
ENDROOT
BRANCH   1  12
ATOM     12  C   UNL     1     -30.641  -0.560 -22.861  1.00  0.00     0.025 A 
ATOM     13  C   UNL     1     -31.458   0.049 -21.895  1.00  0.00     0.016 A 
ATOM     14  C   UNL     1     -31.199  -0.130 -20.533  1.00  0.00     0.051 A 
ATOM     15  C   UNL     1     -30.109  -0.907 -20.119  1.00  0.00     0.157 A 
ATOM     16  C   UNL     1     -29.536  -1.322 -22.441  1.00  0.00     0.062 A 
ATOM     17  C   UNL     1     -29.274  -1.500 -21.075  1.00  0.00     0.158 A 
BRANCH  15  18
ATOM     18  O   UNL     1     -29.848  -1.089 -18.763  1.00  0.00    -0.504 OA
ATOM     19  H   UNL     1     -30.267  -1.848 -18.239  1.00  0.00     0.293 HD
ENDBRANCH  15  18
BRANCH  17  20
ATOM     20  O   UNL     1     -28.182  -2.261 -20.659  1.00  0.00    -0.504 OA
ATOM     21  H   UNL     1     -28.291  -3.220 -20.351  1.00  0.00     0.293 HD
ENDBRANCH  17  20
ENDBRANCH   1  12
BRANCH   2  22
ATOM     22  O   UNL     1     -30.582   2.059 -24.100  1.00  0.00    -0.502 OA
ATOM     23  H   UNL     1     -29.622   2.303 -23.888  1.00  0.00     0.293 HD
ENDBRANCH   2  22
BRANCH   6  24
ATOM     24  O   UNL     1     -32.124   1.132 -29.114  1.00  0.00    -0.507 OA
ATOM     25  H   UNL     1     -32.827   1.818 -28.888  1.00  0.00     0.293 HD
ENDBRANCH   6  24
BRANCH   8  26
ATOM     26  O   UNL     1     -32.123  -3.670 -29.120  1.00  0.00    -0.508 OA
ATOM     27  H   UNL     1     -31.353  -4.132 -29.590  1.00  0.00     0.293 HD
ENDBRANCH   8  26
TORSDOF 6
ENDMDL
