MODEL 1
REMARK VINA RESULT:    -4.486      0.000      0.000
REMARK INTER + INTRA:         -14.135
REMARK INTER:                 -10.255
REMARK INTRA:                  -3.880
REMARK UNBOUND:                -3.880
REMARK SMILES CCCCCCCCCCCCCCCCCCCCCCCC(=O)[O-]
REMARK SMILES IDX 13 1 14 2 15 3 16 4 17 5 18 6 19 7 20 8 21 9 22 10 23 11
REMARK SMILES IDX 24 12 25 13 26 14 12 15 11 16 10 17 9 18 8 19 7 20 6 21 5 22
REMARK SMILES IDX 4 23 3 24 2 25 1 26
REMARK H PARENT
REMARK Flexibility Score: inf
ROOT
ATOM      1  C   UNL     1       7.690   5.613  19.241  1.00  0.00     0.000 C 
ENDROOT
BRANCH   1   2
ATOM      2  C   UNL     1       7.574   4.090  19.425  1.00  0.00     0.000 C 
BRANCH   2   3
ATOM      3  C   UNL     1       6.131   3.579  19.270  1.00  0.00     0.000 C 
BRANCH   3   4
ATOM      4  C   UNL     1       5.767   2.518  20.321  1.00  0.00     0.000 C 
BRANCH   4   5
ATOM      5  C   UNL     1       4.864   3.073  21.436  1.00  0.00     0.000 C 
BRANCH   5   6
ATOM      6  C   UNL     1       5.623   3.320  22.752  1.00  0.00     0.000 C 
BRANCH   6   7
ATOM      7  C   UNL     1       5.268   4.659  23.432  1.00  0.00     0.000 C 
BRANCH   7   8
ATOM      8  C   UNL     1       5.696   5.874  22.589  1.00  0.00     0.000 C 
BRANCH   8   9
ATOM      9  C   UNL     1       7.140   6.314  22.882  1.00  0.00     0.000 C 
BRANCH   9  10
ATOM     10  C   UNL     1       7.504   7.633  22.178  1.00  0.00     0.006 C 
BRANCH  10  11
ATOM     11  C   UNL     1       6.266   8.478  21.850  1.00  0.00     0.053 C 
BRANCH  11  12
ATOM     12  C   UNL     1       6.099   9.620  22.806  1.00  0.00     0.041 C 
ATOM     13  O   UNL     1       6.627  10.736  22.559  1.00  0.00    -0.550 OA
ATOM     14  O   UNL     1       5.350   9.455  23.965  1.00  0.00    -0.550 OA
ENDBRANCH  11  12
ENDBRANCH  10  11
ENDBRANCH   9  10
ENDBRANCH   8   9
ENDBRANCH   7   8
ENDBRANCH   6   7
ENDBRANCH   5   6
ENDBRANCH   4   5
ENDBRANCH   3   4
ENDBRANCH   2   3
ENDBRANCH   1   2
BRANCH   1  15
ATOM     15  C   UNL     1       6.371   6.258  18.780  1.00  0.00     0.000 C 
BRANCH  15  16
ATOM     16  C   UNL     1       6.526   7.047  17.469  1.00  0.00     0.000 C 
BRANCH  16  17
ATOM     17  C   UNL     1       5.743   6.434  16.287  1.00  0.00     0.000 C 
BRANCH  17  18
ATOM     18  C   UNL     1       6.224   5.015  15.951  1.00  0.00    -0.000 C 
BRANCH  18  19
ATOM     19  C   UNL     1       7.490   5.051  15.086  1.00  0.00    -0.000 C 
BRANCH  19  20
ATOM     20  C   UNL     1       8.668   4.382  15.809  1.00  0.00    -0.000 C 
BRANCH  20  21
ATOM     21  C   UNL     1       9.719   5.399  16.280  1.00  0.00    -0.000 C 
BRANCH  21  22
ATOM     22  C   UNL     1       9.577   6.757  15.570  1.00  0.00    -0.000 C 
BRANCH  22  23
ATOM     23  C   UNL     1      10.866   7.173  14.842  1.00  0.00    -0.000 C 
BRANCH  23  24
ATOM     24  C   UNL     1      11.231   6.205  13.702  1.00  0.00    -0.000 C 
BRANCH  24  25
ATOM     25  C   UNL     1      10.476   6.522  12.402  1.00  0.00    -0.003 C 
ATOM     26  C   UNL     1       9.385   5.500  12.084  1.00  0.00     0.004 C 
ENDBRANCH  24  25
ENDBRANCH  23  24
ENDBRANCH  22  23
ENDBRANCH  21  22
ENDBRANCH  20  21
ENDBRANCH  19  20
ENDBRANCH  18  19
ENDBRANCH  17  18
ENDBRANCH  16  17
ENDBRANCH  15  16
ENDBRANCH   1  15
TORSDOF 22
ENDMDL
MODEL 2
REMARK VINA RESULT:    -4.475      3.845      8.818
REMARK INTER + INTRA:         -14.111
REMARK INTER:                 -10.496
REMARK INTRA:                  -3.615
REMARK UNBOUND:                -3.880
REMARK SMILES CCCCCCCCCCCCCCCCCCCCCCCC(=O)[O-]
REMARK SMILES IDX 13 1 14 2 15 3 16 4 17 5 18 6 19 7 20 8 21 9 22 10 23 11
REMARK SMILES IDX 24 12 25 13 26 14 12 15 11 16 10 17 9 18 8 19 7 20 6 21 5 22
REMARK SMILES IDX 4 23 3 24 2 25 1 26
REMARK H PARENT
REMARK Flexibility Score: inf
ROOT
ATOM      1  C   UNL     1       6.361   6.778  17.172  1.00  0.00     0.000 C 
ENDROOT
BRANCH   1   2
ATOM      2  C   UNL     1       6.087   5.563  16.269  1.00  0.00     0.000 C 
BRANCH   2   3
ATOM      3  C   UNL     1       7.207   5.321  15.241  1.00  0.00     0.000 C 
BRANCH   3   4
ATOM      4  C   UNL     1       8.354   4.472  15.812  1.00  0.00     0.000 C 
BRANCH   4   5
ATOM      5  C   UNL     1       9.633   5.290  16.055  1.00  0.00     0.000 C 
BRANCH   5   6
ATOM      6  C   UNL     1       9.554   6.711  15.468  1.00  0.00     0.000 C 
BRANCH   6   7
ATOM      7  C   UNL     1      10.871   7.190  14.821  1.00  0.00     0.000 C 
BRANCH   7   8
ATOM      8  C   UNL     1      11.387   6.211  13.752  1.00  0.00     0.000 C 
BRANCH   8   9
ATOM      9  C   UNL     1      10.636   6.347  12.418  1.00  0.00     0.000 C 
BRANCH   9  10
ATOM     10  C   UNL     1      10.205   4.984  11.848  1.00  0.00     0.006 C 
BRANCH  10  11
ATOM     11  C   UNL     1       8.705   4.724  12.034  1.00  0.00     0.053 C 
BRANCH  11  12
ATOM     12  C   UNL     1       8.355   3.282  11.823  1.00  0.00     0.041 C 
ATOM     13  O   UNL     1       8.406   2.779  10.670  1.00  0.00    -0.550 OA
ATOM     14  O   UNL     1       7.982   2.491  12.903  1.00  0.00    -0.550 OA
ENDBRANCH  11  12
ENDBRANCH  10  11
ENDBRANCH   9  10
ENDBRANCH   8   9
ENDBRANCH   7   8
ENDBRANCH   6   7
ENDBRANCH   5   6
ENDBRANCH   4   5
ENDBRANCH   3   4
ENDBRANCH   2   3
ENDBRANCH   1   2
BRANCH   1  15
ATOM     15  C   UNL     1       6.337   6.424  18.669  1.00  0.00     0.000 C 
BRANCH  15  16
ATOM     16  C   UNL     1       7.634   5.741  19.136  1.00  0.00     0.000 C 
BRANCH  16  17
ATOM     17  C   UNL     1       7.463   4.235  19.433  1.00  0.00     0.000 C 
BRANCH  17  18
ATOM     18  C   UNL     1       5.988   3.808  19.420  1.00  0.00    -0.000 C 
BRANCH  18  19
ATOM     19  C   UNL     1       5.811   2.419  20.045  1.00  0.00    -0.000 C 
BRANCH  19  20
ATOM     20  C   UNL     1       5.257   2.526  21.474  1.00  0.00    -0.000 C 
BRANCH  20  21
ATOM     21  C   UNL     1       4.533   3.858  21.722  1.00  0.00    -0.000 C 
BRANCH  21  22
ATOM     22  C   UNL     1       4.769   4.395  23.145  1.00  0.00    -0.000 C 
BRANCH  22  23
ATOM     23  C   UNL     1       6.014   5.293  23.231  1.00  0.00    -0.000 C 
BRANCH  23  24
ATOM     24  C   UNL     1       5.901   6.535  22.329  1.00  0.00    -0.000 C 
BRANCH  24  25
ATOM     25  C   UNL     1       7.179   7.387  22.345  1.00  0.00    -0.003 C 
ATOM     26  C   UNL     1       7.049   8.669  21.525  1.00  0.00     0.004 C 
ENDBRANCH  24  25
ENDBRANCH  23  24
ENDBRANCH  22  23
ENDBRANCH  21  22
ENDBRANCH  20  21
ENDBRANCH  19  20
ENDBRANCH  18  19
ENDBRANCH  17  18
ENDBRANCH  16  17
ENDBRANCH  15  16
ENDBRANCH   1  15
TORSDOF 22
ENDMDL
MODEL 3
REMARK VINA RESULT:    -4.394      3.035      7.836
REMARK INTER + INTRA:         -13.924
REMARK INTER:                 -10.140
REMARK INTRA:                  -3.785
REMARK UNBOUND:                -3.880
REMARK SMILES CCCCCCCCCCCCCCCCCCCCCCCC(=O)[O-]
REMARK SMILES IDX 13 1 14 2 15 3 16 4 17 5 18 6 19 7 20 8 21 9 22 10 23 11
REMARK SMILES IDX 24 12 25 13 26 14 12 15 11 16 10 17 9 18 8 19 7 20 6 21 5 22
REMARK SMILES IDX 4 23 3 24 2 25 1 26
REMARK H PARENT
REMARK Flexibility Score: inf
ROOT
ATOM      1  C   UNL     1       5.473   2.710  21.228  1.00  0.00     0.000 C 
ENDROOT
BRANCH   1   2
ATOM      2  C   UNL     1       5.881   3.015  19.777  1.00  0.00     0.000 C 
BRANCH   2   3
ATOM      3  C   UNL     1       7.345   3.475  19.654  1.00  0.00     0.000 C 
BRANCH   3   4
ATOM      4  C   UNL     1       7.469   4.992  19.446  1.00  0.00     0.000 C 
BRANCH   4   5
ATOM      5  C   UNL     1       6.205   5.611  18.826  1.00  0.00     0.000 C 
BRANCH   5   6
ATOM      6  C   UNL     1       6.496   6.897  18.033  1.00  0.00     0.000 C 
BRANCH   6   7
ATOM      7  C   UNL     1       6.163   6.790  16.530  1.00  0.00     0.000 C 
BRANCH   7   8
ATOM      8  C   UNL     1       6.323   5.355  15.997  1.00  0.00     0.000 C 
BRANCH   8   9
ATOM      9  C   UNL     1       7.625   5.165  15.203  1.00  0.00     0.000 C 
BRANCH   9  10
ATOM     10  C   UNL     1       8.780   4.661  16.086  1.00  0.00     0.006 C 
BRANCH  10  11
ATOM     11  C   UNL     1       9.780   5.773  16.428  1.00  0.00     0.053 C 
BRANCH  11  12
ATOM     12  C   UNL     1      10.576   6.198  15.232  1.00  0.00     0.041 C 
ATOM     13  O   UNL     1      10.671   7.418  14.933  1.00  0.00    -0.550 OA
ATOM     14  O   UNL     1      11.223   5.247  14.451  1.00  0.00    -0.550 OA
ENDBRANCH  11  12
ENDBRANCH  10  11
ENDBRANCH   9  10
ENDBRANCH   8   9
ENDBRANCH   7   8
ENDBRANCH   6   7
ENDBRANCH   5   6
ENDBRANCH   4   5
ENDBRANCH   3   4
ENDBRANCH   2   3
ENDBRANCH   1   2
BRANCH   1  15
ATOM     15  C   UNL     1       4.357   3.638  21.739  1.00  0.00     0.000 C 
BRANCH  15  16
ATOM     16  C   UNL     1       4.889   5.007  22.197  1.00  0.00     0.000 C 
BRANCH  16  17
ATOM     17  C   UNL     1       6.228   4.921  22.961  1.00  0.00     0.000 C 
BRANCH  17  18
ATOM     18  C   UNL     1       6.986   6.256  22.949  1.00  0.00    -0.000 C 
BRANCH  18  19
ATOM     19  C   UNL     1       6.068   7.408  22.524  1.00  0.00    -0.000 C 
BRANCH  19  20
ATOM     20  C   UNL     1       6.706   8.230  21.393  1.00  0.00    -0.000 C 
BRANCH  20  21
ATOM     21  C   UNL     1       8.112   8.732  21.757  1.00  0.00    -0.000 C 
BRANCH  21  22
ATOM     22  C   UNL     1       8.072  10.015  22.606  1.00  0.00    -0.000 C 
BRANCH  22  23
ATOM     23  C   UNL     1       7.410  11.186  21.862  1.00  0.00    -0.000 C 
BRANCH  23  24
ATOM     24  C   UNL     1       6.242  11.798  22.657  1.00  0.00    -0.000 C 
BRANCH  24  25
ATOM     25  C   UNL     1       5.845  10.938  23.866  1.00  0.00    -0.003 C 
ATOM     26  C   UNL     1       4.370  10.540  23.854  1.00  0.00     0.004 C 
ENDBRANCH  24  25
ENDBRANCH  23  24
ENDBRANCH  22  23
ENDBRANCH  21  22
ENDBRANCH  20  21
ENDBRANCH  19  20
ENDBRANCH  18  19
ENDBRANCH  17  18
ENDBRANCH  16  17
ENDBRANCH  15  16
ENDBRANCH   1  15
TORSDOF 22
ENDMDL
MODEL 4
REMARK VINA RESULT:    -4.385      1.159      2.368
REMARK INTER + INTRA:         -13.905
REMARK INTER:                 -10.636
REMARK INTRA:                  -3.269
REMARK UNBOUND:                -3.880
REMARK SMILES CCCCCCCCCCCCCCCCCCCCCCCC(=O)[O-]
REMARK SMILES IDX 13 1 14 2 15 3 16 4 17 5 18 6 19 7 20 8 21 9 22 10 23 11
REMARK SMILES IDX 24 12 25 13 26 14 12 15 11 16 10 17 9 18 8 19 7 20 6 21 5 22
REMARK SMILES IDX 4 23 3 24 2 25 1 26
REMARK H PARENT
REMARK Flexibility Score: inf
ROOT
ATOM      1  C   UNL     1       6.235   3.430  19.280  1.00  0.00     0.000 C 
ENDROOT
BRANCH   1   2
ATOM      2  C   UNL     1       5.969   2.302  20.291  1.00  0.00     0.000 C 
BRANCH   2   3
ATOM      3  C   UNL     1       5.380   2.817  21.617  1.00  0.00     0.000 C 
BRANCH   3   4
ATOM      4  C   UNL     1       4.382   3.968  21.408  1.00  0.00     0.000 C 
BRANCH   4   5
ATOM      5  C   UNL     1       4.830   5.271  22.090  1.00  0.00     0.000 C 
BRANCH   5   6
ATOM      6  C   UNL     1       6.223   5.162  22.732  1.00  0.00     0.000 C 
BRANCH   6   7
ATOM      7  C   UNL     1       6.981   6.504  22.805  1.00  0.00     0.000 C 
BRANCH   7   8
ATOM      8  C   UNL     1       6.236   7.637  22.078  1.00  0.00     0.000 C 
BRANCH   8   9
ATOM      9  C   UNL     1       6.502   9.015  22.705  1.00  0.00     0.000 C 
BRANCH   9  10
ATOM     10  C   UNL     1       5.206   9.806  22.952  1.00  0.00     0.006 C 
BRANCH  10  11
ATOM     11  C   UNL     1       5.448  11.076  23.778  1.00  0.00     0.053 C 
BRANCH  11  12
ATOM     12  C   UNL     1       5.412  12.311  22.930  1.00  0.00     0.041 C 
ATOM     13  O   UNL     1       6.291  12.501  22.048  1.00  0.00    -0.550 OA
ATOM     14  O   UNL     1       4.402  13.249  23.107  1.00  0.00    -0.550 OA
ENDBRANCH  11  12
ENDBRANCH  10  11
ENDBRANCH   9  10
ENDBRANCH   8   9
ENDBRANCH   7   8
ENDBRANCH   6   7
ENDBRANCH   5   6
ENDBRANCH   4   5
ENDBRANCH   3   4
ENDBRANCH   2   3
ENDBRANCH   1   2
BRANCH   1  15
ATOM     15  C   UNL     1       7.628   4.062  19.447  1.00  0.00     0.000 C 
BRANCH  15  16
ATOM     16  C   UNL     1       7.611   5.589  19.259  1.00  0.00     0.000 C 
BRANCH  16  17
ATOM     17  C   UNL     1       6.279   6.122  18.686  1.00  0.00     0.000 C 
BRANCH  17  18
ATOM     18  C   UNL     1       6.429   6.616  17.240  1.00  0.00    -0.000 C 
BRANCH  18  19
ATOM     19  C   UNL     1       6.112   5.498  16.240  1.00  0.00    -0.000 C 
BRANCH  19  20
ATOM     20  C   UNL     1       7.264   5.311  15.241  1.00  0.00    -0.000 C 
BRANCH  20  21
ATOM     21  C   UNL     1       8.429   4.506  15.837  1.00  0.00    -0.000 C 
BRANCH  21  22
ATOM     22  C   UNL     1       9.689   5.366  16.040  1.00  0.00    -0.000 C 
BRANCH  22  23
ATOM     23  C   UNL     1       9.554   6.759  15.403  1.00  0.00    -0.000 C 
BRANCH  23  24
ATOM     24  C   UNL     1      10.616   7.009  14.317  1.00  0.00    -0.000 C 
BRANCH  24  25
ATOM     25  C   UNL     1      10.701   5.856  13.306  1.00  0.00    -0.003 C 
ATOM     26  C   UNL     1      11.293   6.284  11.964  1.00  0.00     0.004 C 
ENDBRANCH  24  25
ENDBRANCH  23  24
ENDBRANCH  22  23
ENDBRANCH  21  22
ENDBRANCH  20  21
ENDBRANCH  19  20
ENDBRANCH  18  19
ENDBRANCH  17  18
ENDBRANCH  16  17
ENDBRANCH  15  16
ENDBRANCH   1  15
TORSDOF 22
ENDMDL
MODEL 5
REMARK VINA RESULT:    -4.383      1.379      4.213
REMARK INTER + INTRA:         -13.901
REMARK INTER:                  -9.805
REMARK INTRA:                  -4.096
REMARK UNBOUND:                -3.880
REMARK SMILES CCCCCCCCCCCCCCCCCCCCCCCC(=O)[O-]
REMARK SMILES IDX 13 1 14 2 15 3 16 4 17 5 18 6 19 7 20 8 21 9 22 10 23 11
REMARK SMILES IDX 24 12 25 13 26 14 12 15 11 16 10 17 9 18 8 19 7 20 6 21 5 22
REMARK SMILES IDX 4 23 3 24 2 25 1 26
REMARK H PARENT
REMARK Flexibility Score: inf
ROOT
ATOM      1  C   UNL     1      11.274   5.091  16.081  1.00  0.00     0.000 C 
ENDROOT
BRANCH   1   2
ATOM      2  C   UNL     1      10.431   4.409  17.172  1.00  0.00     0.000 C 
BRANCH   2   3
ATOM      3  C   UNL     1      10.337   5.243  18.462  1.00  0.00     0.000 C 
BRANCH   3   4
ATOM      4  C   UNL     1       9.138   4.840  19.336  1.00  0.00     0.000 C 
BRANCH   4   5
ATOM      5  C   UNL     1       8.209   3.832  18.639  1.00  0.00     0.000 C 
BRANCH   5   6
ATOM      6  C   UNL     1       7.213   3.169  19.607  1.00  0.00     0.000 C 
BRANCH   6   7
ATOM      7  C   UNL     1       5.759   3.657  19.434  1.00  0.00     0.000 C 
BRANCH   7   8
ATOM      8  C   UNL     1       5.050   3.871  20.782  1.00  0.00     0.000 C 
BRANCH   8   9
ATOM      9  C   UNL     1       5.543   5.130  21.513  1.00  0.00     0.000 C 
BRANCH   9  10
ATOM     10  C   UNL     1       5.488   6.383  20.622  1.00  0.00     0.006 C 
BRANCH  10  11
ATOM     11  C   UNL     1       6.802   7.173  20.646  1.00  0.00     0.053 C 
BRANCH  11  12
ATOM     12  C   UNL     1       6.685   8.433  21.450  1.00  0.00     0.041 C 
ATOM     13  O   UNL     1       5.692   8.614  22.203  1.00  0.00    -0.550 OA
ATOM     14  O   UNL     1       7.678   9.402  21.375  1.00  0.00    -0.550 OA
ENDBRANCH  11  12
ENDBRANCH  10  11
ENDBRANCH   9  10
ENDBRANCH   8   9
ENDBRANCH   7   8
ENDBRANCH   6   7
ENDBRANCH   5   6
ENDBRANCH   4   5
ENDBRANCH   3   4
ENDBRANCH   2   3
ENDBRANCH   1   2
BRANCH   1  15
ATOM     15  C   UNL     1      10.972   6.594  15.950  1.00  0.00     0.000 C 
BRANCH  15  16
ATOM     16  C   UNL     1      10.418   6.967  14.564  1.00  0.00     0.000 C 
BRANCH  16  17
ATOM     17  C   UNL     1      11.241   6.383  13.395  1.00  0.00     0.000 C 
BRANCH  17  18
ATOM     18  C   UNL     1      10.408   6.247  12.113  1.00  0.00    -0.000 C 
BRANCH  18  19
ATOM     19  C   UNL     1       9.222   5.298  12.323  1.00  0.00    -0.000 C 
BRANCH  19  20
ATOM     20  C   UNL     1       9.700   3.924  12.815  1.00  0.00    -0.000 C 
BRANCH  20  21
ATOM     21  C   UNL     1       8.718   3.286  13.812  1.00  0.00    -0.000 C 
BRANCH  21  22
ATOM     22  C   UNL     1       7.450   4.136  14.006  1.00  0.00    -0.000 C 
BRANCH  22  23
ATOM     23  C   UNL     1       7.440   4.868  15.358  1.00  0.00    -0.000 C 
BRANCH  23  24
ATOM     24  C   UNL     1       6.013   5.087  15.893  1.00  0.00    -0.000 C 
BRANCH  24  25
ATOM     25  C   UNL     1       5.879   6.398  16.682  1.00  0.00    -0.003 C 
ATOM     26  C   UNL     1       7.159   7.232  16.670  1.00  0.00     0.004 C 
ENDBRANCH  24  25
ENDBRANCH  23  24
ENDBRANCH  22  23
ENDBRANCH  21  22
ENDBRANCH  20  21
ENDBRANCH  19  20
ENDBRANCH  18  19
ENDBRANCH  17  18
ENDBRANCH  16  17
ENDBRANCH  15  16
ENDBRANCH   1  15
TORSDOF 22
ENDMDL
MODEL 6
REMARK VINA RESULT:    -4.309      1.594      3.652
REMARK INTER + INTRA:         -13.731
REMARK INTER:                 -10.275
REMARK INTRA:                  -3.456
REMARK UNBOUND:                -3.880
REMARK SMILES CCCCCCCCCCCCCCCCCCCCCCCC(=O)[O-]
REMARK SMILES IDX 13 1 14 2 15 3 16 4 17 5 18 6 19 7 20 8 21 9 22 10 23 11
REMARK SMILES IDX 24 12 25 13 26 14 12 15 11 16 10 17 9 18 8 19 7 20 6 21 5 22
REMARK SMILES IDX 4 23 3 24 2 25 1 26
REMARK H PARENT
REMARK Flexibility Score: inf
ROOT
ATOM      1  C   UNL     1       6.361   7.185  17.128  1.00  0.00     0.000 C 
ENDROOT
BRANCH   1   2
ATOM      2  C   UNL     1       6.361   6.890  18.637  1.00  0.00     0.000 C 
BRANCH   2   3
ATOM      3  C   UNL     1       6.740   5.433  18.959  1.00  0.00     0.000 C 
BRANCH   3   4
ATOM      4  C   UNL     1       8.204   5.292  19.405  1.00  0.00     0.000 C 
BRANCH   4   5
ATOM      5  C   UNL     1       8.626   3.826  19.601  1.00  0.00     0.000 C 
BRANCH   5   6
ATOM      6  C   UNL     1       7.872   3.135  20.750  1.00  0.00     0.000 C 
BRANCH   6   7
ATOM      7  C   UNL     1       6.739   2.200  20.278  1.00  0.00     0.000 C 
BRANCH   7   8
ATOM      8  C   UNL     1       5.359   2.649  20.789  1.00  0.00     0.000 C 
BRANCH   8   9
ATOM      9  C   UNL     1       5.201   2.454  22.305  1.00  0.00     0.000 C 
BRANCH   9  10
ATOM     10  C   UNL     1       4.830   3.760  23.029  1.00  0.00     0.006 C 
BRANCH  10  11
ATOM     11  C   UNL     1       4.786   4.961  22.075  1.00  0.00     0.053 C 
BRANCH  11  12
ATOM     12  C   UNL     1       5.808   5.997  22.430  1.00  0.00     0.041 C 
ATOM     13  O   UNL     1       6.904   5.656  22.948  1.00  0.00    -0.550 OA
ATOM     14  O   UNL     1       5.555   7.341  22.180  1.00  0.00    -0.550 OA
ENDBRANCH  11  12
ENDBRANCH  10  11
ENDBRANCH   9  10
ENDBRANCH   8   9
ENDBRANCH   7   8
ENDBRANCH   6   7
ENDBRANCH   5   6
ENDBRANCH   4   5
ENDBRANCH   3   4
ENDBRANCH   2   3
ENDBRANCH   1   2
BRANCH   1  15
ATOM     15  C   UNL     1       6.123   5.927  16.275  1.00  0.00     0.000 C 
BRANCH  15  16
ATOM     16  C   UNL     1       7.378   5.494  15.497  1.00  0.00     0.000 C 
BRANCH  16  17
ATOM     17  C   UNL     1       8.615   6.370  15.791  1.00  0.00     0.000 C 
BRANCH  17  18
ATOM     18  C   UNL     1       9.874   5.527  16.043  1.00  0.00    -0.000 C 
BRANCH  18  19
ATOM     19  C   UNL     1      10.942   5.800  14.976  1.00  0.00    -0.000 C 
BRANCH  19  20
ATOM     20  C   UNL     1      10.580   7.036  14.139  1.00  0.00    -0.000 C 
BRANCH  20  21
ATOM     21  C   UNL     1      10.345   6.692  12.660  1.00  0.00    -0.000 C 
BRANCH  21  22
ATOM     22  C   UNL     1      11.208   5.507  12.192  1.00  0.00    -0.000 C 
BRANCH  22  23
ATOM     23  C   UNL     1      10.359   4.298  11.765  1.00  0.00    -0.000 C 
BRANCH  23  24
ATOM     24  C   UNL     1       8.855   4.531  11.997  1.00  0.00    -0.000 C 
BRANCH  24  25
ATOM     25  C   UNL     1       8.228   3.453  12.894  1.00  0.00    -0.003 C 
ATOM     26  C   UNL     1       9.268   2.659  13.684  1.00  0.00     0.004 C 
ENDBRANCH  24  25
ENDBRANCH  23  24
ENDBRANCH  22  23
ENDBRANCH  21  22
ENDBRANCH  20  21
ENDBRANCH  19  20
ENDBRANCH  18  19
ENDBRANCH  17  18
ENDBRANCH  16  17
ENDBRANCH  15  16
ENDBRANCH   1  15
TORSDOF 22
ENDMDL
MODEL 7
REMARK VINA RESULT:    -4.292      1.626      4.185
REMARK INTER + INTRA:         -13.691
REMARK INTER:                 -10.499
REMARK INTRA:                  -3.192
REMARK UNBOUND:                -3.880
REMARK SMILES CCCCCCCCCCCCCCCCCCCCCCCC(=O)[O-]
REMARK SMILES IDX 13 1 14 2 15 3 16 4 17 5 18 6 19 7 20 8 21 9 22 10 23 11
REMARK SMILES IDX 24 12 25 13 26 14 12 15 11 16 10 17 9 18 8 19 7 20 6 21 5 22
REMARK SMILES IDX 4 23 3 24 2 25 1 26
REMARK H PARENT
REMARK Flexibility Score: inf
ROOT
ATOM      1  C   UNL     1       4.409   3.452  22.610  1.00  0.00     0.000 C 
ENDROOT
BRANCH   1   2
ATOM      2  C   UNL     1       4.280   4.515  21.506  1.00  0.00     0.000 C 
BRANCH   2   3
ATOM      3  C   UNL     1       5.015   5.823  21.849  1.00  0.00     0.000 C 
BRANCH   3   4
ATOM      4  C   UNL     1       5.882   5.696  23.111  1.00  0.00     0.000 C 
BRANCH   4   5
ATOM      5  C   UNL     1       7.384   5.841  22.816  1.00  0.00     0.000 C 
BRANCH   5   6
ATOM      6  C   UNL     1       7.876   7.295  22.917  1.00  0.00     0.000 C 
BRANCH   6   7
ATOM      7  C   UNL     1       8.006   8.004  21.552  1.00  0.00     0.000 C 
BRANCH   7   8
ATOM      8  C   UNL     1       7.180   9.300  21.486  1.00  0.00     0.000 C 
BRANCH   8   9
ATOM      9  C   UNL     1       6.222   9.449  22.678  1.00  0.00     0.000 C 
BRANCH   9  10
ATOM     10  C   UNL     1       6.376  10.807  23.387  1.00  0.00     0.006 C 
BRANCH  10  11
ATOM     11  C   UNL     1       6.694  11.942  22.406  1.00  0.00     0.053 C 
BRANCH  11  12
ATOM     12  C   UNL     1       5.611  12.977  22.377  1.00  0.00     0.041 C 
ATOM     13  O   UNL     1       5.634  13.895  21.515  1.00  0.00    -0.550 OA
ATOM     14  O   UNL     1       4.569  12.923  23.296  1.00  0.00    -0.550 OA
ENDBRANCH  11  12
ENDBRANCH  10  11
ENDBRANCH   9  10
ENDBRANCH   8   9
ENDBRANCH   7   8
ENDBRANCH   6   7
ENDBRANCH   5   6
ENDBRANCH   4   5
ENDBRANCH   3   4
ENDBRANCH   2   3
ENDBRANCH   1   2
BRANCH   1  15
ATOM     15  C   UNL     1       5.219   2.223  22.161  1.00  0.00     0.000 C 
BRANCH  15  16
ATOM     16  C   UNL     1       5.808   2.387  20.750  1.00  0.00     0.000 C 
BRANCH  16  17
ATOM     17  C   UNL     1       7.292   2.814  20.749  1.00  0.00     0.000 C 
BRANCH  17  18
ATOM     18  C   UNL     1       7.738   3.351  19.382  1.00  0.00    -0.000 C 
BRANCH  18  19
ATOM     19  C   UNL     1       7.674   4.883  19.344  1.00  0.00    -0.000 C 
BRANCH  19  20
ATOM     20  C   UNL     1       6.372   5.362  18.683  1.00  0.00    -0.000 C 
BRANCH  20  21
ATOM     21  C   UNL     1       6.530   6.733  18.007  1.00  0.00    -0.000 C 
BRANCH  21  22
ATOM     22  C   UNL     1       6.275   6.668  16.490  1.00  0.00    -0.000 C 
BRANCH  22  23
ATOM     23  C   UNL     1       6.693   5.317  15.886  1.00  0.00    -0.000 C 
BRANCH  23  24
ATOM     24  C   UNL     1       8.211   5.230  15.645  1.00  0.00    -0.000 C 
BRANCH  24  25
ATOM     25  C   UNL     1       8.850   6.612  15.437  1.00  0.00    -0.003 C 
ATOM     26  C   UNL     1      10.375   6.582  15.536  1.00  0.00     0.004 C 
ENDBRANCH  24  25
ENDBRANCH  23  24
ENDBRANCH  22  23
ENDBRANCH  21  22
ENDBRANCH  20  21
ENDBRANCH  19  20
ENDBRANCH  18  19
ENDBRANCH  17  18
ENDBRANCH  16  17
ENDBRANCH  15  16
ENDBRANCH   1  15
TORSDOF 22
ENDMDL
MODEL 8
REMARK VINA RESULT:    -4.250      1.630      3.639
REMARK INTER + INTRA:         -13.595
REMARK INTER:                  -9.418
REMARK INTRA:                  -4.177
REMARK UNBOUND:                -3.880
REMARK SMILES CCCCCCCCCCCCCCCCCCCCCCCC(=O)[O-]
REMARK SMILES IDX 13 1 14 2 15 3 16 4 17 5 18 6 19 7 20 8 21 9 22 10 23 11
REMARK SMILES IDX 24 12 25 13 26 14 12 15 11 16 10 17 9 18 8 19 7 20 6 21 5 22
REMARK SMILES IDX 4 23 3 24 2 25 1 26
REMARK H PARENT
REMARK Flexibility Score: inf
ROOT
ATOM      1  C   UNL     1       5.362   3.914  20.261  1.00  0.00     0.000 C 
ENDROOT
BRANCH   1   2
ATOM      2  C   UNL     1       4.339   4.080  21.398  1.00  0.00     0.000 C 
BRANCH   2   3
ATOM      3  C   UNL     1       4.544   3.066  22.537  1.00  0.00     0.000 C 
BRANCH   3   4
ATOM      4  C   UNL     1       5.363   3.646  23.701  1.00  0.00     0.000 C 
BRANCH   4   5
ATOM      5  C   UNL     1       6.847   3.250  23.637  1.00  0.00     0.000 C 
BRANCH   5   6
ATOM      6  C   UNL     1       7.749   4.390  23.133  1.00  0.00     0.000 C 
BRANCH   6   7
ATOM      7  C   UNL     1       7.147   5.796  23.340  1.00  0.00     0.000 C 
BRANCH   7   8
ATOM      8  C   UNL     1       7.036   6.584  22.022  1.00  0.00     0.000 C 
BRANCH   8   9
ATOM      9  C   UNL     1       5.852   7.563  22.020  1.00  0.00     0.000 C 
BRANCH   9  10
ATOM     10  C   UNL     1       6.180   8.879  22.748  1.00  0.00     0.006 C 
BRANCH  10  11
ATOM     11  C   UNL     1       7.466   9.529  22.223  1.00  0.00     0.053 C 
BRANCH  11  12
ATOM     12  C   UNL     1       7.419  11.024  22.319  1.00  0.00     0.041 C 
ATOM     13  O   UNL     1       8.485  11.687  22.417  1.00  0.00    -0.550 OA
ATOM     14  O   UNL     1       6.198  11.686  22.291  1.00  0.00    -0.550 OA
ENDBRANCH  11  12
ENDBRANCH  10  11
ENDBRANCH   9  10
ENDBRANCH   8   9
ENDBRANCH   7   8
ENDBRANCH   6   7
ENDBRANCH   5   6
ENDBRANCH   4   5
ENDBRANCH   3   4
ENDBRANCH   2   3
ENDBRANCH   1   2
BRANCH   1  15
ATOM     15  C   UNL     1       5.904   2.478  20.153  1.00  0.00     0.000 C 
BRANCH  15  16
ATOM     16  C   UNL     1       7.394   2.436  19.774  1.00  0.00     0.000 C 
BRANCH  16  17
ATOM     17  C   UNL     1       7.854   3.659  18.951  1.00  0.00     0.000 C 
BRANCH  17  18
ATOM     18  C   UNL     1       8.992   4.424  19.641  1.00  0.00    -0.000 C 
BRANCH  18  19
ATOM     19  C   UNL     1       9.879   5.137  18.613  1.00  0.00    -0.000 C 
BRANCH  19  20
ATOM     20  C   UNL     1       9.546   4.676  17.186  1.00  0.00    -0.000 C 
BRANCH  20  21
ATOM     21  C   UNL     1       9.797   5.775  16.142  1.00  0.00    -0.000 C 
BRANCH  21  22
ATOM     22  C   UNL     1       8.513   6.171  15.390  1.00  0.00    -0.000 C 
BRANCH  22  23
ATOM     23  C   UNL     1       7.386   5.142  15.578  1.00  0.00    -0.000 C 
BRANCH  23  24
ATOM     24  C   UNL     1       6.159   5.743  16.286  1.00  0.00    -0.000 C 
BRANCH  24  25
ATOM     25  C   UNL     1       6.461   7.108  16.921  1.00  0.00    -0.003 C 
ATOM     26  C   UNL     1       6.424   7.074  18.448  1.00  0.00     0.004 C 
ENDBRANCH  24  25
ENDBRANCH  23  24
ENDBRANCH  22  23
ENDBRANCH  21  22
ENDBRANCH  20  21
ENDBRANCH  19  20
ENDBRANCH  18  19
ENDBRANCH  17  18
ENDBRANCH  16  17
ENDBRANCH  15  16
ENDBRANCH   1  15
TORSDOF 22
ENDMDL
MODEL 9
REMARK VINA RESULT:    -4.180      1.773      3.555
REMARK INTER + INTRA:         -13.436
REMARK INTER:                  -9.406
REMARK INTRA:                  -4.029
REMARK UNBOUND:                -3.880
REMARK SMILES CCCCCCCCCCCCCCCCCCCCCCCC(=O)[O-]
REMARK SMILES IDX 13 1 14 2 15 3 16 4 17 5 18 6 19 7 20 8 21 9 22 10 23 11
REMARK SMILES IDX 24 12 25 13 26 14 12 15 11 16 10 17 9 18 8 19 7 20 6 21 5 22
REMARK SMILES IDX 4 23 3 24 2 25 1 26
REMARK H PARENT
REMARK Flexibility Score: inf
ROOT
ATOM      1  C   UNL     1       4.468   3.607  22.219  1.00  0.00     0.000 C 
ENDROOT
BRANCH   1   2
ATOM      2  C   UNL     1       5.515   2.538  21.863  1.00  0.00     0.000 C 
BRANCH   2   3
ATOM      3  C   UNL     1       5.861   2.520  20.363  1.00  0.00     0.000 C 
BRANCH   3   4
ATOM      4  C   UNL     1       7.369   2.669  20.106  1.00  0.00     0.000 C 
BRANCH   4   5
ATOM      5  C   UNL     1       8.138   3.144  21.350  1.00  0.00     0.000 C 
BRANCH   5   6
ATOM      6  C   UNL     1       8.792   4.524  21.158  1.00  0.00     0.000 C 
BRANCH   6   7
ATOM      7  C   UNL     1       8.718   5.426  22.408  1.00  0.00     0.000 C 
BRANCH   7   8
ATOM      8  C   UNL     1       9.372   6.800  22.177  1.00  0.00     0.000 C 
BRANCH   8   9
ATOM      9  C   UNL     1       8.628   7.934  22.900  1.00  0.00     0.000 C 
BRANCH   9  10
ATOM     10  C   UNL     1       8.965   9.319  22.318  1.00  0.00     0.006 C 
BRANCH  10  11
ATOM     11  C   UNL     1       7.743   9.998  21.689  1.00  0.00     0.053 C 
BRANCH  11  12
ATOM     12  C   UNL     1       6.916  10.722  22.709  1.00  0.00     0.041 C 
ATOM     13  O   UNL     1       7.396  11.705  23.333  1.00  0.00    -0.550 OA
ATOM     14  O   UNL     1       5.612  10.316  22.963  1.00  0.00    -0.550 OA
ENDBRANCH  11  12
ENDBRANCH  10  11
ENDBRANCH   9  10
ENDBRANCH   8   9
ENDBRANCH   7   8
ENDBRANCH   6   7
ENDBRANCH   5   6
ENDBRANCH   4   5
ENDBRANCH   3   4
ENDBRANCH   2   3
ENDBRANCH   1   2
BRANCH   1  15
ATOM     15  C   UNL     1       5.070   5.019  22.321  1.00  0.00     0.000 C 
BRANCH  15  16
ATOM     16  C   UNL     1       4.699   5.908  21.122  1.00  0.00     0.000 C 
BRANCH  16  17
ATOM     17  C   UNL     1       5.548   7.195  21.025  1.00  0.00     0.000 C 
BRANCH  17  18
ATOM     18  C   UNL     1       6.555   7.136  19.868  1.00  0.00    -0.000 C 
BRANCH  18  19
ATOM     19  C   UNL     1       6.198   6.018  18.881  1.00  0.00    -0.000 C 
BRANCH  19  20
ATOM     20  C   UNL     1       6.161   6.548  17.440  1.00  0.00    -0.000 C 
BRANCH  20  21
ATOM     21  C   UNL     1       5.917   5.431  16.413  1.00  0.00    -0.000 C 
BRANCH  21  22
ATOM     22  C   UNL     1       7.150   5.172  15.528  1.00  0.00    -0.000 C 
BRANCH  22  23
ATOM     23  C   UNL     1       8.282   6.177  15.797  1.00  0.00    -0.000 C 
BRANCH  23  24
ATOM     24  C   UNL     1       9.503   5.516  16.462  1.00  0.00    -0.000 C 
BRANCH  24  25
ATOM     25  C   UNL     1       9.272   4.026  16.757  1.00  0.00    -0.003 C 
ATOM     26  C   UNL     1      10.187   3.489  17.856  1.00  0.00     0.004 C 
ENDBRANCH  24  25
ENDBRANCH  23  24
ENDBRANCH  22  23
ENDBRANCH  21  22
ENDBRANCH  20  21
ENDBRANCH  19  20
ENDBRANCH  18  19
ENDBRANCH  17  18
ENDBRANCH  16  17
ENDBRANCH  15  16
ENDBRANCH   1  15
TORSDOF 22
ENDMDL
