MODEL 1
REMARK VINA RESULT:    -5.646      0.000      0.000
REMARK INTER + INTRA:          -8.259
REMARK INTER:                  -7.462
REMARK INTRA:                  -0.797
REMARK UNBOUND:                -0.797
REMARK SMILES CC[C@@H](C=C[C@@H](C)[C@@H]1CC[C@@H]2[C@H]3CC=C4C[C@H](O)CC[C@@]4(C)[C@H]3CC[C@]21C)C(C)C
REMARK SMILES IDX 6 1 7 2 5 3 4 4 3 5 2 6 1 7 28 8 29 9 30 10 8 11 9 12 26 13
REMARK SMILES IDX 10 14 11 15 25 16 27 17 12 18 24 19 23 20 13 21 21 22 14 23
REMARK SMILES IDX 15 24 20 25 22 26 16 27 19 28 17 29 18 30
REMARK H PARENT 18 31
REMARK Flexibility Score: inf
ROOT
ATOM      1  C   UNL     1      16.802 -11.928   6.465  1.00  0.00     0.012 C 
ATOM      2  C   UNL     1      15.894 -12.760   7.382  1.00  0.00     0.012 C 
ENDROOT
BRANCH   1   3
ATOM      3  C   UNL     1      17.898 -12.816   5.907  1.00  0.00    -0.028 C 
ATOM      4  C   UNL     1      18.226 -13.995   6.461  1.00  0.00    -0.027 C 
BRANCH   4   5
ATOM      5  C   UNL     1      19.373 -14.833   5.905  1.00  0.00     0.014 C 
BRANCH   5   6
ATOM      6  C   UNL     1      19.071 -16.319   6.239  1.00  0.00     0.004 C 
ATOM      7  C   UNL     1      17.764 -16.547   6.991  1.00  0.00     0.004 C 
ENDBRANCH   5   6
BRANCH   5   8
ATOM      8  C   UNL     1      20.805 -14.390   6.394  1.00  0.00    -0.011 C 
ATOM      9  C   UNL     1      21.949 -15.368   6.053  1.00  0.00     0.008 C 
ATOM     10  C   UNL     1      20.822 -14.161   7.921  1.00  0.00     0.008 C 
ENDBRANCH   5   8
ENDBRANCH   4   5
ENDBRANCH   1   3
BRANCH   1  11
ATOM     11  C   UNL     1      17.258 -10.596   7.162  1.00  0.00     0.002 C 
ATOM     12  C   UNL     1      17.783 -10.772   8.605  1.00  0.00     0.005 C 
ATOM     13  C   UNL     1      16.318  -9.353   7.243  1.00  0.00    -0.026 C 
ATOM     14  C   UNL     1      17.677  -9.391   9.272  1.00  0.00     0.005 C 
ATOM     15  C   UNL     1      17.156  -8.463   8.172  1.00  0.00    -0.001 C 
ATOM     16  C   UNL     1      16.117  -8.593   5.902  1.00  0.00     0.007 C 
ATOM     17  C   UNL     1      14.938  -9.733   7.864  1.00  0.00     0.012 C 
ATOM     18  C   UNL     1      16.440  -7.159   8.619  1.00  0.00     0.000 C 
ATOM     19  C   UNL     1      16.116  -7.042   6.038  1.00  0.00     0.005 C 
ATOM     20  C   UNL     1      15.635  -6.493   7.425  1.00  0.00     0.003 C 
ATOM     21  C   UNL     1      17.463  -6.216   9.315  1.00  0.00     0.031 C 
ATOM     22  C   UNL     1      15.584  -4.909   7.528  1.00  0.00    -0.008 C 
ATOM     23  C   UNL     1      17.862  -5.014   8.510  1.00  0.00    -0.027 C 
ATOM     24  C   UNL     1      16.988  -4.347   7.740  1.00  0.00    -0.065 C 
ATOM     25  C   UNL     1      14.941  -4.266   6.253  1.00  0.00     0.014 C 
ATOM     26  C   UNL     1      14.702  -4.521   8.750  1.00  0.00     0.016 C 
ATOM     27  C   UNL     1      17.322  -2.905   7.392  1.00  0.00     0.063 C 
ATOM     28  C   UNL     1      15.078  -2.741   6.209  1.00  0.00     0.033 C 
ATOM     29  C   UNL     1      16.567  -2.370   6.162  1.00  0.00     0.118 C 
BRANCH  29  30
ATOM     30  O   UNL     1      16.724  -0.977   6.049  1.00  0.00    -0.393 OA
ATOM     31  H   UNL     1      15.889  -0.612   5.649  1.00  0.00     0.210 HD
ENDBRANCH  29  30
ENDBRANCH   1  11
TORSDOF 6
ENDMDL
MODEL 2
REMARK VINA RESULT:    -4.281      1.486      2.625
REMARK INTER + INTRA:          -6.454
REMARK INTER:                  -6.272
REMARK INTRA:                  -0.183
REMARK UNBOUND:                -0.797
REMARK SMILES CC[C@@H](C=C[C@@H](C)[C@@H]1CC[C@@H]2[C@H]3CC=C4C[C@H](O)CC[C@@]4(C)[C@H]3CC[C@]21C)C(C)C
REMARK SMILES IDX 6 1 7 2 5 3 4 4 3 5 2 6 1 7 28 8 29 9 30 10 8 11 9 12 26 13
REMARK SMILES IDX 10 14 11 15 25 16 27 17 12 18 24 19 23 20 13 21 21 22 14 23
REMARK SMILES IDX 15 24 20 25 22 26 16 27 19 28 17 29 18 30
REMARK H PARENT 18 31
REMARK Flexibility Score: inf
ROOT
ATOM      1  C   UNL     1      15.012 -11.177   6.632  1.00  0.00     0.012 C 
ATOM      2  C   UNL     1      13.772 -11.361   7.517  1.00  0.00     0.012 C 
ENDROOT
BRANCH   1   3
ATOM      3  C   UNL     1      15.750 -12.498   6.524  1.00  0.00    -0.028 C 
ATOM      4  C   UNL     1      15.452 -13.558   7.294  1.00  0.00    -0.027 C 
BRANCH   4   5
ATOM      5  C   UNL     1      16.255 -14.851   7.195  1.00  0.00     0.014 C 
BRANCH   5   6
ATOM      6  C   UNL     1      17.156 -14.747   5.935  1.00  0.00     0.004 C 
ATOM      7  C   UNL     1      18.647 -14.914   6.204  1.00  0.00     0.004 C 
ENDBRANCH   5   6
BRANCH   5   8
ATOM      8  C   UNL     1      15.385 -16.166   7.201  1.00  0.00    -0.011 C 
ATOM      9  C   UNL     1      13.876 -15.957   6.959  1.00  0.00     0.008 C 
ATOM     10  C   UNL     1      15.545 -16.929   8.534  1.00  0.00     0.008 C 
ENDBRANCH   5   8
ENDBRANCH   4   5
ENDBRANCH   1   3
BRANCH   1  11
ATOM     11  C   UNL     1      15.857  -9.930   7.077  1.00  0.00     0.002 C 
ATOM     12  C   UNL     1      16.827 -10.196   8.250  1.00  0.00     0.005 C 
ATOM     13  C   UNL     1      15.180  -8.571   7.437  1.00  0.00    -0.026 C 
ATOM     14  C   UNL     1      17.147  -8.822   8.862  1.00  0.00     0.005 C 
ATOM     15  C   UNL     1      16.403  -7.817   7.981  1.00  0.00    -0.001 C 
ATOM     16  C   UNL     1      14.625  -7.772   6.224  1.00  0.00     0.007 C 
ATOM     17  C   UNL     1      14.069  -8.766   8.514  1.00  0.00     0.012 C 
ATOM     18  C   UNL     1      16.070  -6.433   8.603  1.00  0.00     0.000 C 
ATOM     19  C   UNL     1      14.878  -6.238   6.296  1.00  0.00     0.005 C 
ATOM     20  C   UNL     1      14.993  -5.647   7.742  1.00  0.00     0.003 C 
ATOM     21  C   UNL     1      17.388  -5.649   8.863  1.00  0.00     0.031 C 
ATOM     22  C   UNL     1      15.194  -4.072   7.800  1.00  0.00    -0.008 C 
ATOM     23  C   UNL     1      17.635  -4.503   7.927  1.00  0.00    -0.027 C 
ATOM     24  C   UNL     1      16.644  -3.712   7.487  1.00  0.00    -0.065 C 
ATOM     25  C   UNL     1      14.236  -3.330   6.808  1.00  0.00     0.014 C 
ATOM     26  C   UNL     1      14.858  -3.583   9.238  1.00  0.00     0.016 C 
ATOM     27  C   UNL     1      17.024  -2.325   6.993  1.00  0.00     0.063 C 
ATOM     28  C   UNL     1      14.551  -1.838   6.664  1.00  0.00     0.033 C 
ATOM     29  C   UNL     1      15.964  -1.674   6.086  1.00  0.00     0.118 C 
BRANCH  29  30
ATOM     30  O   UNL     1      16.256  -0.316   5.875  1.00  0.00    -0.393 OA
ATOM     31  H   UNL     1      16.122  -0.126   4.906  1.00  0.00     0.210 HD
ENDBRANCH  29  30
ENDBRANCH   1  11
TORSDOF 6
ENDMDL
MODEL 3
REMARK VINA RESULT:    -4.184      2.272      4.361
REMARK INTER + INTRA:          -6.326
REMARK INTER:                  -6.233
REMARK INTRA:                  -0.093
REMARK UNBOUND:                -0.797
REMARK SMILES CC[C@@H](C=C[C@@H](C)[C@@H]1CC[C@@H]2[C@H]3CC=C4C[C@H](O)CC[C@@]4(C)[C@H]3CC[C@]21C)C(C)C
REMARK SMILES IDX 6 1 7 2 5 3 4 4 3 5 2 6 1 7 28 8 29 9 30 10 8 11 9 12 26 13
REMARK SMILES IDX 10 14 11 15 25 16 27 17 12 18 24 19 23 20 13 21 21 22 14 23
REMARK SMILES IDX 15 24 20 25 22 26 16 27 19 28 17 29 18 30
REMARK H PARENT 18 31
REMARK Flexibility Score: inf
ROOT
ATOM      1  C   UNL     1      16.302 -13.999   7.465  1.00  0.00     0.012 C 
ATOM      2  C   UNL     1      17.377 -14.226   6.394  1.00  0.00     0.012 C 
ENDROOT
BRANCH   1   3
ATOM      3  C   UNL     1      15.375 -15.199   7.506  1.00  0.00    -0.028 C 
ATOM      4  C   UNL     1      15.680 -16.327   8.171  1.00  0.00    -0.027 C 
BRANCH   4   5
ATOM      5  C   UNL     1      14.747 -17.534   8.140  1.00  0.00     0.014 C 
BRANCH   5   6
ATOM      6  C   UNL     1      14.958 -18.320   9.462  1.00  0.00     0.004 C 
ATOM      7  C   UNL     1      15.959 -17.689  10.423  1.00  0.00     0.004 C 
ENDBRANCH   5   6
BRANCH   5   8
ATOM      8  C   UNL     1      14.903 -18.451   6.867  1.00  0.00    -0.011 C 
ATOM      9  C   UNL     1      13.846 -19.566   6.726  1.00  0.00     0.008 C 
ATOM     10  C   UNL     1      16.296 -19.116   6.833  1.00  0.00     0.008 C 
ENDBRANCH   5   8
ENDBRANCH   4   5
ENDBRANCH   1   3
BRANCH   1  11
ATOM     11  C   UNL     1      15.626 -12.590   7.313  1.00  0.00     0.002 C 
ATOM     12  C   UNL     1      14.525 -12.517   6.232  1.00  0.00     0.005 C 
ATOM     13  C   UNL     1      16.473 -11.298   7.088  1.00  0.00    -0.026 C 
ATOM     14  C   UNL     1      14.370 -11.029   5.875  1.00  0.00     0.005 C 
ATOM     15  C   UNL     1      15.339 -10.300   6.807  1.00  0.00    -0.001 C 
ATOM     16  C   UNL     1      17.253 -10.798   8.337  1.00  0.00     0.007 C 
ATOM     17  C   UNL     1      17.438 -11.464   5.875  1.00  0.00     0.012 C 
ATOM     18  C   UNL     1      15.828  -8.892   6.369  1.00  0.00     0.000 C 
ATOM     19  C   UNL     1      17.238  -9.253   8.528  1.00  0.00     0.005 C 
ATOM     20  C   UNL     1      17.087  -8.420   7.210  1.00  0.00     0.003 C 
ATOM     21  C   UNL     1      14.631  -7.899   6.382  1.00  0.00     0.031 C 
ATOM     22  C   UNL     1      17.132  -6.845   7.414  1.00  0.00    -0.008 C 
ATOM     23  C   UNL     1      14.652  -6.901   7.503  1.00  0.00    -0.027 C 
ATOM     24  C   UNL     1      15.790  -6.341   7.941  1.00  0.00    -0.065 C 
ATOM     25  C   UNL     1      18.280  -6.420   8.391  1.00  0.00     0.014 C 
ATOM     26  C   UNL     1      17.410  -6.174   6.038  1.00  0.00     0.016 C 
ATOM     27  C   UNL     1      15.678  -5.017   8.680  1.00  0.00     0.063 C 
ATOM     28  C   UNL     1      18.217  -4.944   8.794  1.00  0.00     0.033 C 
ATOM     29  C   UNL     1      16.905  -4.682   9.548  1.00  0.00     0.118 C 
BRANCH  29  30
ATOM     30  O   UNL     1      16.850  -3.350   9.994  1.00  0.00    -0.393 OA
ATOM     31  H   UNL     1      15.924  -3.180  10.321  1.00  0.00     0.210 HD
ENDBRANCH  29  30
ENDBRANCH   1  11
TORSDOF 6
ENDMDL
MODEL 4
REMARK VINA RESULT:    -3.970      2.231      3.353
REMARK INTER + INTRA:          -6.044
REMARK INTER:                  -5.882
REMARK INTRA:                  -0.163
REMARK UNBOUND:                -0.797
REMARK SMILES CC[C@@H](C=C[C@@H](C)[C@@H]1CC[C@@H]2[C@H]3CC=C4C[C@H](O)CC[C@@]4(C)[C@H]3CC[C@]21C)C(C)C
REMARK SMILES IDX 6 1 7 2 5 3 4 4 3 5 2 6 1 7 28 8 29 9 30 10 8 11 9 12 26 13
REMARK SMILES IDX 10 14 11 15 25 16 27 17 12 18 24 19 23 20 13 21 21 22 14 23
REMARK SMILES IDX 15 24 20 25 22 26 16 27 19 28 17 29 18 30
REMARK H PARENT 18 31
REMARK Flexibility Score: inf
ROOT
ATOM      1  C   UNL     1      13.569 -10.507   6.642  1.00  0.00     0.012 C 
ATOM      2  C   UNL     1      13.168 -10.700   8.111  1.00  0.00     0.012 C 
ENDROOT
BRANCH   1   3
ATOM      3  C   UNL     1      13.824 -11.862   6.011  1.00  0.00    -0.028 C 
ATOM      4  C   UNL     1      13.994 -12.979   6.738  1.00  0.00    -0.027 C 
BRANCH   4   5
ATOM      5  C   UNL     1      14.306 -14.313   6.068  1.00  0.00     0.014 C 
BRANCH   5   6
ATOM      6  C   UNL     1      13.206 -15.321   6.499  1.00  0.00     0.004 C 
ATOM      7  C   UNL     1      11.927 -14.677   7.023  1.00  0.00     0.004 C 
ENDBRANCH   5   6
BRANCH   5   8
ATOM      8  C   UNL     1      15.759 -14.861   6.344  1.00  0.00    -0.011 C 
ATOM      9  C   UNL     1      15.898 -15.759   7.591  1.00  0.00     0.008 C 
ATOM     10  C   UNL     1      16.769 -13.702   6.485  1.00  0.00     0.008 C 
ENDBRANCH   5   8
ENDBRANCH   4   5
ENDBRANCH   1   3
BRANCH   1  11
ATOM     11  C   UNL     1      14.705  -9.432   6.493  1.00  0.00     0.002 C 
ATOM     12  C   UNL     1      16.134 -10.014   6.398  1.00  0.00     0.005 C 
ATOM     13  C   UNL     1      14.840  -8.241   7.492  1.00  0.00    -0.026 C 
ATOM     14  C   UNL     1      17.089  -8.872   6.781  1.00  0.00     0.005 C 
ATOM     15  C   UNL     1      16.181  -7.664   7.017  1.00  0.00    -0.001 C 
ATOM     16  C   UNL     1      13.760  -7.133   7.343  1.00  0.00     0.007 C 
ATOM     17  C   UNL     1      14.896  -8.750   8.966  1.00  0.00     0.012 C 
ATOM     18  C   UNL     1      16.733  -6.521   7.913  1.00  0.00     0.000 C 
ATOM     19  C   UNL     1      14.307  -5.682   7.481  1.00  0.00     0.005 C 
ATOM     20  C   UNL     1      15.583  -5.532   8.377  1.00  0.00     0.003 C 
ATOM     21  C   UNL     1      17.931  -5.832   7.197  1.00  0.00     0.031 C 
ATOM     22  C   UNL     1      16.095  -4.038   8.555  1.00  0.00    -0.008 C 
ATOM     23  C   UNL     1      17.639  -4.462   6.659  1.00  0.00    -0.027 C 
ATOM     24  C   UNL     1      16.857  -3.588   7.312  1.00  0.00    -0.065 C 
ATOM     25  C   UNL     1      14.913  -3.052   8.840  1.00  0.00     0.014 C 
ATOM     26  C   UNL     1      17.058  -3.988   9.776  1.00  0.00     0.016 C 
ATOM     27  C   UNL     1      17.031  -2.113   6.983  1.00  0.00     0.063 C 
ATOM     28  C   UNL     1      15.328  -1.578   8.793  1.00  0.00     0.033 C 
ATOM     29  C   UNL     1      15.828  -1.240   7.381  1.00  0.00     0.118 C 
BRANCH  29  30
ATOM     30  O   UNL     1      16.150   0.125   7.285  1.00  0.00    -0.393 OA
ATOM     31  H   UNL     1      17.133   0.192   7.138  1.00  0.00     0.210 HD
ENDBRANCH  29  30
ENDBRANCH   1  11
TORSDOF 6
ENDMDL
MODEL 5
REMARK VINA RESULT:    -3.849      3.474     10.212
REMARK INTER + INTRA:          -5.885
REMARK INTER:                  -6.163
REMARK INTRA:                   0.279
REMARK UNBOUND:                -0.797
REMARK SMILES CC[C@@H](C=C[C@@H](C)[C@@H]1CC[C@@H]2[C@H]3CC=C4C[C@H](O)CC[C@@]4(C)[C@H]3CC[C@]21C)C(C)C
REMARK SMILES IDX 6 1 7 2 5 3 4 4 3 5 2 6 1 7 28 8 29 9 30 10 8 11 9 12 26 13
REMARK SMILES IDX 10 14 11 15 25 16 27 17 12 18 24 19 23 20 13 21 21 22 14 23
REMARK SMILES IDX 15 24 20 25 22 26 16 27 19 28 17 29 18 30
REMARK H PARENT 18 31
REMARK Flexibility Score: inf
ROOT
ATOM      1  C   UNL     1      15.956  -1.458   6.356  1.00  0.00     0.012 C 
ATOM      2  C   UNL     1      17.449  -1.553   6.698  1.00  0.00     0.012 C 
ENDROOT
BRANCH   1   3
ATOM      3  C   UNL     1      15.287  -0.483   7.306  1.00  0.00    -0.028 C 
ATOM      4  C   UNL     1      14.655  -0.881   8.424  1.00  0.00    -0.027 C 
BRANCH   4   5
ATOM      5  C   UNL     1      13.944   0.125   9.324  1.00  0.00     0.014 C 
BRANCH   5   6
ATOM      6  C   UNL     1      14.637   0.080  10.713  1.00  0.00     0.004 C 
ATOM      7  C   UNL     1      16.161   0.124  10.662  1.00  0.00     0.004 C 
ENDBRANCH   5   6
BRANCH   5   8
ATOM      8  C   UNL     1      12.383  -0.077   9.428  1.00  0.00    -0.011 C 
ATOM      9  C   UNL     1      11.875  -0.580  10.796  1.00  0.00     0.008 C 
ATOM     10  C   UNL     1      11.880  -1.060   8.350  1.00  0.00     0.008 C 
ENDBRANCH   5   8
ENDBRANCH   4   5
ENDBRANCH   1   3
BRANCH   1  11
ATOM     11  C   UNL     1      15.303  -2.880   6.227  1.00  0.00     0.002 C 
ATOM     12  C   UNL     1      13.764  -2.873   6.088  1.00  0.00     0.005 C 
ATOM     13  C   UNL     1      15.590  -4.008   7.267  1.00  0.00    -0.026 C 
ATOM     14  C   UNL     1      13.289  -4.276   6.495  1.00  0.00     0.005 C 
ATOM     15  C   UNL     1      14.572  -5.055   6.790  1.00  0.00    -0.001 C 
ATOM     16  C   UNL     1      17.008  -4.641   7.175  1.00  0.00     0.007 C 
ATOM     17  C   UNL     1      15.307  -3.517   8.719  1.00  0.00     0.012 C 
ATOM     18  C   UNL     1      14.457  -6.296   7.718  1.00  0.00     0.000 C 
ATOM     19  C   UNL     1      17.033  -6.187   7.357  1.00  0.00     0.005 C 
ATOM     20  C   UNL     1      15.877  -6.775   8.236  1.00  0.00     0.003 C 
ATOM     21  C   UNL     1      13.621  -7.400   7.008  1.00  0.00     0.031 C 
ATOM     22  C   UNL     1      15.951  -8.346   8.460  1.00  0.00    -0.008 C 
ATOM     23  C   UNL     1      14.414  -8.578   6.524  1.00  0.00    -0.027 C 
ATOM     24  C   UNL     1      15.445  -9.081   7.221  1.00  0.00    -0.065 C 
ATOM     25  C   UNL     1      17.405  -8.816   8.800  1.00  0.00     0.014 C 
ATOM     26  C   UNL     1      15.039  -8.717   9.666  1.00  0.00     0.016 C 
ATOM     27  C   UNL     1      15.839 -10.524   6.943  1.00  0.00     0.063 C 
ATOM     28  C   UNL     1      17.566 -10.339   8.799  1.00  0.00     0.033 C 
ATOM     29  C   UNL     1      17.268 -10.876   7.392  1.00  0.00     0.118 C 
BRANCH  29  30
ATOM     30  O   UNL     1      17.477 -12.266   7.341  1.00  0.00    -0.393 OA
ATOM     31  H   UNL     1      18.227 -12.480   7.961  1.00  0.00     0.210 HD
ENDBRANCH  29  30
ENDBRANCH   1  11
TORSDOF 6
ENDMDL
MODEL 6
REMARK VINA RESULT:    -3.472      1.885      3.574
REMARK INTER + INTRA:          -5.386
REMARK INTER:                  -5.272
REMARK INTRA:                  -0.114
REMARK UNBOUND:                -0.797
REMARK SMILES CC[C@@H](C=C[C@@H](C)[C@@H]1CC[C@@H]2[C@H]3CC=C4C[C@H](O)CC[C@@]4(C)[C@H]3CC[C@]21C)C(C)C
REMARK SMILES IDX 6 1 7 2 5 3 4 4 3 5 2 6 1 7 28 8 29 9 30 10 8 11 9 12 26 13
REMARK SMILES IDX 10 14 11 15 25 16 27 17 12 18 24 19 23 20 13 21 21 22 14 23
REMARK SMILES IDX 15 24 20 25 22 26 16 27 19 28 17 29 18 30
REMARK H PARENT 18 31
REMARK Flexibility Score: inf
ROOT
ATOM      1  C   UNL     1      16.159 -11.426   7.884  1.00  0.00     0.012 C 
ATOM      2  C   UNL     1      17.642 -11.104   8.112  1.00  0.00     0.012 C 
ENDROOT
BRANCH   1   3
ATOM      3  C   UNL     1      16.042 -12.568   6.892  1.00  0.00    -0.028 C 
ATOM      4  C   UNL     1      15.573 -13.779   7.236  1.00  0.00    -0.027 C 
BRANCH   4   5
ATOM      5  C   UNL     1      15.524 -14.920   6.224  1.00  0.00     0.014 C 
BRANCH   5   6
ATOM      6  C   UNL     1      14.031 -15.275   5.992  1.00  0.00     0.004 C 
ATOM      7  C   UNL     1      13.045 -14.416   6.777  1.00  0.00     0.004 C 
ENDBRANCH   5   6
BRANCH   5   8
ATOM      8  C   UNL     1      16.385 -16.181   6.617  1.00  0.00    -0.011 C 
ATOM      9  C   UNL     1      16.160 -16.712   8.048  1.00  0.00     0.008 C 
ATOM     10  C   UNL     1      17.893 -15.894   6.454  1.00  0.00     0.008 C 
ENDBRANCH   5   8
ENDBRANCH   4   5
ENDBRANCH   1   3
BRANCH   1  11
ATOM     11  C   UNL     1      15.331 -10.129   7.568  1.00  0.00     0.002 C 
ATOM     12  C   UNL     1      14.466 -10.211   6.290  1.00  0.00     0.005 C 
ATOM     13  C   UNL     1      16.011  -8.726   7.483  1.00  0.00    -0.026 C 
ATOM     14  C   UNL     1      14.173  -8.761   5.875  1.00  0.00     0.005 C 
ATOM     15  C   UNL     1      14.824  -7.902   6.962  1.00  0.00    -0.001 C 
ATOM     16  C   UNL     1      16.449  -8.125   8.849  1.00  0.00     0.007 C 
ATOM     17  C   UNL     1      17.210  -8.744   6.487  1.00  0.00     0.012 C 
ATOM     18  C   UNL     1      15.182  -6.436   6.594  1.00  0.00     0.000 C 
ATOM     19  C   UNL     1      16.174  -6.600   8.996  1.00  0.00     0.005 C 
ATOM     20  C   UNL     1      16.169  -5.790   7.655  1.00  0.00     0.003 C 
ATOM     21  C   UNL     1      13.875  -5.628   6.349  1.00  0.00     0.031 C 
ATOM     22  C   UNL     1      15.945  -4.226   7.827  1.00  0.00    -0.008 C 
ATOM     23  C   UNL     1      13.531  -4.644   7.428  1.00  0.00    -0.027 C 
ATOM     24  C   UNL     1      14.467  -3.927   8.068  1.00  0.00    -0.065 C 
ATOM     25  C   UNL     1      16.804  -3.644   9.000  1.00  0.00     0.014 C 
ATOM     26  C   UNL     1      16.390  -3.515   6.516  1.00  0.00     0.016 C 
ATOM     27  C   UNL     1      14.022  -2.636   8.739  1.00  0.00     0.063 C 
ATOM     28  C   UNL     1      16.451  -2.195   9.347  1.00  0.00     0.033 C 
ATOM     29  C   UNL     1      14.992  -2.131   9.822  1.00  0.00     0.118 C 
BRANCH  29  30
ATOM     30  O   UNL     1      14.659  -0.824  10.217  1.00  0.00    -0.393 OA
ATOM     31  H   UNL     1      15.507  -0.351  10.440  1.00  0.00     0.210 HD
ENDBRANCH  29  30
ENDBRANCH   1  11
TORSDOF 6
ENDMDL
MODEL 7
REMARK VINA RESULT:    -3.304      5.351     11.237
REMARK INTER + INTRA:          -5.164
REMARK INTER:                  -4.555
REMARK INTRA:                  -0.608
REMARK UNBOUND:                -0.797
REMARK SMILES CC[C@@H](C=C[C@@H](C)[C@@H]1CC[C@@H]2[C@H]3CC=C4C[C@H](O)CC[C@@]4(C)[C@H]3CC[C@]21C)C(C)C
REMARK SMILES IDX 6 1 7 2 5 3 4 4 3 5 2 6 1 7 28 8 29 9 30 10 8 11 9 12 26 13
REMARK SMILES IDX 10 14 11 15 25 16 27 17 12 18 24 19 23 20 13 21 21 22 14 23
REMARK SMILES IDX 15 24 20 25 22 26 16 27 19 28 17 29 18 30
REMARK H PARENT 18 31
REMARK Flexibility Score: inf
ROOT
ATOM      1  C   UNL     1      18.426 -14.437   5.990  1.00  0.00     0.012 C 
ATOM      2  C   UNL     1      19.770 -13.731   6.210  1.00  0.00     0.012 C 
ENDROOT
BRANCH   1   3
ATOM      3  C   UNL     1      17.300 -13.436   6.170  1.00  0.00    -0.028 C 
ATOM      4  C   UNL     1      17.516 -12.165   6.549  1.00  0.00    -0.027 C 
BRANCH   4   5
ATOM      5  C   UNL     1      16.352 -11.205   6.776  1.00  0.00     0.014 C 
BRANCH   5   6
ATOM      6  C   UNL     1      16.845 -10.095   7.744  1.00  0.00     0.004 C 
ATOM      7  C   UNL     1      17.400 -10.610   9.067  1.00  0.00     0.004 C 
ENDBRANCH   5   6
BRANCH   5   8
ATOM      8  C   UNL     1      15.024 -11.891   7.278  1.00  0.00    -0.011 C 
ATOM      9  C   UNL     1      14.305 -12.772   6.236  1.00  0.00     0.008 C 
ATOM     10  C   UNL     1      14.013 -10.837   7.780  1.00  0.00     0.008 C 
ENDBRANCH   5   8
ENDBRANCH   4   5
ENDBRANCH   1   3
BRANCH   1  11
ATOM     11  C   UNL     1      18.331 -15.765   6.822  1.00  0.00     0.002 C 
ATOM     12  C   UNL     1      19.182 -16.932   6.272  1.00  0.00     0.005 C 
ATOM     13  C   UNL     1      16.956 -16.419   7.163  1.00  0.00    -0.026 C 
ATOM     14  C   UNL     1      18.579 -18.218   6.860  1.00  0.00     0.005 C 
ATOM     15  C   UNL     1      17.449 -17.740   7.773  1.00  0.00    -0.001 C 
ATOM     16  C   UNL     1      16.123 -15.673   8.244  1.00  0.00     0.007 C 
ATOM     17  C   UNL     1      16.103 -16.637   5.876  1.00  0.00     0.012 C 
ATOM     18  C   UNL     1      16.315 -18.752   8.096  1.00  0.00     0.000 C 
ATOM     19  C   UNL     1      15.410 -16.608   9.264  1.00  0.00     0.005 C 
ATOM     20  C   UNL     1      15.048 -18.033   8.724  1.00  0.00     0.003 C 
ATOM     21  C   UNL     1      16.888 -19.918   8.952  1.00  0.00     0.031 C 
ATOM     22  C   UNL     1      14.270 -18.955   9.757  1.00  0.00    -0.008 C 
ATOM     23  C   UNL     1      16.473 -19.904  10.394  1.00  0.00    -0.027 C 
ATOM     24  C   UNL     1      15.241 -19.539  10.781  1.00  0.00    -0.065 C 
ATOM     25  C   UNL     1      13.133 -18.168  10.492  1.00  0.00     0.014 C 
ATOM     26  C   UNL     1      13.606 -20.125   8.975  1.00  0.00     0.016 C 
ATOM     27  C   UNL     1      14.757 -20.034  12.135  1.00  0.00     0.063 C 
ATOM     28  C   UNL     1      12.510 -18.948  11.654  1.00  0.00     0.033 C 
ATOM     29  C   UNL     1      13.587 -19.220  12.714  1.00  0.00     0.118 C 
BRANCH  29  30
ATOM     30  O   UNL     1      13.030 -19.872  13.827  1.00  0.00    -0.393 OA
ATOM     31  H   UNL     1      13.774 -20.093  14.451  1.00  0.00     0.210 HD
ENDBRANCH  29  30
ENDBRANCH   1  11
TORSDOF 6
ENDMDL
MODEL 8
REMARK VINA RESULT:    -3.159      3.216      9.954
REMARK INTER + INTRA:          -4.972
REMARK INTER:                  -4.637
REMARK INTRA:                  -0.335
REMARK UNBOUND:                -0.797
REMARK SMILES CC[C@@H](C=C[C@@H](C)[C@@H]1CC[C@@H]2[C@H]3CC=C4C[C@H](O)CC[C@@]4(C)[C@H]3CC[C@]21C)C(C)C
REMARK SMILES IDX 6 1 7 2 5 3 4 4 3 5 2 6 1 7 28 8 29 9 30 10 8 11 9 12 26 13
REMARK SMILES IDX 10 14 11 15 25 16 27 17 12 18 24 19 23 20 13 21 21 22 14 23
REMARK SMILES IDX 15 24 20 25 22 26 16 27 19 28 17 29 18 30
REMARK H PARENT 18 31
REMARK Flexibility Score: inf
ROOT
ATOM      1  C   UNL     1      15.495  -3.538   6.280  1.00  0.00     0.012 C 
ATOM      2  C   UNL     1      16.992  -3.463   6.608  1.00  0.00     0.012 C 
ENDROOT
BRANCH   1   3
ATOM      3  C   UNL     1      14.777  -2.382   6.949  1.00  0.00    -0.028 C 
ATOM      4  C   UNL     1      15.307  -1.700   7.978  1.00  0.00    -0.027 C 
BRANCH   4   5
ATOM      5  C   UNL     1      14.529  -0.580   8.663  1.00  0.00     0.014 C 
BRANCH   5   6
ATOM      6  C   UNL     1      15.494   0.116   9.661  1.00  0.00     0.004 C 
ATOM      7  C   UNL     1      16.811  -0.618   9.886  1.00  0.00     0.004 C 
ENDBRANCH   5   6
BRANCH   5   8
ATOM      8  C   UNL     1      13.186  -1.040   9.350  1.00  0.00    -0.011 C 
ATOM      9  C   UNL     1      11.940  -1.016   8.440  1.00  0.00     0.008 C 
ATOM     10  C   UNL     1      12.877  -0.177  10.592  1.00  0.00     0.008 C 
ENDBRANCH   5   8
ENDBRANCH   4   5
ENDBRANCH   1   3
BRANCH   1  11
ATOM     11  C   UNL     1      14.920  -4.976   6.545  1.00  0.00     0.002 C 
ATOM     12  C   UNL     1      13.619  -5.005   7.378  1.00  0.00     0.005 C 
ATOM     13  C   UNL     1      15.800  -6.106   7.164  1.00  0.00    -0.026 C 
ATOM     14  C   UNL     1      13.512  -6.425   7.958  1.00  0.00     0.005 C 
ATOM     15  C   UNL     1      14.718  -7.174   7.387  1.00  0.00    -0.001 C 
ATOM     16  C   UNL     1      16.872  -6.702   6.209  1.00  0.00     0.007 C 
ATOM     17  C   UNL     1      16.460  -5.636   8.497  1.00  0.00     0.012 C 
ATOM     18  C   UNL     1      15.212  -8.426   8.162  1.00  0.00     0.000 C 
ATOM     19  C   UNL     1      17.025  -8.249   6.301  1.00  0.00     0.005 C 
ATOM     20  C   UNL     1      16.659  -8.874   7.690  1.00  0.00     0.003 C 
ATOM     21  C   UNL     1      14.132  -9.543   8.087  1.00  0.00     0.031 C 
ATOM     22  C   UNL     1      16.876 -10.445   7.786  1.00  0.00    -0.008 C 
ATOM     23  C   UNL     1      14.478 -10.697   7.192  1.00  0.00    -0.027 C 
ATOM     24  C   UNL     1      15.727 -11.181   7.100  1.00  0.00    -0.065 C 
ATOM     25  C   UNL     1      18.240 -10.881   7.152  1.00  0.00     0.014 C 
ATOM     26  C   UNL     1      16.900 -10.851   9.288  1.00  0.00     0.016 C 
ATOM     27  C   UNL     1      15.887 -12.610   6.605  1.00  0.00     0.063 C 
ATOM     28  C   UNL     1      18.387 -12.400   7.018  1.00  0.00     0.033 C 
ATOM     29  C   UNL     1      17.297 -12.931   6.076  1.00  0.00     0.118 C 
BRANCH  29  30
ATOM     30  O   UNL     1      17.450 -14.314   5.875  1.00  0.00    -0.393 OA
ATOM     31  H   UNL     1      17.740 -14.451   4.932  1.00  0.00     0.210 HD
ENDBRANCH  29  30
ENDBRANCH   1  11
TORSDOF 6
ENDMDL
