MODEL 1
REMARK VINA RESULT:    -3.276      0.000      0.000
REMARK INTER + INTRA:         -11.488
REMARK INTER:                  -7.107
REMARK INTRA:                  -4.381
REMARK UNBOUND:                -4.381
REMARK SMILES CCCCCCCCCCCCCCCCCCCCCC(=O)[O-]
REMARK SMILES IDX 12 1 11 2 10 3 9 4 8 5 7 6 6 7 5 8 4 9 3 10 2 11 1 12 13 13
REMARK SMILES IDX 14 14 15 15 16 16 17 17 18 18 19 19 20 20 21 21 22 22 23 23
REMARK SMILES IDX 24 24
REMARK H PARENT
REMARK Flexibility Score: inf
ROOT
ATOM      1  C   UNL     1     118.886  53.759  54.749  1.00  0.00     0.000 C 
ENDROOT
BRANCH   1   2
ATOM      2  C   UNL     1     120.099  53.914  55.684  1.00  0.00     0.000 C 
BRANCH   2   3
ATOM      3  C   UNL     1     120.978  52.653  55.737  1.00  0.00     0.000 C 
BRANCH   3   4
ATOM      4  C   UNL     1     122.406  52.905  55.223  1.00  0.00    -0.000 C 
BRANCH   4   5
ATOM      5  C   UNL     1     122.600  54.339  54.701  1.00  0.00    -0.000 C 
BRANCH   5   6
ATOM      6  C   UNL     1     122.932  54.379  53.201  1.00  0.00    -0.000 C 
BRANCH   6   7
ATOM      7  C   UNL     1     121.680  54.494  52.316  1.00  0.00    -0.000 C 
BRANCH   7   8
ATOM      8  C   UNL     1     121.684  53.483  51.158  1.00  0.00    -0.000 C 
BRANCH   8   9
ATOM      9  C   UNL     1     122.069  52.066  51.615  1.00  0.00    -0.000 C 
BRANCH   9  10
ATOM     10  C   UNL     1     121.004  51.019  51.254  1.00  0.00    -0.000 C 
BRANCH  10  11
ATOM     11  C   UNL     1     119.908  51.584  50.339  1.00  0.00    -0.003 C 
ATOM     12  C   UNL     1     118.642  50.733  50.406  1.00  0.00     0.004 C 
ENDBRANCH  10  11
ENDBRANCH   9  10
ENDBRANCH   8   9
ENDBRANCH   7   8
ENDBRANCH   6   7
ENDBRANCH   5   6
ENDBRANCH   4   5
ENDBRANCH   3   4
ENDBRANCH   2   3
ENDBRANCH   1   2
BRANCH   1  13
ATOM     13  C   UNL     1     118.964  52.518  53.835  1.00  0.00     0.000 C 
BRANCH  13  14
ATOM     14  C   UNL     1     117.694  51.651  53.921  1.00  0.00     0.000 C 
BRANCH  14  15
ATOM     15  C   UNL     1     116.525  52.381  54.603  1.00  0.00     0.000 C 
BRANCH  15  16
ATOM     16  C   UNL     1     115.432  52.804  53.605  1.00  0.00     0.000 C 
BRANCH  16  17
ATOM     17  C   UNL     1     115.437  51.943  52.331  1.00  0.00     0.000 C 
BRANCH  17  18
ATOM     18  C   UNL     1     115.607  52.781  51.053  1.00  0.00     0.000 C 
BRANCH  18  19
ATOM     19  C   UNL     1     116.137  54.200  51.333  1.00  0.00     0.000 C 
BRANCH  19  20
ATOM     20  C   UNL     1     117.628  54.416  51.004  1.00  0.00     0.006 C 
BRANCH  20  21
ATOM     21  C   UNL     1     118.244  55.679  51.626  1.00  0.00     0.053 C 
BRANCH  21  22
ATOM     22  C   UNL     1     118.952  56.517  50.606  1.00  0.00     0.041 C 
ATOM     23  O   UNL     1     119.882  57.291  50.956  1.00  0.00    -0.550 OA
ATOM     24  O   UNL     1     118.561  56.467  49.274  1.00  0.00    -0.550 OA
ENDBRANCH  21  22
ENDBRANCH  20  21
ENDBRANCH  19  20
ENDBRANCH  18  19
ENDBRANCH  17  18
ENDBRANCH  16  17
ENDBRANCH  15  16
ENDBRANCH  14  15
ENDBRANCH  13  14
ENDBRANCH   1  13
TORSDOF 20
ENDMDL
MODEL 2
REMARK VINA RESULT:    -3.178      2.887      5.467
REMARK INTER + INTRA:         -11.274
REMARK INTER:                  -7.026
REMARK INTRA:                  -4.248
REMARK UNBOUND:                -4.381
REMARK SMILES CCCCCCCCCCCCCCCCCCCCCC(=O)[O-]
REMARK SMILES IDX 12 1 11 2 10 3 9 4 8 5 7 6 6 7 5 8 4 9 3 10 2 11 1 12 13 13
REMARK SMILES IDX 14 14 15 15 16 16 17 17 18 18 19 19 20 20 21 21 22 22 23 23
REMARK SMILES IDX 24 24
REMARK H PARENT
REMARK Flexibility Score: inf
ROOT
ATOM      1  C   UNL     1     117.171  51.753  50.406  1.00  0.00     0.000 C 
ENDROOT
BRANCH   1   2
ATOM      2  C   UNL     1     115.843  51.792  51.183  1.00  0.00     0.000 C 
BRANCH   2   3
ATOM      3  C   UNL     1     115.519  53.187  51.743  1.00  0.00     0.000 C 
BRANCH   3   4
ATOM      4  C   UNL     1     115.213  53.164  53.250  1.00  0.00    -0.000 C 
BRANCH   4   5
ATOM      5  C   UNL     1     116.022  52.090  53.998  1.00  0.00    -0.000 C 
BRANCH   5   6
ATOM      6  C   UNL     1     117.330  52.642  54.585  1.00  0.00    -0.000 C 
BRANCH   6   7
ATOM      7  C   UNL     1     118.580  51.978  53.983  1.00  0.00    -0.000 C 
BRANCH   7   8
ATOM      8  C   UNL     1     119.387  52.941  53.096  1.00  0.00    -0.000 C 
BRANCH   8   9
ATOM      9  C   UNL     1     118.831  54.375  53.128  1.00  0.00    -0.000 C 
BRANCH   9  10
ATOM     10  C   UNL     1     119.219  55.187  51.883  1.00  0.00    -0.000 C 
BRANCH  10  11
ATOM     11  C   UNL     1     118.009  55.851  51.211  1.00  0.00    -0.003 C 
ATOM     12  C   UNL     1     117.826  55.346  49.782  1.00  0.00     0.004 C 
ENDBRANCH  10  11
ENDBRANCH   9  10
ENDBRANCH   8   9
ENDBRANCH   7   8
ENDBRANCH   6   7
ENDBRANCH   5   6
ENDBRANCH   4   5
ENDBRANCH   3   4
ENDBRANCH   2   3
ENDBRANCH   1   2
BRANCH   1  13
ATOM     13  C   UNL     1     117.956  50.436  50.588  1.00  0.00     0.000 C 
BRANCH  13  14
ATOM     14  C   UNL     1     117.289  49.498  51.611  1.00  0.00     0.000 C 
BRANCH  14  15
ATOM     15  C   UNL     1     116.738  48.215  50.968  1.00  0.00     0.000 C 
BRANCH  15  16
ATOM     16  C   UNL     1     115.223  48.050  51.183  1.00  0.00     0.000 C 
BRANCH  16  17
ATOM     17  C   UNL     1     114.403  48.565  49.989  1.00  0.00     0.000 C 
BRANCH  17  18
ATOM     18  C   UNL     1     115.220  48.605  48.686  1.00  0.00     0.000 C 
BRANCH  18  19
ATOM     19  C   UNL     1     114.535  49.424  47.576  1.00  0.00     0.000 C 
BRANCH  19  20
ATOM     20  C   UNL     1     114.237  50.893  47.939  1.00  0.00     0.006 C 
BRANCH  20  21
ATOM     21  C   UNL     1     115.254  51.906  47.390  1.00  0.00     0.053 C 
BRANCH  21  22
ATOM     22  C   UNL     1     114.853  53.318  47.689  1.00  0.00     0.041 C 
ATOM     23  O   UNL     1     114.017  53.561  48.598  1.00  0.00    -0.550 OA
ATOM     24  O   UNL     1     115.379  54.363  46.939  1.00  0.00    -0.550 OA
ENDBRANCH  21  22
ENDBRANCH  20  21
ENDBRANCH  19  20
ENDBRANCH  18  19
ENDBRANCH  17  18
ENDBRANCH  16  17
ENDBRANCH  15  16
ENDBRANCH  14  15
ENDBRANCH  13  14
ENDBRANCH   1  13
TORSDOF 20
ENDMDL
MODEL 3
REMARK VINA RESULT:    -3.126      7.036      9.892
REMARK INTER + INTRA:         -11.162
REMARK INTER:                  -8.141
REMARK INTRA:                  -3.021
REMARK UNBOUND:                -4.381
REMARK SMILES CCCCCCCCCCCCCCCCCCCCCC(=O)[O-]
REMARK SMILES IDX 12 1 11 2 10 3 9 4 8 5 7 6 6 7 5 8 4 9 3 10 2 11 1 12 13 13
REMARK SMILES IDX 14 14 15 15 16 16 17 17 18 18 19 19 20 20 21 21 22 22 23 23
REMARK SMILES IDX 24 24
REMARK H PARENT
REMARK Flexibility Score: inf
ROOT
ATOM      1  C   UNL     1     124.995  55.991  43.836  1.00  0.00     0.000 C 
ENDROOT
BRANCH   1   2
ATOM      2  C   UNL     1     126.088  55.301  43.001  1.00  0.00     0.000 C 
BRANCH   2   3
ATOM      3  C   UNL     1     126.466  53.912  43.540  1.00  0.00     0.000 C 
BRANCH   3   4
ATOM      4  C   UNL     1     126.239  53.783  45.056  1.00  0.00    -0.000 C 
BRANCH   4   5
ATOM      5  C   UNL     1     125.777  52.373  45.464  1.00  0.00    -0.000 C 
BRANCH   5   6
ATOM      6  C   UNL     1     124.360  52.368  46.059  1.00  0.00    -0.000 C 
BRANCH   6   7
ATOM      7  C   UNL     1     123.301  51.850  45.071  1.00  0.00    -0.000 C 
BRANCH   7   8
ATOM      8  C   UNL     1     122.817  52.942  44.103  1.00  0.00    -0.000 C 
BRANCH   8   9
ATOM      9  C   UNL     1     122.870  52.490  42.633  1.00  0.00    -0.000 C 
BRANCH   9  10
ATOM     10  C   UNL     1     124.011  51.497  42.361  1.00  0.00    -0.000 C 
BRANCH  10  11
ATOM     11  C   UNL     1     123.530  50.227  41.646  1.00  0.00    -0.003 C 
ATOM     12  C   UNL     1     122.764  50.571  40.370  1.00  0.00     0.004 C 
ENDBRANCH  10  11
ENDBRANCH   9  10
ENDBRANCH   8   9
ENDBRANCH   7   8
ENDBRANCH   6   7
ENDBRANCH   5   6
ENDBRANCH   4   5
ENDBRANCH   3   4
ENDBRANCH   2   3
ENDBRANCH   1   2
BRANCH   1  13
ATOM     13  C   UNL     1     125.198  57.514  43.985  1.00  0.00     0.000 C 
BRANCH  13  14
ATOM     14  C   UNL     1     124.191  58.141  44.966  1.00  0.00     0.000 C 
BRANCH  14  15
ATOM     15  C   UNL     1     122.967  57.244  45.213  1.00  0.00     0.000 C 
BRANCH  15  16
ATOM     16  C   UNL     1     122.621  57.118  46.708  1.00  0.00     0.000 C 
BRANCH  16  17
ATOM     17  C   UNL     1     123.039  55.759  47.292  1.00  0.00     0.000 C 
BRANCH  17  18
ATOM     18  C   UNL     1     124.519  55.727  47.711  1.00  0.00     0.000 C 
BRANCH  18  19
ATOM     19  C   UNL     1     124.710  55.818  49.237  1.00  0.00     0.000 C 
BRANCH  19  20
ATOM     20  C   UNL     1     123.405  55.915  50.054  1.00  0.00     0.006 C 
BRANCH  20  21
ATOM     21  C   UNL     1     123.177  57.274  50.735  1.00  0.00     0.053 C 
BRANCH  21  22
ATOM     22  C   UNL     1     124.096  57.477  51.900  1.00  0.00     0.041 C 
ATOM     23  O   UNL     1     124.195  56.592  52.791  1.00  0.00    -0.550 OA
ATOM     24  O   UNL     1     124.817  58.658  52.018  1.00  0.00    -0.550 OA
ENDBRANCH  21  22
ENDBRANCH  20  21
ENDBRANCH  19  20
ENDBRANCH  18  19
ENDBRANCH  17  18
ENDBRANCH  16  17
ENDBRANCH  15  16
ENDBRANCH  14  15
ENDBRANCH  13  14
ENDBRANCH   1  13
TORSDOF 20
ENDMDL
MODEL 4
REMARK VINA RESULT:    -3.078      2.299      5.251
REMARK INTER + INTRA:         -11.058
REMARK INTER:                  -6.837
REMARK INTRA:                  -4.221
REMARK UNBOUND:                -4.381
REMARK SMILES CCCCCCCCCCCCCCCCCCCCCC(=O)[O-]
REMARK SMILES IDX 12 1 11 2 10 3 9 4 8 5 7 6 6 7 5 8 4 9 3 10 2 11 1 12 13 13
REMARK SMILES IDX 14 14 15 15 16 16 17 17 18 18 19 19 20 20 21 21 22 22 23 23
REMARK SMILES IDX 24 24
REMARK H PARENT
REMARK Flexibility Score: inf
ROOT
ATOM      1  C   UNL     1     116.399  53.070  50.505  1.00  0.00     0.000 C 
ENDROOT
BRANCH   1   2
ATOM      2  C   UNL     1     116.949  51.636  50.419  1.00  0.00     0.000 C 
BRANCH   2   3
ATOM      3  C   UNL     1     118.486  51.585  50.405  1.00  0.00     0.000 C 
BRANCH   3   4
ATOM      4  C   UNL     1     119.045  50.358  51.144  1.00  0.00    -0.000 C 
BRANCH   4   5
ATOM      5  C   UNL     1     117.964  49.609  51.943  1.00  0.00    -0.000 C 
BRANCH   5   6
ATOM      6  C   UNL     1     117.863  48.127  51.551  1.00  0.00    -0.000 C 
BRANCH   6   7
ATOM      7  C   UNL     1     116.648  47.829  50.655  1.00  0.00    -0.000 C 
BRANCH   7   8
ATOM      8  C   UNL     1     115.346  48.421  51.217  1.00  0.00    -0.000 C 
BRANCH   8   9
ATOM      9  C   UNL     1     114.422  48.963  50.112  1.00  0.00    -0.000 C 
BRANCH   9  10
ATOM     10  C   UNL     1     115.076  48.922  48.722  1.00  0.00    -0.000 C 
BRANCH  10  11
ATOM     11  C   UNL     1     114.400  49.872  47.724  1.00  0.00    -0.003 C 
ATOM     12  C   UNL     1     113.906  51.139  48.418  1.00  0.00     0.004 C 
ENDBRANCH  10  11
ENDBRANCH   9  10
ENDBRANCH   8   9
ENDBRANCH   7   8
ENDBRANCH   6   7
ENDBRANCH   5   6
ENDBRANCH   4   5
ENDBRANCH   3   4
ENDBRANCH   2   3
ENDBRANCH   1   2
BRANCH   1  13
ATOM     13  C   UNL     1     115.586  53.345  51.788  1.00  0.00     0.000 C 
BRANCH  13  14
ATOM     14  C   UNL     1     115.267  52.053  52.562  1.00  0.00     0.000 C 
BRANCH  14  15
ATOM     15  C   UNL     1     115.918  52.021  53.955  1.00  0.00     0.000 C 
BRANCH  15  16
ATOM     16  C   UNL     1     117.000  53.102  54.125  1.00  0.00     0.000 C 
BRANCH  16  17
ATOM     17  C   UNL     1     118.421  52.518  54.087  1.00  0.00     0.000 C 
BRANCH  17  18
ATOM     18  C   UNL     1     119.483  53.570  53.724  1.00  0.00     0.000 C 
BRANCH  18  19
ATOM     19  C   UNL     1     118.936  54.679  52.806  1.00  0.00     0.000 C 
BRANCH  19  20
ATOM     20  C   UNL     1     119.736  54.902  51.505  1.00  0.00     0.006 C 
BRANCH  20  21
ATOM     21  C   UNL     1     118.974  55.666  50.410  1.00  0.00     0.053 C 
BRANCH  21  22
ATOM     22  C   UNL     1     119.659  56.946  50.042  1.00  0.00     0.041 C 
ATOM     23  O   UNL     1     120.325  57.580  50.903  1.00  0.00    -0.550 OA
ATOM     24  O   UNL     1     119.534  57.456  48.756  1.00  0.00    -0.550 OA
ENDBRANCH  21  22
ENDBRANCH  20  21
ENDBRANCH  19  20
ENDBRANCH  18  19
ENDBRANCH  17  18
ENDBRANCH  16  17
ENDBRANCH  15  16
ENDBRANCH  14  15
ENDBRANCH  13  14
ENDBRANCH   1  13
TORSDOF 20
ENDMDL
MODEL 5
REMARK VINA RESULT:    -3.065      7.679     10.700
REMARK INTER + INTRA:         -11.030
REMARK INTER:                  -7.125
REMARK INTRA:                  -3.905
REMARK UNBOUND:                -4.381
REMARK SMILES CCCCCCCCCCCCCCCCCCCCCC(=O)[O-]
REMARK SMILES IDX 12 1 11 2 10 3 9 4 8 5 7 6 6 7 5 8 4 9 3 10 2 11 1 12 13 13
REMARK SMILES IDX 14 14 15 15 16 16 17 17 18 18 19 19 20 20 21 21 22 22 23 23
REMARK SMILES IDX 24 24
REMARK H PARENT
REMARK Flexibility Score: inf
ROOT
ATOM      1  C   UNL     1     124.454  52.001  44.737  1.00  0.00     0.000 C 
ENDROOT
BRANCH   1   2
ATOM      2  C   UNL     1     123.044  52.216  45.314  1.00  0.00     0.000 C 
BRANCH   2   3
ATOM      3  C   UNL     1     122.198  53.190  44.477  1.00  0.00     0.000 C 
BRANCH   3   4
ATOM      4  C   UNL     1     122.517  53.112  42.975  1.00  0.00    -0.000 C 
BRANCH   4   5
ATOM      5  C   UNL     1     121.869  51.892  42.298  1.00  0.00    -0.000 C 
BRANCH   5   6
ATOM      6  C   UNL     1     122.776  51.261  41.231  1.00  0.00    -0.000 C 
BRANCH   6   7
ATOM      7  C   UNL     1     122.909  49.736  41.388  1.00  0.00    -0.000 C 
BRANCH   7   8
ATOM      8  C   UNL     1     123.766  49.343  42.602  1.00  0.00    -0.000 C 
BRANCH   8   9
ATOM      9  C   UNL     1     123.007  48.442  43.591  1.00  0.00    -0.000 C 
BRANCH   9  10
ATOM     10  C   UNL     1     123.653  48.419  44.985  1.00  0.00    -0.000 C 
BRANCH  10  11
ATOM     11  C   UNL     1     125.141  48.046  44.940  1.00  0.00    -0.003 C 
ATOM     12  C   UNL     1     125.939  48.840  45.971  1.00  0.00     0.004 C 
ENDBRANCH  10  11
ENDBRANCH   9  10
ENDBRANCH   8   9
ENDBRANCH   7   8
ENDBRANCH   6   7
ENDBRANCH   5   6
ENDBRANCH   4   5
ENDBRANCH   3   4
ENDBRANCH   2   3
ENDBRANCH   1   2
BRANCH   1  13
ATOM     13  C   UNL     1     125.579  52.592  45.614  1.00  0.00     0.000 C 
BRANCH  13  14
ATOM     14  C   UNL     1     126.306  53.757  44.919  1.00  0.00     0.000 C 
BRANCH  14  15
ATOM     15  C   UNL     1     126.221  53.679  43.386  1.00  0.00     0.000 C 
BRANCH  15  16
ATOM     16  C   UNL     1     125.792  55.014  42.750  1.00  0.00     0.000 C 
BRANCH  16  17
ATOM     17  C   UNL     1     125.396  56.062  43.802  1.00  0.00     0.000 C 
BRANCH  17  18
ATOM     18  C   UNL     1     123.897  56.404  43.760  1.00  0.00     0.000 C 
BRANCH  18  19
ATOM     19  C   UNL     1     123.314  56.714  45.151  1.00  0.00     0.000 C 
BRANCH  19  20
ATOM     20  C   UNL     1     124.285  56.492  46.330  1.00  0.00     0.006 C 
BRANCH  20  21
ATOM     21  C   UNL     1     123.858  55.386  47.309  1.00  0.00     0.053 C 
BRANCH  21  22
ATOM     22  C   UNL     1     124.773  55.304  48.492  1.00  0.00     0.041 C 
ATOM     23  O   UNL     1     125.714  54.468  48.510  1.00  0.00    -0.550 OA
ATOM     24  O   UNL     1     124.565  56.130  49.589  1.00  0.00    -0.550 OA
ENDBRANCH  21  22
ENDBRANCH  20  21
ENDBRANCH  19  20
ENDBRANCH  18  19
ENDBRANCH  17  18
ENDBRANCH  16  17
ENDBRANCH  15  16
ENDBRANCH  14  15
ENDBRANCH  13  14
ENDBRANCH   1  13
TORSDOF 20
ENDMDL
MODEL 6
REMARK VINA RESULT:    -3.061      2.041      5.787
REMARK INTER + INTRA:         -11.020
REMARK INTER:                  -7.321
REMARK INTRA:                  -3.699
REMARK UNBOUND:                -4.381
REMARK SMILES CCCCCCCCCCCCCCCCCCCCCC(=O)[O-]
REMARK SMILES IDX 12 1 11 2 10 3 9 4 8 5 7 6 6 7 5 8 4 9 3 10 2 11 1 12 13 13
REMARK SMILES IDX 14 14 15 15 16 16 17 17 18 18 19 19 20 20 21 21 22 22 23 23
REMARK SMILES IDX 24 24
REMARK H PARENT
REMARK Flexibility Score: inf
ROOT
ATOM      1  C   UNL     1     120.097  54.079  51.696  1.00  0.00     0.000 C 
ENDROOT
BRANCH   1   2
ATOM      2  C   UNL     1     119.150  54.845  52.636  1.00  0.00     0.000 C 
BRANCH   2   3
ATOM      3  C   UNL     1     118.584  56.126  52.001  1.00  0.00     0.000 C 
BRANCH   3   4
ATOM      4  C   UNL     1     118.658  56.108  50.465  1.00  0.00    -0.000 C 
BRANCH   4   5
ATOM      5  C   UNL     1     117.323  56.496  49.807  1.00  0.00    -0.000 C 
BRANCH   5   6
ATOM      6  C   UNL     1     116.471  55.271  49.440  1.00  0.00    -0.000 C 
BRANCH   6   7
ATOM      7  C   UNL     1     117.301  53.981  49.322  1.00  0.00    -0.000 C 
BRANCH   7   8
ATOM      8  C   UNL     1     116.764  52.853  50.217  1.00  0.00    -0.000 C 
BRANCH   8   9
ATOM      9  C   UNL     1     115.541  53.289  51.042  1.00  0.00    -0.000 C 
BRANCH   9  10
ATOM     10  C   UNL     1     115.880  53.519  52.523  1.00  0.00    -0.000 C 
BRANCH  10  11
ATOM     11  C   UNL     1     115.625  52.275  53.386  1.00  0.00    -0.003 C 
ATOM     12  C   UNL     1     116.355  52.374  54.724  1.00  0.00     0.004 C 
ENDBRANCH  10  11
ENDBRANCH   9  10
ENDBRANCH   8   9
ENDBRANCH   7   8
ENDBRANCH   6   7
ENDBRANCH   5   6
ENDBRANCH   4   5
ENDBRANCH   3   4
ENDBRANCH   2   3
ENDBRANCH   1   2
BRANCH   1  13
ATOM     13  C   UNL     1     120.192  52.570  52.009  1.00  0.00     0.000 C 
BRANCH  13  14
ATOM     14  C   UNL     1     119.429  52.193  53.292  1.00  0.00     0.000 C 
BRANCH  14  15
ATOM     15  C   UNL     1     120.368  51.847  54.460  1.00  0.00     0.000 C 
BRANCH  15  16
ATOM     16  C   UNL     1     120.582  53.034  55.416  1.00  0.00     0.000 C 
BRANCH  16  17
ATOM     17  C   UNL     1     122.072  53.332  55.653  1.00  0.00     0.000 C 
BRANCH  17  18
ATOM     18  C   UNL     1     122.668  54.253  54.575  1.00  0.00     0.000 C 
BRANCH  18  19
ATOM     19  C   UNL     1     123.503  53.490  53.531  1.00  0.00     0.000 C 
BRANCH  19  20
ATOM     20  C   UNL     1     123.858  54.295  52.264  1.00  0.00     0.006 C 
BRANCH  20  21
ATOM     21  C   UNL     1     123.239  55.701  52.206  1.00  0.00     0.053 C 
BRANCH  21  22
ATOM     22  C   UNL     1     124.281  56.765  52.053  1.00  0.00     0.041 C 
ATOM     23  O   UNL     1     125.501  56.456  52.002  1.00  0.00    -0.550 OA
ATOM     24  O   UNL     1     123.907  58.102  52.000  1.00  0.00    -0.550 OA
ENDBRANCH  21  22
ENDBRANCH  20  21
ENDBRANCH  19  20
ENDBRANCH  18  19
ENDBRANCH  17  18
ENDBRANCH  16  17
ENDBRANCH  15  16
ENDBRANCH  14  15
ENDBRANCH  13  14
ENDBRANCH   1  13
TORSDOF 20
ENDMDL
MODEL 7
REMARK VINA RESULT:    -3.046      2.901      5.254
REMARK INTER + INTRA:         -10.989
REMARK INTER:                  -6.909
REMARK INTRA:                  -4.080
REMARK UNBOUND:                -4.381
REMARK SMILES CCCCCCCCCCCCCCCCCCCCCC(=O)[O-]
REMARK SMILES IDX 12 1 11 2 10 3 9 4 8 5 7 6 6 7 5 8 4 9 3 10 2 11 1 12 13 13
REMARK SMILES IDX 14 14 15 15 16 16 17 17 18 18 19 19 20 20 21 21 22 22 23 23
REMARK SMILES IDX 24 24
REMARK H PARENT
REMARK Flexibility Score: inf
ROOT
ATOM      1  C   UNL     1     119.287  50.695  51.480  1.00  0.00     0.000 C 
ENDROOT
BRANCH   1   2
ATOM      2  C   UNL     1     119.669  51.760  52.522  1.00  0.00     0.000 C 
BRANCH   2   3
ATOM      3  C   UNL     1     118.880  51.623  53.835  1.00  0.00     0.000 C 
BRANCH   3   4
ATOM      4  C   UNL     1     118.451  52.982  54.413  1.00  0.00    -0.000 C 
BRANCH   4   5
ATOM      5  C   UNL     1     116.924  53.169  54.408  1.00  0.00    -0.000 C 
BRANCH   5   6
ATOM      6  C   UNL     1     116.176  51.894  53.989  1.00  0.00    -0.000 C 
BRANCH   6   7
ATOM      7  C   UNL     1     115.247  52.118  52.783  1.00  0.00    -0.000 C 
BRANCH   7   8
ATOM      8  C   UNL     1     115.614  53.380  51.986  1.00  0.00    -0.000 C 
BRANCH   8   9
ATOM      9  C   UNL     1     116.392  53.057  50.699  1.00  0.00    -0.000 C 
BRANCH   9  10
ATOM     10  C   UNL     1     117.660  53.912  50.546  1.00  0.00    -0.000 C 
BRANCH  10  11
ATOM     11  C   UNL     1     117.594  55.216  51.352  1.00  0.00    -0.003 C 
ATOM     12  C   UNL     1     118.982  55.646  51.819  1.00  0.00     0.004 C 
ENDBRANCH  10  11
ENDBRANCH   9  10
ENDBRANCH   8   9
ENDBRANCH   7   8
ENDBRANCH   6   7
ENDBRANCH   5   6
ENDBRANCH   4   5
ENDBRANCH   3   4
ENDBRANCH   2   3
ENDBRANCH   1   2
BRANCH   1  13
ATOM     13  C   UNL     1     118.286  49.644  52.007  1.00  0.00     0.000 C 
BRANCH  13  14
ATOM     14  C   UNL     1     117.096  49.444  51.051  1.00  0.00     0.000 C 
BRANCH  14  15
ATOM     15  C   UNL     1     116.372  48.106  51.277  1.00  0.00     0.000 C 
BRANCH  15  16
ATOM     16  C   UNL     1     114.950  48.099  50.688  1.00  0.00     0.000 C 
BRANCH  16  17
ATOM     17  C   UNL     1     114.519  49.485  50.183  1.00  0.00     0.000 C 
BRANCH  17  18
ATOM     18  C   UNL     1     114.464  49.562  48.647  1.00  0.00     0.000 C 
BRANCH  18  19
ATOM     19  C   UNL     1     114.879  50.941  48.102  1.00  0.00     0.000 C 
BRANCH  19  20
ATOM     20  C   UNL     1     113.834  52.060  48.292  1.00  0.00     0.006 C 
BRANCH  20  21
ATOM     21  C   UNL     1     114.191  53.391  47.611  1.00  0.00     0.053 C 
BRANCH  21  22
ATOM     22  C   UNL     1     113.440  54.542  48.206  1.00  0.00     0.041 C 
ATOM     23  O   UNL     1     113.765  54.996  49.335  1.00  0.00    -0.550 OA
ATOM     24  O   UNL     1     112.359  55.091  47.528  1.00  0.00    -0.550 OA
ENDBRANCH  21  22
ENDBRANCH  20  21
ENDBRANCH  19  20
ENDBRANCH  18  19
ENDBRANCH  17  18
ENDBRANCH  16  17
ENDBRANCH  15  16
ENDBRANCH  14  15
ENDBRANCH  13  14
ENDBRANCH   1  13
TORSDOF 20
ENDMDL
MODEL 8
REMARK VINA RESULT:    -3.036      1.958      5.788
REMARK INTER + INTRA:         -10.966
REMARK INTER:                  -7.645
REMARK INTRA:                  -3.320
REMARK UNBOUND:                -4.381
REMARK SMILES CCCCCCCCCCCCCCCCCCCCCC(=O)[O-]
REMARK SMILES IDX 12 1 11 2 10 3 9 4 8 5 7 6 6 7 5 8 4 9 3 10 2 11 1 12 13 13
REMARK SMILES IDX 14 14 15 15 16 16 17 17 18 18 19 19 20 20 21 21 22 22 23 23
REMARK SMILES IDX 24 24
REMARK H PARENT
REMARK Flexibility Score: inf
ROOT
ATOM      1  C   UNL     1     119.579  53.521  52.462  1.00  0.00     0.000 C 
ENDROOT
BRANCH   1   2
ATOM      2  C   UNL     1     119.283  52.018  52.614  1.00  0.00     0.000 C 
BRANCH   2   3
ATOM      3  C   UNL     1     117.927  51.612  52.013  1.00  0.00     0.000 C 
BRANCH   3   4
ATOM      4  C   UNL     1     116.848  51.390  53.085  1.00  0.00    -0.000 C 
BRANCH   4   5
ATOM      5  C   UNL     1     115.515  52.071  52.729  1.00  0.00    -0.000 C 
BRANCH   5   6
ATOM      6  C   UNL     1     115.698  53.535  52.301  1.00  0.00    -0.000 C 
BRANCH   6   7
ATOM      7  C   UNL     1     115.397  53.761  50.809  1.00  0.00    -0.000 C 
BRANCH   7   8
ATOM      8  C   UNL     1     116.036  55.052  50.271  1.00  0.00    -0.000 C 
BRANCH   8   9
ATOM      9  C   UNL     1     117.072  54.779  49.167  1.00  0.00    -0.000 C 
BRANCH   9  10
ATOM     10  C   UNL     1     118.465  55.327  49.516  1.00  0.00    -0.000 C 
BRANCH  10  11
ATOM     11  C   UNL     1     118.416  56.417  50.596  1.00  0.00    -0.003 C 
ATOM     12  C   UNL     1     119.795  57.032  50.819  1.00  0.00     0.004 C 
ENDBRANCH  10  11
ENDBRANCH   9  10
ENDBRANCH   8   9
ENDBRANCH   7   8
ENDBRANCH   6   7
ENDBRANCH   5   6
ENDBRANCH   4   5
ENDBRANCH   3   4
ENDBRANCH   2   3
ENDBRANCH   1   2
BRANCH   1  13
ATOM     13  C   UNL     1     119.039  54.378  53.626  1.00  0.00     0.000 C 
BRANCH  13  14
ATOM     14  C   UNL     1     118.982  53.593  54.949  1.00  0.00     0.000 C 
BRANCH  14  15
ATOM     15  C   UNL     1     119.610  54.363  56.123  1.00  0.00     0.000 C 
BRANCH  15  16
ATOM     16  C   UNL     1     121.148  54.282  56.125  1.00  0.00     0.000 C 
BRANCH  16  17
ATOM     17  C   UNL     1     121.662  52.907  55.669  1.00  0.00     0.000 C 
BRANCH  17  18
ATOM     18  C   UNL     1     122.688  53.010  54.528  1.00  0.00     0.000 C 
BRANCH  18  19
ATOM     19  C   UNL     1     122.935  54.461  54.074  1.00  0.00     0.000 C 
BRANCH  19  20
ATOM     20  C   UNL     1     123.178  54.639  52.561  1.00  0.00     0.006 C 
BRANCH  20  21
ATOM     21  C   UNL     1     124.483  55.369  52.205  1.00  0.00     0.053 C 
BRANCH  21  22
ATOM     22  C   UNL     1     124.226  56.747  51.678  1.00  0.00     0.041 C 
ATOM     23  O   UNL     1     123.596  56.907  50.599  1.00  0.00    -0.550 OA
ATOM     24  O   UNL     1     124.712  57.854  52.362  1.00  0.00    -0.550 OA
ENDBRANCH  21  22
ENDBRANCH  20  21
ENDBRANCH  19  20
ENDBRANCH  18  19
ENDBRANCH  17  18
ENDBRANCH  16  17
ENDBRANCH  15  16
ENDBRANCH  14  15
ENDBRANCH  13  14
ENDBRANCH   1  13
TORSDOF 20
ENDMDL
MODEL 9
REMARK VINA RESULT:    -2.993      1.901      5.099
REMARK INTER + INTRA:         -10.874
REMARK INTER:                  -7.435
REMARK INTRA:                  -3.439
REMARK UNBOUND:                -4.381
REMARK SMILES CCCCCCCCCCCCCCCCCCCCCC(=O)[O-]
REMARK SMILES IDX 12 1 11 2 10 3 9 4 8 5 7 6 6 7 5 8 4 9 3 10 2 11 1 12 13 13
REMARK SMILES IDX 14 14 15 15 16 16 17 17 18 18 19 19 20 20 21 21 22 22 23 23
REMARK SMILES IDX 24 24
REMARK H PARENT
REMARK Flexibility Score: inf
ROOT
ATOM      1  C   UNL     1     116.646  52.390  54.721  1.00  0.00     0.000 C 
ENDROOT
BRANCH   1   2
ATOM      2  C   UNL     1     115.603  53.013  53.776  1.00  0.00     0.000 C 
BRANCH   2   3
ATOM      3  C   UNL     1     115.862  52.680  52.297  1.00  0.00     0.000 C 
BRANCH   3   4
ATOM      4  C   UNL     1     115.686  53.898  51.376  1.00  0.00    -0.000 C 
BRANCH   4   5
ATOM      5  C   UNL     1     116.973  54.246  50.608  1.00  0.00    -0.000 C 
BRANCH   5   6
ATOM      6  C   UNL     1     117.790  55.350  51.298  1.00  0.00    -0.000 C 
BRANCH   6   7
ATOM      7  C   UNL     1     119.268  54.966  51.488  1.00  0.00    -0.000 C 
BRANCH   7   8
ATOM      8  C   UNL     1     119.683  53.776  50.607  1.00  0.00    -0.000 C 
BRANCH   8   9
ATOM      9  C   UNL     1     120.494  52.725  51.384  1.00  0.00    -0.000 C 
BRANCH   9  10
ATOM     10  C   UNL     1     120.205  51.290  50.916  1.00  0.00    -0.000 C 
BRANCH  10  11
ATOM     11  C   UNL     1     118.796  50.817  51.301  1.00  0.00    -0.003 C 
ATOM     12  C   UNL     1     117.968  50.488  50.062  1.00  0.00     0.004 C 
ENDBRANCH  10  11
ENDBRANCH   9  10
ENDBRANCH   8   9
ENDBRANCH   7   8
ENDBRANCH   6   7
ENDBRANCH   5   6
ENDBRANCH   4   5
ENDBRANCH   3   4
ENDBRANCH   2   3
ENDBRANCH   1   2
BRANCH   1  13
ATOM     13  C   UNL     1     118.104  52.599  54.258  1.00  0.00     0.000 C 
BRANCH  13  14
ATOM     14  C   UNL     1     118.656  53.973  54.680  1.00  0.00     0.000 C 
BRANCH  14  15
ATOM     15  C   UNL     1     119.842  53.862  55.653  1.00  0.00     0.000 C 
BRANCH  15  16
ATOM     16  C   UNL     1     121.014  53.056  55.064  1.00  0.00     0.000 C 
BRANCH  16  17
ATOM     17  C   UNL     1     122.324  53.860  55.044  1.00  0.00     0.000 C 
BRANCH  17  18
ATOM     18  C   UNL     1     123.149  53.611  53.769  1.00  0.00     0.000 C 
BRANCH  18  19
ATOM     19  C   UNL     1     123.706  54.908  53.154  1.00  0.00     0.000 C 
BRANCH  19  20
ATOM     20  C   UNL     1     122.838  55.525  52.038  1.00  0.00     0.006 C 
BRANCH  20  21
ATOM     21  C   UNL     1     123.616  56.371  51.017  1.00  0.00     0.053 C 
BRANCH  21  22
ATOM     22  C   UNL     1     124.018  57.699  51.582  1.00  0.00     0.041 C 
ATOM     23  O   UNL     1     123.197  58.653  51.604  1.00  0.00    -0.550 OA
ATOM     24  O   UNL     1     125.311  57.891  52.052  1.00  0.00    -0.550 OA
ENDBRANCH  21  22
ENDBRANCH  20  21
ENDBRANCH  19  20
ENDBRANCH  18  19
ENDBRANCH  17  18
ENDBRANCH  16  17
ENDBRANCH  15  16
ENDBRANCH  14  15
ENDBRANCH  13  14
ENDBRANCH   1  13
TORSDOF 20
ENDMDL
