MODEL 1
REMARK VINA RESULT:    -3.970      0.000      0.000
REMARK INTER + INTRA:          -7.630
REMARK INTER:                  -6.755
REMARK INTRA:                  -0.875
REMARK UNBOUND:                -0.875
REMARK SMILES CCCCCCCCCCCCCC(=O)[O-]
REMARK SMILES IDX 8 1 9 2 10 3 11 4 12 5 13 6 14 7 15 8 16 9 7 10 6 11 5 12
REMARK SMILES IDX 4 13 3 14 2 15 1 16
REMARK H PARENT
REMARK Flexibility Score: inf
ROOT
ATOM      1  C   UNL     1      48.279  46.946  42.961  1.00  0.00     0.000 C 
ENDROOT
BRANCH   1   2
ATOM      2  C   UNL     1      49.619  47.137  42.242  1.00  0.00     0.000 C 
BRANCH   2   3
ATOM      3  C   UNL     1      50.624  46.050  42.654  1.00  0.00     0.000 C 
BRANCH   3   4
ATOM      4  C   UNL     1      51.946  46.634  43.177  1.00  0.00     0.000 C 
BRANCH   4   5
ATOM      5  C   UNL     1      52.507  45.847  44.375  1.00  0.00     0.006 C 
BRANCH   5   6
ATOM      6  C   UNL     1      51.419  45.496  45.398  1.00  0.00     0.053 C 
BRANCH   6   7
ATOM      7  C   UNL     1      50.999  46.696  46.192  1.00  0.00     0.041 C 
ATOM      8  O   UNL     1      51.864  47.439  46.724  1.00  0.00    -0.550 OA
ATOM      9  O   UNL     1      49.651  47.010  46.315  1.00  0.00    -0.550 OA
ENDBRANCH   6   7
ENDBRANCH   5   6
ENDBRANCH   4   5
ENDBRANCH   3   4
ENDBRANCH   2   3
ENDBRANCH   1   2
BRANCH   1  10
ATOM     10  C   UNL     1      47.104  47.086  41.981  1.00  0.00     0.000 C 
BRANCH  10  11
ATOM     11  C   UNL     1      46.650  45.735  41.406  1.00  0.00    -0.000 C 
BRANCH  11  12
ATOM     12  C   UNL     1      45.141  45.693  41.113  1.00  0.00    -0.000 C 
BRANCH  12  13
ATOM     13  C   UNL     1      44.514  47.094  41.039  1.00  0.00    -0.000 C 
BRANCH  13  14
ATOM     14  C   UNL     1      43.102  47.141  41.640  1.00  0.00    -0.000 C 
BRANCH  14  15
ATOM     15  C   UNL     1      42.712  48.576  42.012  1.00  0.00    -0.003 C 
ATOM     16  C   UNL     1      43.947  49.451  42.207  1.00  0.00     0.004 C 
ENDBRANCH  14  15
ENDBRANCH  13  14
ENDBRANCH  12  13
ENDBRANCH  11  12
ENDBRANCH  10  11
ENDBRANCH   1  10
TORSDOF 12
ENDMDL
MODEL 2
REMARK VINA RESULT:    -3.966      3.072      7.090
REMARK INTER + INTRA:          -7.623
REMARK INTER:                  -6.351
REMARK INTRA:                  -1.273
REMARK UNBOUND:                -0.875
REMARK SMILES CCCCCCCCCCCCCC(=O)[O-]
REMARK SMILES IDX 8 1 9 2 10 3 11 4 12 5 13 6 14 7 15 8 16 9 7 10 6 11 5 12
REMARK SMILES IDX 4 13 3 14 2 15 1 16
REMARK H PARENT
REMARK Flexibility Score: inf
ROOT
ATOM      1  C   UNL     1      49.440  47.738  41.989  1.00  0.00     0.000 C 
ENDROOT
BRANCH   1   2
ATOM      2  C   UNL     1      48.274  47.145  42.790  1.00  0.00     0.000 C 
BRANCH   2   3
ATOM      3  C   UNL     1      47.823  45.804  42.192  1.00  0.00     0.000 C 
BRANCH   3   4
ATOM      4  C   UNL     1      46.549  45.933  41.342  1.00  0.00     0.000 C 
BRANCH   4   5
ATOM      5  C   UNL     1      45.728  47.187  41.693  1.00  0.00     0.006 C 
BRANCH   5   6
ATOM      6  C   UNL     1      44.223  46.966  41.495  1.00  0.00     0.053 C 
BRANCH   6   7
ATOM      7  C   UNL     1      43.440  48.214  41.770  1.00  0.00     0.041 C 
ATOM      8  O   UNL     1      44.013  49.233  42.237  1.00  0.00    -0.550 OA
ATOM      9  O   UNL     1      42.082  48.260  41.480  1.00  0.00    -0.550 OA
ENDBRANCH   6   7
ENDBRANCH   5   6
ENDBRANCH   4   5
ENDBRANCH   3   4
ENDBRANCH   2   3
ENDBRANCH   1   2
BRANCH   1  10
ATOM     10  C   UNL     1      50.507  46.672  41.701  1.00  0.00     0.000 C 
BRANCH  10  11
ATOM     11  C   UNL     1      51.746  46.817  42.598  1.00  0.00    -0.000 C 
BRANCH  11  12
ATOM     12  C   UNL     1      52.168  45.487  43.244  1.00  0.00    -0.000 C 
BRANCH  12  13
ATOM     13  C   UNL     1      51.950  45.472  44.765  1.00  0.00    -0.000 C 
BRANCH  13  14
ATOM     14  C   UNL     1      50.463  45.444  45.147  1.00  0.00    -0.000 C 
BRANCH  14  15
ATOM     15  C   UNL     1      50.103  46.640  46.037  1.00  0.00    -0.003 C 
ATOM     16  C   UNL     1      51.356  47.372  46.510  1.00  0.00     0.004 C 
ENDBRANCH  14  15
ENDBRANCH  13  14
ENDBRANCH  12  13
ENDBRANCH  11  12
ENDBRANCH  10  11
ENDBRANCH   1  10
TORSDOF 12
ENDMDL
MODEL 3
REMARK VINA RESULT:    -3.668      3.164      7.475
REMARK INTER + INTRA:          -7.116
REMARK INTER:                  -5.960
REMARK INTRA:                  -1.155
REMARK UNBOUND:                -0.875
REMARK SMILES CCCCCCCCCCCCCC(=O)[O-]
REMARK SMILES IDX 8 1 9 2 10 3 11 4 12 5 13 6 14 7 15 8 16 9 7 10 6 11 5 12
REMARK SMILES IDX 4 13 3 14 2 15 1 16
REMARK H PARENT
REMARK Flexibility Score: inf
ROOT
ATOM      1  C   UNL     1      49.023  46.853  43.612  1.00  0.00     0.000 C 
ENDROOT
BRANCH   1   2
ATOM      2  C   UNL     1      48.740  45.712  42.627  1.00  0.00     0.000 C 
BRANCH   2   3
ATOM      3  C   UNL     1      47.773  46.166  41.523  1.00  0.00     0.000 C 
BRANCH   3   4
ATOM      4  C   UNL     1      46.811  47.268  41.995  1.00  0.00     0.000 C 
BRANCH   4   5
ATOM      5  C   UNL     1      45.404  47.127  41.386  1.00  0.00     0.006 C 
BRANCH   5   6
ATOM      6  C   UNL     1      44.855  48.467  40.882  1.00  0.00     0.053 C 
BRANCH   6   7
ATOM      7  C   UNL     1      43.714  48.950  41.725  1.00  0.00     0.041 C 
ATOM      8  O   UNL     1      43.921  49.742  42.681  1.00  0.00    -0.550 OA
ATOM      9  O   UNL     1      42.416  48.548  41.433  1.00  0.00    -0.550 OA
ENDBRANCH   6   7
ENDBRANCH   5   6
ENDBRANCH   4   5
ENDBRANCH   3   4
ENDBRANCH   2   3
ENDBRANCH   1   2
BRANCH   1  10
ATOM     10  C   UNL     1      49.640  46.316  44.912  1.00  0.00     0.000 C 
BRANCH  10  11
ATOM     11  C   UNL     1      50.893  47.097  45.338  1.00  0.00    -0.000 C 
BRANCH  11  12
ATOM     12  C   UNL     1      52.155  46.219  45.371  1.00  0.00    -0.000 C 
BRANCH  12  13
ATOM     13  C   UNL     1      52.298  45.341  44.118  1.00  0.00    -0.000 C 
BRANCH  13  14
ATOM     14  C   UNL     1      53.338  45.888  43.130  1.00  0.00    -0.000 C 
BRANCH  14  15
ATOM     15  C   UNL     1      52.725  46.073  41.736  1.00  0.00    -0.003 C 
ATOM     16  C   UNL     1      52.112  47.461  41.583  1.00  0.00     0.004 C 
ENDBRANCH  14  15
ENDBRANCH  13  14
ENDBRANCH  12  13
ENDBRANCH  11  12
ENDBRANCH  10  11
ENDBRANCH   1  10
TORSDOF 12
ENDMDL
MODEL 4
REMARK VINA RESULT:    -3.610      1.946      2.405
REMARK INTER + INTRA:          -7.018
REMARK INTER:                  -6.319
REMARK INTRA:                  -0.699
REMARK UNBOUND:                -0.875
REMARK SMILES CCCCCCCCCCCCCC(=O)[O-]
REMARK SMILES IDX 8 1 9 2 10 3 11 4 12 5 13 6 14 7 15 8 16 9 7 10 6 11 5 12
REMARK SMILES IDX 4 13 3 14 2 15 1 16
REMARK H PARENT
REMARK Flexibility Score: inf
ROOT
ATOM      1  C   UNL     1      48.247  46.398  41.281  1.00  0.00     0.000 C 
ENDROOT
BRANCH   1   2
ATOM      2  C   UNL     1      49.416  46.533  42.264  1.00  0.00     0.000 C 
BRANCH   2   3
ATOM      3  C   UNL     1      48.914  46.898  43.670  1.00  0.00     0.000 C 
BRANCH   3   4
ATOM      4  C   UNL     1      49.818  46.346  44.783  1.00  0.00     0.000 C 
BRANCH   4   5
ATOM      5  C   UNL     1      51.271  46.840  44.665  1.00  0.00     0.006 C 
BRANCH   5   6
ATOM      6  C   UNL     1      52.277  45.681  44.661  1.00  0.00     0.053 C 
BRANCH   6   7
ATOM      7  C   UNL     1      53.205  45.757  43.487  1.00  0.00     0.041 C 
ATOM      8  O   UNL     1      54.244  45.048  43.453  1.00  0.00    -0.550 OA
ATOM      9  O   UNL     1      52.902  46.588  42.415  1.00  0.00    -0.550 OA
ENDBRANCH   6   7
ENDBRANCH   5   6
ENDBRANCH   4   5
ENDBRANCH   3   4
ENDBRANCH   2   3
ENDBRANCH   1   2
BRANCH   1  10
ATOM     10  C   UNL     1      46.986  47.084  41.830  1.00  0.00     0.000 C 
BRANCH  10  11
ATOM     11  C   UNL     1      45.788  46.969  40.875  1.00  0.00    -0.000 C 
BRANCH  11  12
ATOM     12  C   UNL     1      44.475  46.644  41.608  1.00  0.00    -0.000 C 
BRANCH  12  13
ATOM     13  C   UNL     1      43.265  47.378  41.009  1.00  0.00    -0.000 C 
BRANCH  13  14
ATOM     14  C   UNL     1      42.750  48.504  41.918  1.00  0.00    -0.000 C 
BRANCH  14  15
ATOM     15  C   UNL     1      43.886  49.455  42.311  1.00  0.00    -0.003 C 
ATOM     16  C   UNL     1      44.355  50.278  41.115  1.00  0.00     0.004 C 
ENDBRANCH  14  15
ENDBRANCH  13  14
ENDBRANCH  12  13
ENDBRANCH  11  12
ENDBRANCH  10  11
ENDBRANCH   1  10
TORSDOF 12
ENDMDL
MODEL 5
REMARK VINA RESULT:    -3.325      3.060      7.450
REMARK INTER + INTRA:          -6.533
REMARK INTER:                  -6.163
REMARK INTRA:                  -0.371
REMARK UNBOUND:                -0.875
REMARK SMILES CCCCCCCCCCCCCC(=O)[O-]
REMARK SMILES IDX 8 1 9 2 10 3 11 4 12 5 13 6 14 7 15 8 16 9 7 10 6 11 5 12
REMARK SMILES IDX 4 13 3 14 2 15 1 16
REMARK H PARENT
REMARK Flexibility Score: inf
ROOT
ATOM      1  C   UNL     1      47.513  46.863  41.619  1.00  0.00     0.000 C 
ENDROOT
BRANCH   1   2
ATOM      2  C   UNL     1      46.257  45.984  41.623  1.00  0.00     0.000 C 
BRANCH   2   3
ATOM      3  C   UNL     1      45.073  46.713  40.970  1.00  0.00     0.000 C 
BRANCH   3   4
ATOM      4  C   UNL     1      43.717  46.273  41.543  1.00  0.00     0.000 C 
BRANCH   4   5
ATOM      5  C   UNL     1      42.811  47.464  41.901  1.00  0.00     0.006 C 
BRANCH   5   6
ATOM      6  C   UNL     1      43.070  48.679  41.001  1.00  0.00     0.053 C 
BRANCH   6   7
ATOM      7  C   UNL     1      43.986  49.667  41.656  1.00  0.00     0.041 C 
ATOM      8  O   UNL     1      44.848  50.282  40.975  1.00  0.00    -0.550 OA
ATOM      9  O   UNL     1      43.866  49.932  43.015  1.00  0.00    -0.550 OA
ENDBRANCH   6   7
ENDBRANCH   5   6
ENDBRANCH   4   5
ENDBRANCH   3   4
ENDBRANCH   2   3
ENDBRANCH   1   2
BRANCH   1  10
ATOM     10  C   UNL     1      48.778  46.014  41.424  1.00  0.00     0.000 C 
BRANCH  10  11
ATOM     11  C   UNL     1      50.062  46.858  41.421  1.00  0.00    -0.000 C 
BRANCH  11  12
ATOM     12  C   UNL     1      50.584  47.147  42.839  1.00  0.00    -0.000 C 
BRANCH  12  13
ATOM     13  C   UNL     1      50.244  46.026  43.834  1.00  0.00    -0.000 C 
BRANCH  13  14
ATOM     14  C   UNL     1      51.452  45.604  44.682  1.00  0.00    -0.000 C 
BRANCH  14  15
ATOM     15  C   UNL     1      51.842  46.710  45.670  1.00  0.00    -0.003 C 
ATOM     16  C   UNL     1      50.653  47.122  46.534  1.00  0.00     0.004 C 
ENDBRANCH  14  15
ENDBRANCH  13  14
ENDBRANCH  12  13
ENDBRANCH  11  12
ENDBRANCH  10  11
ENDBRANCH   1  10
TORSDOF 12
ENDMDL
MODEL 6
REMARK VINA RESULT:    -3.162      2.343      3.170
REMARK INTER + INTRA:          -6.255
REMARK INTER:                  -5.407
REMARK INTRA:                  -0.849
REMARK UNBOUND:                -0.875
REMARK SMILES CCCCCCCCCCCCCC(=O)[O-]
REMARK SMILES IDX 8 1 9 2 10 3 11 4 12 5 13 6 14 7 15 8 16 9 7 10 6 11 5 12
REMARK SMILES IDX 4 13 3 14 2 15 1 16
REMARK H PARENT
REMARK Flexibility Score: inf
ROOT
ATOM      1  C   UNL     1      49.901  47.120  44.055  1.00  0.00     0.000 C 
ENDROOT
BRANCH   1   2
ATOM      2  C   UNL     1      50.630  46.268  45.102  1.00  0.00     0.000 C 
BRANCH   2   3
ATOM      3  C   UNL     1      51.457  45.161  44.431  1.00  0.00     0.000 C 
BRANCH   3   4
ATOM      4  C   UNL     1      52.921  45.571  44.205  1.00  0.00     0.000 C 
BRANCH   4   5
ATOM      5  C   UNL     1      53.434  45.188  42.805  1.00  0.00     0.006 C 
BRANCH   5   6
ATOM      6  C   UNL     1      53.659  46.417  41.915  1.00  0.00     0.053 C 
BRANCH   6   7
ATOM      7  C   UNL     1      52.373  46.919  41.331  1.00  0.00     0.041 C 
ATOM      8  O   UNL     1      52.166  48.156  41.222  1.00  0.00    -0.550 OA
ATOM      9  O   UNL     1      51.419  46.018  40.875  1.00  0.00    -0.550 OA
ENDBRANCH   6   7
ENDBRANCH   5   6
ENDBRANCH   4   5
ENDBRANCH   3   4
ENDBRANCH   2   3
ENDBRANCH   1   2
BRANCH   1  10
ATOM     10  C   UNL     1      48.728  46.345  43.436  1.00  0.00     0.000 C 
BRANCH  10  11
ATOM     11  C   UNL     1      48.335  46.877  42.049  1.00  0.00    -0.000 C 
BRANCH  11  12
ATOM     12  C   UNL     1      46.890  47.400  42.003  1.00  0.00    -0.000 C 
BRANCH  12  13
ATOM     13  C   UNL     1      45.949  46.474  41.216  1.00  0.00    -0.000 C 
BRANCH  13  14
ATOM     14  C   UNL     1      44.483  46.615  41.650  1.00  0.00    -0.000 C 
BRANCH  14  15
ATOM     15  C   UNL     1      44.034  48.080  41.594  1.00  0.00    -0.003 C 
ATOM     16  C   UNL     1      42.517  48.196  41.706  1.00  0.00     0.004 C 
ENDBRANCH  14  15
ENDBRANCH  13  14
ENDBRANCH  12  13
ENDBRANCH  11  12
ENDBRANCH  10  11
ENDBRANCH   1  10
TORSDOF 12
ENDMDL
MODEL 7
REMARK VINA RESULT:    -2.513      2.893      7.769
REMARK INTER + INTRA:          -5.150
REMARK INTER:                  -4.531
REMARK INTRA:                  -0.620
REMARK UNBOUND:                -0.875
REMARK SMILES CCCCCCCCCCCCCC(=O)[O-]
REMARK SMILES IDX 8 1 9 2 10 3 11 4 12 5 13 6 14 7 15 8 16 9 7 10 6 11 5 12
REMARK SMILES IDX 4 13 3 14 2 15 1 16
REMARK H PARENT
REMARK Flexibility Score: inf
ROOT
ATOM      1  C   UNL     1      48.143  46.268  41.566  1.00  0.00     0.000 C 
ENDROOT
BRANCH   1   2
ATOM      2  C   UNL     1      46.967  45.314  41.804  1.00  0.00     0.000 C 
BRANCH   2   3
ATOM      3  C   UNL     1      45.774  45.677  40.907  1.00  0.00     0.000 C 
BRANCH   3   4
ATOM      4  C   UNL     1      44.473  44.984  41.341  1.00  0.00     0.000 C 
BRANCH   4   5
ATOM      5  C   UNL     1      43.317  45.976  41.559  1.00  0.00     0.006 C 
BRANCH   5   6
ATOM      6  C   UNL     1      43.576  47.324  40.875  1.00  0.00     0.053 C 
BRANCH   6   7
ATOM      7  C   UNL     1      43.821  48.414  41.875  1.00  0.00     0.041 C 
ATOM      8  O   UNL     1      44.986  48.852  42.062  1.00  0.00    -0.550 OA
ATOM      9  O   UNL     1      42.756  48.966  42.575  1.00  0.00    -0.550 OA
ENDBRANCH   6   7
ENDBRANCH   5   6
ENDBRANCH   4   5
ENDBRANCH   3   4
ENDBRANCH   2   3
ENDBRANCH   1   2
BRANCH   1  10
ATOM     10  C   UNL     1      49.325  45.924  42.486  1.00  0.00     0.000 C 
BRANCH  10  11
ATOM     11  C   UNL     1      49.366  46.801  43.747  1.00  0.00    -0.000 C 
BRANCH  11  12
ATOM     12  C   UNL     1      50.719  46.726  44.476  1.00  0.00    -0.000 C 
BRANCH  12  13
ATOM     13  C   UNL     1      51.184  45.281  44.713  1.00  0.00    -0.000 C 
BRANCH  13  14
ATOM     14  C   UNL     1      52.705  45.121  44.578  1.00  0.00    -0.000 C 
BRANCH  14  15
ATOM     15  C   UNL     1      53.103  44.876  43.117  1.00  0.00    -0.003 C 
ATOM     16  C   UNL     1      54.378  45.633  42.758  1.00  0.00     0.004 C 
ENDBRANCH  14  15
ENDBRANCH  13  14
ENDBRANCH  12  13
ENDBRANCH  11  12
ENDBRANCH  10  11
ENDBRANCH   1  10
TORSDOF 12
ENDMDL
MODEL 8
REMARK VINA RESULT:    -2.510     22.311     24.335
REMARK INTER + INTRA:          -5.146
REMARK INTER:                  -4.518
REMARK INTRA:                  -0.628
REMARK UNBOUND:                -0.875
REMARK SMILES CCCCCCCCCCCCCC(=O)[O-]
REMARK SMILES IDX 8 1 9 2 10 3 11 4 12 5 13 6 14 7 15 8 16 9 7 10 6 11 5 12
REMARK SMILES IDX 4 13 3 14 2 15 1 16
REMARK H PARENT
REMARK Flexibility Score: inf
ROOT
ATOM      1  C   UNL     1      43.298  63.655  56.196  1.00  0.00     0.000 C 
ENDROOT
BRANCH   1   2
ATOM      2  C   UNL     1      41.873  64.212  56.102  1.00  0.00     0.000 C 
BRANCH   2   3
ATOM      3  C   UNL     1      41.396  64.734  57.466  1.00  0.00     0.000 C 
BRANCH   3   4
ATOM      4  C   UNL     1      39.868  64.679  57.619  1.00  0.00     0.000 C 
BRANCH   4   5
ATOM      5  C   UNL     1      39.419  63.719  58.736  1.00  0.00     0.006 C 
BRANCH   5   6
ATOM      6  C   UNL     1      38.995  62.351  58.185  1.00  0.00     0.053 C 
BRANCH   6   7
ATOM      7  C   UNL     1      38.503  61.445  59.273  1.00  0.00     0.041 C 
ATOM      8  O   UNL     1      37.274  61.380  59.536  1.00  0.00    -0.550 OA
ATOM      9  O   UNL     1      39.401  60.650  59.974  1.00  0.00    -0.550 OA
ENDBRANCH   6   7
ENDBRANCH   5   6
ENDBRANCH   4   5
ENDBRANCH   3   4
ENDBRANCH   2   3
ENDBRANCH   1   2
BRANCH   1  10
ATOM     10  C   UNL     1      44.234  64.654  56.894  1.00  0.00     0.000 C 
BRANCH  10  11
ATOM     11  C   UNL     1      45.313  63.960  57.739  1.00  0.00    -0.000 C 
BRANCH  11  12
ATOM     12  C   UNL     1      45.483  64.602  59.126  1.00  0.00    -0.000 C 
BRANCH  12  13
ATOM     13  C   UNL     1      45.858  63.579  60.210  1.00  0.00    -0.000 C 
BRANCH  13  14
ATOM     14  C   UNL     1      47.267  63.000  60.012  1.00  0.00    -0.000 C 
BRANCH  14  15
ATOM     15  C   UNL     1      48.322  64.112  60.016  1.00  0.00    -0.003 C 
ATOM     16  C   UNL     1      49.715  63.551  60.287  1.00  0.00     0.004 C 
ENDBRANCH  14  15
ENDBRANCH  13  14
ENDBRANCH  12  13
ENDBRANCH  11  12
ENDBRANCH  10  11
ENDBRANCH   1  10
TORSDOF 12
ENDMDL
