MODEL 1
REMARK VINA RESULT:    -6.927      0.000      0.000
REMARK INTER + INTRA:          -8.407
REMARK INTER:                  -8.142
REMARK INTRA:                  -0.265
REMARK UNBOUND:                -0.265
REMARK SMILES O=c1cc(-c2ccc(O)c(O)c2)oc2cc(O)cc(O)c12
REMARK SMILES IDX 4 1 3 2 2 3 1 4 21 5 19 6 18 7 16 8 15 9 14 10 13 11 5 12
REMARK SMILES IDX 6 13 7 14 8 15 12 16 10 17 9 18 11 20 20 22 17 24
REMARK H PARENT 9 19 11 21 20 23 17 25
REMARK Flexibility Score: inf
ROOT
ATOM      1  C   UNL     1      -5.618  -9.221  23.292  1.00  0.00     0.138 A 
ATOM      2  C   UNL     1      -5.410  -8.016  22.609  1.00  0.00     0.100 A 
ATOM      3  C   UNL     1      -6.358  -6.996  22.704  1.00  0.00     0.197 A 
ATOM      4  O   UNL     1      -6.175  -5.949  22.029  1.00  0.00    -0.289 OA
ATOM      5  C   UNL     1      -7.505  -7.175  23.513  1.00  0.00     0.107 A 
ATOM      6  C   UNL     1      -8.517  -6.190  23.718  1.00  0.00     0.134 A 
ATOM      7  C   UNL     1      -9.665  -6.521  24.449  1.00  0.00     0.093 A 
ATOM      8  C   UNL     1      -9.810  -7.780  25.031  1.00  0.00     0.123 A 
ATOM      9  C   UNL     1      -8.802  -8.733  24.883  1.00  0.00     0.094 A 
ATOM     10  C   UNL     1      -7.660  -8.445  24.132  1.00  0.00     0.146 A 
ATOM     11  O   UNL     1      -6.730  -9.384  24.002  1.00  0.00    -0.456 OA
ENDROOT
BRANCH   1  12
ATOM     12  C   UNL     1      -4.642 -10.338  23.227  1.00  0.00     0.021 A 
ATOM     13  C   UNL     1      -4.631 -11.249  22.153  1.00  0.00     0.016 A 
ATOM     14  C   UNL     1      -3.693 -12.285  22.113  1.00  0.00     0.051 A 
ATOM     15  C   UNL     1      -2.748 -12.425  23.137  1.00  0.00     0.157 A 
ATOM     16  C   UNL     1      -3.680 -10.478  24.244  1.00  0.00     0.062 A 
ATOM     17  C   UNL     1      -2.742 -11.515  24.206  1.00  0.00     0.158 A 
BRANCH  15  18
ATOM     18  O   UNL     1      -1.816 -13.461  23.093  1.00  0.00    -0.504 OA
ATOM     19  H   UNL     1      -1.548 -13.968  23.928  1.00  0.00     0.293 HD
ENDBRANCH  15  18
BRANCH  17  20
ATOM     20  O   UNL     1      -1.812 -11.625  25.239  1.00  0.00    -0.504 OA
ATOM     21  H   UNL     1      -1.985 -11.246  26.163  1.00  0.00     0.293 HD
ENDBRANCH  17  20
ENDBRANCH   1  12
BRANCH   6  22
ATOM     22  O   UNL     1      -8.433  -4.875  23.251  1.00  0.00    -0.507 OA
ATOM     23  H   UNL     1      -9.069  -4.456  22.590  1.00  0.00     0.293 HD
ENDBRANCH   6  22
BRANCH   8  24
ATOM     24  O   UNL     1     -10.959  -8.069  25.765  1.00  0.00    -0.508 OA
ATOM     25  H   UNL     1     -11.676  -8.688  25.405  1.00  0.00     0.293 HD
ENDBRANCH   8  24
TORSDOF 5
ENDMDL
MODEL 2
REMARK VINA RESULT:    -6.905      1.966      7.451
REMARK INTER + INTRA:          -8.381
REMARK INTER:                  -8.092
REMARK INTRA:                  -0.289
REMARK UNBOUND:                -0.265
REMARK SMILES O=c1cc(-c2ccc(O)c(O)c2)oc2cc(O)cc(O)c12
REMARK SMILES IDX 4 1 3 2 2 3 1 4 21 5 19 6 18 7 16 8 15 9 14 10 13 11 5 12
REMARK SMILES IDX 6 13 7 14 8 15 12 16 10 17 9 18 11 20 20 22 17 24
REMARK H PARENT 9 19 11 21 20 23 17 25
REMARK Flexibility Score: inf
ROOT
ATOM      1  C   UNL     1      -7.745  -7.646  24.480  1.00  0.00     0.138 A 
ATOM      2  C   UNL     1      -7.669  -9.043  24.564  1.00  0.00     0.100 A 
ATOM      3  C   UNL     1      -6.487  -9.693  24.207  1.00  0.00     0.197 A 
ATOM      4  O   UNL     1      -6.469 -10.951  24.233  1.00  0.00    -0.289 OA
ATOM      5  C   UNL     1      -5.365  -8.936  23.793  1.00  0.00     0.107 A 
ATOM      6  C   UNL     1      -4.096  -9.488  23.445  1.00  0.00     0.134 A 
ATOM      7  C   UNL     1      -3.094  -8.649  22.940  1.00  0.00     0.093 A 
ATOM      8  C   UNL     1      -3.295  -7.274  22.826  1.00  0.00     0.123 A 
ATOM      9  C   UNL     1      -4.514  -6.716  23.215  1.00  0.00     0.094 A 
ATOM     10  C   UNL     1      -5.545  -7.530  23.691  1.00  0.00     0.146 A 
ATOM     11  O   UNL     1      -6.695  -6.963  24.036  1.00  0.00    -0.456 OA
ENDROOT
BRANCH   1  12
ATOM     12  C   UNL     1      -8.977  -6.904  24.848  1.00  0.00     0.021 A 
ATOM     13  C   UNL     1      -9.264  -5.634  24.312  1.00  0.00     0.016 A 
ATOM     14  C   UNL     1     -10.437  -4.963  24.669  1.00  0.00     0.051 A 
ATOM     15  C   UNL     1     -11.346  -5.550  25.559  1.00  0.00     0.157 A 
ATOM     16  C   UNL     1      -9.902  -7.492  25.731  1.00  0.00     0.062 A 
ATOM     17  C   UNL     1     -11.076  -6.821  26.090  1.00  0.00     0.158 A 
BRANCH  15  18
ATOM     18  O   UNL     1     -12.514  -4.876  25.914  1.00  0.00    -0.504 OA
ATOM     19  H   UNL     1     -12.934  -4.989  26.829  1.00  0.00     0.293 HD
ENDBRANCH  15  18
BRANCH  17  20
ATOM     20  O   UNL     1     -11.962  -7.434  26.976  1.00  0.00    -0.504 OA
ATOM     21  H   UNL     1     -12.698  -6.919  27.443  1.00  0.00     0.293 HD
ENDBRANCH  17  20
ENDBRANCH   1  12
BRANCH   6  22
ATOM     22  O   UNL     1      -3.761 -10.836  23.599  1.00  0.00    -0.507 OA
ATOM     23  H   UNL     1      -3.194 -11.366  22.956  1.00  0.00     0.293 HD
ENDBRANCH   6  22
BRANCH   8  24
ATOM     24  O   UNL     1      -2.270  -6.468  22.333  1.00  0.00    -0.508 OA
ATOM     25  H   UNL     1      -2.448  -5.527  22.004  1.00  0.00     0.293 HD
ENDBRANCH   8  24
TORSDOF 5
ENDMDL
MODEL 3
REMARK VINA RESULT:    -6.850      2.148      7.420
REMARK INTER + INTRA:          -8.316
REMARK INTER:                  -7.998
REMARK INTRA:                  -0.318
REMARK UNBOUND:                -0.265
REMARK SMILES O=c1cc(-c2ccc(O)c(O)c2)oc2cc(O)cc(O)c12
REMARK SMILES IDX 4 1 3 2 2 3 1 4 21 5 19 6 18 7 16 8 15 9 14 10 13 11 5 12
REMARK SMILES IDX 6 13 7 14 8 15 12 16 10 17 9 18 11 20 20 22 17 24
REMARK H PARENT 9 19 11 21 20 23 17 25
REMARK Flexibility Score: inf
ROOT
ATOM      1  C   UNL     1      -4.983  -8.950  23.842  1.00  0.00     0.138 A 
ATOM      2  C   UNL     1      -4.930 -10.285  24.265  1.00  0.00     0.100 A 
ATOM      3  C   UNL     1      -3.695 -10.923  24.385  1.00  0.00     0.197 A 
ATOM      4  O   UNL     1      -3.683 -12.140  24.706  1.00  0.00    -0.289 OA
ATOM      5  C   UNL     1      -2.505 -10.208  24.109  1.00  0.00     0.107 A 
ATOM      6  C   UNL     1      -1.188 -10.743  24.236  1.00  0.00     0.134 A 
ATOM      7  C   UNL     1      -0.089  -9.978  23.825  1.00  0.00     0.093 A 
ATOM      8  C   UNL     1      -0.255  -8.678  23.347  1.00  0.00     0.123 A 
ATOM      9  C   UNL     1      -1.534  -8.126  23.269  1.00  0.00     0.094 A 
ATOM     10  C   UNL     1      -2.653  -8.875  23.640  1.00  0.00     0.146 A 
ATOM     11  O   UNL     1      -3.854  -8.319  23.537  1.00  0.00    -0.456 OA
ENDROOT
BRANCH   1  12
ATOM     12  C   UNL     1      -6.270  -8.223  23.699  1.00  0.00     0.021 A 
ATOM     13  C   UNL     1      -7.498  -8.817  24.051  1.00  0.00     0.016 A 
ATOM     14  C   UNL     1      -8.693  -8.105  23.915  1.00  0.00     0.051 A 
ATOM     15  C   UNL     1      -8.684  -6.790  23.433  1.00  0.00     0.157 A 
ATOM     16  C   UNL     1      -6.269  -6.897  23.228  1.00  0.00     0.062 A 
ATOM     17  C   UNL     1      -7.464  -6.184  23.090  1.00  0.00     0.158 A 
BRANCH  15  18
ATOM     18  O   UNL     1      -9.879  -6.084  23.298  1.00  0.00    -0.504 OA
ATOM     19  H   UNL     1     -10.008  -5.396  22.565  1.00  0.00     0.293 HD
ENDBRANCH  15  18
BRANCH  17  20
ATOM     20  O   UNL     1      -7.420  -4.875  22.612  1.00  0.00    -0.504 OA
ATOM     21  H   UNL     1      -6.676  -4.234  22.862  1.00  0.00     0.293 HD
ENDBRANCH  17  20
ENDBRANCH   1  12
BRANCH   6  22
ATOM     22  O   UNL     1      -0.904 -11.999  24.780  1.00  0.00    -0.507 OA
ATOM     23  H   UNL     1      -0.003 -12.450  24.750  1.00  0.00     0.293 HD
ENDBRANCH   6  22
BRANCH   8  24
ATOM     24  O   UNL     1       0.862  -7.940  22.960  1.00  0.00    -0.508 OA
ATOM     25  H   UNL     1       1.047  -7.730  21.987  1.00  0.00     0.293 HD
ENDBRANCH   8  24
TORSDOF 5
ENDMDL
MODEL 4
REMARK VINA RESULT:    -6.712      2.180      7.423
REMARK INTER + INTRA:          -8.154
REMARK INTER:                  -7.859
REMARK INTRA:                  -0.295
REMARK UNBOUND:                -0.265
REMARK SMILES O=c1cc(-c2ccc(O)c(O)c2)oc2cc(O)cc(O)c12
REMARK SMILES IDX 4 1 3 2 2 3 1 4 21 5 19 6 18 7 16 8 15 9 14 10 13 11 5 12
REMARK SMILES IDX 6 13 7 14 8 15 12 16 10 17 9 18 11 20 20 22 17 24
REMARK H PARENT 9 19 11 21 20 23 17 25
REMARK Flexibility Score: inf
ROOT
ATOM      1  C   UNL     1      -5.032  -8.714  23.898  1.00  0.00     0.138 A 
ATOM      2  C   UNL     1      -5.031 -10.062  24.280  1.00  0.00     0.100 A 
ATOM      3  C   UNL     1      -3.824 -10.761  24.342  1.00  0.00     0.197 A 
ATOM      4  O   UNL     1      -3.861 -11.986  24.628  1.00  0.00    -0.289 OA
ATOM      5  C   UNL     1      -2.610 -10.095  24.049  1.00  0.00     0.107 A 
ATOM      6  C   UNL     1      -1.318 -10.696  24.120  1.00  0.00     0.134 A 
ATOM      7  C   UNL     1      -0.196  -9.972  23.695  1.00  0.00     0.093 A 
ATOM      8  C   UNL     1      -0.313  -8.652  23.260  1.00  0.00     0.123 A 
ATOM      9  C   UNL     1      -1.566  -8.037  23.239  1.00  0.00     0.094 A 
ATOM     10  C   UNL     1      -2.707  -8.743  23.624  1.00  0.00     0.146 A 
ATOM     11  O   UNL     1      -3.883  -8.128  23.575  1.00  0.00    -0.456 OA
ENDROOT
BRANCH   1  12
ATOM     12  C   UNL     1      -6.286  -7.923  23.816  1.00  0.00     0.021 A 
ATOM     13  C   UNL     1      -6.290  -6.586  23.372  1.00  0.00     0.016 A 
ATOM     14  C   UNL     1      -7.487  -5.869  23.296  1.00  0.00     0.051 A 
ATOM     15  C   UNL     1      -8.699  -6.473  23.654  1.00  0.00     0.157 A 
ATOM     16  C   UNL     1      -7.509  -8.526  24.162  1.00  0.00     0.062 A 
ATOM     17  C   UNL     1      -8.708  -7.809  24.087  1.00  0.00     0.158 A 
BRANCH  15  18
ATOM     18  O   UNL     1      -9.890  -5.753  23.578  1.00  0.00    -0.504 OA
ATOM     19  H   UNL     1     -10.245  -5.407  22.695  1.00  0.00     0.293 HD
ENDBRANCH  15  18
BRANCH  17  20
ATOM     20  O   UNL     1      -9.898  -8.441  24.447  1.00  0.00    -0.504 OA
ATOM     21  H   UNL     1     -10.035  -9.438  24.333  1.00  0.00     0.293 HD
ENDBRANCH  17  20
ENDBRANCH   1  12
BRANCH   6  22
ATOM     22  O   UNL     1      -1.078 -11.980  24.618  1.00  0.00    -0.507 OA
ATOM     23  H   UNL     1      -1.347 -12.836  24.159  1.00  0.00     0.293 HD
ENDBRANCH   6  22
BRANCH   8  24
ATOM     24  O   UNL     1       0.826  -7.957  22.860  1.00  0.00    -0.508 OA
ATOM     25  H   UNL     1       1.605  -8.427  22.415  1.00  0.00     0.293 HD
ENDBRANCH   8  24
TORSDOF 5
ENDMDL
MODEL 5
REMARK VINA RESULT:    -6.705      2.103      7.156
REMARK INTER + INTRA:          -8.145
REMARK INTER:                  -7.838
REMARK INTRA:                  -0.307
REMARK UNBOUND:                -0.265
REMARK SMILES O=c1cc(-c2ccc(O)c(O)c2)oc2cc(O)cc(O)c12
REMARK SMILES IDX 4 1 3 2 2 3 1 4 21 5 19 6 18 7 16 8 15 9 14 10 13 11 5 12
REMARK SMILES IDX 6 13 7 14 8 15 12 16 10 17 9 18 11 20 20 22 17 24
REMARK H PARENT 9 19 11 21 20 23 17 25
REMARK Flexibility Score: inf
ROOT
ATOM      1  C   UNL     1      -4.488  -7.774  23.798  1.00  0.00     0.138 A 
ATOM      2  C   UNL     1      -3.245  -7.130  23.735  1.00  0.00     0.100 A 
ATOM      3  C   UNL     1      -2.074  -7.890  23.697  1.00  0.00     0.197 A 
ATOM      4  O   UNL     1      -0.972  -7.284  23.703  1.00  0.00    -0.289 OA
ATOM      5  C   UNL     1      -2.154  -9.303  23.691  1.00  0.00     0.107 A 
ATOM      6  C   UNL     1      -1.030 -10.179  23.614  1.00  0.00     0.134 A 
ATOM      7  C   UNL     1      -1.224 -11.562  23.732  1.00  0.00     0.093 A 
ATOM      8  C   UNL     1      -2.502 -12.101  23.866  1.00  0.00     0.123 A 
ATOM      9  C   UNL     1      -3.613 -11.257  23.889  1.00  0.00     0.094 A 
ATOM     10  C   UNL     1      -3.451  -9.872  23.806  1.00  0.00     0.146 A 
ATOM     11  O   UNL     1      -4.532  -9.101  23.846  1.00  0.00    -0.456 OA
ENDROOT
BRANCH   1  12
ATOM     12  C   UNL     1      -5.763  -7.014  23.839  1.00  0.00     0.021 A 
ATOM     13  C   UNL     1      -5.831  -5.711  24.370  1.00  0.00     0.016 A 
ATOM     14  C   UNL     1      -7.043  -5.016  24.385  1.00  0.00     0.051 A 
ATOM     15  C   UNL     1      -8.204  -5.604  23.867  1.00  0.00     0.157 A 
ATOM     16  C   UNL     1      -6.931  -7.592  23.308  1.00  0.00     0.062 A 
ATOM     17  C   UNL     1      -8.145  -6.898  23.325  1.00  0.00     0.158 A 
BRANCH  15  18
ATOM     18  O   UNL     1      -9.412  -4.907  23.887  1.00  0.00    -0.504 OA
ATOM     19  H   UNL     1      -9.915  -4.744  24.751  1.00  0.00     0.293 HD
ENDBRANCH  15  18
BRANCH  17  20
ATOM     20  O   UNL     1      -9.282  -7.509  22.798  1.00  0.00    -0.504 OA
ATOM     21  H   UNL     1     -10.103  -7.698  23.361  1.00  0.00     0.293 HD
ENDBRANCH  17  20
ENDBRANCH   1  12
BRANCH   6  22
ATOM     22  O   UNL     1       0.282  -9.750  23.397  1.00  0.00    -0.507 OA
ATOM     23  H   UNL     1       0.807  -9.161  24.024  1.00  0.00     0.293 HD
ENDBRANCH   6  22
BRANCH   8  24
ATOM     24  O   UNL     1      -2.658 -13.483  23.966  1.00  0.00    -0.508 OA
ATOM     25  H   UNL     1      -3.575 -13.910  24.014  1.00  0.00     0.293 HD
ENDBRANCH   8  24
TORSDOF 5
ENDMDL
MODEL 6
REMARK VINA RESULT:    -6.603      2.252      7.282
REMARK INTER + INTRA:          -8.026
REMARK INTER:                  -7.728
REMARK INTRA:                  -0.298
REMARK UNBOUND:                -0.265
REMARK SMILES O=c1cc(-c2ccc(O)c(O)c2)oc2cc(O)cc(O)c12
REMARK SMILES IDX 4 1 3 2 2 3 1 4 21 5 19 6 18 7 16 8 15 9 14 10 13 11 5 12
REMARK SMILES IDX 6 13 7 14 8 15 12 16 10 17 9 18 11 20 20 22 17 24
REMARK H PARENT 9 19 11 21 20 23 17 25
REMARK Flexibility Score: inf
ROOT
ATOM      1  C   UNL     1      -8.227  -6.581  24.635  1.00  0.00     0.138 A 
ATOM      2  C   UNL     1      -7.245  -5.584  24.566  1.00  0.00     0.100 A 
ATOM      3  C   UNL     1      -5.956  -5.913  24.143  1.00  0.00     0.197 A 
ATOM      4  O   UNL     1      -5.079  -5.010  24.150  1.00  0.00    -0.289 OA
ATOM      5  C   UNL     1      -5.661  -7.243  23.758  1.00  0.00     0.107 A 
ATOM      6  C   UNL     1      -4.394  -7.685  23.272  1.00  0.00     0.134 A 
ATOM      7  C   UNL     1      -4.185  -9.049  23.031  1.00  0.00     0.093 A 
ATOM      8  C   UNL     1      -5.212  -9.976  23.201  1.00  0.00     0.123 A 
ATOM      9  C   UNL     1      -6.471  -9.547  23.624  1.00  0.00     0.094 A 
ATOM     10  C   UNL     1      -6.702  -8.198  23.905  1.00  0.00     0.146 A 
ATOM     11  O   UNL     1      -7.909  -7.832  24.320  1.00  0.00    -0.456 OA
ENDROOT
BRANCH   1  12
ATOM     12  C   UNL     1      -9.614  -6.285  25.077  1.00  0.00     0.021 A 
ATOM     13  C   UNL     1     -10.291  -5.123  24.661  1.00  0.00     0.016 A 
ATOM     14  C   UNL     1     -11.600  -4.876  25.084  1.00  0.00     0.051 A 
ATOM     15  C   UNL     1     -12.257  -5.785  25.922  1.00  0.00     0.157 A 
ATOM     16  C   UNL     1     -10.286  -7.200  25.908  1.00  0.00     0.062 A 
ATOM     17  C   UNL     1     -11.596  -6.954  26.334  1.00  0.00     0.158 A 
BRANCH  15  18
ATOM     18  O   UNL     1     -13.562  -5.534  26.344  1.00  0.00    -0.504 OA
ATOM     19  H   UNL     1     -13.811  -5.532  27.326  1.00  0.00     0.293 HD
ENDBRANCH  15  18
BRANCH  17  20
ATOM     20  O   UNL     1     -12.224  -7.881  27.164  1.00  0.00    -0.504 OA
ATOM     21  H   UNL     1     -12.899  -8.550  26.812  1.00  0.00     0.293 HD
ENDBRANCH  17  20
ENDBRANCH   1  12
BRANCH   6  22
ATOM     22  O   UNL     1      -3.325  -6.831  22.987  1.00  0.00    -0.507 OA
ATOM     23  H   UNL     1      -2.639  -6.987  22.265  1.00  0.00     0.293 HD
ENDBRANCH   6  22
BRANCH   8  24
ATOM     24  O   UNL     1      -4.973 -11.323  22.937  1.00  0.00    -0.508 OA
ATOM     25  H   UNL     1      -4.513 -11.922  23.612  1.00  0.00     0.293 HD
ENDBRANCH   8  24
TORSDOF 5
ENDMDL
MODEL 7
REMARK VINA RESULT:    -6.342      2.828      4.002
REMARK INTER + INTRA:          -7.719
REMARK INTER:                  -7.403
REMARK INTRA:                  -0.316
REMARK UNBOUND:                -0.265
REMARK SMILES O=c1cc(-c2ccc(O)c(O)c2)oc2cc(O)cc(O)c12
REMARK SMILES IDX 4 1 3 2 2 3 1 4 21 5 19 6 18 7 16 8 15 9 14 10 13 11 5 12
REMARK SMILES IDX 6 13 7 14 8 15 12 16 10 17 9 18 11 20 20 22 17 24
REMARK H PARENT 9 19 11 21 20 23 17 25
REMARK Flexibility Score: inf
ROOT
ATOM      1  C   UNL     1      -3.608  -8.724  23.769  1.00  0.00     0.138 A 
ATOM      2  C   UNL     1      -4.336  -9.738  24.406  1.00  0.00     0.100 A 
ATOM      3  C   UNL     1      -5.719  -9.613  24.545  1.00  0.00     0.197 A 
ATOM      4  O   UNL     1      -6.336 -10.510  25.176  1.00  0.00    -0.289 OA
ATOM      5  C   UNL     1      -6.378  -8.478  24.015  1.00  0.00     0.107 A 
ATOM      6  C   UNL     1      -7.789  -8.264  24.061  1.00  0.00     0.134 A 
ATOM      7  C   UNL     1      -8.317  -7.049  23.606  1.00  0.00     0.093 A 
ATOM      8  C   UNL     1      -7.495  -6.068  23.053  1.00  0.00     0.123 A 
ATOM      9  C   UNL     1      -6.121  -6.290  22.953  1.00  0.00     0.094 A 
ATOM     10  C   UNL     1      -5.559  -7.477  23.429  1.00  0.00     0.146 A 
ATOM     11  O   UNL     1      -4.245  -7.644  23.329  1.00  0.00    -0.456 OA
ENDROOT
BRANCH   1  12
ATOM     12  C   UNL     1      -2.136  -8.807  23.593  1.00  0.00     0.021 A 
ATOM     13  C   UNL     1      -1.435 -10.013  23.786  1.00  0.00     0.016 A 
ATOM     14  C   UNL     1      -0.050 -10.064  23.604  1.00  0.00     0.051 A 
ATOM     15  C   UNL     1       0.657  -8.917  23.219  1.00  0.00     0.157 A 
ATOM     16  C   UNL     1      -1.420  -7.663  23.194  1.00  0.00     0.062 A 
ATOM     17  C   UNL     1      -0.034  -7.712  23.012  1.00  0.00     0.158 A 
BRANCH  15  18
ATOM     18  O   UNL     1       2.038  -8.973  23.040  1.00  0.00    -0.504 OA
ATOM     19  H   UNL     1       2.470  -8.702  22.164  1.00  0.00     0.293 HD
ENDBRANCH  15  18
BRANCH  17  20
ATOM     20  O   UNL     1       0.640  -6.554  22.625  1.00  0.00    -0.504 OA
ATOM     21  H   UNL     1       1.614  -6.397  22.852  1.00  0.00     0.293 HD
ENDBRANCH  17  20
ENDBRANCH   1  12
BRANCH   6  22
ATOM     22  O   UNL     1      -8.709  -9.212  24.517  1.00  0.00    -0.507 OA
ATOM     23  H   UNL     1      -8.830 -10.133  24.125  1.00  0.00     0.293 HD
ENDBRANCH   6  22
BRANCH   8  24
ATOM     24  O   UNL     1      -8.057  -4.877  22.596  1.00  0.00    -0.508 OA
ATOM     25  H   UNL     1      -7.826  -3.986  23.018  1.00  0.00     0.293 HD
ENDBRANCH   8  24
TORSDOF 5
ENDMDL
MODEL 8
REMARK VINA RESULT:    -6.339      3.521      4.627
REMARK INTER + INTRA:          -7.716
REMARK INTER:                  -7.426
REMARK INTRA:                  -0.290
REMARK UNBOUND:                -0.265
REMARK SMILES O=c1cc(-c2ccc(O)c(O)c2)oc2cc(O)cc(O)c12
REMARK SMILES IDX 4 1 3 2 2 3 1 4 21 5 19 6 18 7 16 8 15 9 14 10 13 11 5 12
REMARK SMILES IDX 6 13 7 14 8 15 12 16 10 17 9 18 11 20 20 22 17 24
REMARK H PARENT 9 19 11 21 20 23 17 25
REMARK Flexibility Score: inf
ROOT
ATOM      1  C   UNL     1      -4.461  -6.673  23.861  1.00  0.00     0.138 A 
ATOM      2  C   UNL     1      -4.741  -7.872  23.192  1.00  0.00     0.100 A 
ATOM      3  C   UNL     1      -6.068  -8.257  22.990  1.00  0.00     0.197 A 
ATOM      4  O   UNL     1      -6.288  -9.368  22.443  1.00  0.00    -0.289 OA
ATOM      5  C   UNL     1      -7.118  -7.419  23.435  1.00  0.00     0.107 A 
ATOM      6  C   UNL     1      -8.507  -7.689  23.248  1.00  0.00     0.134 A 
ATOM      7  C   UNL     1      -9.459  -6.843  23.833  1.00  0.00     0.093 A 
ATOM      8  C   UNL     1      -9.074  -5.709  24.545  1.00  0.00     0.123 A 
ATOM      9  C   UNL     1      -7.719  -5.405  24.688  1.00  0.00     0.094 A 
ATOM     10  C   UNL     1      -6.745  -6.246  24.146  1.00  0.00     0.146 A 
ATOM     11  O   UNL     1      -5.466  -5.932  24.315  1.00  0.00    -0.456 OA
ENDROOT
BRANCH   1  12
ATOM     12  C   UNL     1      -3.069  -6.216  24.100  1.00  0.00     0.021 A 
ATOM     13  C   UNL     1      -2.756  -5.306  25.129  1.00  0.00     0.016 A 
ATOM     14  C   UNL     1      -1.435  -4.901  25.338  1.00  0.00     0.051 A 
ATOM     15  C   UNL     1      -0.404  -5.401  24.531  1.00  0.00     0.157 A 
ATOM     16  C   UNL     1      -2.026  -6.723  23.303  1.00  0.00     0.062 A 
ATOM     17  C   UNL     1      -0.703  -6.317  23.510  1.00  0.00     0.158 A 
BRANCH  15  18
ATOM     18  O   UNL     1       0.912  -4.992  24.742  1.00  0.00    -0.504 OA
ATOM     19  H   UNL     1       1.695  -5.602  24.539  1.00  0.00     0.293 HD
ENDBRANCH  15  18
BRANCH  17  20
ATOM     20  O   UNL     1       0.300  -6.836  22.692  1.00  0.00    -0.504 OA
ATOM     21  H   UNL     1       1.224  -7.055  23.046  1.00  0.00     0.293 HD
ENDBRANCH  17  20
ENDBRANCH   1  12
BRANCH   6  22
ATOM     22  O   UNL     1      -9.001  -8.749  22.483  1.00  0.00    -0.507 OA
ATOM     23  H   UNL     1      -9.443  -8.653  21.582  1.00  0.00     0.293 HD
ENDBRANCH   6  22
BRANCH   8  24
ATOM     24  O   UNL     1     -10.049  -4.882  25.100  1.00  0.00    -0.508 OA
ATOM     25  H   UNL     1     -10.339  -4.979  26.066  1.00  0.00     0.293 HD
ENDBRANCH   8  24
TORSDOF 5
ENDMDL
MODEL 9
REMARK VINA RESULT:    -6.260      1.594      7.077
REMARK INTER + INTRA:          -7.623
REMARK INTER:                  -7.319
REMARK INTRA:                  -0.304
REMARK UNBOUND:                -0.265
REMARK SMILES O=c1cc(-c2ccc(O)c(O)c2)oc2cc(O)cc(O)c12
REMARK SMILES IDX 4 1 3 2 2 3 1 4 21 5 19 6 18 7 16 8 15 9 14 10 13 11 5 12
REMARK SMILES IDX 6 13 7 14 8 15 12 16 10 17 9 18 11 20 20 22 17 24
REMARK H PARENT 9 19 11 21 20 23 17 25
REMARK Flexibility Score: inf
ROOT
ATOM      1  C   UNL     1      -5.689  -9.296  23.192  1.00  0.00     0.138 A 
ATOM      2  C   UNL     1      -5.654 -10.176  22.103  1.00  0.00     0.100 A 
ATOM      3  C   UNL     1      -4.610 -11.097  21.992  1.00  0.00     0.197 A 
ATOM      4  O   UNL     1      -4.572 -11.832  20.971  1.00  0.00    -0.289 OA
ATOM      5  C   UNL     1      -3.615 -11.155  22.996  1.00  0.00     0.107 A 
ATOM      6  C   UNL     1      -2.528 -12.080  23.010  1.00  0.00     0.134 A 
ATOM      7  C   UNL     1      -1.538 -11.967  23.995  1.00  0.00     0.093 A 
ATOM      8  C   UNL     1      -1.628 -11.004  24.999  1.00  0.00     0.123 A 
ATOM      9  C   UNL     1      -2.715 -10.130  25.027  1.00  0.00     0.094 A 
ATOM     10  C   UNL     1      -3.701 -10.194  24.040  1.00  0.00     0.146 A 
ATOM     11  O   UNL     1      -4.712  -9.335  24.092  1.00  0.00    -0.456 OA
ENDROOT
BRANCH   1  12
ATOM     12  C   UNL     1      -6.776  -8.298  23.359  1.00  0.00     0.021 A 
ATOM     13  C   UNL     1      -8.099  -8.573  22.964  1.00  0.00     0.016 A 
ATOM     14  C   UNL     1      -9.104  -7.618  23.143  1.00  0.00     0.051 A 
ATOM     15  C   UNL     1      -8.809  -6.378  23.724  1.00  0.00     0.157 A 
ATOM     16  C   UNL     1      -6.490  -7.055  23.954  1.00  0.00     0.062 A 
ATOM     17  C   UNL     1      -7.495  -6.098  24.132  1.00  0.00     0.158 A 
BRANCH  15  18
ATOM     18  O   UNL     1      -9.814  -5.428  23.898  1.00  0.00    -0.504 OA
ATOM     19  H   UNL     1     -10.697  -5.665  24.336  1.00  0.00     0.293 HD
ENDBRANCH  15  18
BRANCH  17  20
ATOM     20  O   UNL     1      -7.168  -4.875  24.717  1.00  0.00    -0.504 OA
ATOM     21  H   UNL     1      -7.752  -4.443  25.424  1.00  0.00     0.293 HD
ENDBRANCH  17  20
ENDBRANCH   1  12
BRANCH   6  22
ATOM     22  O   UNL     1      -2.387 -13.133  22.102  1.00  0.00    -0.507 OA
ATOM     23  H   UNL     1      -2.152 -13.028  21.128  1.00  0.00     0.293 HD
ENDBRANCH   6  22
BRANCH   8  24
ATOM     24  O   UNL     1      -0.633 -10.932  25.973  1.00  0.00    -0.508 OA
ATOM     25  H   UNL     1      -0.653 -11.522  26.795  1.00  0.00     0.293 HD
ENDBRANCH   8  24
TORSDOF 5
ENDMDL
