MODEL 1
REMARK VINA RESULT:    60.812      0.000      0.000
REMARK INTER + INTRA:          82.871
REMARK INTER:                  83.919
REMARK INTRA:                  -1.048
REMARK UNBOUND:                -1.048
REMARK SMILES CC[C@@H](CC[C@H](C)[C@H]1CC[C@H]2C3=CC[C@H]4C[C@@H](O)CC[C@]4(C)[C@H]3CC[C@@]12C)C(C)C
REMARK SMILES IDX 5 1 4 2 3 3 2 4 1 5 28 6 29 7 30 8 6 9 7 10 8 11 9 12 26 13
REMARK SMILES IDX 10 14 11 15 25 16 27 17 12 18 24 19 23 20 13 21 21 22 14 23
REMARK SMILES IDX 15 24 20 25 22 26 16 27 19 28 17 29 18 30
REMARK H PARENT 18 31
REMARK Flexibility Score: inf
ROOT
ATOM      1  C   UNL     1     -31.681  28.165  -4.265  1.00  0.00     0.004 C 
ENDROOT
BRANCH   1   2
ATOM      2  C   UNL     1     -32.959  29.015  -4.404  1.00  0.00     0.004 C 
BRANCH   2   3
ATOM      3  C   UNL     1     -33.093  30.092  -3.288  1.00  0.00    -0.009 C 
BRANCH   3   4
ATOM      4  C   UNL     1     -31.856  30.045  -2.347  1.00  0.00     0.000 C 
ATOM      5  C   UNL     1     -30.958  31.281  -2.444  1.00  0.00     0.004 C 
ENDBRANCH   3   4
BRANCH   3   6
ATOM      6  C   UNL     1     -34.447  29.978  -2.508  1.00  0.00    -0.014 C 
ATOM      7  C   UNL     1     -34.687  28.589  -1.892  1.00  0.00     0.007 C 
ATOM      8  C   UNL     1     -35.651  30.391  -3.373  1.00  0.00     0.007 C 
ENDBRANCH   3   6
ENDBRANCH   2   3
ENDBRANCH   1   2
BRANCH   1   9
ATOM      9  C   UNL     1     -31.251  27.533  -5.623  1.00  0.00    -0.011 C 
ATOM     10  C   UNL     1     -32.204  26.397  -6.029  1.00  0.00     0.008 C 
BRANCH   9  11
ATOM     11  C   UNL     1     -29.742  27.121  -5.755  1.00  0.00    -0.002 C 
ATOM     12  C   UNL     1     -29.496  26.099  -6.883  1.00  0.00     0.005 C 
ATOM     13  C   UNL     1     -28.600  28.198  -5.853  1.00  0.00    -0.023 C 
ATOM     14  C   UNL     1     -28.191  26.491  -7.553  1.00  0.00     0.009 C 
ATOM     15  C   UNL     1     -27.474  27.429  -6.579  1.00  0.00     0.021 C 
ATOM     16  C   UNL     1     -28.991  29.435  -6.697  1.00  0.00     0.008 C 
ATOM     17  C   UNL     1     -28.132  28.629  -4.437  1.00  0.00     0.012 C 
ATOM     18  C   UNL     1     -26.438  28.289  -7.295  1.00  0.00    -0.067 C 
ATOM     19  C   UNL     1     -27.847  30.437  -6.898  1.00  0.00     0.009 C 
ATOM     20  C   UNL     1     -26.443  29.815  -7.163  1.00  0.00     0.021 C 
ATOM     21  C   UNL     1     -25.400  27.654  -7.894  1.00  0.00    -0.027 C 
ATOM     22  C   UNL     1     -25.642  30.521  -8.317  1.00  0.00    -0.023 C 
ATOM     23  C   UNL     1     -24.326  28.355  -8.685  1.00  0.00     0.031 C 
ATOM     24  C   UNL     1     -24.229  29.850  -8.350  1.00  0.00     0.002 C 
ATOM     25  C   UNL     1     -25.458  32.035  -7.995  1.00  0.00     0.010 C 
ATOM     26  C   UNL     1     -26.393  30.355  -9.675  1.00  0.00     0.012 C 
ATOM     27  C   UNL     1     -23.232  30.563  -9.289  1.00  0.00     0.036 C 
ATOM     28  C   UNL     1     -24.471  32.733  -8.943  1.00  0.00     0.032 C 
ATOM     29  C   UNL     1     -23.099  32.046  -8.923  1.00  0.00     0.114 C 
BRANCH  29  30
ATOM     30  O   UNL     1     -22.241  32.670  -9.843  1.00  0.00    -0.393 OA
ATOM     31  H   UNL     1     -22.624  33.568 -10.027  1.00  0.00     0.210 HD
ENDBRANCH  29  30
ENDBRANCH   9  11
ENDBRANCH   1   9
TORSDOF 7
ENDMDL
MODEL 2
REMARK VINA RESULT:    61.312      0.553      1.506
REMARK INTER + INTRA:          83.562
REMARK INTER:                  84.570
REMARK INTRA:                  -1.008
REMARK UNBOUND:                -1.048
REMARK SMILES CC[C@@H](CC[C@H](C)[C@H]1CC[C@H]2C3=CC[C@H]4C[C@@H](O)CC[C@]4(C)[C@H]3CC[C@@]12C)C(C)C
REMARK SMILES IDX 5 1 4 2 3 3 2 4 1 5 28 6 29 7 30 8 6 9 7 10 8 11 9 12 26 13
REMARK SMILES IDX 10 14 11 15 25 16 27 17 12 18 24 19 23 20 13 21 21 22 14 23
REMARK SMILES IDX 15 24 20 25 22 26 16 27 19 28 17 29 18 30
REMARK H PARENT 18 31
REMARK Flexibility Score: inf
ROOT
ATOM      1  C   UNL     1     -31.492  27.864  -4.394  1.00  0.00     0.004 C 
ENDROOT
BRANCH   1   2
ATOM      2  C   UNL     1     -32.555  28.961  -4.598  1.00  0.00     0.004 C 
BRANCH   2   3
ATOM      3  C   UNL     1     -33.183  29.451  -3.262  1.00  0.00    -0.009 C 
BRANCH   3   4
ATOM      4  C   UNL     1     -34.345  30.445  -3.549  1.00  0.00     0.000 C 
ATOM      5  C   UNL     1     -35.701  29.984  -3.008  1.00  0.00     0.004 C 
ENDBRANCH   3   4
BRANCH   3   6
ATOM      6  C   UNL     1     -32.115  30.042  -2.280  1.00  0.00    -0.014 C 
ATOM      7  C   UNL     1     -32.677  30.378  -0.888  1.00  0.00     0.007 C 
ATOM      8  C   UNL     1     -31.398  31.268  -2.873  1.00  0.00     0.007 C 
ENDBRANCH   3   6
ENDBRANCH   2   3
ENDBRANCH   1   2
BRANCH   1   9
ATOM      9  C   UNL     1     -31.019  27.252  -5.747  1.00  0.00    -0.011 C 
ATOM     10  C   UNL     1     -31.882  26.041  -6.135  1.00  0.00     0.008 C 
BRANCH   9  11
ATOM     11  C   UNL     1     -29.483  26.957  -5.881  1.00  0.00    -0.002 C 
ATOM     12  C   UNL     1     -29.158  25.984  -7.031  1.00  0.00     0.005 C 
ATOM     13  C   UNL     1     -28.425  28.118  -5.948  1.00  0.00    -0.023 C 
ATOM     14  C   UNL     1     -27.883  26.487  -7.686  1.00  0.00     0.009 C 
ATOM     15  C   UNL     1     -27.242  27.452  -6.687  1.00  0.00     0.021 C 
ATOM     16  C   UNL     1     -28.904  29.342  -6.765  1.00  0.00     0.008 C 
ATOM     17  C   UNL     1     -27.995  28.549  -4.520  1.00  0.00     0.012 C 
ATOM     18  C   UNL     1     -26.271  28.404  -7.377  1.00  0.00    -0.067 C 
ATOM     19  C   UNL     1     -27.838  30.431  -6.937  1.00  0.00     0.009 C 
ATOM     20  C   UNL     1     -26.391  29.922  -7.209  1.00  0.00     0.021 C 
ATOM     21  C   UNL     1     -25.187  27.863  -7.985  1.00  0.00    -0.027 C 
ATOM     22  C   UNL     1     -25.641  30.713  -8.343  1.00  0.00    -0.023 C 
ATOM     23  C   UNL     1     -24.166  28.661  -8.755  1.00  0.00     0.031 C 
ATOM     24  C   UNL     1     -24.181  30.151  -8.384  1.00  0.00     0.002 C 
ATOM     25  C   UNL     1     -25.572  32.229  -7.983  1.00  0.00     0.010 C 
ATOM     26  C   UNL     1     -26.373  30.524  -9.707  1.00  0.00     0.012 C 
ATOM     27  C   UNL     1     -23.237  30.958  -9.301  1.00  0.00     0.036 C 
ATOM     28  C   UNL     1     -24.636  33.021  -8.910  1.00  0.00     0.032 C 
ATOM     29  C   UNL     1     -23.217  32.437  -8.900  1.00  0.00     0.114 C 
BRANCH  29  30
ATOM     30  O   UNL     1     -22.405  33.146  -9.801  1.00  0.00    -0.393 OA
ATOM     31  H   UNL     1     -21.464  32.931  -9.566  1.00  0.00     0.210 HD
ENDBRANCH  29  30
ENDBRANCH   9  11
ENDBRANCH   1   9
TORSDOF 7
ENDMDL
