MODEL 1
REMARK VINA RESULT:    -5.884      0.000      0.000
REMARK INTER + INTRA:         -12.009
REMARK INTER:                 -10.700
REMARK INTRA:                  -1.308
REMARK UNBOUND:                -1.308
REMARK SMILES CCCCCCCCCCCCCCCC(=O)[O-]
REMARK SMILES IDX 9 1 10 2 11 3 12 4 13 5 14 6 15 7 16 8 17 9 18 10 8 11 7 12
REMARK SMILES IDX 6 13 5 14 4 15 3 16 2 17 1 18
REMARK H PARENT
REMARK Flexibility Score: inf
ROOT
ATOM      1  C   UNL     1      -7.282 -16.675  -3.075  1.00  0.00     0.000 C 
ENDROOT
BRANCH   1   2
ATOM      2  C   UNL     1      -5.783 -16.374  -3.232  1.00  0.00     0.000 C 
BRANCH   2   3
ATOM      3  C   UNL     1      -5.160 -15.976  -1.890  1.00  0.00     0.000 C 
BRANCH   3   4
ATOM      4  C   UNL     1      -3.676 -16.371  -1.833  1.00  0.00     0.000 C 
BRANCH   4   5
ATOM      5  C   UNL     1      -3.344 -17.253  -0.619  1.00  0.00     0.000 C 
BRANCH   5   6
ATOM      6  C   UNL     1      -2.029 -18.033  -0.797  1.00  0.00     0.006 C 
BRANCH   6   7
ATOM      7  C   UNL     1      -0.852 -17.352  -0.086  1.00  0.00     0.053 C 
BRANCH   7   8
ATOM      8  C   UNL     1      -0.550 -17.997   1.231  1.00  0.00     0.041 C 
ATOM      9  O   UNL     1      -1.105 -17.579   2.282  1.00  0.00    -0.550 OA
ATOM     10  O   UNL     1       0.370 -19.035   1.305  1.00  0.00    -0.550 OA
ENDBRANCH   7   8
ENDBRANCH   6   7
ENDBRANCH   5   6
ENDBRANCH   4   5
ENDBRANCH   3   4
ENDBRANCH   2   3
ENDBRANCH   1   2
BRANCH   1  11
ATOM     11  C   UNL     1      -7.790 -17.708  -4.094  1.00  0.00     0.000 C 
BRANCH  11  12
ATOM     12  C   UNL     1      -6.964 -17.714  -5.392  1.00  0.00    -0.000 C 
BRANCH  12  13
ATOM     13  C   UNL     1      -7.747 -17.145  -6.586  1.00  0.00    -0.000 C 
BRANCH  13  14
ATOM     14  C   UNL     1      -7.600 -15.618  -6.717  1.00  0.00    -0.000 C 
BRANCH  14  15
ATOM     15  C   UNL     1      -8.766 -14.862  -6.045  1.00  0.00    -0.000 C 
BRANCH  15  16
ATOM     16  C   UNL     1      -8.413 -13.419  -5.635  1.00  0.00    -0.000 C 
BRANCH  16  17
ATOM     17  C   UNL     1      -6.939 -13.202  -5.254  1.00  0.00    -0.003 C 
ATOM     18  C   UNL     1      -6.734 -13.031  -3.750  1.00  0.00     0.004 C 
ENDBRANCH  16  17
ENDBRANCH  15  16
ENDBRANCH  14  15
ENDBRANCH  13  14
ENDBRANCH  12  13
ENDBRANCH  11  12
ENDBRANCH   1  11
TORSDOF 14
ENDMDL
MODEL 2
REMARK VINA RESULT:    -5.874      3.474      7.385
REMARK INTER + INTRA:         -11.991
REMARK INTER:                 -10.780
REMARK INTRA:                  -1.210
REMARK UNBOUND:                -1.308
REMARK SMILES CCCCCCCCCCCCCCCC(=O)[O-]
REMARK SMILES IDX 9 1 10 2 11 3 12 4 13 5 14 6 15 7 16 8 17 9 18 10 8 11 7 12
REMARK SMILES IDX 6 13 5 14 4 15 3 16 2 17 1 18
REMARK H PARENT
REMARK Flexibility Score: inf
ROOT
ATOM      1  C   UNL     1      -6.623 -12.969  -3.718  1.00  0.00     0.000 C 
ENDROOT
BRANCH   1   2
ATOM      2  C   UNL     1      -6.880 -13.591  -5.100  1.00  0.00     0.000 C 
BRANCH   2   3
ATOM      3  C   UNL     1      -8.345 -13.414  -5.517  1.00  0.00     0.000 C 
BRANCH   3   4
ATOM      4  C   UNL     1      -8.878 -14.678  -6.207  1.00  0.00     0.000 C 
BRANCH   4   5
ATOM      5  C   UNL     1      -7.762 -15.672  -6.567  1.00  0.00     0.000 C 
BRANCH   5   6
ATOM      6  C   UNL     1      -8.270 -16.847  -7.422  1.00  0.00     0.006 C 
BRANCH   6   7
ATOM      7  C   UNL     1      -8.935 -17.937  -6.570  1.00  0.00     0.053 C 
BRANCH   7   8
ATOM      8  C   UNL     1      -8.025 -18.430  -5.489  1.00  0.00     0.041 C 
ATOM      9  O   UNL     1      -6.898 -18.913  -5.780  1.00  0.00    -0.550 OA
ATOM     10  O   UNL     1      -8.433 -18.390  -4.161  1.00  0.00    -0.550 OA
ENDBRANCH   7   8
ENDBRANCH   6   7
ENDBRANCH   5   6
ENDBRANCH   4   5
ENDBRANCH   3   4
ENDBRANCH   2   3
ENDBRANCH   1   2
BRANCH   1  11
ATOM     11  C   UNL     1      -6.475 -14.025  -2.610  1.00  0.00     0.000 C 
BRANCH  11  12
ATOM     12  C   UNL     1      -6.838 -15.441  -3.091  1.00  0.00    -0.000 C 
BRANCH  12  13
ATOM     13  C   UNL     1      -5.836 -16.499  -2.601  1.00  0.00    -0.000 C 
BRANCH  13  14
ATOM     14  C   UNL     1      -4.629 -15.880  -1.873  1.00  0.00    -0.000 C 
BRANCH  14  15
ATOM     15  C   UNL     1      -4.067 -16.813  -0.780  1.00  0.00    -0.000 C 
BRANCH  15  16
ATOM     16  C   UNL     1      -2.746 -17.501  -1.172  1.00  0.00    -0.000 C 
BRANCH  16  17
ATOM     17  C   UNL     1      -1.644 -16.545  -1.660  1.00  0.00    -0.003 C 
ATOM     18  C   UNL     1      -0.346 -16.683  -0.867  1.00  0.00     0.004 C 
ENDBRANCH  16  17
ENDBRANCH  15  16
ENDBRANCH  14  15
ENDBRANCH  13  14
ENDBRANCH  12  13
ENDBRANCH  11  12
ENDBRANCH   1  11
TORSDOF 14
ENDMDL
MODEL 3
REMARK VINA RESULT:    -5.846      3.688      7.744
REMARK INTER + INTRA:         -11.939
REMARK INTER:                 -10.585
REMARK INTRA:                  -1.355
REMARK UNBOUND:                -1.308
REMARK SMILES CCCCCCCCCCCCCCCC(=O)[O-]
REMARK SMILES IDX 9 1 10 2 11 3 12 4 13 5 14 6 15 7 16 8 17 9 18 10 8 11 7 12
REMARK SMILES IDX 6 13 5 14 4 15 3 16 2 17 1 18
REMARK H PARENT
REMARK Flexibility Score: inf
ROOT
ATOM      1  C   UNL     1      -6.188 -13.914  -2.758  1.00  0.00     0.000 C 
ENDROOT
BRANCH   1   2
ATOM      2  C   UNL     1      -6.914 -12.949  -3.707  1.00  0.00     0.000 C 
BRANCH   2   3
ATOM      3  C   UNL     1      -6.927 -13.495  -5.140  1.00  0.00     0.000 C 
BRANCH   3   4
ATOM      4  C   UNL     1      -8.366 -13.671  -5.649  1.00  0.00     0.000 C 
BRANCH   4   5
ATOM      5  C   UNL     1      -8.744 -15.145  -5.857  1.00  0.00     0.000 C 
BRANCH   5   6
ATOM      6  C   UNL     1      -7.685 -15.919  -6.663  1.00  0.00     0.006 C 
BRANCH   6   7
ATOM      7  C   UNL     1      -7.138 -17.126  -5.889  1.00  0.00     0.053 C 
BRANCH   7   8
ATOM      8  C   UNL     1      -8.230 -18.065  -5.479  1.00  0.00     0.041 C 
ATOM      9  O   UNL     1      -8.934 -18.638  -6.352  1.00  0.00    -0.550 OA
ATOM     10  O   UNL     1      -8.493 -18.282  -4.132  1.00  0.00    -0.550 OA
ENDBRANCH   7   8
ENDBRANCH   6   7
ENDBRANCH   5   6
ENDBRANCH   4   5
ENDBRANCH   3   4
ENDBRANCH   2   3
ENDBRANCH   1   2
BRANCH   1  11
ATOM     11  C   UNL     1      -6.866 -15.291  -2.678  1.00  0.00     0.000 C 
BRANCH  11  12
ATOM     12  C   UNL     1      -5.854 -16.441  -2.535  1.00  0.00    -0.000 C 
BRANCH  12  13
ATOM     13  C   UNL     1      -4.478 -15.953  -2.055  1.00  0.00    -0.000 C 
BRANCH  13  14
ATOM     14  C   UNL     1      -3.900 -16.826  -0.927  1.00  0.00    -0.000 C 
BRANCH  14  15
ATOM     15  C   UNL     1      -2.357 -16.853  -0.943  1.00  0.00    -0.000 C 
BRANCH  15  16
ATOM     16  C   UNL     1      -1.759 -18.245  -0.666  1.00  0.00    -0.000 C 
BRANCH  16  17
ATOM     17  C   UNL     1      -0.823 -18.312   0.551  1.00  0.00    -0.003 C 
ATOM     18  C   UNL     1      -0.888 -17.057   1.419  1.00  0.00     0.004 C 
ENDBRANCH  16  17
ENDBRANCH  15  16
ENDBRANCH  14  15
ENDBRANCH  13  14
ENDBRANCH  12  13
ENDBRANCH  11  12
ENDBRANCH   1  11
TORSDOF 14
ENDMDL
MODEL 4
REMARK VINA RESULT:    -5.824      4.711      8.019
REMARK INTER + INTRA:         -11.899
REMARK INTER:                 -10.484
REMARK INTRA:                  -1.415
REMARK UNBOUND:                -1.308
REMARK SMILES CCCCCCCCCCCCCCCC(=O)[O-]
REMARK SMILES IDX 9 1 10 2 11 3 12 4 13 5 14 6 15 7 16 8 17 9 18 10 8 11 7 12
REMARK SMILES IDX 6 13 5 14 4 15 3 16 2 17 1 18
REMARK H PARENT
REMARK Flexibility Score: inf
ROOT
ATOM      1  C   UNL     1      -6.923 -13.570  -5.150  1.00  0.00     0.000 C 
ENDROOT
BRANCH   1   2
ATOM      2  C   UNL     1      -8.354 -13.789  -5.665  1.00  0.00     0.000 C 
BRANCH   2   3
ATOM      3  C   UNL     1      -8.635 -15.280  -5.883  1.00  0.00     0.000 C 
BRANCH   3   4
ATOM      4  C   UNL     1      -7.412 -15.989  -6.486  1.00  0.00     0.000 C 
BRANCH   4   5
ATOM      5  C   UNL     1      -7.148 -17.361  -5.847  1.00  0.00     0.000 C 
BRANCH   5   6
ATOM      6  C   UNL     1      -7.754 -18.519  -6.660  1.00  0.00     0.006 C 
BRANCH   6   7
ATOM      7  C   UNL     1      -9.078 -19.013  -6.064  1.00  0.00     0.053 C 
BRANCH   7   8
ATOM      8  C   UNL     1     -10.257 -18.527  -6.849  1.00  0.00     0.041 C 
ATOM      9  O   UNL     1     -10.084 -17.911  -7.934  1.00  0.00    -0.550 OA
ATOM     10  O   UNL     1     -11.545 -18.724  -6.367  1.00  0.00    -0.550 OA
ENDBRANCH   7   8
ENDBRANCH   6   7
ENDBRANCH   5   6
ENDBRANCH   4   5
ENDBRANCH   3   4
ENDBRANCH   2   3
ENDBRANCH   1   2
BRANCH   1  11
ATOM     11  C   UNL     1      -6.886 -13.010  -3.718  1.00  0.00     0.000 C 
BRANCH  11  12
ATOM     12  C   UNL     1      -6.154 -13.943  -2.738  1.00  0.00    -0.000 C 
BRANCH  12  13
ATOM     13  C   UNL     1      -6.803 -15.334  -2.659  1.00  0.00    -0.000 C 
BRANCH  13  14
ATOM     14  C   UNL     1      -5.766 -16.466  -2.555  1.00  0.00    -0.000 C 
BRANCH  14  15
ATOM     15  C   UNL     1      -4.535 -16.054  -1.720  1.00  0.00    -0.000 C 
BRANCH  15  16
ATOM     16  C   UNL     1      -4.053 -17.146  -0.745  1.00  0.00    -0.000 C 
BRANCH  16  17
ATOM     17  C   UNL     1      -2.567 -17.055  -0.363  1.00  0.00    -0.003 C 
ATOM     18  C   UNL     1      -1.746 -18.231  -0.889  1.00  0.00     0.004 C 
ENDBRANCH  16  17
ENDBRANCH  15  16
ENDBRANCH  14  15
ENDBRANCH  13  14
ENDBRANCH  12  13
ENDBRANCH  11  12
ENDBRANCH   1  11
TORSDOF 14
ENDMDL
MODEL 5
REMARK VINA RESULT:    -5.721      1.924      4.310
REMARK INTER + INTRA:         -11.712
REMARK INTER:                  -9.800
REMARK INTRA:                  -1.912
REMARK UNBOUND:                -1.308
REMARK SMILES CCCCCCCCCCCCCCCC(=O)[O-]
REMARK SMILES IDX 9 1 10 2 11 3 12 4 13 5 14 6 15 7 16 8 17 9 18 10 8 11 7 12
REMARK SMILES IDX 6 13 5 14 4 15 3 16 2 17 1 18
REMARK H PARENT
REMARK Flexibility Score: inf
ROOT
ATOM      1  C   UNL     1      -8.269 -13.601  -5.585  1.00  0.00     0.000 C 
ENDROOT
BRANCH   1   2
ATOM      2  C   UNL     1      -6.858 -13.372  -5.022  1.00  0.00     0.000 C 
BRANCH   2   3
ATOM      3  C   UNL     1      -6.915 -12.995  -3.537  1.00  0.00     0.000 C 
BRANCH   3   4
ATOM      4  C   UNL     1      -6.075 -13.964  -2.691  1.00  0.00     0.000 C 
BRANCH   4   5
ATOM      5  C   UNL     1      -6.680 -15.375  -2.631  1.00  0.00     0.000 C 
BRANCH   5   6
ATOM      6  C   UNL     1      -5.641 -16.448  -2.257  1.00  0.00     0.006 C 
BRANCH   6   7
ATOM      7  C   UNL     1      -4.281 -15.836  -1.897  1.00  0.00     0.053 C 
BRANCH   7   8
ATOM      8  C   UNL     1      -3.523 -16.695  -0.933  1.00  0.00     0.041 C 
ATOM      9  O   UNL     1      -2.266 -16.760  -0.996  1.00  0.00    -0.550 OA
ATOM     10  O   UNL     1      -4.204 -17.452   0.012  1.00  0.00    -0.550 OA
ENDBRANCH   7   8
ENDBRANCH   6   7
ENDBRANCH   5   6
ENDBRANCH   4   5
ENDBRANCH   3   4
ENDBRANCH   2   3
ENDBRANCH   1   2
BRANCH   1  11
ATOM     11  C   UNL     1      -8.560 -15.084  -5.872  1.00  0.00     0.000 C 
BRANCH  11  12
ATOM     12  C   UNL     1      -7.446 -15.756  -6.693  1.00  0.00    -0.000 C 
BRANCH  12  13
ATOM     13  C   UNL     1      -6.808 -16.942  -5.952  1.00  0.00    -0.000 C 
BRANCH  13  14
ATOM     14  C   UNL     1      -7.854 -17.858  -5.291  1.00  0.00    -0.000 C 
BRANCH  14  15
ATOM     15  C   UNL     1      -8.502 -18.827  -6.301  1.00  0.00    -0.000 C 
BRANCH  15  16
ATOM     16  C   UNL     1      -9.980 -18.512  -6.601  1.00  0.00    -0.000 C 
BRANCH  16  17
ATOM     17  C   UNL     1     -10.248 -17.968  -8.014  1.00  0.00    -0.003 C 
ATOM     18  C   UNL     1      -9.070 -18.181  -8.964  1.00  0.00     0.004 C 
ENDBRANCH  16  17
ENDBRANCH  15  16
ENDBRANCH  14  15
ENDBRANCH  13  14
ENDBRANCH  12  13
ENDBRANCH  11  12
ENDBRANCH   1  11
TORSDOF 14
ENDMDL
MODEL 6
REMARK VINA RESULT:    -5.717      1.021      1.603
REMARK INTER + INTRA:         -11.704
REMARK INTER:                 -10.259
REMARK INTRA:                  -1.445
REMARK UNBOUND:                -1.308
REMARK SMILES CCCCCCCCCCCCCCCC(=O)[O-]
REMARK SMILES IDX 9 1 10 2 11 3 12 4 13 5 14 6 15 7 16 8 17 9 18 10 8 11 7 12
REMARK SMILES IDX 6 13 5 14 4 15 3 16 2 17 1 18
REMARK H PARENT
REMARK Flexibility Score: inf
ROOT
ATOM      1  C   UNL     1      -5.746 -16.282  -3.158  1.00  0.00     0.000 C 
ENDROOT
BRANCH   1   2
ATOM      2  C   UNL     1      -5.093 -15.705  -1.893  1.00  0.00     0.000 C 
BRANCH   2   3
ATOM      3  C   UNL     1      -4.046 -16.670  -1.326  1.00  0.00     0.000 C 
BRANCH   3   4
ATOM      4  C   UNL     1      -2.640 -16.319  -1.835  1.00  0.00     0.000 C 
BRANCH   4   5
ATOM      5  C   UNL     1      -1.676 -17.515  -1.787  1.00  0.00     0.000 C 
BRANCH   5   6
ATOM      6  C   UNL     1      -1.726 -18.260  -0.441  1.00  0.00     0.006 C 
BRANCH   6   7
ATOM      7  C   UNL     1      -0.581 -17.845   0.493  1.00  0.00     0.053 C 
BRANCH   7   8
ATOM      8  C   UNL     1      -1.005 -16.773   1.449  1.00  0.00     0.041 C 
ATOM      9  O   UNL     1      -2.195 -16.725   1.859  1.00  0.00    -0.550 OA
ATOM     10  O   UNL     1      -0.095 -15.807   1.862  1.00  0.00    -0.550 OA
ENDBRANCH   7   8
ENDBRANCH   6   7
ENDBRANCH   5   6
ENDBRANCH   4   5
ENDBRANCH   3   4
ENDBRANCH   2   3
ENDBRANCH   1   2
BRANCH   1  11
ATOM     11  C   UNL     1      -7.262 -16.486  -3.004  1.00  0.00     0.000 C 
BRANCH  11  12
ATOM     12  C   UNL     1      -7.822 -17.525  -3.991  1.00  0.00    -0.000 C 
BRANCH  12  13
ATOM     13  C   UNL     1      -6.986 -17.619  -5.278  1.00  0.00    -0.000 C 
BRANCH  13  14
ATOM     14  C   UNL     1      -7.690 -16.979  -6.488  1.00  0.00    -0.000 C 
BRANCH  14  15
ATOM     15  C   UNL     1      -7.440 -15.458  -6.571  1.00  0.00    -0.000 C 
BRANCH  15  16
ATOM     16  C   UNL     1      -8.651 -14.608  -6.145  1.00  0.00    -0.000 C 
BRANCH  16  17
ATOM     17  C   UNL     1      -8.306 -13.391  -5.269  1.00  0.00    -0.003 C 
ATOM     18  C   UNL     1      -6.801 -13.201  -5.086  1.00  0.00     0.004 C 
ENDBRANCH  16  17
ENDBRANCH  15  16
ENDBRANCH  14  15
ENDBRANCH  13  14
ENDBRANCH  12  13
ENDBRANCH  11  12
ENDBRANCH   1  11
TORSDOF 14
ENDMDL
MODEL 7
REMARK VINA RESULT:    -5.713      1.306      3.425
REMARK INTER + INTRA:         -11.697
REMARK INTER:                 -10.483
REMARK INTRA:                  -1.214
REMARK UNBOUND:                -1.308
REMARK SMILES CCCCCCCCCCCCCCCC(=O)[O-]
REMARK SMILES IDX 9 1 10 2 11 3 12 4 13 5 14 6 15 7 16 8 17 9 18 10 8 11 7 12
REMARK SMILES IDX 6 13 5 14 4 15 3 16 2 17 1 18
REMARK H PARENT
REMARK Flexibility Score: inf
ROOT
ATOM      1  C   UNL     1      -6.896 -13.013  -3.591  1.00  0.00     0.000 C 
ENDROOT
BRANCH   1   2
ATOM      2  C   UNL     1      -6.221 -14.051  -2.680  1.00  0.00     0.000 C 
BRANCH   2   3
ATOM      3  C   UNL     1      -6.532 -15.476  -3.150  1.00  0.00     0.000 C 
BRANCH   3   4
ATOM      4  C   UNL     1      -5.802 -16.513  -2.283  1.00  0.00     0.000 C 
BRANCH   4   5
ATOM      5  C   UNL     1      -4.396 -16.054  -1.866  1.00  0.00     0.000 C 
BRANCH   5   6
ATOM      6  C   UNL     1      -3.778 -16.953  -0.781  1.00  0.00     0.006 C 
BRANCH   6   7
ATOM      7  C   UNL     1      -2.331 -17.346  -1.110  1.00  0.00     0.053 C 
BRANCH   7   8
ATOM      8  C   UNL     1      -1.509 -17.527   0.128  1.00  0.00     0.041 C 
ATOM      9  O   UNL     1      -0.857 -16.559   0.602  1.00  0.00    -0.550 OA
ATOM     10  O   UNL     1      -1.433 -18.772   0.738  1.00  0.00    -0.550 OA
ENDBRANCH   7   8
ENDBRANCH   6   7
ENDBRANCH   5   6
ENDBRANCH   4   5
ENDBRANCH   3   4
ENDBRANCH   2   3
ENDBRANCH   1   2
BRANCH   1  11
ATOM     11  C   UNL     1      -6.893 -13.430  -5.071  1.00  0.00     0.000 C 
BRANCH  11  12
ATOM     12  C   UNL     1      -8.312 -13.540  -5.656  1.00  0.00    -0.000 C 
BRANCH  12  13
ATOM     13  C   UNL     1      -8.705 -14.993  -5.967  1.00  0.00    -0.000 C 
BRANCH  13  14
ATOM     14  C   UNL     1      -7.650 -15.723  -6.817  1.00  0.00    -0.000 C 
BRANCH  14  15
ATOM     15  C   UNL     1      -7.267 -17.093  -6.219  1.00  0.00    -0.000 C 
BRANCH  15  16
ATOM     16  C   UNL     1      -8.479 -17.948  -5.803  1.00  0.00    -0.000 C 
BRANCH  16  17
ATOM     17  C   UNL     1      -9.267 -18.559  -6.974  1.00  0.00    -0.003 C 
ATOM     18  C   UNL     1     -10.674 -17.981  -7.108  1.00  0.00     0.004 C 
ENDBRANCH  16  17
ENDBRANCH  15  16
ENDBRANCH  14  15
ENDBRANCH  13  14
ENDBRANCH  12  13
ENDBRANCH  11  12
ENDBRANCH   1  11
TORSDOF 14
ENDMDL
MODEL 8
REMARK VINA RESULT:    -5.677      1.068      2.799
REMARK INTER + INTRA:         -11.632
REMARK INTER:                 -10.400
REMARK INTRA:                  -1.232
REMARK UNBOUND:                -1.308
REMARK SMILES CCCCCCCCCCCCCCCC(=O)[O-]
REMARK SMILES IDX 9 1 10 2 11 3 12 4 13 5 14 6 15 7 16 8 17 9 18 10 8 11 7 12
REMARK SMILES IDX 6 13 5 14 4 15 3 16 2 17 1 18
REMARK H PARENT
REMARK Flexibility Score: inf
ROOT
ATOM      1  C   UNL     1      -5.731 -16.342  -2.513  1.00  0.00     0.000 C 
ENDROOT
BRANCH   1   2
ATOM      2  C   UNL     1      -4.467 -15.822  -1.810  1.00  0.00     0.000 C 
BRANCH   2   3
ATOM      3  C   UNL     1      -3.822 -16.921  -0.959  1.00  0.00     0.000 C 
BRANCH   3   4
ATOM      4  C   UNL     1      -2.316 -17.025  -1.244  1.00  0.00     0.000 C 
BRANCH   4   5
ATOM      5  C   UNL     1      -1.692 -18.309  -0.674  1.00  0.00     0.000 C 
BRANCH   5   6
ATOM      6  C   UNL     1      -0.567 -18.022   0.336  1.00  0.00     0.006 C 
BRANCH   6   7
ATOM      7  C   UNL     1      -0.554 -16.555   0.787  1.00  0.00     0.053 C 
BRANCH   7   8
ATOM      8  C   UNL     1      -0.826 -16.422   2.253  1.00  0.00     0.041 C 
ATOM      9  O   UNL     1      -0.817 -15.287   2.798  1.00  0.00    -0.550 OA
ATOM     10  O   UNL     1      -1.054 -17.555   3.025  1.00  0.00    -0.550 OA
ENDBRANCH   7   8
ENDBRANCH   6   7
ENDBRANCH   5   6
ENDBRANCH   4   5
ENDBRANCH   3   4
ENDBRANCH   2   3
ENDBRANCH   1   2
BRANCH   1  11
ATOM     11  C   UNL     1      -6.783 -15.242  -2.732  1.00  0.00     0.000 C 
BRANCH  11  12
ATOM     12  C   UNL     1      -6.157 -13.843  -2.867  1.00  0.00    -0.000 C 
BRANCH  12  13
ATOM     13  C   UNL     1      -6.942 -12.942  -3.833  1.00  0.00    -0.000 C 
BRANCH  13  14
ATOM     14  C   UNL     1      -6.995 -13.510  -5.263  1.00  0.00    -0.000 C 
BRANCH  14  15
ATOM     15  C   UNL     1      -8.428 -13.900  -5.682  1.00  0.00    -0.000 C 
BRANCH  15  16
ATOM     16  C   UNL     1      -8.579 -15.385  -6.063  1.00  0.00    -0.000 C 
BRANCH  16  17
ATOM     17  C   UNL     1      -7.257 -16.105  -6.379  1.00  0.00    -0.003 C 
ATOM     18  C   UNL     1      -7.168 -17.489  -5.738  1.00  0.00     0.004 C 
ENDBRANCH  16  17
ENDBRANCH  15  16
ENDBRANCH  14  15
ENDBRANCH  13  14
ENDBRANCH  12  13
ENDBRANCH  11  12
ENDBRANCH   1  11
TORSDOF 14
ENDMDL
MODEL 9
REMARK VINA RESULT:    -5.658      2.090      2.515
REMARK INTER + INTRA:         -11.598
REMARK INTER:                 -10.296
REMARK INTRA:                  -1.302
REMARK UNBOUND:                -1.308
REMARK SMILES CCCCCCCCCCCCCCCC(=O)[O-]
REMARK SMILES IDX 9 1 10 2 11 3 12 4 13 5 14 6 15 7 16 8 17 9 18 10 8 11 7 12
REMARK SMILES IDX 6 13 5 14 4 15 3 16 2 17 1 18
REMARK H PARENT
REMARK Flexibility Score: inf
ROOT
ATOM      1  C   UNL     1      -5.724 -16.460  -3.242  1.00  0.00     0.000 C 
ENDROOT
BRANCH   1   2
ATOM      2  C   UNL     1      -5.085 -16.093  -1.894  1.00  0.00     0.000 C 
BRANCH   2   3
ATOM      3  C   UNL     1      -3.598 -16.466  -1.873  1.00  0.00     0.000 C 
BRANCH   3   4
ATOM      4  C   UNL     1      -3.243 -17.242  -0.595  1.00  0.00     0.000 C 
BRANCH   4   5
ATOM      5  C   UNL     1      -1.857 -17.901  -0.668  1.00  0.00     0.000 C 
BRANCH   5   6
ATOM      6  C   UNL     1      -1.243 -17.831  -2.077  1.00  0.00     0.006 C 
BRANCH   6   7
ATOM      7  C   UNL     1       0.253 -17.492  -2.040  1.00  0.00     0.053 C 
BRANCH   7   8
ATOM      8  C   UNL     1       0.522 -16.108  -2.543  1.00  0.00     0.041 C 
ATOM      9  O   UNL     1       1.671 -15.795  -2.953  1.00  0.00    -0.550 OA
ATOM     10  O   UNL     1      -0.487 -15.152  -2.527  1.00  0.00    -0.550 OA
ENDBRANCH   7   8
ENDBRANCH   6   7
ENDBRANCH   5   6
ENDBRANCH   4   5
ENDBRANCH   3   4
ENDBRANCH   2   3
ENDBRANCH   1   2
BRANCH   1  11
ATOM     11  C   UNL     1      -7.194 -16.892  -3.105  1.00  0.00     0.000 C 
BRANCH  11  12
ATOM     12  C   UNL     1      -7.848 -17.201  -4.463  1.00  0.00    -0.000 C 
BRANCH  12  13
ATOM     13  C   UNL     1      -6.974 -16.759  -5.647  1.00  0.00    -0.000 C 
BRANCH  13  14
ATOM     14  C   UNL     1      -7.627 -15.640  -6.479  1.00  0.00    -0.000 C 
BRANCH  14  15
ATOM     15  C   UNL     1      -8.583 -14.769  -5.636  1.00  0.00    -0.000 C 
BRANCH  15  16
ATOM     16  C   UNL     1      -8.210 -13.274  -5.623  1.00  0.00    -0.000 C 
BRANCH  16  17
ATOM     17  C   UNL     1      -6.839 -12.960  -5.002  1.00  0.00    -0.003 C 
ATOM     18  C   UNL     1      -6.794 -13.224  -3.498  1.00  0.00     0.004 C 
ENDBRANCH  16  17
ENDBRANCH  15  16
ENDBRANCH  14  15
ENDBRANCH  13  14
ENDBRANCH  12  13
ENDBRANCH  11  12
ENDBRANCH   1  11
TORSDOF 14
ENDMDL
