MODEL 1
REMARK VINA RESULT:     2.958      0.000      0.000
REMARK INTER + INTRA:           3.865
REMARK INTER:                   3.564
REMARK INTRA:                   0.302
REMARK UNBOUND:                 0.302
REMARK SMILES O=c1c(O)c(-c2ccc(O)c(O)c2)oc2cc(O)cc(O)c12
REMARK SMILES IDX 5 1 3 2 2 3 1 4 22 5 20 6 19 7 17 8 16 9 15 10 14 11 6 12
REMARK SMILES IDX 7 13 8 14 9 15 13 16 11 17 10 18 12 20 4 22 21 24 18 26
REMARK H PARENT 10 19 12 21 4 23 21 25 18 27
REMARK Flexibility Score: inf
ROOT
ATOM      1  C   UNL     1      11.882  10.456  26.216  1.00  0.00     0.180 A 
ATOM      2  C   UNL     1      12.466  10.277  24.950  1.00  0.00     0.208 A 
ATOM      3  C   UNL     1      11.634  10.094  23.835  1.00  0.00     0.238 A 
ATOM      4  O   UNL     1      12.163   9.880  22.713  1.00  0.00    -0.285 OA
ATOM      5  C   UNL     1      10.226  10.110  23.996  1.00  0.00     0.111 A 
ATOM      6  C   UNL     1       9.287   9.976  22.930  1.00  0.00     0.134 A 
ATOM      7  C   UNL     1       7.922   9.875  23.222  1.00  0.00     0.093 A 
ATOM      8  C   UNL     1       7.457   9.970  24.535  1.00  0.00     0.123 A 
ATOM      9  C   UNL     1       8.361  10.161  25.577  1.00  0.00     0.094 A 
ATOM     10  C   UNL     1       9.733  10.228  25.321  1.00  0.00     0.146 A 
ATOM     11  O   UNL     1      10.561  10.401  26.344  1.00  0.00    -0.452 OA
ENDROOT
BRANCH   1  12
ATOM     12  C   UNL     1      12.693  10.678  27.434  1.00  0.00     0.025 A 
ATOM     13  C   UNL     1      13.934  11.325  27.330  1.00  0.00     0.016 A 
ATOM     14  C   UNL     1      14.726  11.528  28.463  1.00  0.00     0.051 A 
ATOM     15  C   UNL     1      14.298  11.073  29.713  1.00  0.00     0.157 A 
ATOM     16  C   UNL     1      12.275  10.202  28.690  1.00  0.00     0.062 A 
ATOM     17  C   UNL     1      13.069  10.403  29.829  1.00  0.00     0.158 A 
BRANCH  15  18
ATOM     18  O   UNL     1      15.109  11.290  30.827  1.00  0.00    -0.504 OA
ATOM     19  H   UNL     1      15.611  10.537  31.282  1.00  0.00     0.293 HD
ENDBRANCH  15  18
BRANCH  17  20
ATOM     20  O   UNL     1      12.643   9.934  31.070  1.00  0.00    -0.504 OA
ATOM     21  H   UNL     1      12.190   9.033  31.172  1.00  0.00     0.293 HD
ENDBRANCH  17  20
ENDBRANCH   1  12
BRANCH   2  22
ATOM     22  O   UNL     1      13.857  10.242  24.817  1.00  0.00    -0.502 OA
ATOM     23  H   UNL     1      14.316  10.187  23.916  1.00  0.00     0.293 HD
ENDBRANCH   2  22
BRANCH   6  24
ATOM     24  O   UNL     1       9.639   9.965  21.577  1.00  0.00    -0.507 OA
ATOM     25  H   UNL     1       9.291  10.613  20.887  1.00  0.00     0.293 HD
ENDBRANCH   6  24
BRANCH   8  26
ATOM     26  O   UNL     1       6.095   9.885  24.815  1.00  0.00    -0.508 OA
ATOM     27  H   UNL     1       5.743   9.301  25.565  1.00  0.00     0.293 HD
ENDBRANCH   8  26
TORSDOF 6
ENDMDL
MODEL 2
REMARK VINA RESULT:     3.910      0.732      1.458
REMARK INTER + INTRA:           5.012
REMARK INTER:                   5.206
REMARK INTRA:                  -0.194
REMARK UNBOUND:                 0.302
REMARK SMILES O=c1c(O)c(-c2ccc(O)c(O)c2)oc2cc(O)cc(O)c12
REMARK SMILES IDX 5 1 3 2 2 3 1 4 22 5 20 6 19 7 17 8 16 9 15 10 14 11 6 12
REMARK SMILES IDX 7 13 8 14 9 15 13 16 11 17 10 18 12 20 4 22 21 24 18 26
REMARK H PARENT 10 19 12 21 4 23 21 25 18 27
REMARK Flexibility Score: inf
ROOT
ATOM      1  C   UNL     1      11.966  10.600  26.152  1.00  0.00     0.180 A 
ATOM      2  C   UNL     1      12.532  10.370  24.887  1.00  0.00     0.208 A 
ATOM      3  C   UNL     1      11.683  10.137  23.793  1.00  0.00     0.238 A 
ATOM      4  O   UNL     1      12.196   9.878  22.673  1.00  0.00    -0.285 OA
ATOM      5  C   UNL     1      10.278  10.153  23.975  1.00  0.00     0.111 A 
ATOM      6  C   UNL     1       9.324   9.970  22.931  1.00  0.00     0.134 A 
ATOM      7  C   UNL     1       7.963   9.876  23.248  1.00  0.00     0.093 A 
ATOM      8  C   UNL     1       7.518  10.023  24.564  1.00  0.00     0.123 A 
ATOM      9  C   UNL     1       8.438  10.262  25.582  1.00  0.00     0.094 A 
ATOM     10  C   UNL     1       9.805  10.325  25.302  1.00  0.00     0.146 A 
ATOM     11  O   UNL     1      10.648  10.544  26.304  1.00  0.00    -0.452 OA
ENDROOT
BRANCH   1  12
ATOM     12  C   UNL     1      12.795  10.877  27.347  1.00  0.00     0.025 A 
ATOM     13  C   UNL     1      12.759   9.990  28.435  1.00  0.00     0.016 A 
ATOM     14  C   UNL     1      13.518  10.242  29.580  1.00  0.00     0.051 A 
ATOM     15  C   UNL     1      14.310  11.391  29.664  1.00  0.00     0.157 A 
ATOM     16  C   UNL     1      13.576  12.043  27.442  1.00  0.00     0.062 A 
ATOM     17  C   UNL     1      14.338  12.299  28.593  1.00  0.00     0.158 A 
BRANCH  15  18
ATOM     18  O   UNL     1      15.058  11.616  30.820  1.00  0.00    -0.504 OA
ATOM     19  H   UNL     1      15.104  12.526  31.262  1.00  0.00     0.293 HD
ENDBRANCH  15  18
BRANCH  17  20
ATOM     20  O   UNL     1      15.114  13.453  28.675  1.00  0.00    -0.504 OA
ATOM     21  H   UNL     1      16.119  13.411  28.798  1.00  0.00     0.293 HD
ENDBRANCH  17  20
ENDBRANCH   1  12
BRANCH   2  22
ATOM     22  O   UNL     1      13.921  10.336  24.733  1.00  0.00    -0.502 OA
ATOM     23  H   UNL     1      14.367   9.974  23.899  1.00  0.00     0.293 HD
ENDBRANCH   2  22
BRANCH   6  24
ATOM     24  O   UNL     1       9.654   9.904  21.574  1.00  0.00    -0.507 OA
ATOM     25  H   UNL     1       9.605  10.680  20.931  1.00  0.00     0.293 HD
ENDBRANCH   6  24
BRANCH   8  26
ATOM     26  O   UNL     1       6.161   9.944  24.868  1.00  0.00    -0.508 OA
ATOM     27  H   UNL     1       5.588  10.775  24.957  1.00  0.00     0.293 HD
ENDBRANCH   8  26
TORSDOF 6
ENDMDL
MODEL 3
REMARK VINA RESULT:     5.711      2.142      6.508
REMARK INTER + INTRA:           7.181
REMARK INTER:                   6.879
REMARK INTRA:                   0.302
REMARK UNBOUND:                 0.302
REMARK SMILES O=c1c(O)c(-c2ccc(O)c(O)c2)oc2cc(O)cc(O)c12
REMARK SMILES IDX 5 1 3 2 2 3 1 4 22 5 20 6 19 7 17 8 16 9 15 10 14 11 6 12
REMARK SMILES IDX 7 13 8 14 9 15 13 16 11 17 10 18 12 20 4 22 21 24 18 26
REMARK H PARENT 10 19 12 21 4 23 21 25 18 27
REMARK Flexibility Score: inf
ROOT
ATOM      1  C   UNL     1      12.590  10.728  26.046  1.00  0.00     0.180 A 
ATOM      2  C   UNL     1      13.806  11.220  26.550  1.00  0.00     0.208 A 
ATOM      3  C   UNL     1      13.960  11.365  27.937  1.00  0.00     0.238 A 
ATOM      4  O   UNL     1      15.031  11.856  28.380  1.00  0.00    -0.285 OA
ATOM      5  C   UNL     1      12.902  11.000  28.806  1.00  0.00     0.111 A 
ATOM      6  C   UNL     1      12.963  11.066  30.230  1.00  0.00     0.134 A 
ATOM      7  C   UNL     1      11.812  10.805  30.983  1.00  0.00     0.093 A 
ATOM      8  C   UNL     1      10.621  10.415  30.366  1.00  0.00     0.123 A 
ATOM      9  C   UNL     1      10.568  10.289  28.980  1.00  0.00     0.094 A 
ATOM     10  C   UNL     1      11.690  10.579  28.199  1.00  0.00     0.146 A 
ATOM     11  O   UNL     1      11.594  10.456  26.881  1.00  0.00    -0.452 OA
ENDROOT
BRANCH   1  12
ATOM     12  C   UNL     1      12.362  10.525  24.597  1.00  0.00     0.025 A 
ATOM     13  C   UNL     1      11.049  10.495  24.101  1.00  0.00     0.016 A 
ATOM     14  C   UNL     1      10.810  10.284  22.741  1.00  0.00     0.051 A 
ATOM     15  C   UNL     1      11.876  10.084  21.859  1.00  0.00     0.157 A 
ATOM     16  C   UNL     1      13.432  10.302  23.711  1.00  0.00     0.062 A 
ATOM     17  C   UNL     1      13.194  10.089  22.345  1.00  0.00     0.158 A 
BRANCH  15  18
ATOM     18  O   UNL     1      11.606   9.878  20.506  1.00  0.00    -0.504 OA
ATOM     19  H   UNL     1      11.358  10.639  19.885  1.00  0.00     0.293 HD
ENDBRANCH  15  18
BRANCH  17  20
ATOM     20  O   UNL     1      14.260   9.877  21.474  1.00  0.00    -0.504 OA
ATOM     21  H   UNL     1      14.182  10.064  20.481  1.00  0.00     0.293 HD
ENDBRANCH  17  20
ENDBRANCH   1  12
BRANCH   2  22
ATOM     22  O   UNL     1      14.829  11.595  25.674  1.00  0.00    -0.502 OA
ATOM     23  H   UNL     1      15.800  11.639  25.959  1.00  0.00     0.293 HD
ENDBRANCH   2  22
BRANCH   6  24
ATOM     24  O   UNL     1      14.127  11.355  30.948  1.00  0.00    -0.507 OA
ATOM     25  H   UNL     1      14.780  12.087  30.715  1.00  0.00     0.293 HD
ENDBRANCH   6  24
BRANCH   8  26
ATOM     26  O   UNL     1       9.485  10.140  31.124  1.00  0.00    -0.508 OA
ATOM     27  H   UNL     1       9.279  10.650  31.975  1.00  0.00     0.293 HD
ENDBRANCH   8  26
TORSDOF 6
ENDMDL
