MODEL 1
REMARK VINA RESULT:    19.620      0.000      0.000
REMARK INTER + INTRA:          31.334
REMARK INTER:                  32.237
REMARK INTRA:                  -0.903
REMARK UNBOUND:                -0.903
REMARK SMILES C[C@@H]1O[C@@H](OC[C@@H]2O[C@H](Oc3c(-c4ccc(O)c(O)c4)oc4cc(O)cc(O)c4c3=O)[C@H](O)[C@H](O)[C@@H]2O)[C@@H](O)[C@@H](O)[C@@H]1O
REMARK SMILES IDX 7 1 36 2 34 3 32 4 9 5 8 6 6 7 5 8 4 9 1 10 2 11 42 12 3 13
REMARK SMILES IDX 40 14 38 15 43 16 41 18 39 20 37 22 35 24 10 26 11 27 12 28
REMARK SMILES IDX 30 29 21 30 29 31 31 32 22 33 27 34 23 35 26 36 24 37 13 38
REMARK SMILES IDX 20 39 14 40 18 41 15 42 16 43 19 44 17 46 28 48 25 50 33 52
REMARK H PARENT 43 17 41 19 39 21 37 23 35 25 19 45 17 47 28 49 25 51 33 53
REMARK Flexibility Score: inf
ROOT
ATOM      1  C   UNL     1      28.144  37.524  30.122  1.00  0.00     0.180 C 
ATOM      2  C   UNL     1      27.075  36.842  31.030  1.00  0.00     0.177 C 
ATOM      3  C   UNL     1      25.619  37.128  30.586  1.00  0.00     0.180 C 
ATOM      4  C   UNL     1      25.476  37.134  29.042  1.00  0.00     0.214 C 
ATOM      5  C   UNL     1      26.850  36.846  28.351  1.00  0.00     0.339 C 
ATOM      6  O   UNL     1      27.726  37.840  28.811  1.00  0.00    -0.332 OA
ENDROOT
BRANCH   1   7
ATOM      7  C   UNL     1      28.770  38.790  30.792  1.00  0.00     0.198 C 
BRANCH   7   8
ATOM      8  O   UNL     1      29.630  39.488  29.957  1.00  0.00    -0.347 OA
BRANCH   8   9
ATOM      9  C   UNL     1      31.008  39.419  30.311  1.00  0.00     0.281 C 
ATOM     10  C   UNL     1      32.777  40.945  27.579  1.00  0.00     0.041 C 
ATOM     11  C   UNL     1      31.477  40.413  28.173  1.00  0.00     0.150 C 
ATOM     12  C   UNL     1      30.980  39.017  27.630  1.00  0.00     0.174 C 
ATOM     13  O   UNL     1      31.624  40.501  29.634  1.00  0.00    -0.344 OA
ATOM     14  C   UNL     1      31.460  37.735  28.414  1.00  0.00     0.179 C 
ATOM     15  C   UNL     1      31.768  38.107  29.915  1.00  0.00     0.202 C 
BRANCH  12  16
ATOM     16  O   UNL     1      31.134  38.935  26.221  1.00  0.00    -0.388 OA
ATOM     17  H   UNL     1      30.227  39.000  25.849  1.00  0.00     0.211 HD
ENDBRANCH  12  16
BRANCH  14  18
ATOM     18  O   UNL     1      30.504  36.665  28.303  1.00  0.00    -0.387 OA
ATOM     19  H   UNL     1      29.647  36.943  28.758  1.00  0.00     0.211 HD
ENDBRANCH  14  18
BRANCH  15  20
ATOM     20  O   UNL     1      31.442  37.051  30.789  1.00  0.00    -0.385 OA
ATOM     21  H   UNL     1      31.845  37.208  31.694  1.00  0.00     0.211 HD
ENDBRANCH  15  20
ENDBRANCH   8   9
ENDBRANCH   7   8
ENDBRANCH   1   7
BRANCH   2  22
ATOM     22  O   UNL     1      27.255  37.203  32.411  1.00  0.00    -0.387 OA
ATOM     23  H   UNL     1      27.572  36.382  32.864  1.00  0.00     0.211 HD
ENDBRANCH   2  22
BRANCH   3  24
ATOM     24  O   UNL     1      25.217  38.356  31.129  1.00  0.00    -0.387 OA
ATOM     25  H   UNL     1      25.992  38.970  30.861  1.00  0.00     0.211 HD
ENDBRANCH   3  24
BRANCH   5  26
ATOM     26  O   UNL     1      26.848  36.820  26.911  1.00  0.00    -0.454 OA
BRANCH  26  27
ATOM     27  C   UNL     1      27.627  37.674  26.033  1.00  0.00     0.214 A 
ATOM     28  C   UNL     1      28.769  37.096  25.384  1.00  0.00     0.180 A 
ATOM     29  C   UNL     1      27.320  39.013  25.764  1.00  0.00     0.239 A 
ATOM     30  O   UNL     1      29.537  37.838  24.629  1.00  0.00    -0.452 OA
ATOM     31  C   UNL     1      28.191  39.782  24.894  1.00  0.00     0.111 A 
ATOM     32  O   UNL     1      26.272  39.530  26.187  1.00  0.00    -0.285 OA
ATOM     33  C   UNL     1      29.274  39.095  24.285  1.00  0.00     0.146 A 
ATOM     34  C   UNL     1      27.971  41.160  24.491  1.00  0.00     0.134 A 
ATOM     35  C   UNL     1      30.056  39.652  23.298  1.00  0.00     0.094 A 
ATOM     36  C   UNL     1      28.772  41.654  23.457  1.00  0.00     0.093 A 
ATOM     37  C   UNL     1      29.714  40.894  22.793  1.00  0.00     0.123 A 
BRANCH  28  38
ATOM     38  C   UNL     1      29.102  35.686  25.462  1.00  0.00     0.025 A 
ATOM     39  C   UNL     1      30.375  35.210  25.072  1.00  0.00     0.062 A 
ATOM     40  C   UNL     1      28.341  34.888  26.279  1.00  0.00     0.016 A 
ATOM     41  C   UNL     1      30.658  33.829  25.170  1.00  0.00     0.158 A 
ATOM     42  C   UNL     1      28.655  33.523  26.483  1.00  0.00     0.051 A 
ATOM     43  C   UNL     1      29.786  32.996  25.928  1.00  0.00     0.157 A 
BRANCH  41  44
ATOM     44  O   UNL     1      31.743  33.357  24.462  1.00  0.00    -0.504 OA
ATOM     45  H   UNL     1      32.196  32.510  24.756  1.00  0.00     0.293 HD
ENDBRANCH  41  44
BRANCH  43  46
ATOM     46  O   UNL     1      30.045  31.619  26.035  1.00  0.00    -0.504 OA
ATOM     47  H   UNL     1      30.908  31.318  25.717  1.00  0.00     0.293 HD
ENDBRANCH  43  46
ENDBRANCH  28  38
BRANCH  34  48
ATOM     48  O   UNL     1      26.993  41.957  25.026  1.00  0.00    -0.507 OA
ATOM     49  H   UNL     1      25.992  41.692  25.138  1.00  0.00     0.293 HD
ENDBRANCH  34  48
BRANCH  37  50
ATOM     50  O   UNL     1      30.256  41.312  21.607  1.00  0.00    -0.508 OA
ATOM     51  H   UNL     1      30.438  40.623  20.864  1.00  0.00     0.293 HD
ENDBRANCH  37  50
ENDBRANCH  26  27
ENDBRANCH   5  26
BRANCH   4  52
ATOM     52  O   UNL     1      24.900  38.349  28.570  1.00  0.00    -0.384 OA
ATOM     53  H   UNL     1      23.928  38.301  28.647  1.00  0.00     0.211 HD
ENDBRANCH   4  52
TORSDOF 16
ENDMDL
MODEL 2
REMARK VINA RESULT:    21.035      1.638      6.155
REMARK INTER + INTRA:          33.658
REMARK INTER:                  31.821
REMARK INTRA:                   1.836
REMARK UNBOUND:                -0.903
REMARK SMILES C[C@@H]1O[C@@H](OC[C@@H]2O[C@H](Oc3c(-c4ccc(O)c(O)c4)oc4cc(O)cc(O)c4c3=O)[C@H](O)[C@H](O)[C@@H]2O)[C@@H](O)[C@@H](O)[C@@H]1O
REMARK SMILES IDX 7 1 36 2 34 3 32 4 9 5 8 6 6 7 5 8 4 9 1 10 2 11 42 12 3 13
REMARK SMILES IDX 40 14 38 15 43 16 41 18 39 20 37 22 35 24 10 26 11 27 12 28
REMARK SMILES IDX 30 29 21 30 29 31 31 32 22 33 27 34 23 35 26 36 24 37 13 38
REMARK SMILES IDX 20 39 14 40 18 41 15 42 16 43 19 44 17 46 28 48 25 50 33 52
REMARK H PARENT 43 17 41 19 39 21 37 23 35 25 19 45 17 47 28 49 25 51 33 53
REMARK Flexibility Score: inf
ROOT
ATOM      1  C   UNL     1      27.417  36.150  26.255  1.00  0.00     0.180 C 
ATOM      2  C   UNL     1      27.060  34.637  26.131  1.00  0.00     0.177 C 
ATOM      3  C   UNL     1      28.272  33.749  25.755  1.00  0.00     0.180 C 
ATOM      4  C   UNL     1      29.571  34.211  26.465  1.00  0.00     0.214 C 
ATOM      5  C   UNL     1      29.299  35.457  27.373  1.00  0.00     0.339 C 
ATOM      6  O   UNL     1      28.772  36.441  26.525  1.00  0.00    -0.332 OA
ENDROOT
BRANCH   1   7
ATOM      7  C   UNL     1      26.941  36.975  25.016  1.00  0.00     0.198 C 
BRANCH   7   8
ATOM      8  O   UNL     1      27.874  37.904  24.580  1.00  0.00    -0.347 OA
BRANCH   8   9
ATOM      9  C   UNL     1      27.331  39.131  24.101  1.00  0.00     0.281 C 
ATOM     10  C   UNL     1      30.145  41.028  22.916  1.00  0.00     0.041 C 
ATOM     11  C   UNL     1      29.592  39.810  23.648  1.00  0.00     0.150 C 
ATOM     12  C   UNL     1      29.697  39.833  25.223  1.00  0.00     0.174 C 
ATOM     13  O   UNL     1      28.241  39.585  23.114  1.00  0.00    -0.344 OA
ATOM     14  C   UNL     1      28.470  40.434  26.011  1.00  0.00     0.179 C 
ATOM     15  C   UNL     1      27.154  40.276  25.156  1.00  0.00     0.202 C 
BRANCH  12  16
ATOM     16  O   UNL     1      30.961  40.326  25.642  1.00  0.00    -0.388 OA
ATOM     17  H   UNL     1      31.581  39.568  25.569  1.00  0.00     0.211 HD
ENDBRANCH  12  16
BRANCH  14  18
ATOM     18  O   UNL     1      28.345  39.842  27.317  1.00  0.00    -0.387 OA
ATOM     19  H   UNL     1      28.483  40.557  28.016  1.00  0.00     0.211 HD
ENDBRANCH  14  18
BRANCH  15  20
ATOM     20  O   UNL     1      26.029  40.042  25.972  1.00  0.00    -0.385 OA
ATOM     21  H   UNL     1      25.526  39.235  25.652  1.00  0.00     0.211 HD
ENDBRANCH  15  20
ENDBRANCH   8   9
ENDBRANCH   7   8
ENDBRANCH   1   7
BRANCH   2  22
ATOM     22  O   UNL     1      25.982  34.429  25.201  1.00  0.00    -0.387 OA
ATOM     23  H   UNL     1      25.551  33.582  25.475  1.00  0.00     0.211 HD
ENDBRANCH   2  22
BRANCH   3  24
ATOM     24  O   UNL     1      28.430  33.769  24.363  1.00  0.00    -0.387 OA
ATOM     25  H   UNL     1      27.829  32.993  24.071  1.00  0.00     0.211 HD
ENDBRANCH   3  24
BRANCH   5  26
ATOM     26  O   UNL     1      30.431  35.981  28.093  1.00  0.00    -0.454 OA
BRANCH  26  27
ATOM     27  C   UNL     1      30.799  37.380  28.219  1.00  0.00     0.214 A 
ATOM     28  C   UNL     1      29.830  38.274  28.787  1.00  0.00     0.180 A 
ATOM     29  C   UNL     1      32.041  37.902  27.844  1.00  0.00     0.239 A 
ATOM     30  O   UNL     1      30.090  39.552  28.870  1.00  0.00    -0.452 OA
ATOM     31  C   UNL     1      32.288  39.326  27.985  1.00  0.00     0.111 A 
ATOM     32  O   UNL     1      32.967  37.159  27.473  1.00  0.00    -0.285 OA
ATOM     33  C   UNL     1      31.265  40.106  28.588  1.00  0.00     0.146 A 
ATOM     34  C   UNL     1      33.540  39.996  27.682  1.00  0.00     0.134 A 
ATOM     35  C   UNL     1      31.443  41.421  28.953  1.00  0.00     0.094 A 
ATOM     36  C   UNL     1      33.672  41.319  28.114  1.00  0.00     0.093 A 
ATOM     37  C   UNL     1      32.700  41.987  28.832  1.00  0.00     0.123 A 
BRANCH  28  38
ATOM     38  C   UNL     1      28.569  37.829  29.351  1.00  0.00     0.025 A 
ATOM     39  C   UNL     1      28.447  37.529  30.728  1.00  0.00     0.062 A 
ATOM     40  C   UNL     1      27.421  38.087  28.646  1.00  0.00     0.016 A 
ATOM     41  C   UNL     1      27.198  37.105  31.236  1.00  0.00     0.158 A 
ATOM     42  C   UNL     1      26.144  37.770  29.169  1.00  0.00     0.051 A 
ATOM     43  C   UNL     1      26.032  37.275  30.437  1.00  0.00     0.157 A 
BRANCH  41  44
ATOM     44  O   UNL     1      27.198  36.486  32.468  1.00  0.00    -0.504 OA
ATOM     45  H   UNL     1      26.669  36.886  33.223  1.00  0.00     0.293 HD
ENDBRANCH  41  44
BRANCH  43  46
ATOM     46  O   UNL     1      24.781  36.856  30.920  1.00  0.00    -0.504 OA
ATOM     47  H   UNL     1      24.525  35.945  30.719  1.00  0.00     0.293 HD
ENDBRANCH  43  46
ENDBRANCH  28  38
BRANCH  34  48
ATOM     48  O   UNL     1      34.596  39.380  27.062  1.00  0.00    -0.507 OA
ATOM     49  H   UNL     1      34.555  38.893  26.143  1.00  0.00     0.293 HD
ENDBRANCH  34  48
BRANCH  37  50
ATOM     50  O   UNL     1      32.979  43.156  29.487  1.00  0.00    -0.508 OA
ATOM     51  H   UNL     1      33.912  43.581  29.387  1.00  0.00     0.293 HD
ENDBRANCH  37  50
ENDBRANCH  26  27
ENDBRANCH   5  26
BRANCH   4  52
ATOM     52  O   UNL     1      30.619  34.464  25.534  1.00  0.00    -0.384 OA
ATOM     53  H   UNL     1      30.400  34.049  24.676  1.00  0.00     0.211 HD
ENDBRANCH   4  52
TORSDOF 16
ENDMDL
MODEL 3
REMARK VINA RESULT:    21.364      1.616      6.132
REMARK INTER + INTRA:          34.198
REMARK INTER:                  33.431
REMARK INTRA:                   0.768
REMARK UNBOUND:                -0.903
REMARK SMILES C[C@@H]1O[C@@H](OC[C@@H]2O[C@H](Oc3c(-c4ccc(O)c(O)c4)oc4cc(O)cc(O)c4c3=O)[C@H](O)[C@H](O)[C@@H]2O)[C@@H](O)[C@@H](O)[C@@H]1O
REMARK SMILES IDX 7 1 36 2 34 3 32 4 9 5 8 6 6 7 5 8 4 9 1 10 2 11 42 12 3 13
REMARK SMILES IDX 40 14 38 15 43 16 41 18 39 20 37 22 35 24 10 26 11 27 12 28
REMARK SMILES IDX 30 29 21 30 29 31 31 32 22 33 27 34 23 35 26 36 24 37 13 38
REMARK SMILES IDX 20 39 14 40 18 41 15 42 16 43 19 44 17 46 28 48 25 50 33 52
REMARK H PARENT 43 17 41 19 39 21 37 23 35 25 19 45 17 47 28 49 25 51 33 53
REMARK Flexibility Score: inf
ROOT
ATOM      1  C   UNL     1      27.457  35.755  26.357  1.00  0.00     0.180 C 
ATOM      2  C   UNL     1      27.289  34.217  26.161  1.00  0.00     0.177 C 
ATOM      3  C   UNL     1      28.618  33.491  25.834  1.00  0.00     0.180 C 
ATOM      4  C   UNL     1      29.809  34.073  26.639  1.00  0.00     0.214 C 
ATOM      5  C   UNL     1      29.339  35.241  27.568  1.00  0.00     0.339 C 
ATOM      6  O   UNL     1      28.750  36.190  26.720  1.00  0.00    -0.332 OA
ENDROOT
BRANCH   1   7
ATOM      7  C   UNL     1      26.959  36.567  25.118  1.00  0.00     0.198 C 
BRANCH   7   8
ATOM      8  O   UNL     1      27.859  37.535  24.695  1.00  0.00    -0.347 OA
BRANCH   8   9
ATOM      9  C   UNL     1      28.442  38.317  25.733  1.00  0.00     0.281 C 
ATOM     10  C   UNL     1      27.024  41.600  25.375  1.00  0.00     0.041 C 
ATOM     11  C   UNL     1      27.222  40.186  24.841  1.00  0.00     0.150 C 
ATOM     12  C   UNL     1      28.234  40.026  23.640  1.00  0.00     0.174 C 
ATOM     13  O   UNL     1      27.499  39.338  26.010  1.00  0.00    -0.344 OA
ATOM     14  C   UNL     1      29.737  39.727  24.009  1.00  0.00     0.179 C 
ATOM     15  C   UNL     1      29.813  39.002  25.408  1.00  0.00     0.202 C 
BRANCH  12  16
ATOM     16  O   UNL     1      28.059  41.064  22.686  1.00  0.00    -0.388 OA
ATOM     17  H   UNL     1      27.089  41.199  22.613  1.00  0.00     0.211 HD
ENDBRANCH  12  16
BRANCH  14  18
ATOM     18  O   UNL     1      30.392  38.976  22.971  1.00  0.00    -0.387 OA
ATOM     19  H   UNL     1      31.228  39.467  22.689  1.00  0.00     0.211 HD
ENDBRANCH  14  18
BRANCH  15  20
ATOM     20  O   UNL     1      30.868  38.069  25.452  1.00  0.00    -0.385 OA
ATOM     21  H   UNL     1      31.684  38.442  25.004  1.00  0.00     0.211 HD
ENDBRANCH  15  20
ENDBRANCH   8   9
ENDBRANCH   7   8
ENDBRANCH   1   7
BRANCH   2  22
ATOM     22  O   UNL     1      26.300  33.922  25.159  1.00  0.00    -0.387 OA
ATOM     23  H   UNL     1      26.808  33.682  24.344  1.00  0.00     0.211 HD
ENDBRANCH   2  22
BRANCH   3  24
ATOM     24  O   UNL     1      28.854  33.584  24.456  1.00  0.00    -0.387 OA
ATOM     25  H   UNL     1      29.714  33.040  24.351  1.00  0.00     0.211 HD
ENDBRANCH   3  24
BRANCH   5  26
ATOM     26  O   UNL     1      30.356  35.865  28.374  1.00  0.00    -0.454 OA
BRANCH  26  27
ATOM     27  C   UNL     1      30.701  37.275  28.388  1.00  0.00     0.214 A 
ATOM     28  C   UNL     1      29.704  38.199  28.846  1.00  0.00     0.180 A 
ATOM     29  C   UNL     1      31.947  37.783  28.004  1.00  0.00     0.239 A 
ATOM     30  O   UNL     1      29.944  39.484  28.824  1.00  0.00    -0.452 OA
ATOM     31  C   UNL     1      32.169  39.217  28.026  1.00  0.00     0.111 A 
ATOM     32  O   UNL     1      32.893  37.025  27.726  1.00  0.00    -0.285 OA
ATOM     33  C   UNL     1      31.119  40.030  28.528  1.00  0.00     0.146 A 
ATOM     34  C   UNL     1      33.421  39.879  27.701  1.00  0.00     0.134 A 
ATOM     35  C   UNL     1      31.267  41.375  28.781  1.00  0.00     0.094 A 
ATOM     36  C   UNL     1      33.521  41.237  28.019  1.00  0.00     0.093 A 
ATOM     37  C   UNL     1      32.519  41.949  28.647  1.00  0.00     0.123 A 
BRANCH  28  38
ATOM     38  C   UNL     1      28.433  37.785  29.411  1.00  0.00     0.025 A 
ATOM     39  C   UNL     1      28.294  37.528  30.795  1.00  0.00     0.062 A 
ATOM     40  C   UNL     1      27.294  38.034  28.687  1.00  0.00     0.016 A 
ATOM     41  C   UNL     1      27.036  37.133  31.304  1.00  0.00     0.158 A 
ATOM     42  C   UNL     1      26.009  37.746  29.207  1.00  0.00     0.051 A 
ATOM     43  C   UNL     1      25.880  37.291  30.487  1.00  0.00     0.157 A 
BRANCH  41  44
ATOM     44  O   UNL     1      27.017  36.551  32.553  1.00  0.00    -0.504 OA
ATOM     45  H   UNL     1      26.727  37.093  33.347  1.00  0.00     0.293 HD
ENDBRANCH  41  44
BRANCH  43  46
ATOM     46  O   UNL     1      24.620  36.900  30.971  1.00  0.00    -0.504 OA
ATOM     47  H   UNL     1      24.511  35.962  31.180  1.00  0.00     0.293 HD
ENDBRANCH  43  46
ENDBRANCH  28  38
BRANCH  34  48
ATOM     48  O   UNL     1      34.503  39.228  27.168  1.00  0.00    -0.507 OA
ATOM     49  H   UNL     1      35.500  39.444  27.377  1.00  0.00     0.293 HD
ENDBRANCH  34  48
BRANCH  37  50
ATOM     50  O   UNL     1      32.763  43.175  29.205  1.00  0.00    -0.508 OA
ATOM     51  H   UNL     1      32.285  43.437  30.079  1.00  0.00     0.293 HD
ENDBRANCH  37  50
ENDBRANCH  26  27
ENDBRANCH   5  26
BRANCH   4  52
ATOM     52  O   UNL     1      30.873  34.482  25.784  1.00  0.00    -0.384 OA
ATOM     53  H   UNL     1      31.708  34.074  26.084  1.00  0.00     0.211 HD
ENDBRANCH   4  52
TORSDOF 16
ENDMDL
MODEL 4
REMARK VINA RESULT:    21.772      2.258      5.976
REMARK INTER + INTRA:          34.870
REMARK INTER:                  33.648
REMARK INTRA:                   1.222
REMARK UNBOUND:                -0.903
REMARK SMILES C[C@@H]1O[C@@H](OC[C@@H]2O[C@H](Oc3c(-c4ccc(O)c(O)c4)oc4cc(O)cc(O)c4c3=O)[C@H](O)[C@H](O)[C@@H]2O)[C@@H](O)[C@@H](O)[C@@H]1O
REMARK SMILES IDX 7 1 36 2 34 3 32 4 9 5 8 6 6 7 5 8 4 9 1 10 2 11 42 12 3 13
REMARK SMILES IDX 40 14 38 15 43 16 41 18 39 20 37 22 35 24 10 26 11 27 12 28
REMARK SMILES IDX 30 29 21 30 29 31 31 32 22 33 27 34 23 35 26 36 24 37 13 38
REMARK SMILES IDX 20 39 14 40 18 41 15 42 16 43 19 44 17 46 28 48 25 50 33 52
REMARK H PARENT 43 17 41 19 39 21 37 23 35 25 19 45 17 47 28 49 25 51 33 53
REMARK Flexibility Score: inf
ROOT
ATOM      1  C   UNL     1      27.527  39.279  26.347  1.00  0.00     0.180 C 
ATOM      2  C   UNL     1      26.869  39.942  25.098  1.00  0.00     0.177 C 
ATOM      3  C   UNL     1      27.899  40.437  24.052  1.00  0.00     0.180 C 
ATOM      4  C   UNL     1      29.092  39.457  23.906  1.00  0.00     0.214 C 
ATOM      5  C   UNL     1      28.928  38.228  24.861  1.00  0.00     0.339 C 
ATOM      6  O   UNL     1      28.826  38.761  26.155  1.00  0.00    -0.332 OA
ENDROOT
BRANCH   1   7
ATOM      7  C   UNL     1      27.518  40.223  27.593  1.00  0.00     0.198 C 
BRANCH   7   8
ATOM      8  O   UNL     1      28.637  40.081  28.400  1.00  0.00    -0.347 OA
BRANCH   8   9
ATOM      9  C   UNL     1      29.490  38.989  28.070  1.00  0.00     0.281 C 
ATOM     10  C   UNL     1      30.523  37.593  31.217  1.00  0.00     0.041 C 
ATOM     11  C   UNL     1      29.821  38.697  30.433  1.00  0.00     0.150 C 
ATOM     12  C   UNL     1      30.601  40.063  30.297  1.00  0.00     0.174 C 
ATOM     13  O   UNL     1      29.392  38.092  29.163  1.00  0.00    -0.344 OA
ATOM     14  C   UNL     1      31.531  40.230  29.035  1.00  0.00     0.179 C 
ATOM     15  C   UNL     1      31.005  39.325  27.856  1.00  0.00     0.202 C 
BRANCH  12  16
ATOM     16  O   UNL     1      31.212  40.425  31.527  1.00  0.00    -0.388 OA
ATOM     17  H   UNL     1      31.160  39.626  32.096  1.00  0.00     0.211 HD
ENDBRANCH  12  16
BRANCH  14  18
ATOM     18  O   UNL     1      31.647  41.612  28.649  1.00  0.00    -0.387 OA
ATOM     19  H   UNL     1      30.727  42.028  28.640  1.00  0.00     0.211 HD
ENDBRANCH  14  18
BRANCH  15  20
ATOM     20  O   UNL     1      31.216  39.931  26.601  1.00  0.00    -0.385 OA
ATOM     21  H   UNL     1      30.444  40.527  26.366  1.00  0.00     0.211 HD
ENDBRANCH  15  20
ENDBRANCH   8   9
ENDBRANCH   7   8
ENDBRANCH   1   7
BRANCH   2  22
ATOM     22  O   UNL     1      25.990  41.016  25.478  1.00  0.00    -0.387 OA
ATOM     23  H   UNL     1      26.382  41.835  25.084  1.00  0.00     0.211 HD
ENDBRANCH   2  22
BRANCH   3  24
ATOM     24  O   UNL     1      28.343  41.712  24.426  1.00  0.00    -0.387 OA
ATOM     25  H   UNL     1      27.700  42.319  23.911  1.00  0.00     0.211 HD
ENDBRANCH   3  24
BRANCH   5  26
ATOM     26  O   UNL     1      29.974  37.240  24.817  1.00  0.00    -0.454 OA
BRANCH  26  27
ATOM     27  C   UNL     1      30.490  36.480  25.941  1.00  0.00     0.214 A 
ATOM     28  C   UNL     1      29.579  35.614  26.633  1.00  0.00     0.180 A 
ATOM     29  C   UNL     1      31.820  36.522  26.374  1.00  0.00     0.239 A 
ATOM     30  O   UNL     1      29.979  34.952  27.687  1.00  0.00    -0.452 OA
ATOM     31  C   UNL     1      32.218  35.744  27.533  1.00  0.00     0.111 A 
ATOM     32  O   UNL     1      32.685  37.147  25.734  1.00  0.00    -0.285 OA
ATOM     33  C   UNL     1      31.236  34.901  28.117  1.00  0.00     0.146 A 
ATOM     34  C   UNL     1      33.567  35.655  28.062  1.00  0.00     0.134 A 
ATOM     35  C   UNL     1      31.528  33.975  29.092  1.00  0.00     0.094 A 
ATOM     36  C   UNL     1      33.807  34.668  29.023  1.00  0.00     0.093 A 
ATOM     37  C   UNL     1      32.849  33.771  29.450  1.00  0.00     0.123 A 
BRANCH  28  38
ATOM     38  C   UNL     1      28.219  35.369  26.189  1.00  0.00     0.025 A 
ATOM     39  C   UNL     1      27.205  36.338  26.363  1.00  0.00     0.062 A 
ATOM     40  C   UNL     1      28.014  34.385  25.255  1.00  0.00     0.016 A 
ATOM     41  C   UNL     1      25.895  36.059  25.909  1.00  0.00     0.158 A 
ATOM     42  C   UNL     1      26.734  34.145  24.701  1.00  0.00     0.051 A 
ATOM     43  C   UNL     1      25.687  34.957  25.031  1.00  0.00     0.157 A 
BRANCH  41  44
ATOM     44  O   UNL     1      24.877  36.845  26.406  1.00  0.00    -0.504 OA
ATOM     45  H   UNL     1      24.945  37.845  26.338  1.00  0.00     0.293 HD
ENDBRANCH  41  44
BRANCH  43  46
ATOM     46  O   UNL     1      24.393  34.659  24.572  1.00  0.00    -0.504 OA
ATOM     47  H   UNL     1      23.695  34.634  25.241  1.00  0.00     0.293 HD
ENDBRANCH  43  46
ENDBRANCH  28  38
BRANCH  34  48
ATOM     48  O   UNL     1      34.604  36.439  27.625  1.00  0.00    -0.507 OA
ATOM     49  H   UNL     1      34.508  37.292  27.038  1.00  0.00     0.293 HD
ENDBRANCH  34  48
BRANCH  37  50
ATOM     50  O   UNL     1      33.192  32.647  30.152  1.00  0.00    -0.508 OA
ATOM     51  H   UNL     1      33.135  31.726  29.693  1.00  0.00     0.293 HD
ENDBRANCH  37  50
ENDBRANCH  26  27
ENDBRANCH   5  26
BRANCH   4  52
ATOM     52  O   UNL     1      30.341  40.113  24.111  1.00  0.00    -0.384 OA
ATOM     53  H   UNL     1      30.358  40.948  23.603  1.00  0.00     0.211 HD
ENDBRANCH   4  52
TORSDOF 16
ENDMDL
MODEL 5
REMARK VINA RESULT:    21.792      1.855      5.595
REMARK INTER + INTRA:          34.901
REMARK INTER:                  34.828
REMARK INTRA:                   0.073
REMARK UNBOUND:                -0.903
REMARK SMILES C[C@@H]1O[C@@H](OC[C@@H]2O[C@H](Oc3c(-c4ccc(O)c(O)c4)oc4cc(O)cc(O)c4c3=O)[C@H](O)[C@H](O)[C@@H]2O)[C@@H](O)[C@@H](O)[C@@H]1O
REMARK SMILES IDX 7 1 36 2 34 3 32 4 9 5 8 6 6 7 5 8 4 9 1 10 2 11 42 12 3 13
REMARK SMILES IDX 40 14 38 15 43 16 41 18 39 20 37 22 35 24 10 26 11 27 12 28
REMARK SMILES IDX 30 29 21 30 29 31 31 32 22 33 27 34 23 35 26 36 24 37 13 38
REMARK SMILES IDX 20 39 14 40 18 41 15 42 16 43 19 44 17 46 28 48 25 50 33 52
REMARK H PARENT 43 17 41 19 39 21 37 23 35 25 19 45 17 47 28 49 25 51 33 53
REMARK Flexibility Score: inf
ROOT
ATOM      1  C   UNL     1      31.453  36.198  29.028  1.00  0.00     0.180 C 
ATOM      2  C   UNL     1      33.008  36.086  28.995  1.00  0.00     0.177 C 
ATOM      3  C   UNL     1      33.633  36.602  27.675  1.00  0.00     0.180 C 
ATOM      4  C   UNL     1      32.908  37.867  27.147  1.00  0.00     0.214 C 
ATOM      5  C   UNL     1      31.736  38.279  28.100  1.00  0.00     0.339 C 
ATOM      6  O   UNL     1      30.888  37.164  28.167  1.00  0.00    -0.332 OA
ENDROOT
BRANCH   1   7
ATOM      7  C   UNL     1      30.755  34.818  28.799  1.00  0.00     0.198 C 
BRANCH   7   8
ATOM      8  O   UNL     1      29.889  34.812  27.715  1.00  0.00    -0.347 OA
BRANCH   8   9
ATOM      9  C   UNL     1      30.452  34.351  26.490  1.00  0.00     0.281 C 
ATOM     10  C   UNL     1      29.816  36.958  24.099  1.00  0.00     0.041 C 
ATOM     11  C   UNL     1      29.602  36.363  25.487  1.00  0.00     0.150 C 
ATOM     12  C   UNL     1      28.205  35.672  25.744  1.00  0.00     0.174 C 
ATOM     13  O   UNL     1      30.776  35.522  25.761  1.00  0.00    -0.344 OA
ATOM     14  C   UNL     1      28.109  34.127  25.442  1.00  0.00     0.179 C 
ATOM     15  C   UNL     1      29.531  33.461  25.588  1.00  0.00     0.202 C 
BRANCH  12  16
ATOM     16  O   UNL     1      27.147  36.443  25.196  1.00  0.00    -0.388 OA
ATOM     17  H   UNL     1      26.570  36.682  25.954  1.00  0.00     0.211 HD
ENDBRANCH  12  16
BRANCH  14  18
ATOM     18  O   UNL     1      27.122  33.491  26.276  1.00  0.00    -0.387 OA
ATOM     19  H   UNL     1      26.462  34.187  26.592  1.00  0.00     0.211 HD
ENDBRANCH  14  18
BRANCH  15  20
ATOM     20  O   UNL     1      29.441  32.149  26.096  1.00  0.00    -0.385 OA
ATOM     21  H   UNL     1      28.915  32.140  26.950  1.00  0.00     0.211 HD
ENDBRANCH  15  20
ENDBRANCH   8   9
ENDBRANCH   7   8
ENDBRANCH   1   7
BRANCH   2  22
ATOM     22  O   UNL     1      33.442  34.739  29.257  1.00  0.00    -0.387 OA
ATOM     23  H   UNL     1      34.320  34.648  28.810  1.00  0.00     0.211 HD
ENDBRANCH   2  22
BRANCH   3  24
ATOM     24  O   UNL     1      33.593  35.572  26.726  1.00  0.00    -0.387 OA
ATOM     25  H   UNL     1      32.797  35.850  26.146  1.00  0.00     0.211 HD
ENDBRANCH   3  24
BRANCH   5  26
ATOM     26  O   UNL     1      30.984  39.446  27.720  1.00  0.00    -0.454 OA
BRANCH  26  27
ATOM     27  C   UNL     1      30.020  39.537  26.638  1.00  0.00     0.214 A 
ATOM     28  C   UNL     1      28.715  38.984  26.862  1.00  0.00     0.180 A 
ATOM     29  C   UNL     1      30.278  40.146  25.405  1.00  0.00     0.239 A 
ATOM     30  O   UNL     1      27.829  38.988  25.901  1.00  0.00    -0.452 OA
ATOM     31  C   UNL     1      29.248  40.148  24.382  1.00  0.00     0.111 A 
ATOM     32  O   UNL     1      31.340  40.760  25.200  1.00  0.00    -0.285 OA
ATOM     33  C   UNL     1      27.986  39.598  24.730  1.00  0.00     0.146 A 
ATOM     34  C   UNL     1      29.358  40.782  23.080  1.00  0.00     0.134 A 
ATOM     35  C   UNL     1      26.873  39.708  23.926  1.00  0.00     0.094 A 
ATOM     36  C   UNL     1      28.184  40.896  22.330  1.00  0.00     0.093 A 
ATOM     37  C   UNL     1      26.948  40.478  22.779  1.00  0.00     0.123 A 
BRANCH  28  38
ATOM     38  C   UNL     1      28.279  38.464  28.145  1.00  0.00     0.025 A 
ATOM     39  C   UNL     1      28.823  38.948  29.356  1.00  0.00     0.062 A 
ATOM     40  C   UNL     1      27.074  37.809  28.199  1.00  0.00     0.016 A 
ATOM     41  C   UNL     1      28.365  38.418  30.584  1.00  0.00     0.158 A 
ATOM     42  C   UNL     1      26.533  37.354  29.425  1.00  0.00     0.051 A 
ATOM     43  C   UNL     1      27.172  37.639  30.598  1.00  0.00     0.157 A 
BRANCH  41  44
ATOM     44  O   UNL     1      29.149  38.637  31.696  1.00  0.00    -0.504 OA
ATOM     45  H   UNL     1      29.320  37.883  32.338  1.00  0.00     0.293 HD
ENDBRANCH  41  44
BRANCH  43  46
ATOM     46  O   UNL     1      26.701  37.097  31.806  1.00  0.00    -0.504 OA
ATOM     47  H   UNL     1      26.274  36.232  31.751  1.00  0.00     0.293 HD
ENDBRANCH  43  46
ENDBRANCH  28  38
BRANCH  34  48
ATOM     48  O   UNL     1      30.524  41.314  22.595  1.00  0.00    -0.507 OA
ATOM     49  H   UNL     1      30.847  41.261  21.607  1.00  0.00     0.293 HD
ENDBRANCH  34  48
BRANCH  37  50
ATOM     50  O   UNL     1      25.795  40.874  22.156  1.00  0.00    -0.508 OA
ATOM     51  H   UNL     1      25.616  40.577  21.186  1.00  0.00     0.293 HD
ENDBRANCH  37  50
ENDBRANCH  26  27
ENDBRANCH   5  26
BRANCH   4  52
ATOM     52  O   UNL     1      32.453  37.695  25.808  1.00  0.00    -0.384 OA
ATOM     53  H   UNL     1      32.928  38.314  25.220  1.00  0.00     0.211 HD
ENDBRANCH   4  52
TORSDOF 16
ENDMDL
MODEL 6
REMARK VINA RESULT:    22.291      2.064      5.573
REMARK INTER + INTRA:          35.722
REMARK INTER:                  34.273
REMARK INTRA:                   1.449
REMARK UNBOUND:                -0.903
REMARK SMILES C[C@@H]1O[C@@H](OC[C@@H]2O[C@H](Oc3c(-c4ccc(O)c(O)c4)oc4cc(O)cc(O)c4c3=O)[C@H](O)[C@H](O)[C@@H]2O)[C@@H](O)[C@@H](O)[C@@H]1O
REMARK SMILES IDX 7 1 36 2 34 3 32 4 9 5 8 6 6 7 5 8 4 9 1 10 2 11 42 12 3 13
REMARK SMILES IDX 40 14 38 15 43 16 41 18 39 20 37 22 35 24 10 26 11 27 12 28
REMARK SMILES IDX 30 29 21 30 29 31 31 32 22 33 27 34 23 35 26 36 24 37 13 38
REMARK SMILES IDX 20 39 14 40 18 41 15 42 16 43 19 44 17 46 28 48 25 50 33 52
REMARK H PARENT 43 17 41 19 39 21 37 23 35 25 19 45 17 47 28 49 25 51 33 53
REMARK Flexibility Score: inf
ROOT
ATOM      1  C   UNL     1      27.459  38.036  29.168  1.00  0.00     0.180 C 
ATOM      2  C   UNL     1      27.522  38.627  30.609  1.00  0.00     0.177 C 
ATOM      3  C   UNL     1      28.967  38.842  31.122  1.00  0.00     0.180 C 
ATOM      4  C   UNL     1      29.909  39.356  30.002  1.00  0.00     0.214 C 
ATOM      5  C   UNL     1      29.136  39.518  28.651  1.00  0.00     0.339 C 
ATOM      6  O   UNL     1      28.600  38.254  28.364  1.00  0.00    -0.332 OA
ENDROOT
BRANCH   1   7
ATOM      7  C   UNL     1      27.101  36.514  29.167  1.00  0.00     0.198 C 
BRANCH   7   8
ATOM      8  O   UNL     1      27.957  35.746  28.391  1.00  0.00    -0.347 OA
BRANCH   8   9
ATOM      9  C   UNL     1      28.549  36.424  27.287  1.00  0.00     0.281 C 
ATOM     10  C   UNL     1      27.531  34.582  24.373  1.00  0.00     0.041 C 
ATOM     11  C   UNL     1      27.608  34.708  25.891  1.00  0.00     0.150 C 
ATOM     12  C   UNL     1      28.678  33.801  26.615  1.00  0.00     0.174 C 
ATOM     13  O   UNL     1      27.707  36.146  26.181  1.00  0.00    -0.344 OA
ATOM     14  C   UNL     1      30.110  34.424  26.835  1.00  0.00     0.179 C 
ATOM     15  C   UNL     1      30.007  35.997  26.903  1.00  0.00     0.202 C 
BRANCH  12  16
ATOM     16  O   UNL     1      28.687  32.490  26.069  1.00  0.00    -0.388 OA
ATOM     17  H   UNL     1      29.108  32.571  25.186  1.00  0.00     0.211 HD
ENDBRANCH  12  16
BRANCH  14  18
ATOM     18  O   UNL     1      30.749  33.870  27.999  1.00  0.00    -0.387 OA
ATOM     19  H   UNL     1      31.739  34.065  27.954  1.00  0.00     0.211 HD
ENDBRANCH  14  18
BRANCH  15  20
ATOM     20  O   UNL     1      30.946  36.540  27.802  1.00  0.00    -0.385 OA
ATOM     21  H   UNL     1      31.460  35.809  28.256  1.00  0.00     0.211 HD
ENDBRANCH  15  20
ENDBRANCH   8   9
ENDBRANCH   7   8
ENDBRANCH   1   7
BRANCH   2  22
ATOM     22  O   UNL     1      26.778  37.819  31.539  1.00  0.00    -0.387 OA
ATOM     23  H   UNL     1      27.449  37.437  32.158  1.00  0.00     0.211 HD
ENDBRANCH   2  22
BRANCH   3  24
ATOM     24  O   UNL     1      29.439  37.636  31.656  1.00  0.00    -0.387 OA
ATOM     25  H   UNL     1      28.615  37.289  32.156  1.00  0.00     0.211 HD
ENDBRANCH   3  24
BRANCH   5  26
ATOM     26  O   UNL     1      29.902  39.994  27.530  1.00  0.00    -0.454 OA
BRANCH  26  27
ATOM     27  C   UNL     1      30.331  39.212  26.384  1.00  0.00     0.214 A 
ATOM     28  C   UNL     1      29.379  38.997  25.331  1.00  0.00     0.180 A 
ATOM     29  C   UNL     1      31.615  38.676  26.234  1.00  0.00     0.239 A 
ATOM     30  O   UNL     1      29.696  38.251  24.305  1.00  0.00    -0.452 OA
ATOM     31  C   UNL     1      31.922  37.880  25.060  1.00  0.00     0.111 A 
ATOM     32  O   UNL     1      32.521  38.940  27.044  1.00  0.00    -0.285 OA
ATOM     33  C   UNL     1      30.910  37.762  24.071  1.00  0.00     0.146 A 
ATOM     34  C   UNL     1      33.220  37.305  24.751  1.00  0.00     0.134 A 
ATOM     35  C   UNL     1      31.132  37.201  22.834  1.00  0.00     0.094 A 
ATOM     36  C   UNL     1      33.393  36.786  23.464  1.00  0.00     0.093 A 
ATOM     37  C   UNL     1      32.419  36.831  22.486  1.00  0.00     0.123 A 
BRANCH  28  38
ATOM     38  C   UNL     1      28.071  39.624  25.299  1.00  0.00     0.025 A 
ATOM     39  C   UNL     1      26.996  39.118  26.064  1.00  0.00     0.062 A 
ATOM     40  C   UNL     1      27.988  40.920  24.855  1.00  0.00     0.016 A 
ATOM     41  C   UNL     1      25.740  39.764  26.008  1.00  0.00     0.158 A 
ATOM     42  C   UNL     1      26.767  41.635  24.879  1.00  0.00     0.051 A 
ATOM     43  C   UNL     1      25.656  41.064  25.433  1.00  0.00     0.157 A 
BRANCH  41  44
ATOM     44  O   UNL     1      24.647  39.056  26.462  1.00  0.00    -0.504 OA
ATOM     45  H   UNL     1      24.204  39.328  27.321  1.00  0.00     0.293 HD
ENDBRANCH  41  44
BRANCH  43  46
ATOM     46  O   UNL     1      24.418  41.723  25.361  1.00  0.00    -0.504 OA
ATOM     47  H   UNL     1      23.707  41.255  24.901  1.00  0.00     0.293 HD
ENDBRANCH  43  46
ENDBRANCH  28  38
BRANCH  34  48
ATOM     48  O   UNL     1      34.275  37.306  25.626  1.00  0.00    -0.507 OA
ATOM     49  H   UNL     1      34.257  36.921  26.593  1.00  0.00     0.293 HD
ENDBRANCH  34  48
BRANCH  37  50
ATOM     50  O   UNL     1      32.722  36.593  21.172  1.00  0.00    -0.508 OA
ATOM     51  H   UNL     1      32.202  35.868  20.657  1.00  0.00     0.293 HD
ENDBRANCH  37  50
ENDBRANCH  26  27
ENDBRANCH   5  26
BRANCH   4  52
ATOM     52  O   UNL     1      31.053  38.519  29.851  1.00  0.00    -0.384 OA
ATOM     53  H   UNL     1      31.036  37.817  30.530  1.00  0.00     0.211 HD
ENDBRANCH   4  52
TORSDOF 16
ENDMDL
