MODEL 1
REMARK VINA RESULT:    -1.194      0.000      0.000
REMARK INTER + INTRA:          -3.169
REMARK INTER:                  -2.032
REMARK INTRA:                  -1.138
REMARK UNBOUND:                -1.138
REMARK SMILES CCCCCCCCCCCCCC(=O)[O-]
REMARK SMILES IDX 8 1 9 2 10 3 11 4 12 5 13 6 14 7 15 8 16 9 7 10 6 11 5 12
REMARK SMILES IDX 4 13 3 14 2 15 1 16
REMARK H PARENT
REMARK Flexibility Score: inf
ROOT
ATOM      1  C   UNL     1      30.599  22.969  29.052  1.00  0.00     0.000 C 
ENDROOT
BRANCH   1   2
ATOM      2  C   UNL     1      31.208  22.572  27.700  1.00  0.00     0.000 C 
BRANCH   2   3
ATOM      3  C   UNL     1      32.686  22.986  27.623  1.00  0.00     0.000 C 
BRANCH   3   4
ATOM      4  C   UNL     1      33.157  23.740  28.877  1.00  0.00     0.000 C 
BRANCH   4   5
ATOM      5  C   UNL     1      34.120  24.894  28.547  1.00  0.00     0.006 C 
BRANCH   5   6
ATOM      6  C   UNL     1      35.302  24.433  27.685  1.00  0.00     0.053 C 
BRANCH   6   7
ATOM      7  C   UNL     1      36.417  23.878  28.518  1.00  0.00     0.041 C 
ATOM      8  O   UNL     1      36.993  24.606  29.369  1.00  0.00    -0.550 OA
ATOM      9  O   UNL     1      36.800  22.551  28.376  1.00  0.00    -0.550 OA
ENDBRANCH   6   7
ENDBRANCH   5   6
ENDBRANCH   4   5
ENDBRANCH   3   4
ENDBRANCH   2   3
ENDBRANCH   1   2
BRANCH   1  10
ATOM     10  C   UNL     1      29.597  24.132  28.939  1.00  0.00     0.000 C 
BRANCH  10  11
ATOM     11  C   UNL     1      29.609  25.125  30.120  1.00  0.00    -0.000 C 
BRANCH  11  12
ATOM     12  C   UNL     1      29.315  24.510  31.501  1.00  0.00    -0.000 C 
BRANCH  12  13
ATOM     13  C   UNL     1      30.311  24.963  32.581  1.00  0.00    -0.000 C 
BRANCH  13  14
ATOM     14  C   UNL     1      31.769  24.968  32.085  1.00  0.00    -0.000 C 
BRANCH  14  15
ATOM     15  C   UNL     1      32.832  25.124  33.187  1.00  0.00    -0.003 C 
ATOM     16  C   UNL     1      32.282  24.876  34.591  1.00  0.00     0.004 C 
ENDBRANCH  14  15
ENDBRANCH  13  14
ENDBRANCH  12  13
ENDBRANCH  11  12
ENDBRANCH  10  11
ENDBRANCH   1  10
TORSDOF 12
ENDMDL
MODEL 2
REMARK VINA RESULT:    -1.117      2.316      5.274
REMARK INTER + INTRA:          -3.038
REMARK INTER:                  -2.394
REMARK INTRA:                  -0.644
REMARK UNBOUND:                -1.138
REMARK SMILES CCCCCCCCCCCCCC(=O)[O-]
REMARK SMILES IDX 8 1 9 2 10 3 11 4 12 5 13 6 14 7 15 8 16 9 7 10 6 11 5 12
REMARK SMILES IDX 4 13 3 14 2 15 1 16
REMARK H PARENT
REMARK Flexibility Score: inf
ROOT
ATOM      1  C   UNL     1      31.519  24.714  34.093  1.00  0.00     0.000 C 
ENDROOT
BRANCH   1   2
ATOM      2  C   UNL     1      30.364  25.125  33.169  1.00  0.00     0.000 C 
BRANCH   2   3
ATOM      3  C   UNL     1      30.508  24.468  31.788  1.00  0.00     0.000 C 
BRANCH   3   4
ATOM      4  C   UNL     1      29.475  24.984  30.774  1.00  0.00     0.000 C 
BRANCH   4   5
ATOM      5  C   UNL     1      29.792  24.551  29.332  1.00  0.00     0.006 C 
BRANCH   5   6
ATOM      6  C   UNL     1      31.070  23.705  29.250  1.00  0.00     0.053 C 
BRANCH   6   7
ATOM      7  C   UNL     1      32.103  24.338  28.369  1.00  0.00     0.041 C 
ATOM      8  O   UNL     1      33.054  24.988  28.876  1.00  0.00    -0.550 OA
ATOM      9  O   UNL     1      32.032  24.185  26.991  1.00  0.00    -0.550 OA
ENDBRANCH   6   7
ENDBRANCH   5   6
ENDBRANCH   4   5
ENDBRANCH   3   4
ENDBRANCH   2   3
ENDBRANCH   1   2
BRANCH   1  10
ATOM     10  C   UNL     1      32.903  24.930  33.454  1.00  0.00     0.000 C 
BRANCH  10  11
ATOM     11  C   UNL     1      34.105  24.592  34.361  1.00  0.00    -0.000 C 
BRANCH  11  12
ATOM     12  C   UNL     1      35.339  24.025  33.635  1.00  0.00    -0.000 C 
BRANCH  12  13
ATOM     13  C   UNL     1      36.096  25.090  32.824  1.00  0.00    -0.000 C 
BRANCH  13  14
ATOM     14  C   UNL     1      35.674  25.125  31.344  1.00  0.00    -0.000 C 
BRANCH  14  15
ATOM     15  C   UNL     1      36.825  24.974  30.333  1.00  0.00    -0.003 C 
ATOM     16  C   UNL     1      36.385  24.339  29.015  1.00  0.00     0.004 C 
ENDBRANCH  14  15
ENDBRANCH  13  14
ENDBRANCH  12  13
ENDBRANCH  11  12
ENDBRANCH  10  11
ENDBRANCH   1  10
TORSDOF 12
ENDMDL
MODEL 3
REMARK VINA RESULT:    -0.667      1.966      5.493
REMARK INTER + INTRA:          -2.273
REMARK INTER:                  -2.916
REMARK INTRA:                   0.643
REMARK UNBOUND:                -1.138
REMARK SMILES CCCCCCCCCCCCCC(=O)[O-]
REMARK SMILES IDX 8 1 9 2 10 3 11 4 12 5 13 6 14 7 15 8 16 9 7 10 6 11 5 12
REMARK SMILES IDX 4 13 3 14 2 15 1 16
REMARK H PARENT
REMARK Flexibility Score: inf
ROOT
ATOM      1  C   UNL     1      30.254  23.580  29.092  1.00  0.00     0.000 C 
ENDROOT
BRANCH   1   2
ATOM      2  C   UNL     1      30.288  24.752  30.083  1.00  0.00     0.000 C 
BRANCH   2   3
ATOM      3  C   UNL     1      30.650  24.264  31.494  1.00  0.00     0.000 C 
BRANCH   3   4
ATOM      4  C   UNL     1      31.776  25.089  32.137  1.00  0.00     0.000 C 
BRANCH   4   5
ATOM      5  C   UNL     1      31.821  24.939  33.668  1.00  0.00     0.006 C 
BRANCH   5   6
ATOM      6  C   UNL     1      33.092  24.223  34.142  1.00  0.00     0.053 C 
BRANCH   6   7
ATOM      7  C   UNL     1      34.270  24.540  33.271  1.00  0.00     0.041 C 
ATOM      8  O   UNL     1      34.101  25.125  32.169  1.00  0.00    -0.550 OA
ATOM      9  O   UNL     1      35.553  24.217  33.691  1.00  0.00    -0.550 OA
ENDBRANCH   6   7
ENDBRANCH   5   6
ENDBRANCH   4   5
ENDBRANCH   3   4
ENDBRANCH   2   3
ENDBRANCH   1   2
BRANCH   1  10
ATOM     10  C   UNL     1      31.133  23.820  27.851  1.00  0.00     0.000 C 
BRANCH  10  11
ATOM     11  C   UNL     1      32.526  24.417  28.141  1.00  0.00    -0.000 C 
BRANCH  11  12
ATOM     12  C   UNL     1      33.708  23.684  27.479  1.00  0.00    -0.000 C 
BRANCH  12  13
ATOM     13  C   UNL     1      34.834  24.637  27.043  1.00  0.00    -0.000 C 
BRANCH  13  14
ATOM     14  C   UNL     1      36.233  24.129  27.437  1.00  0.00    -0.000 C 
BRANCH  14  15
ATOM     15  C   UNL     1      36.279  22.679  27.954  1.00  0.00    -0.003 C 
ATOM     16  C   UNL     1      37.115  21.755  27.070  1.00  0.00     0.004 C 
ENDBRANCH  14  15
ENDBRANCH  13  14
ENDBRANCH  12  13
ENDBRANCH  11  12
ENDBRANCH  10  11
ENDBRANCH   1  10
TORSDOF 12
ENDMDL
MODEL 4
REMARK VINA RESULT:     0.490      2.139      4.560
REMARK INTER + INTRA:          -0.303
REMARK INTER:                   0.189
REMARK INTRA:                  -0.493
REMARK UNBOUND:                -1.138
REMARK SMILES CCCCCCCCCCCCCC(=O)[O-]
REMARK SMILES IDX 8 1 9 2 10 3 11 4 12 5 13 6 14 7 15 8 16 9 7 10 6 11 5 12
REMARK SMILES IDX 4 13 3 14 2 15 1 16
REMARK H PARENT
REMARK Flexibility Score: inf
ROOT
ATOM      1  C   UNL     1      31.247  24.566  32.778  1.00  0.00     0.000 C 
ENDROOT
BRANCH   1   2
ATOM      2  C   UNL     1      31.522  25.124  31.375  1.00  0.00     0.000 C 
BRANCH   2   3
ATOM      3  C   UNL     1      30.735  24.343  30.312  1.00  0.00     0.000 C 
BRANCH   3   4
ATOM      4  C   UNL     1      30.586  25.119  28.993  1.00  0.00     0.000 C 
BRANCH   4   5
ATOM      5  C   UNL     1      30.677  24.208  27.756  1.00  0.00     0.006 C 
BRANCH   5   6
ATOM      6  C   UNL     1      32.091  24.179  27.161  1.00  0.00     0.053 C 
BRANCH   6   7
ATOM      7  C   UNL     1      32.988  23.232  27.898  1.00  0.00     0.041 C 
ATOM      8  O   UNL     1      32.518  22.180  28.404  1.00  0.00    -0.550 OA
ATOM      9  O   UNL     1      34.347  23.497  27.998  1.00  0.00    -0.550 OA
ENDBRANCH   6   7
ENDBRANCH   5   6
ENDBRANCH   4   5
ENDBRANCH   3   4
ENDBRANCH   2   3
ENDBRANCH   1   2
BRANCH   1  10
ATOM     10  C   UNL     1      32.453  23.811  33.367  1.00  0.00     0.000 C 
BRANCH  10  11
ATOM     11  C   UNL     1      33.228  24.569  34.465  1.00  0.00    -0.000 C 
BRANCH  11  12
ATOM     12  C   UNL     1      34.745  24.697  34.233  1.00  0.00    -0.000 C 
BRANCH  12  13
ATOM     13  C   UNL     1      35.095  25.124  32.797  1.00  0.00    -0.000 C 
BRANCH  13  14
ATOM     14  C   UNL     1      36.567  24.856  32.436  1.00  0.00    -0.000 C 
BRANCH  14  15
ATOM     15  C   UNL     1      36.785  23.989  31.183  1.00  0.00    -0.003 C 
ATOM     16  C   UNL     1      36.511  24.740  29.881  1.00  0.00     0.004 C 
ENDBRANCH  14  15
ENDBRANCH  13  14
ENDBRANCH  12  13
ENDBRANCH  11  12
ENDBRANCH  10  11
ENDBRANCH   1  10
TORSDOF 12
ENDMDL
MODEL 5
REMARK VINA RESULT:     1.103     16.814     20.076
REMARK INTER + INTRA:           0.738
REMARK INTER:                   1.318
REMARK INTRA:                  -0.580
REMARK UNBOUND:                -1.138
REMARK SMILES CCCCCCCCCCCCCC(=O)[O-]
REMARK SMILES IDX 8 1 9 2 10 3 11 4 12 5 13 6 14 7 15 8 16 9 7 10 6 11 5 12
REMARK SMILES IDX 4 13 3 14 2 15 1 16
REMARK H PARENT
REMARK Flexibility Score: inf
ROOT
ATOM      1  C   UNL     1      20.986  21.830  46.965  1.00  0.00     0.000 C 
ENDROOT
BRANCH   1   2
ATOM      2  C   UNL     1      19.506  22.203  47.125  1.00  0.00     0.000 C 
BRANCH   2   3
ATOM      3  C   UNL     1      19.301  23.716  46.954  1.00  0.00     0.000 C 
BRANCH   3   4
ATOM      4  C   UNL     1      17.818  24.120  46.964  1.00  0.00     0.000 C 
BRANCH   4   5
ATOM      5  C   UNL     1      17.461  25.092  45.826  1.00  0.00     0.006 C 
BRANCH   5   6
ATOM      6  C   UNL     1      17.153  24.359  44.514  1.00  0.00     0.053 C 
BRANCH   6   7
ATOM      7  C   UNL     1      18.097  24.754  43.419  1.00  0.00     0.041 C 
ATOM      8  O   UNL     1      17.703  24.777  42.223  1.00  0.00    -0.550 OA
ATOM      9  O   UNL     1      19.400  25.125  43.722  1.00  0.00    -0.550 OA
ENDBRANCH   6   7
ENDBRANCH   5   6
ENDBRANCH   4   5
ENDBRANCH   3   4
ENDBRANCH   2   3
ENDBRANCH   1   2
BRANCH   1  10
ATOM     10  C   UNL     1      21.508  22.053  45.534  1.00  0.00     0.000 C 
BRANCH  10  11
ATOM     11  C   UNL     1      22.663  23.068  45.408  1.00  0.00    -0.000 C 
BRANCH  11  12
ATOM     12  C   UNL     1      24.058  22.527  45.770  1.00  0.00    -0.000 C 
BRANCH  12  13
ATOM     13  C   UNL     1      25.186  23.524  45.453  1.00  0.00    -0.000 C 
BRANCH  13  14
ATOM     14  C   UNL     1      26.587  22.895  45.563  1.00  0.00    -0.000 C 
BRANCH  14  15
ATOM     15  C   UNL     1      27.750  23.902  45.642  1.00  0.00    -0.003 C 
ATOM     16  C   UNL     1      27.747  24.911  44.496  1.00  0.00     0.004 C 
ENDBRANCH  14  15
ENDBRANCH  13  14
ENDBRANCH  12  13
ENDBRANCH  11  12
ENDBRANCH  10  11
ENDBRANCH   1  10
TORSDOF 12
ENDMDL
MODEL 6
REMARK VINA RESULT:     1.750     16.237     19.083
REMARK INTER + INTRA:           1.841
REMARK INTER:                   2.510
REMARK INTRA:                  -0.669
REMARK UNBOUND:                -1.138
REMARK SMILES CCCCCCCCCCCCCC(=O)[O-]
REMARK SMILES IDX 8 1 9 2 10 3 11 4 12 5 13 6 14 7 15 8 16 9 7 10 6 11 5 12
REMARK SMILES IDX 4 13 3 14 2 15 1 16
REMARK H PARENT
REMARK Flexibility Score: inf
ROOT
ATOM      1  C   UNL     1      21.029  21.926  45.675  1.00  0.00     0.000 C 
ENDROOT
BRANCH   1   2
ATOM      2  C   UNL     1      21.998  22.943  45.056  1.00  0.00     0.000 C 
BRANCH   2   3
ATOM      3  C   UNL     1      23.174  23.225  46.003  1.00  0.00     0.000 C 
BRANCH   3   4
ATOM      4  C   UNL     1      24.494  22.608  45.511  1.00  0.00     0.000 C 
BRANCH   4   5
ATOM      5  C   UNL     1      25.593  23.661  45.290  1.00  0.00     0.006 C 
BRANCH   5   6
ATOM      6  C   UNL     1      26.914  23.270  45.965  1.00  0.00     0.053 C 
BRANCH   6   7
ATOM      7  C   UNL     1      28.102  23.782  45.209  1.00  0.00     0.041 C 
ATOM      8  O   UNL     1      28.087  24.941  44.718  1.00  0.00    -0.550 OA
ATOM      9  O   UNL     1      29.235  22.991  45.073  1.00  0.00    -0.550 OA
ENDBRANCH   6   7
ENDBRANCH   5   6
ENDBRANCH   4   5
ENDBRANCH   3   4
ENDBRANCH   2   3
ENDBRANCH   1   2
BRANCH   1  10
ATOM     10  C   UNL     1      20.518  22.356  47.062  1.00  0.00     0.000 C 
BRANCH  10  11
ATOM     11  C   UNL     1      19.023  22.736  47.121  1.00  0.00    -0.000 C 
BRANCH  11  12
ATOM     12  C   UNL     1      18.715  24.233  46.934  1.00  0.00    -0.000 C 
BRANCH  12  13
ATOM     13  C   UNL     1      17.283  24.491  46.437  1.00  0.00    -0.000 C 
BRANCH  13  14
ATOM     14  C   UNL     1      17.242  25.125  45.034  1.00  0.00    -0.000 C 
BRANCH  14  15
ATOM     15  C   UNL     1      17.313  24.126  43.864  1.00  0.00    -0.003 C 
ATOM     16  C   UNL     1      18.293  24.552  42.773  1.00  0.00     0.004 C 
ENDBRANCH  14  15
ENDBRANCH  13  14
ENDBRANCH  12  13
ENDBRANCH  11  12
ENDBRANCH  10  11
ENDBRANCH   1  10
TORSDOF 12
ENDMDL
MODEL 7
REMARK VINA RESULT:     1.792      3.053      5.528
REMARK INTER + INTRA:           1.911
REMARK INTER:                   1.784
REMARK INTRA:                   0.127
REMARK UNBOUND:                -1.138
REMARK SMILES CCCCCCCCCCCCCC(=O)[O-]
REMARK SMILES IDX 8 1 9 2 10 3 11 4 12 5 13 6 14 7 15 8 16 9 7 10 6 11 5 12
REMARK SMILES IDX 4 13 3 14 2 15 1 16
REMARK H PARENT
REMARK Flexibility Score: inf
ROOT
ATOM      1  C   UNL     1      29.778  24.233  29.379  1.00  0.00     0.000 C 
ENDROOT
BRANCH   1   2
ATOM      2  C   UNL     1      30.524  25.014  30.470  1.00  0.00     0.000 C 
BRANCH   2   3
ATOM      3  C   UNL     1      30.689  24.161  31.737  1.00  0.00     0.000 C 
BRANCH   3   4
ATOM      4  C   UNL     1      32.142  23.717  31.969  1.00  0.00     0.000 C 
BRANCH   4   5
ATOM      5  C   UNL     1      33.091  24.903  32.219  1.00  0.00     0.006 C 
BRANCH   5   6
ATOM      6  C   UNL     1      33.483  25.029  33.696  1.00  0.00     0.053 C 
BRANCH   6   7
ATOM      7  C   UNL     1      32.345  24.683  34.608  1.00  0.00     0.041 C 
ATOM      8  O   UNL     1      31.171  25.027  34.312  1.00  0.00    -0.550 OA
ATOM      9  O   UNL     1      32.577  23.954  35.766  1.00  0.00    -0.550 OA
ENDBRANCH   6   7
ENDBRANCH   5   6
ENDBRANCH   4   5
ENDBRANCH   3   4
ENDBRANCH   2   3
ENDBRANCH   1   2
BRANCH   1  10
ATOM     10  C   UNL     1      30.495  24.273  28.017  1.00  0.00     0.000 C 
BRANCH  10  11
ATOM     11  C   UNL     1      31.866  23.566  27.978  1.00  0.00    -0.000 C 
BRANCH  11  12
ATOM     12  C   UNL     1      32.828  24.054  26.879  1.00  0.00    -0.000 C 
BRANCH  12  13
ATOM     13  C   UNL     1      34.308  23.889  27.264  1.00  0.00    -0.000 C 
BRANCH  13  14
ATOM     14  C   UNL     1      34.560  24.090  28.769  1.00  0.00    -0.000 C 
BRANCH  14  15
ATOM     15  C   UNL     1      35.751  25.002  29.116  1.00  0.00    -0.003 C 
ATOM     16  C   UNL     1      37.063  24.540  28.484  1.00  0.00     0.004 C 
ENDBRANCH  14  15
ENDBRANCH  13  14
ENDBRANCH  12  13
ENDBRANCH  11  12
ENDBRANCH  10  11
ENDBRANCH   1  10
TORSDOF 12
ENDMDL
