MODEL 1
REMARK VINA RESULT:    -4.442      0.000      0.000
REMARK INTER + INTRA:         -13.031
REMARK INTER:                 -10.155
REMARK INTRA:                  -2.876
REMARK UNBOUND:                -2.876
REMARK SMILES CCCCCCCCCCCCCCCCCCCCCCCC(=O)[O-]
REMARK SMILES IDX 13 1 14 2 15 3 16 4 17 5 18 6 19 7 20 8 21 9 22 10 23 11
REMARK SMILES IDX 24 12 25 13 26 14 12 15 11 16 10 17 9 18 8 19 7 20 6 21 5 22
REMARK SMILES IDX 4 23 3 24 2 25 1 26
REMARK H PARENT
REMARK Flexibility Score: inf
ROOT
ATOM      1  C   UNL     1      12.605  11.209  13.123  1.00  0.00     0.000 C 
ENDROOT
BRANCH   1   2
ATOM      2  C   UNL     1      13.790  11.976  13.734  1.00  0.00     0.000 C 
BRANCH   2   3
ATOM      3  C   UNL     1      14.523  11.165  14.815  1.00  0.00     0.000 C 
BRANCH   3   4
ATOM      4  C   UNL     1      15.835  11.833  15.268  1.00  0.00     0.000 C 
BRANCH   4   5
ATOM      5  C   UNL     1      16.846  11.983  14.119  1.00  0.00     0.000 C 
BRANCH   5   6
ATOM      6  C   UNL     1      18.276  11.602  14.537  1.00  0.00     0.000 C 
BRANCH   6   7
ATOM      7  C   UNL     1      19.144  12.826  14.886  1.00  0.00     0.000 C 
BRANCH   7   8
ATOM      8  C   UNL     1      19.434  13.014  16.386  1.00  0.00     0.000 C 
BRANCH   8   9
ATOM      9  C   UNL     1      19.885  11.718  17.076  1.00  0.00     0.000 C 
BRANCH   9  10
ATOM     10  C   UNL     1      18.943  11.357  18.235  1.00  0.00     0.006 C 
BRANCH  10  11
ATOM     11  C   UNL     1      17.924  12.468  18.521  1.00  0.00     0.053 C 
BRANCH  11  12
ATOM     12  C   UNL     1      16.696  11.934  19.194  1.00  0.00     0.041 C 
ATOM     13  O   UNL     1      15.584  11.967  18.603  1.00  0.00    -0.550 OA
ATOM     14  O   UNL     1      16.786  11.369  20.459  1.00  0.00    -0.550 OA
ENDBRANCH  11  12
ENDBRANCH  10  11
ENDBRANCH   9  10
ENDBRANCH   8   9
ENDBRANCH   7   8
ENDBRANCH   6   7
ENDBRANCH   5   6
ENDBRANCH   4   5
ENDBRANCH   3   4
ENDBRANCH   2   3
ENDBRANCH   1   2
BRANCH   1  15
ATOM     15  C   UNL     1      11.246  11.627  13.716  1.00  0.00     0.000 C 
BRANCH  15  16
ATOM     16  C   UNL     1      10.009  11.027  13.021  1.00  0.00     0.000 C 
BRANCH  16  17
ATOM     17  C   UNL     1       9.025  12.095  12.518  1.00  0.00     0.000 C 
BRANCH  17  18
ATOM     18  C   UNL     1       9.303  13.486  13.113  1.00  0.00    -0.000 C 
BRANCH  18  19
ATOM     19  C   UNL     1       9.579  14.571  12.049  1.00  0.00    -0.000 C 
BRANCH  19  20
ATOM     20  C   UNL     1      11.079  14.706  11.735  1.00  0.00    -0.000 C 
BRANCH  20  21
ATOM     21  C   UNL     1      11.340  15.245  10.313  1.00  0.00    -0.000 C 
BRANCH  21  22
ATOM     22  C   UNL     1      10.327  14.749   9.262  1.00  0.00    -0.000 C 
BRANCH  22  23
ATOM     23  C   UNL     1      10.822  13.596   8.369  1.00  0.00    -0.000 C 
BRANCH  23  24
ATOM     24  C   UNL     1      10.383  12.190   8.821  1.00  0.00    -0.000 C 
BRANCH  24  25
ATOM     25  C   UNL     1      11.429  11.494   9.703  1.00  0.00    -0.003 C 
ATOM     26  C   UNL     1      12.842  11.933   9.330  1.00  0.00     0.004 C 
ENDBRANCH  24  25
ENDBRANCH  23  24
ENDBRANCH  22  23
ENDBRANCH  21  22
ENDBRANCH  20  21
ENDBRANCH  19  20
ENDBRANCH  18  19
ENDBRANCH  17  18
ENDBRANCH  16  17
ENDBRANCH  15  16
ENDBRANCH   1  15
TORSDOF 22
ENDMDL
MODEL 2
REMARK VINA RESULT:    -4.419      3.218      9.449
REMARK INTER + INTRA:         -12.979
REMARK INTER:                 -10.615
REMARK INTRA:                  -2.364
REMARK UNBOUND:                -2.876
REMARK SMILES CCCCCCCCCCCCCCCCCCCCCCCC(=O)[O-]
REMARK SMILES IDX 13 1 14 2 15 3 16 4 17 5 18 6 19 7 20 8 21 9 22 10 23 11
REMARK SMILES IDX 24 12 25 13 26 14 12 15 11 16 10 17 9 18 8 19 7 20 6 21 5 22
REMARK SMILES IDX 4 23 3 24 2 25 1 26
REMARK H PARENT
REMARK Flexibility Score: inf
ROOT
ATOM      1  C   UNL     1      13.163  11.531  13.057  1.00  0.00     0.000 C 
ENDROOT
BRANCH   1   2
ATOM      2  C   UNL     1      11.839  10.818  12.729  1.00  0.00     0.000 C 
BRANCH   2   3
ATOM      3  C   UNL     1      10.634  11.453  13.443  1.00  0.00     0.000 C 
BRANCH   3   4
ATOM      4  C   UNL     1       9.775  12.315  12.500  1.00  0.00     0.000 C 
BRANCH   4   5
ATOM      5  C   UNL     1       9.253  13.591  13.183  1.00  0.00     0.000 C 
BRANCH   5   6
ATOM      6  C   UNL     1       9.445  14.846  12.315  1.00  0.00     0.000 C 
BRANCH   6   7
ATOM      7  C   UNL     1      10.929  15.199  12.094  1.00  0.00     0.000 C 
BRANCH   7   8
ATOM      8  C   UNL     1      11.385  15.210  10.624  1.00  0.00     0.000 C 
BRANCH   8   9
ATOM      9  C   UNL     1      10.258  14.851   9.644  1.00  0.00     0.000 C 
BRANCH   9  10
ATOM     10  C   UNL     1      10.696  13.728   8.692  1.00  0.00     0.006 C 
BRANCH  10  11
ATOM     11  C   UNL     1      11.886  12.931   9.244  1.00  0.00     0.053 C 
BRANCH  11  12
ATOM     12  C   UNL     1      12.098  11.656   8.486  1.00  0.00     0.041 C 
ATOM     13  O   UNL     1      12.917  10.797   8.908  1.00  0.00    -0.550 OA
ATOM     14  O   UNL     1      11.367  11.401   7.334  1.00  0.00    -0.550 OA
ENDBRANCH  11  12
ENDBRANCH  10  11
ENDBRANCH   9  10
ENDBRANCH   8   9
ENDBRANCH   7   8
ENDBRANCH   6   7
ENDBRANCH   5   6
ENDBRANCH   4   5
ENDBRANCH   3   4
ENDBRANCH   2   3
ENDBRANCH   1   2
BRANCH   1  15
ATOM     15  C   UNL     1      13.816  11.021  14.355  1.00  0.00     0.000 C 
BRANCH  15  16
ATOM     16  C   UNL     1      14.697  12.042  15.097  1.00  0.00     0.000 C 
BRANCH  16  17
ATOM     17  C   UNL     1      14.595  11.928  16.626  1.00  0.00     0.000 C 
BRANCH  17  18
ATOM     18  C   UNL     1      15.908  12.296  17.338  1.00  0.00    -0.000 C 
BRANCH  18  19
ATOM     19  C   UNL     1      15.918  11.943  18.841  1.00  0.00    -0.000 C 
BRANCH  19  20
ATOM     20  C   UNL     1      17.333  12.008  19.442  1.00  0.00    -0.000 C 
BRANCH  20  21
ATOM     21  C   UNL     1      18.386  12.495  18.423  1.00  0.00    -0.000 C 
BRANCH  21  22
ATOM     22  C   UNL     1      19.422  11.422  18.037  1.00  0.00    -0.000 C 
BRANCH  22  23
ATOM     23  C   UNL     1      19.743  11.334  16.532  1.00  0.00    -0.000 C 
BRANCH  23  24
ATOM     24  C   UNL     1      19.108  12.440  15.667  1.00  0.00    -0.000 C 
BRANCH  24  25
ATOM     25  C   UNL     1      18.247  11.883  14.525  1.00  0.00    -0.003 C 
ATOM     26  C   UNL     1      18.411  12.717  13.258  1.00  0.00     0.004 C 
ENDBRANCH  24  25
ENDBRANCH  23  24
ENDBRANCH  22  23
ENDBRANCH  21  22
ENDBRANCH  20  21
ENDBRANCH  19  20
ENDBRANCH  18  19
ENDBRANCH  17  18
ENDBRANCH  16  17
ENDBRANCH  15  16
ENDBRANCH   1  15
TORSDOF 22
ENDMDL
MODEL 3
REMARK VINA RESULT:    -4.387      0.945      2.436
REMARK INTER + INTRA:         -12.906
REMARK INTER:                 -10.044
REMARK INTRA:                  -2.861
REMARK UNBOUND:                -2.876
REMARK SMILES CCCCCCCCCCCCCCCCCCCCCCCC(=O)[O-]
REMARK SMILES IDX 13 1 14 2 15 3 16 4 17 5 18 6 19 7 20 8 21 9 22 10 23 11
REMARK SMILES IDX 24 12 25 13 26 14 12 15 11 16 10 17 9 18 8 19 7 20 6 21 5 22
REMARK SMILES IDX 4 23 3 24 2 25 1 26
REMARK H PARENT
REMARK Flexibility Score: inf
ROOT
ATOM      1  C   UNL     1      12.427  11.323  13.347  1.00  0.00     0.000 C 
ENDROOT
BRANCH   1   2
ATOM      2  C   UNL     1      13.822  11.827  13.754  1.00  0.00     0.000 C 
BRANCH   2   3
ATOM      3  C   UNL     1      14.232  11.357  15.160  1.00  0.00     0.000 C 
BRANCH   3   4
ATOM      4  C   UNL     1      15.691  11.710  15.500  1.00  0.00     0.000 C 
BRANCH   4   5
ATOM      5  C   UNL     1      16.474  12.217  14.278  1.00  0.00     0.000 C 
BRANCH   5   6
ATOM      6  C   UNL     1      17.879  11.599  14.178  1.00  0.00     0.000 C 
BRANCH   6   7
ATOM      7  C   UNL     1      18.993  12.572  14.609  1.00  0.00     0.000 C 
BRANCH   7   8
ATOM      8  C   UNL     1      19.072  12.845  16.122  1.00  0.00     0.000 C 
BRANCH   8   9
ATOM      9  C   UNL     1      19.765  11.716  16.899  1.00  0.00     0.000 C 
BRANCH   9  10
ATOM     10  C   UNL     1      19.053  11.454  18.235  1.00  0.00     0.006 C 
BRANCH  10  11
ATOM     11  C   UNL     1      18.053  12.562  18.587  1.00  0.00     0.053 C 
BRANCH  11  12
ATOM     12  C   UNL     1      16.901  12.036  19.387  1.00  0.00     0.041 C 
ATOM     13  O   UNL     1      17.044  11.781  20.613  1.00  0.00    -0.550 OA
ATOM     14  O   UNL     1      15.660  11.861  18.789  1.00  0.00    -0.550 OA
ENDBRANCH  11  12
ENDBRANCH  10  11
ENDBRANCH   9  10
ENDBRANCH   8   9
ENDBRANCH   7   8
ENDBRANCH   6   7
ENDBRANCH   5   6
ENDBRANCH   4   5
ENDBRANCH   3   4
ENDBRANCH   2   3
ENDBRANCH   1   2
BRANCH   1  15
ATOM     15  C   UNL     1      12.324  10.982  11.848  1.00  0.00     0.000 C 
BRANCH  15  16
ATOM     16  C   UNL     1      11.312   9.879  11.489  1.00  0.00     0.000 C 
BRANCH  16  17
ATOM     17  C   UNL     1       9.909  10.426  11.182  1.00  0.00     0.000 C 
BRANCH  17  18
ATOM     18  C   UNL     1       9.784  10.971   9.749  1.00  0.00    -0.000 C 
BRANCH  18  19
ATOM     19  C   UNL     1       9.101  12.354   9.670  1.00  0.00    -0.000 C 
BRANCH  19  20
ATOM     20  C   UNL     1       9.852  13.317   8.733  1.00  0.00    -0.000 C 
BRANCH  20  21
ATOM     21  C   UNL     1      11.365  13.020   8.668  1.00  0.00    -0.000 C 
BRANCH  21  22
ATOM     22  C   UNL     1      12.202  13.820   9.684  1.00  0.00    -0.000 C 
BRANCH  22  23
ATOM     23  C   UNL     1      11.441  14.936  10.425  1.00  0.00    -0.000 C 
BRANCH  23  24
ATOM     24  C   UNL     1      11.234  14.692  11.931  1.00  0.00    -0.000 C 
BRANCH  24  25
ATOM     25  C   UNL     1       9.767  14.824  12.362  1.00  0.00    -0.003 C 
ATOM     26  C   UNL     1       9.283  13.554  13.058  1.00  0.00     0.004 C 
ENDBRANCH  24  25
ENDBRANCH  23  24
ENDBRANCH  22  23
ENDBRANCH  21  22
ENDBRANCH  20  21
ENDBRANCH  19  20
ENDBRANCH  18  19
ENDBRANCH  17  18
ENDBRANCH  16  17
ENDBRANCH  15  16
ENDBRANCH   1  15
TORSDOF 22
ENDMDL
MODEL 4
REMARK VINA RESULT:    -4.379      2.141      3.798
REMARK INTER + INTRA:         -12.887
REMARK INTER:                 -10.032
REMARK INTRA:                  -2.855
REMARK UNBOUND:                -2.876
REMARK SMILES CCCCCCCCCCCCCCCCCCCCCCCC(=O)[O-]
REMARK SMILES IDX 13 1 14 2 15 3 16 4 17 5 18 6 19 7 20 8 21 9 22 10 23 11
REMARK SMILES IDX 24 12 25 13 26 14 12 15 11 16 10 17 9 18 8 19 7 20 6 21 5 22
REMARK SMILES IDX 4 23 3 24 2 25 1 26
REMARK H PARENT
REMARK Flexibility Score: inf
ROOT
ATOM      1  C   UNL     1      12.009  11.537  13.970  1.00  0.00     0.000 C 
ENDROOT
BRANCH   1   2
ATOM      2  C   UNL     1      13.501  11.887  13.825  1.00  0.00     0.000 C 
BRANCH   2   3
ATOM      3  C   UNL     1      14.393  11.072  14.775  1.00  0.00     0.000 C 
BRANCH   3   4
ATOM      4  C   UNL     1      15.173  11.959  15.762  1.00  0.00     0.000 C 
BRANCH   4   5
ATOM      5  C   UNL     1      14.536  11.984  17.161  1.00  0.00     0.000 C 
BRANCH   5   6
ATOM      6  C   UNL     1      15.438  12.656  18.210  1.00  0.00     0.000 C 
BRANCH   6   7
ATOM      7  C   UNL     1      16.705  11.836  18.523  1.00  0.00     0.000 C 
BRANCH   7   8
ATOM      8  C   UNL     1      18.032  12.596  18.355  1.00  0.00     0.000 C 
BRANCH   8   9
ATOM      9  C   UNL     1      19.007  11.894  17.397  1.00  0.00     0.000 C 
BRANCH   9  10
ATOM     10  C   UNL     1      19.130  12.669  16.076  1.00  0.00     0.006 C 
BRANCH  10  11
ATOM     11  C   UNL     1      18.656  11.844  14.873  1.00  0.00     0.053 C 
BRANCH  11  12
ATOM     12  C   UNL     1      18.428  12.702  13.666  1.00  0.00     0.041 C 
ATOM     13  O   UNL     1      17.257  12.925  13.259  1.00  0.00    -0.550 OA
ATOM     14  O   UNL     1      19.506  13.284  13.013  1.00  0.00    -0.550 OA
ENDBRANCH  11  12
ENDBRANCH  10  11
ENDBRANCH   9  10
ENDBRANCH   8   9
ENDBRANCH   7   8
ENDBRANCH   6   7
ENDBRANCH   5   6
ENDBRANCH   4   5
ENDBRANCH   3   4
ENDBRANCH   2   3
ENDBRANCH   1   2
BRANCH   1  15
ATOM     15  C   UNL     1      11.230  11.663  12.647  1.00  0.00     0.000 C 
BRANCH  15  16
ATOM     16  C   UNL     1      10.930  10.335  11.928  1.00  0.00     0.000 C 
BRANCH  16  17
ATOM     17  C   UNL     1      11.888  10.053  10.760  1.00  0.00     0.000 C 
BRANCH  17  18
ATOM     18  C   UNL     1      12.587  11.323  10.246  1.00  0.00    -0.000 C 
BRANCH  18  19
ATOM     19  C   UNL     1      12.749  11.363   8.710  1.00  0.00    -0.000 C 
BRANCH  19  20
ATOM     20  C   UNL     1      11.796  12.377   8.054  1.00  0.00    -0.000 C 
BRANCH  20  21
ATOM     21  C   UNL     1      10.357  11.834   7.917  1.00  0.00    -0.000 C 
BRANCH  21  22
ATOM     22  C   UNL     1       9.315  12.615   8.740  1.00  0.00    -0.000 C 
BRANCH  22  23
ATOM     23  C   UNL     1       9.774  14.002   9.231  1.00  0.00    -0.000 C 
BRANCH  23  24
ATOM     24  C   UNL     1       9.780  14.179  10.761  1.00  0.00    -0.000 C 
BRANCH  24  25
ATOM     25  C   UNL     1      10.925  15.076  11.253  1.00  0.00    -0.003 C 
ATOM     26  C   UNL     1      12.062  15.122  10.236  1.00  0.00     0.004 C 
ENDBRANCH  24  25
ENDBRANCH  23  24
ENDBRANCH  22  23
ENDBRANCH  21  22
ENDBRANCH  20  21
ENDBRANCH  19  20
ENDBRANCH  18  19
ENDBRANCH  17  18
ENDBRANCH  16  17
ENDBRANCH  15  16
ENDBRANCH   1  15
TORSDOF 22
ENDMDL
MODEL 5
REMARK VINA RESULT:    -4.341      3.584      9.197
REMARK INTER + INTRA:         -12.799
REMARK INTER:                 -10.140
REMARK INTRA:                  -2.659
REMARK UNBOUND:                -2.876
REMARK SMILES CCCCCCCCCCCCCCCCCCCCCCCC(=O)[O-]
REMARK SMILES IDX 13 1 14 2 15 3 16 4 17 5 18 6 19 7 20 8 21 9 22 10 23 11
REMARK SMILES IDX 24 12 25 13 26 14 12 15 11 16 10 17 9 18 8 19 7 20 6 21 5 22
REMARK SMILES IDX 4 23 3 24 2 25 1 26
REMARK H PARENT
REMARK Flexibility Score: inf
ROOT
ATOM      1  C   UNL     1      13.395  11.899  13.453  1.00  0.00     0.000 C 
ENDROOT
BRANCH   1   2
ATOM      2  C   UNL     1      12.224  10.916  13.280  1.00  0.00     0.000 C 
BRANCH   2   3
ATOM      3  C   UNL     1      10.858  11.573  13.537  1.00  0.00     0.000 C 
BRANCH   3   4
ATOM      4  C   UNL     1      10.111  11.914  12.234  1.00  0.00     0.000 C 
BRANCH   4   5
ATOM      5  C   UNL     1      10.039  10.720  11.268  1.00  0.00     0.000 C 
BRANCH   5   6
ATOM      6  C   UNL     1      10.610  11.048   9.878  1.00  0.00     0.000 C 
BRANCH   6   7
ATOM      7  C   UNL     1      12.118  10.751   9.765  1.00  0.00     0.000 C 
BRANCH   7   8
ATOM      8  C   UNL     1      13.029  11.991   9.751  1.00  0.00     0.000 C 
BRANCH   8   9
ATOM      9  C   UNL     1      12.274  13.285   9.415  1.00  0.00     0.000 C 
BRANCH   9  10
ATOM     10  C   UNL     1      12.411  14.311  10.550  1.00  0.00     0.006 C 
BRANCH  10  11
ATOM     11  C   UNL     1      11.147  15.163  10.718  1.00  0.00     0.053 C 
BRANCH  11  12
ATOM     12  C   UNL     1      10.210  15.000   9.561  1.00  0.00     0.041 C 
ATOM     13  O   UNL     1       9.243  14.196   9.636  1.00  0.00    -0.550 OA
ATOM     14  O   UNL     1      10.383  15.762   8.412  1.00  0.00    -0.550 OA
ENDBRANCH  11  12
ENDBRANCH  10  11
ENDBRANCH   9  10
ENDBRANCH   8   9
ENDBRANCH   7   8
ENDBRANCH   6   7
ENDBRANCH   5   6
ENDBRANCH   4   5
ENDBRANCH   3   4
ENDBRANCH   2   3
ENDBRANCH   1   2
BRANCH   1  15
ATOM     15  C   UNL     1      14.443  11.414  14.473  1.00  0.00     0.000 C 
BRANCH  15  16
ATOM     16  C   UNL     1      14.249  11.926  15.912  1.00  0.00     0.000 C 
BRANCH  16  17
ATOM     17  C   UNL     1      15.560  11.980  16.713  1.00  0.00     0.000 C 
BRANCH  17  18
ATOM     18  C   UNL     1      15.333  12.297  18.201  1.00  0.00    -0.000 C 
BRANCH  18  19
ATOM     19  C   UNL     1      16.549  11.971  19.096  1.00  0.00    -0.000 C 
BRANCH  19  20
ATOM     20  C   UNL     1      17.856  12.552  18.530  1.00  0.00    -0.000 C 
BRANCH  20  21
ATOM     21  C   UNL     1      18.983  11.501  18.445  1.00  0.00    -0.000 C 
BRANCH  21  22
ATOM     22  C   UNL     1      19.882  11.650  17.202  1.00  0.00    -0.000 C 
BRANCH  22  23
ATOM     23  C   UNL     1      19.298  12.517  16.071  1.00  0.00    -0.000 C 
BRANCH  23  24
ATOM     24  C   UNL     1      18.718  11.728  14.882  1.00  0.00    -0.000 C 
BRANCH  24  25
ATOM     25  C   UNL     1      17.893  12.605  13.929  1.00  0.00    -0.003 C 
ATOM     26  C   UNL     1      18.784  13.263  12.879  1.00  0.00     0.004 C 
ENDBRANCH  24  25
ENDBRANCH  23  24
ENDBRANCH  22  23
ENDBRANCH  21  22
ENDBRANCH  20  21
ENDBRANCH  19  20
ENDBRANCH  18  19
ENDBRANCH  17  18
ENDBRANCH  16  17
ENDBRANCH  15  16
ENDBRANCH   1  15
TORSDOF 22
ENDMDL
MODEL 6
REMARK VINA RESULT:    -4.312      3.070      9.300
REMARK INTER + INTRA:         -12.734
REMARK INTER:                 -10.235
REMARK INTRA:                  -2.499
REMARK UNBOUND:                -2.876
REMARK SMILES CCCCCCCCCCCCCCCCCCCCCCCC(=O)[O-]
REMARK SMILES IDX 13 1 14 2 15 3 16 4 17 5 18 6 19 7 20 8 21 9 22 10 23 11
REMARK SMILES IDX 24 12 25 13 26 14 12 15 11 16 10 17 9 18 8 19 7 20 6 21 5 22
REMARK SMILES IDX 4 23 3 24 2 25 1 26
REMARK H PARENT
REMARK Flexibility Score: inf
ROOT
ATOM      1  C   UNL     1      11.705  11.792  13.268  1.00  0.00     0.000 C 
ENDROOT
BRANCH   1   2
ATOM      2  C   UNL     1      10.589  11.619  14.313  1.00  0.00     0.000 C 
BRANCH   2   3
ATOM      3  C   UNL     1       9.339  12.452  13.985  1.00  0.00     0.000 C 
BRANCH   3   4
ATOM      4  C   UNL     1       9.110  12.605  12.470  1.00  0.00     0.000 C 
BRANCH   4   5
ATOM      5  C   UNL     1       9.073  14.077  12.027  1.00  0.00     0.000 C 
BRANCH   5   6
ATOM      6  C   UNL     1       9.147  14.235  10.498  1.00  0.00     0.000 C 
BRANCH   6   7
ATOM      7  C   UNL     1      10.494  14.813  10.022  1.00  0.00     0.000 C 
BRANCH   7   8
ATOM      8  C   UNL     1      11.652  14.682  11.027  1.00  0.00     0.000 C 
BRANCH   8   9
ATOM      9  C   UNL     1      12.926  14.098  10.400  1.00  0.00     0.000 C 
BRANCH   9  10
ATOM     10  C   UNL     1      12.581  13.027   9.354  1.00  0.00     0.006 C 
BRANCH  10  11
ATOM     11  C   UNL     1      12.507  11.622   9.965  1.00  0.00     0.053 C 
BRANCH  11  12
ATOM     12  C   UNL     1      11.161  10.998   9.760  1.00  0.00     0.041 C 
ATOM     13  O   UNL     1      10.457  11.319   8.766  1.00  0.00    -0.550 OA
ATOM     14  O   UNL     1      10.697  10.035  10.648  1.00  0.00    -0.550 OA
ENDBRANCH  11  12
ENDBRANCH  10  11
ENDBRANCH   9  10
ENDBRANCH   8   9
ENDBRANCH   7   8
ENDBRANCH   6   7
ENDBRANCH   5   6
ENDBRANCH   4   5
ENDBRANCH   3   4
ENDBRANCH   2   3
ENDBRANCH   1   2
BRANCH   1  15
ATOM     15  C   UNL     1      12.991  11.023  13.628  1.00  0.00     0.000 C 
BRANCH  15  16
ATOM     16  C   UNL     1      14.189  11.897  14.043  1.00  0.00     0.000 C 
BRANCH  16  17
ATOM     17  C   UNL     1      14.698  11.588  15.460  1.00  0.00     0.000 C 
BRANCH  17  18
ATOM     18  C   UNL     1      16.175  11.968  15.656  1.00  0.00    -0.000 C 
BRANCH  18  19
ATOM     19  C   UNL     1      17.005  11.919  14.354  1.00  0.00    -0.000 C 
BRANCH  19  20
ATOM     20  C   UNL     1      18.518  11.876  14.634  1.00  0.00    -0.000 C 
BRANCH  20  21
ATOM     21  C   UNL     1      18.925  12.767  15.827  1.00  0.00    -0.000 C 
BRANCH  21  22
ATOM     22  C   UNL     1      19.732  12.027  16.911  1.00  0.00    -0.000 C 
BRANCH  22  23
ATOM     23  C   UNL     1      18.921  11.589  18.146  1.00  0.00    -0.000 C 
BRANCH  23  24
ATOM     24  C   UNL     1      17.921  12.637  18.670  1.00  0.00    -0.000 C 
BRANCH  24  25
ATOM     25  C   UNL     1      16.587  12.019  19.113  1.00  0.00    -0.003 C 
ATOM     26  C   UNL     1      16.757  11.211  20.397  1.00  0.00     0.004 C 
ENDBRANCH  24  25
ENDBRANCH  23  24
ENDBRANCH  22  23
ENDBRANCH  21  22
ENDBRANCH  20  21
ENDBRANCH  19  20
ENDBRANCH  18  19
ENDBRANCH  17  18
ENDBRANCH  16  17
ENDBRANCH  15  16
ENDBRANCH   1  15
TORSDOF 22
ENDMDL
MODEL 7
REMARK VINA RESULT:    -4.249      0.958      2.348
REMARK INTER + INTRA:         -12.590
REMARK INTER:                  -9.883
REMARK INTRA:                  -2.707
REMARK UNBOUND:                -2.876
REMARK SMILES CCCCCCCCCCCCCCCCCCCCCCCC(=O)[O-]
REMARK SMILES IDX 13 1 14 2 15 3 16 4 17 5 18 6 19 7 20 8 21 9 22 10 23 11
REMARK SMILES IDX 24 12 25 13 26 14 12 15 11 16 10 17 9 18 8 19 7 20 6 21 5 22
REMARK SMILES IDX 4 23 3 24 2 25 1 26
REMARK H PARENT
REMARK Flexibility Score: inf
ROOT
ATOM      1  C   UNL     1      13.436  11.901  13.706  1.00  0.00     0.000 C 
ENDROOT
BRANCH   1   2
ATOM      2  C   UNL     1      14.272  10.961  14.594  1.00  0.00     0.000 C 
BRANCH   2   3
ATOM      3  C   UNL     1      15.456  11.679  15.261  1.00  0.00     0.000 C 
BRANCH   3   4
ATOM      4  C   UNL     1      16.508  12.159  14.244  1.00  0.00     0.000 C 
BRANCH   4   5
ATOM      5  C   UNL     1      17.904  11.577  14.522  1.00  0.00     0.000 C 
BRANCH   5   6
ATOM      6  C   UNL     1      18.979  12.666  14.675  1.00  0.00     0.000 C 
BRANCH   6   7
ATOM      7  C   UNL     1      19.273  13.013  16.147  1.00  0.00     0.000 C 
BRANCH   7   8
ATOM      8  C   UNL     1      19.870  11.866  16.981  1.00  0.00     0.000 C 
BRANCH   8   9
ATOM      9  C   UNL     1      18.983  11.464  18.169  1.00  0.00     0.000 C 
BRANCH   9  10
ATOM     10  C   UNL     1      17.670  12.261  18.166  1.00  0.00     0.006 C 
BRANCH  10  11
ATOM     11  C   UNL     1      17.227  12.654  19.582  1.00  0.00     0.053 C 
BRANCH  11  12
ATOM     12  C   UNL     1      16.939  11.450  20.427  1.00  0.00     0.041 C 
ATOM     13  O   UNL     1      15.884  10.786  20.245  1.00  0.00    -0.550 OA
ATOM     14  O   UNL     1      17.851  11.043  21.391  1.00  0.00    -0.550 OA
ENDBRANCH  11  12
ENDBRANCH  10  11
ENDBRANCH   9  10
ENDBRANCH   8   9
ENDBRANCH   7   8
ENDBRANCH   6   7
ENDBRANCH   5   6
ENDBRANCH   4   5
ENDBRANCH   3   4
ENDBRANCH   2   3
ENDBRANCH   1   2
BRANCH   1  15
ATOM     15  C   UNL     1      12.327  11.166  12.929  1.00  0.00     0.000 C 
BRANCH  15  16
ATOM     16  C   UNL     1      10.929  11.212  13.572  1.00  0.00     0.000 C 
BRANCH  16  17
ATOM     17  C   UNL     1       9.806  10.811  12.602  1.00  0.00     0.000 C 
BRANCH  17  18
ATOM     18  C   UNL     1       9.330  11.985  11.728  1.00  0.00    -0.000 C 
BRANCH  18  19
ATOM     19  C   UNL     1       9.245  11.642  10.224  1.00  0.00    -0.000 C 
BRANCH  19  20
ATOM     20  C   UNL     1      10.550  11.019   9.699  1.00  0.00    -0.000 C 
BRANCH  20  21
ATOM     21  C   UNL     1      10.991  11.621   8.347  1.00  0.00    -0.000 C 
BRANCH  21  22
ATOM     22  C   UNL     1      12.132  12.650   8.465  1.00  0.00    -0.000 C 
BRANCH  22  23
ATOM     23  C   UNL     1      12.820  12.710   9.843  1.00  0.00    -0.000 C 
BRANCH  23  24
ATOM     24  C   UNL     1      12.890  14.114  10.472  1.00  0.00    -0.000 C 
BRANCH  24  25
ATOM     25  C   UNL     1      11.558  14.872  10.389  1.00  0.00    -0.003 C 
ATOM     26  C   UNL     1      10.953  15.071  11.776  1.00  0.00     0.004 C 
ENDBRANCH  24  25
ENDBRANCH  23  24
ENDBRANCH  22  23
ENDBRANCH  21  22
ENDBRANCH  20  21
ENDBRANCH  19  20
ENDBRANCH  18  19
ENDBRANCH  17  18
ENDBRANCH  16  17
ENDBRANCH  15  16
ENDBRANCH   1  15
TORSDOF 22
ENDMDL
MODEL 8
REMARK VINA RESULT:    -4.177      2.574      4.080
REMARK INTER + INTRA:         -12.426
REMARK INTER:                 -10.016
REMARK INTRA:                  -2.410
REMARK UNBOUND:                -2.876
REMARK SMILES CCCCCCCCCCCCCCCCCCCCCCCC(=O)[O-]
REMARK SMILES IDX 13 1 14 2 15 3 16 4 17 5 18 6 19 7 20 8 21 9 22 10 23 11
REMARK SMILES IDX 24 12 25 13 26 14 12 15 11 16 10 17 9 18 8 19 7 20 6 21 5 22
REMARK SMILES IDX 4 23 3 24 2 25 1 26
REMARK H PARENT
REMARK Flexibility Score: inf
ROOT
ATOM      1  C   UNL     1      10.065  11.638  16.399  1.00  0.00     0.000 C 
ENDROOT
BRANCH   1   2
ATOM      2  C   UNL     1      10.015  11.908  17.914  1.00  0.00     0.000 C 
BRANCH   2   3
ATOM      3  C   UNL     1      11.243  12.685  18.415  1.00  0.00     0.000 C 
BRANCH   3   4
ATOM      4  C   UNL     1      12.546  11.874  18.298  1.00  0.00     0.000 C 
BRANCH   4   5
ATOM      5  C   UNL     1      13.702  12.699  17.708  1.00  0.00     0.000 C 
BRANCH   5   6
ATOM      6  C   UNL     1      15.029  11.923  17.681  1.00  0.00     0.000 C 
BRANCH   6   7
ATOM      7  C   UNL     1      16.097  12.533  18.609  1.00  0.00     0.000 C 
BRANCH   7   8
ATOM      8  C   UNL     1      17.450  11.798  18.618  1.00  0.00     0.000 C 
BRANCH   8   9
ATOM      9  C   UNL     1      18.555  12.569  17.881  1.00  0.00     0.000 C 
BRANCH   9  10
ATOM     10  C   UNL     1      19.043  11.787  16.652  1.00  0.00     0.006 C 
BRANCH  10  11
ATOM     11  C   UNL     1      19.114  12.666  15.397  1.00  0.00     0.053 C 
BRANCH  11  12
ATOM     12  C   UNL     1      18.082  12.270  14.384  1.00  0.00     0.041 C 
ATOM     13  O   UNL     1      16.897  12.041  14.742  1.00  0.00    -0.550 OA
ATOM     14  O   UNL     1      18.423  12.188  13.040  1.00  0.00    -0.550 OA
ENDBRANCH  11  12
ENDBRANCH  10  11
ENDBRANCH   9  10
ENDBRANCH   8   9
ENDBRANCH   7   8
ENDBRANCH   6   7
ENDBRANCH   5   6
ENDBRANCH   4   5
ENDBRANCH   3   4
ENDBRANCH   2   3
ENDBRANCH   1   2
BRANCH   1  15
ATOM     15  C   UNL     1       8.906  12.302  15.631  1.00  0.00     0.000 C 
BRANCH  15  16
ATOM     16  C   UNL     1       9.086  12.383  14.105  1.00  0.00     0.000 C 
BRANCH  16  17
ATOM     17  C   UNL     1      10.233  11.502  13.586  1.00  0.00     0.000 C 
BRANCH  17  18
ATOM     18  C   UNL     1       9.763  10.463  12.553  1.00  0.00    -0.000 C 
BRANCH  18  19
ATOM     19  C   UNL     1      10.870  10.023  11.569  1.00  0.00    -0.000 C 
BRANCH  19  20
ATOM     20  C   UNL     1      12.128  10.903  11.683  1.00  0.00    -0.000 C 
BRANCH  20  21
ATOM     21  C   UNL     1      12.594  11.449  10.317  1.00  0.00    -0.000 C 
BRANCH  21  22
ATOM     22  C   UNL     1      12.966  12.944  10.337  1.00  0.00    -0.000 C 
BRANCH  22  23
ATOM     23  C   UNL     1      12.267  13.778  11.427  1.00  0.00    -0.000 C 
BRANCH  23  24
ATOM     24  C   UNL     1      11.244  14.804  10.904  1.00  0.00    -0.000 C 
BRANCH  24  25
ATOM     25  C   UNL     1       9.791  14.380  11.159  1.00  0.00    -0.003 C 
ATOM     26  C   UNL     1       9.333  13.344  10.137  1.00  0.00     0.004 C 
ENDBRANCH  24  25
ENDBRANCH  23  24
ENDBRANCH  22  23
ENDBRANCH  21  22
ENDBRANCH  20  21
ENDBRANCH  19  20
ENDBRANCH  18  19
ENDBRANCH  17  18
ENDBRANCH  16  17
ENDBRANCH  15  16
ENDBRANCH   1  15
TORSDOF 22
ENDMDL
MODEL 9
REMARK VINA RESULT:    -4.152      2.075      3.248
REMARK INTER + INTRA:         -12.368
REMARK INTER:                  -9.738
REMARK INTRA:                  -2.630
REMARK UNBOUND:                -2.876
REMARK SMILES CCCCCCCCCCCCCCCCCCCCCCCC(=O)[O-]
REMARK SMILES IDX 13 1 14 2 15 3 16 4 17 5 18 6 19 7 20 8 21 9 22 10 23 11
REMARK SMILES IDX 24 12 25 13 26 14 12 15 11 16 10 17 9 18 8 19 7 20 6 21 5 22
REMARK SMILES IDX 4 23 3 24 2 25 1 26
REMARK H PARENT
REMARK Flexibility Score: inf
ROOT
ATOM      1  C   UNL     1      12.939  11.429  14.164  1.00  0.00     0.000 C 
ENDROOT
BRANCH   1   2
ATOM      2  C   UNL     1      14.327  10.979  14.652  1.00  0.00     0.000 C 
BRANCH   2   3
ATOM      3  C   UNL     1      14.956  11.973  15.642  1.00  0.00     0.000 C 
BRANCH   3   4
ATOM      4  C   UNL     1      14.222  12.005  16.995  1.00  0.00     0.000 C 
BRANCH   4   5
ATOM      5  C   UNL     1      15.010  12.767  18.074  1.00  0.00     0.000 C 
BRANCH   5   6
ATOM      6  C   UNL     1      16.053  11.883  18.779  1.00  0.00     0.000 C 
BRANCH   6   7
ATOM      7  C   UNL     1      17.420  12.576  18.931  1.00  0.00     0.000 C 
BRANCH   7   8
ATOM      8  C   UNL     1      18.528  12.043  18.005  1.00  0.00     0.000 C 
BRANCH   8   9
ATOM      9  C   UNL     1      19.346  13.162  17.343  1.00  0.00     0.000 C 
BRANCH   9  10
ATOM     10  C   UNL     1      19.654  12.821  15.877  1.00  0.00     0.006 C 
BRANCH  10  11
ATOM     11  C   UNL     1      18.439  12.229  15.151  1.00  0.00     0.053 C 
BRANCH  11  12
ATOM     12  C   UNL     1      18.306  12.770  13.760  1.00  0.00     0.041 C 
ATOM     13  O   UNL     1      17.174  12.839  13.212  1.00  0.00    -0.550 OA
ATOM     14  O   UNL     1      19.428  13.228  13.082  1.00  0.00    -0.550 OA
ENDBRANCH  11  12
ENDBRANCH  10  11
ENDBRANCH   9  10
ENDBRANCH   8   9
ENDBRANCH   7   8
ENDBRANCH   6   7
ENDBRANCH   5   6
ENDBRANCH   4   5
ENDBRANCH   3   4
ENDBRANCH   2   3
ENDBRANCH   1   2
BRANCH   1  15
ATOM     15  C   UNL     1      12.511  10.746  12.852  1.00  0.00     0.000 C 
BRANCH  15  16
ATOM     16  C   UNL     1      11.022  10.889  12.487  1.00  0.00     0.000 C 
BRANCH  16  17
ATOM     17  C   UNL     1      10.148  11.311  13.679  1.00  0.00     0.000 C 
BRANCH  17  18
ATOM     18  C   UNL     1       9.350  12.597  13.404  1.00  0.00    -0.000 C 
BRANCH  18  19
ATOM     19  C   UNL     1       8.987  12.793  11.915  1.00  0.00    -0.000 C 
BRANCH  19  20
ATOM     20  C   UNL     1       9.060  14.271  11.493  1.00  0.00    -0.000 C 
BRANCH  20  21
ATOM     21  C   UNL     1      10.217  15.027  12.181  1.00  0.00    -0.000 C 
BRANCH  21  22
ATOM     22  C   UNL     1      11.579  14.852  11.482  1.00  0.00    -0.000 C 
BRANCH  22  23
ATOM     23  C   UNL     1      11.506  14.498   9.985  1.00  0.00    -0.000 C 
BRANCH  23  24
ATOM     24  C   UNL     1      12.197  13.177   9.596  1.00  0.00    -0.000 C 
BRANCH  24  25
ATOM     25  C   UNL     1      11.558  12.506   8.372  1.00  0.00    -0.003 C 
ATOM     26  C   UNL     1      10.546  11.445   8.794  1.00  0.00     0.004 C 
ENDBRANCH  24  25
ENDBRANCH  23  24
ENDBRANCH  22  23
ENDBRANCH  21  22
ENDBRANCH  20  21
ENDBRANCH  19  20
ENDBRANCH  18  19
ENDBRANCH  17  18
ENDBRANCH  16  17
ENDBRANCH  15  16
ENDBRANCH   1  15
TORSDOF 22
ENDMDL
