MODEL 1
REMARK VINA RESULT:    -6.159      0.000      0.000
REMARK INTER + INTRA:          -6.159
REMARK INTER:                  -6.159
REMARK INTRA:                   0.000
REMARK UNBOUND:                 0.000
REMARK SMILES CC1(C)O[C@]2(C)CC[C@H]1CC2
REMARK SMILES IDX 1 1 2 2 9 3 10 4 11 5 5 6 4 7 7 8 8 9 6 10 3 11
REMARK H PARENT
REMARK Flexibility Score: inf
ROOT
ATOM      1  C   UNL     1      11.348 -11.745 -29.448  1.00  0.00     0.042 C 
ATOM      2  C   UNL     1      11.611 -12.313 -28.037  1.00  0.00     0.066 C 
ATOM      3  C   UNL     1      11.220 -11.258 -26.930  1.00  0.00     0.021 C 
ATOM      4  C   UNL     1      11.552 -11.859 -25.542  1.00  0.00     0.009 C 
ATOM      5  C   UNL     1      13.016 -12.362 -25.543  1.00  0.00     0.035 C 
ATOM      6  C   UNL     1      13.692 -12.016 -26.901  1.00  0.00     0.066 C 
ATOM      7  O   UNL     1      12.995 -12.683 -27.955  1.00  0.00    -0.369 OA
ATOM      8  C   UNL     1      13.612 -10.479 -27.128  1.00  0.00     0.035 C 
ATOM      9  C   UNL     1      12.134 -10.019 -27.090  1.00  0.00     0.009 C 
ATOM     10  C   UNL     1      15.152 -12.480 -26.903  1.00  0.00     0.042 C 
ATOM     11  C   UNL     1      10.763 -13.595 -27.891  1.00  0.00     0.042 C 
ENDROOT
TORSDOF 0
ENDMDL
MODEL 2
REMARK VINA RESULT:    -5.880      1.248      2.952
REMARK INTER + INTRA:          -5.880
REMARK INTER:                  -5.880
REMARK INTRA:                   0.000
REMARK UNBOUND:                 0.000
REMARK SMILES CC1(C)O[C@]2(C)CC[C@H]1CC2
REMARK SMILES IDX 1 1 2 2 9 3 10 4 11 5 5 6 4 7 7 8 8 9 6 10 3 11
REMARK H PARENT
REMARK Flexibility Score: inf
ROOT
ATOM      1  C   UNL     1      11.021 -10.637 -25.127  1.00  0.00     0.042 C 
ATOM      2  C   UNL     1      11.634 -11.833 -25.886  1.00  0.00     0.066 C 
ATOM      3  C   UNL     1      13.159 -11.575 -26.196  1.00  0.00     0.021 C 
ATOM      4  C   UNL     1      13.707 -12.779 -27.000  1.00  0.00     0.009 C 
ATOM      5  C   UNL     1      12.781 -13.042 -28.213  1.00  0.00     0.035 C 
ATOM      6  C   UNL     1      11.668 -11.958 -28.272  1.00  0.00     0.066 C 
ATOM      7  O   UNL     1      10.874 -12.037 -27.087  1.00  0.00    -0.369 OA
ATOM      8  C   UNL     1      12.332 -10.554 -28.350  1.00  0.00     0.035 C 
ATOM      9  C   UNL     1      13.268 -10.348 -27.133  1.00  0.00     0.009 C 
ATOM     10  C   UNL     1      10.764 -12.188 -29.488  1.00  0.00     0.042 C 
ATOM     11  C   UNL     1      11.462 -13.081 -24.994  1.00  0.00     0.042 C 
ENDROOT
TORSDOF 0
ENDMDL
MODEL 3
REMARK VINA RESULT:    -5.869      1.430      2.928
REMARK INTER + INTRA:          -5.869
REMARK INTER:                  -5.869
REMARK INTRA:                   0.000
REMARK UNBOUND:                 0.000
REMARK SMILES CC1(C)O[C@]2(C)CC[C@H]1CC2
REMARK SMILES IDX 1 1 2 2 9 3 10 4 11 5 5 6 4 7 7 8 8 9 6 10 3 11
REMARK H PARENT
REMARK Flexibility Score: inf
ROOT
ATOM      1  C   UNL     1      10.638 -12.498 -28.789  1.00  0.00     0.042 C 
ATOM      2  C   UNL     1      11.747 -11.799 -27.974  1.00  0.00     0.066 C 
ATOM      3  C   UNL     1      12.979 -12.762 -27.767  1.00  0.00     0.021 C 
ATOM      4  C   UNL     1      14.035 -12.030 -26.903  1.00  0.00     0.009 C 
ATOM      5  C   UNL     1      13.353 -11.481 -25.626  1.00  0.00     0.035 C 
ATOM      6  C   UNL     1      11.863 -11.926 -25.591  1.00  0.00     0.066 C 
ATOM      7  O   UNL     1      11.184 -11.378 -26.723  1.00  0.00    -0.369 OA
ATOM      8  C   UNL     1      11.796 -13.478 -25.656  1.00  0.00     0.035 C 
ATOM      9  C   UNL     1      12.514 -13.981 -26.933  1.00  0.00     0.009 C 
ATOM     10  C   UNL     1      11.185 -11.417 -24.314  1.00  0.00     0.042 C 
ATOM     11  C   UNL     1      12.167 -10.537 -28.758  1.00  0.00     0.042 C 
ENDROOT
TORSDOF 0
ENDMDL
MODEL 4
REMARK VINA RESULT:    -5.803      0.911      3.317
REMARK INTER + INTRA:          -5.803
REMARK INTER:                  -5.803
REMARK INTRA:                   0.000
REMARK UNBOUND:                 0.000
REMARK SMILES CC1(C)O[C@]2(C)CC[C@H]1CC2
REMARK SMILES IDX 1 1 2 2 9 3 10 4 11 5 5 6 4 7 7 8 8 9 6 10 3 11
REMARK H PARENT
REMARK Flexibility Score: inf
ROOT
ATOM      1  C   UNL     1      14.361 -13.796 -26.745  1.00  0.00     0.042 C 
ATOM      2  C   UNL     1      13.555 -12.481 -26.687  1.00  0.00     0.066 C 
ATOM      3  C   UNL     1      12.430 -12.564 -25.584  1.00  0.00     0.021 C 
ATOM      4  C   UNL     1      11.624 -11.243 -25.605  1.00  0.00     0.009 C 
ATOM      5  C   UNL     1      11.162 -10.953 -27.054  1.00  0.00     0.035 C 
ATOM      6  C   UNL     1      11.581 -12.126 -27.986  1.00  0.00     0.066 C 
ATOM      7  O   UNL     1      13.006 -12.235 -27.990  1.00  0.00    -0.369 OA
ATOM      8  C   UNL     1      10.968 -13.448 -27.441  1.00  0.00     0.035 C 
ATOM      9  C   UNL     1      11.434 -13.680 -25.983  1.00  0.00     0.009 C 
ATOM     10  C   UNL     1      11.101 -11.867 -29.418  1.00  0.00     0.042 C 
ATOM     11  C   UNL     1      14.550 -11.345 -26.366  1.00  0.00     0.042 C 
ENDROOT
TORSDOF 0
ENDMDL
MODEL 5
REMARK VINA RESULT:    -5.782      0.907      1.908
REMARK INTER + INTRA:          -5.782
REMARK INTER:                  -5.782
REMARK INTRA:                   0.000
REMARK UNBOUND:                 0.000
REMARK SMILES CC1(C)O[C@]2(C)CC[C@H]1CC2
REMARK SMILES IDX 1 1 2 2 9 3 10 4 11 5 5 6 4 7 7 8 8 9 6 10 3 11
REMARK H PARENT
REMARK Flexibility Score: inf
ROOT
ATOM      1  C   UNL     1      12.104  -9.746 -27.889  1.00  0.00     0.042 C 
ATOM      2  C   UNL     1      12.020 -11.276 -28.075  1.00  0.00     0.066 C 
ATOM      3  C   UNL     1      11.057 -11.916 -27.001  1.00  0.00     0.021 C 
ATOM      4  C   UNL     1      11.050 -13.451 -27.201  1.00  0.00     0.009 C 
ATOM      5  C   UNL     1      12.510 -13.966 -27.226  1.00  0.00     0.035 C 
ATOM      6  C   UNL     1      13.489 -12.788 -26.951  1.00  0.00     0.066 C 
ATOM      7  O   UNL     1      13.349 -11.811 -27.984  1.00  0.00    -0.369 OA
ATOM      8  C   UNL     1      13.132 -12.141 -25.583  1.00  0.00     0.035 C 
ATOM      9  C   UNL     1      11.657 -11.669 -25.596  1.00  0.00     0.009 C 
ATOM     10  C   UNL     1      14.937 -13.291 -26.941  1.00  0.00     0.042 C 
ATOM     11  C   UNL     1      11.495 -11.538 -29.503  1.00  0.00     0.042 C 
ENDROOT
TORSDOF 0
ENDMDL
MODEL 6
REMARK VINA RESULT:    -5.764      1.324      2.939
REMARK INTER + INTRA:          -5.764
REMARK INTER:                  -5.764
REMARK INTRA:                   0.000
REMARK UNBOUND:                 0.000
REMARK SMILES CC1(C)O[C@]2(C)CC[C@H]1CC2
REMARK SMILES IDX 1 1 2 2 9 3 10 4 11 5 5 6 4 7 7 8 8 9 6 10 3 11
REMARK H PARENT
REMARK Flexibility Score: inf
ROOT
ATOM      1  C   UNL     1      14.838 -12.048 -26.798  1.00  0.00     0.042 C 
ATOM      2  C   UNL     1      13.409 -12.628 -26.726  1.00  0.00     0.066 C 
ATOM      3  C   UNL     1      12.607 -12.299 -28.044  1.00  0.00     0.021 C 
ATOM      4  C   UNL     1      11.171 -12.857 -27.897  1.00  0.00     0.009 C 
ATOM      5  C   UNL     1      10.564 -12.353 -26.564  1.00  0.00     0.035 C 
ATOM      6  C   UNL     1      11.560 -11.384 -25.866  1.00  0.00     0.066 C 
ATOM      7  O   UNL     1      12.766 -12.088 -25.562  1.00  0.00    -0.369 OA
ATOM      8  C   UNL     1      11.884 -10.208 -26.831  1.00  0.00     0.035 C 
ATOM      9  C   UNL     1      12.460 -10.762 -28.158  1.00  0.00     0.009 C 
ATOM     10  C   UNL     1      10.958 -10.851 -24.561  1.00  0.00     0.042 C 
ATOM     11  C   UNL     1      13.542 -14.154 -26.535  1.00  0.00     0.042 C 
ENDROOT
TORSDOF 0
ENDMDL
MODEL 7
REMARK VINA RESULT:    -5.689      1.134      2.660
REMARK INTER + INTRA:          -5.689
REMARK INTER:                  -5.689
REMARK INTRA:                   0.000
REMARK UNBOUND:                 0.000
REMARK SMILES CC1(C)O[C@]2(C)CC[C@H]1CC2
REMARK SMILES IDX 1 1 2 2 9 3 10 4 11 5 5 6 4 7 7 8 8 9 6 10 3 11
REMARK H PARENT
REMARK Flexibility Score: inf
ROOT
ATOM      1  C   UNL     1      11.011 -13.599 -25.207  1.00  0.00     0.042 C 
ATOM      2  C   UNL     1      11.652 -12.230 -25.521  1.00  0.00     0.066 C 
ATOM      3  C   UNL     1      11.098 -11.654 -26.882  1.00  0.00     0.021 C 
ATOM      4  C   UNL     1      11.810 -10.310 -27.171  1.00  0.00     0.009 C 
ATOM      5  C   UNL     1      13.342 -10.514 -27.068  1.00  0.00     0.035 C 
ATOM      6  C   UNL     1      13.657 -12.014 -26.802  1.00  0.00     0.066 C 
ATOM      7  O   UNL     1      13.076 -12.400 -25.554  1.00  0.00    -0.369 OA
ATOM      8  C   UNL     1      13.038 -12.872 -27.942  1.00  0.00     0.035 C 
ATOM      9  C   UNL     1      11.513 -12.613 -28.024  1.00  0.00     0.009 C 
ATOM     10  C   UNL     1      15.172 -12.236 -26.730  1.00  0.00     0.042 C 
ATOM     11  C   UNL     1      11.310 -11.284 -24.350  1.00  0.00     0.042 C 
ENDROOT
TORSDOF 0
ENDMDL
MODEL 8
REMARK VINA RESULT:    -5.259      1.349      3.136
REMARK INTER + INTRA:          -5.259
REMARK INTER:                  -5.259
REMARK INTRA:                   0.000
REMARK UNBOUND:                 0.000
REMARK SMILES CC1(C)O[C@]2(C)CC[C@H]1CC2
REMARK SMILES IDX 1 1 2 2 9 3 10 4 11 5 5 6 4 7 7 8 8 9 6 10 3 11
REMARK H PARENT
REMARK Flexibility Score: inf
ROOT
ATOM      1  C   UNL     1      13.225  -9.874 -27.822  1.00  0.00     0.042 C 
ATOM      2  C   UNL     1      13.375 -11.188 -27.025  1.00  0.00     0.066 C 
ATOM      3  C   UNL     1      12.824 -12.411 -27.857  1.00  0.00     0.021 C 
ATOM      4  C   UNL     1      12.953 -13.689 -26.993  1.00  0.00     0.009 C 
ATOM      5  C   UNL     1      12.304 -13.434 -25.610  1.00  0.00     0.035 C 
ATOM      6  C   UNL     1      11.662 -12.018 -25.582  1.00  0.00     0.066 C 
ATOM      7  O   UNL     1      12.682 -11.036 -25.778  1.00  0.00    -0.369 OA
ATOM      8  C   UNL     1      10.621 -11.911 -26.732  1.00  0.00     0.035 C 
ATOM      9  C   UNL     1      11.308 -12.201 -28.090  1.00  0.00     0.009 C 
ATOM     10  C   UNL     1      10.988 -11.765 -24.229  1.00  0.00     0.042 C 
ATOM     11  C   UNL     1      14.877 -11.370 -26.719  1.00  0.00     0.042 C 
ENDROOT
TORSDOF 0
ENDMDL
MODEL 9
REMARK VINA RESULT:    -5.175      1.296      2.945
REMARK INTER + INTRA:          -5.175
REMARK INTER:                  -5.175
REMARK INTRA:                   0.000
REMARK UNBOUND:                 0.000
REMARK SMILES CC1(C)O[C@]2(C)CC[C@H]1CC2
REMARK SMILES IDX 1 1 2 2 9 3 10 4 11 5 5 6 4 7 7 8 8 9 6 10 3 11
REMARK H PARENT
REMARK Flexibility Score: inf
ROOT
ATOM      1  C   UNL     1      12.545  -9.751 -27.476  1.00  0.00     0.042 C 
ATOM      2  C   UNL     1      11.853 -10.859 -26.653  1.00  0.00     0.066 C 
ATOM      3  C   UNL     1      12.919 -11.731 -25.884  1.00  0.00     0.021 C 
ATOM      4  C   UNL     1      12.176 -12.854 -25.120  1.00  0.00     0.009 C 
ATOM      5  C   UNL     1      11.238 -13.600 -26.100  1.00  0.00     0.035 C 
ATOM      6  C   UNL     1      11.422 -13.037 -27.538  1.00  0.00     0.066 C 
ATOM      7  O   UNL     1      11.062 -11.654 -27.550  1.00  0.00    -0.369 OA
ATOM      8  C   UNL     1      12.915 -13.180 -27.950  1.00  0.00     0.035 C 
ATOM      9  C   UNL     1      13.814 -12.443 -26.927  1.00  0.00     0.009 C 
ATOM     10  C   UNL     1      10.523 -13.789 -28.525  1.00  0.00     0.042 C 
ATOM     11  C   UNL     1      10.897 -10.165 -25.659  1.00  0.00     0.042 C 
ENDROOT
TORSDOF 0
ENDMDL
