MODEL 1
REMARK VINA RESULT:    -3.789      0.000      0.000
REMARK INTER + INTRA:          -9.521
REMARK INTER:                  -7.112
REMARK INTRA:                  -2.409
REMARK UNBOUND:                -2.409
REMARK SMILES CCCCCCCCC=CCCCCCCCC(=O)[O-]
REMARK SMILES IDX 10 1 9 2 11 3 12 4 13 5 14 6 15 7 16 8 17 9 18 10 19 11
REMARK SMILES IDX 20 12 8 13 7 14 6 15 5 16 4 17 3 18 2 19 1 20
REMARK H PARENT
REMARK Flexibility Score: inf
ROOT
ATOM      1  C   UNL     1      30.820 167.102 159.965  1.00  0.00    -0.031 C 
ATOM      2  C   UNL     1      30.014 166.985 158.894  1.00  0.00    -0.031 C 
ENDROOT
BRANCH   1   3
ATOM      3  C   UNL     1      31.390 165.941 160.742  1.00  0.00     0.027 C 
BRANCH   3   4
ATOM      4  C   UNL     1      31.045 166.026 162.236  1.00  0.00     0.004 C 
BRANCH   4   5
ATOM      5  C   UNL     1      29.533 165.897 162.488  1.00  0.00     0.000 C 
BRANCH   5   6
ATOM      6  C   UNL     1      28.927 167.149 163.149  1.00  0.00     0.000 C 
BRANCH   6   7
ATOM      7  C   UNL     1      27.742 167.781 162.394  1.00  0.00     0.000 C 
BRANCH   7   8
ATOM      8  C   UNL     1      28.107 168.939 161.443  1.00  0.00     0.006 C 
BRANCH   8   9
ATOM      9  C   UNL     1      28.763 170.141 162.146  1.00  0.00     0.053 C 
BRANCH   9  10
ATOM     10  C   UNL     1      27.757 171.050 162.785  1.00  0.00     0.041 C 
ATOM     11  O   UNL     1      27.845 171.334 164.008  1.00  0.00    -0.550 OA
ATOM     12  O   UNL     1      26.741 171.612 162.022  1.00  0.00    -0.550 OA
ENDBRANCH   9  10
ENDBRANCH   8   9
ENDBRANCH   7   8
ENDBRANCH   6   7
ENDBRANCH   5   6
ENDBRANCH   4   5
ENDBRANCH   3   4
ENDBRANCH   1   3
BRANCH   2  13
ATOM     13  C   UNL     1      29.632 165.676 158.249  1.00  0.00     0.027 C 
BRANCH  13  14
ATOM     14  C   UNL     1      28.842 165.918 156.959  1.00  0.00     0.004 C 
BRANCH  14  15
ATOM     15  C   UNL     1      29.777 165.983 155.746  1.00  0.00     0.000 C 
BRANCH  15  16
ATOM     16  C   UNL     1      29.915 167.422 155.233  1.00  0.00     0.000 C 
BRANCH  16  17
ATOM     17  C   UNL     1      31.379 167.882 155.274  1.00  0.00    -0.000 C 
BRANCH  17  18
ATOM     18  C   UNL     1      32.336 166.794 155.794  1.00  0.00    -0.000 C 
BRANCH  18  19
ATOM     19  C   UNL     1      33.162 167.197 157.029  1.00  0.00    -0.003 C 
ATOM     20  C   UNL     1      33.676 165.996 157.823  1.00  0.00     0.004 C 
ENDBRANCH  18  19
ENDBRANCH  17  18
ENDBRANCH  16  17
ENDBRANCH  15  16
ENDBRANCH  14  15
ENDBRANCH  13  14
ENDBRANCH   2  13
TORSDOF 15
ENDMDL
MODEL 2
REMARK VINA RESULT:    -3.787      1.305      2.882
REMARK INTER + INTRA:          -9.517
REMARK INTER:                  -7.446
REMARK INTRA:                  -2.071
REMARK UNBOUND:                -2.409
REMARK SMILES CCCCCCCCC=CCCCCCCCC(=O)[O-]
REMARK SMILES IDX 10 1 9 2 11 3 12 4 13 5 14 6 15 7 16 8 17 9 18 10 19 11
REMARK SMILES IDX 20 12 8 13 7 14 6 15 5 16 4 17 3 18 2 19 1 20
REMARK H PARENT
REMARK Flexibility Score: inf
ROOT
ATOM      1  C   UNL     1      31.743 165.063 159.199  1.00  0.00    -0.031 C 
ATOM      2  C   UNL     1      32.658 165.159 158.218  1.00  0.00    -0.031 C 
ENDROOT
BRANCH   1   3
ATOM      3  C   UNL     1      31.645 166.001 160.377  1.00  0.00     0.027 C 
BRANCH   3   4
ATOM      4  C   UNL     1      30.680 167.165 160.106  1.00  0.00     0.004 C 
BRANCH   4   5
ATOM      5  C   UNL     1      29.549 167.232 161.147  1.00  0.00     0.000 C 
BRANCH   5   6
ATOM      6  C   UNL     1      28.325 168.022 160.651  1.00  0.00     0.000 C 
BRANCH   6   7
ATOM      7  C   UNL     1      27.723 169.008 161.671  1.00  0.00     0.000 C 
BRANCH   7   8
ATOM      8  C   UNL     1      28.641 170.176 162.083  1.00  0.00     0.006 C 
BRANCH   8   9
ATOM      9  C   UNL     1      27.952 171.229 162.970  1.00  0.00     0.053 C 
BRANCH   9  10
ATOM     10  C   UNL     1      27.564 170.682 164.311  1.00  0.00     0.041 C 
ATOM     11  O   UNL     1      28.434 170.166 165.061  1.00  0.00    -0.550 OA
ATOM     12  O   UNL     1      26.249 170.775 164.747  1.00  0.00    -0.550 OA
ENDBRANCH   9  10
ENDBRANCH   8   9
ENDBRANCH   7   8
ENDBRANCH   6   7
ENDBRANCH   5   6
ENDBRANCH   4   5
ENDBRANCH   3   4
ENDBRANCH   1   3
BRANCH   2  13
ATOM     13  C   UNL     1      33.668 166.273 158.095  1.00  0.00     0.027 C 
BRANCH  13  14
ATOM     14  C   UNL     1      33.576 166.937 156.717  1.00  0.00     0.004 C 
BRANCH  14  15
ATOM     15  C   UNL     1      32.185 167.537 156.487  1.00  0.00     0.000 C 
BRANCH  15  16
ATOM     16  C   UNL     1      31.586 167.051 155.162  1.00  0.00     0.000 C 
BRANCH  16  17
ATOM     17  C   UNL     1      30.070 167.293 155.121  1.00  0.00    -0.000 C 
BRANCH  17  18
ATOM     18  C   UNL     1      29.519 167.864 156.440  1.00  0.00    -0.000 C 
BRANCH  18  19
ATOM     19  C   UNL     1      28.338 167.080 157.041  1.00  0.00    -0.003 C 
ATOM     20  C   UNL     1      28.675 165.617 157.325  1.00  0.00     0.004 C 
ENDBRANCH  18  19
ENDBRANCH  17  18
ENDBRANCH  16  17
ENDBRANCH  15  16
ENDBRANCH  14  15
ENDBRANCH  13  14
ENDBRANCH   2  13
TORSDOF 15
ENDMDL
MODEL 3
REMARK VINA RESULT:    -3.778      1.231      2.503
REMARK INTER + INTRA:          -9.501
REMARK INTER:                  -7.304
REMARK INTRA:                  -2.196
REMARK UNBOUND:                -2.409
REMARK SMILES CCCCCCCCC=CCCCCCCCC(=O)[O-]
REMARK SMILES IDX 10 1 9 2 11 3 12 4 13 5 14 6 15 7 16 8 17 9 18 10 19 11
REMARK SMILES IDX 20 12 8 13 7 14 6 15 5 16 4 17 3 18 2 19 1 20
REMARK H PARENT
REMARK Flexibility Score: inf
ROOT
ATOM      1  C   UNL     1      27.493 167.563 157.535  1.00  0.00    -0.031 C 
ATOM      2  C   UNL     1      27.378 168.166 156.338  1.00  0.00    -0.031 C 
ENDROOT
BRANCH   1   3
ATOM      3  C   UNL     1      28.565 166.564 157.894  1.00  0.00     0.027 C 
BRANCH   3   4
ATOM      4  C   UNL     1      29.726 167.217 158.659  1.00  0.00     0.004 C 
BRANCH   4   5
ATOM      5  C   UNL     1      30.290 166.293 159.752  1.00  0.00     0.000 C 
BRANCH   5   6
ATOM      6  C   UNL     1      29.702 166.583 161.145  1.00  0.00     0.000 C 
BRANCH   6   7
ATOM      7  C   UNL     1      28.719 167.768 161.208  1.00  0.00     0.000 C 
BRANCH   7   8
ATOM      8  C   UNL     1      28.915 168.727 162.400  1.00  0.00     0.006 C 
BRANCH   8   9
ATOM      9  C   UNL     1      28.860 170.217 162.017  1.00  0.00     0.053 C 
BRANCH   9  10
ATOM     10  C   UNL     1      27.741 170.943 162.702  1.00  0.00     0.041 C 
ATOM     11  O   UNL     1      27.733 171.056 163.956  1.00  0.00    -0.550 OA
ATOM     12  O   UNL     1      26.725 171.524 161.953  1.00  0.00    -0.550 OA
ENDBRANCH   9  10
ENDBRANCH   8   9
ENDBRANCH   7   8
ENDBRANCH   6   7
ENDBRANCH   5   6
ENDBRANCH   4   5
ENDBRANCH   3   4
ENDBRANCH   1   3
BRANCH   2  13
ATOM     13  C   UNL     1      28.358 168.007 155.202  1.00  0.00     0.027 C 
BRANCH  13  14
ATOM     14  C   UNL     1      29.463 169.066 155.288  1.00  0.00     0.004 C 
BRANCH  14  15
ATOM     15  C   UNL     1      30.833 168.457 154.967  1.00  0.00     0.000 C 
BRANCH  15  16
ATOM     16  C   UNL     1      30.770 166.925 154.967  1.00  0.00     0.000 C 
BRANCH  16  17
ATOM     17  C   UNL     1      31.946 166.326 155.752  1.00  0.00    -0.000 C 
BRANCH  17  18
ATOM     18  C   UNL     1      32.780 167.391 156.488  1.00  0.00    -0.000 C 
BRANCH  18  19
ATOM     19  C   UNL     1      33.420 166.914 157.804  1.00  0.00    -0.003 C 
ATOM     20  C   UNL     1      33.491 165.392 157.918  1.00  0.00     0.004 C 
ENDBRANCH  18  19
ENDBRANCH  17  18
ENDBRANCH  16  17
ENDBRANCH  15  16
ENDBRANCH  14  15
ENDBRANCH  13  14
ENDBRANCH   2  13
TORSDOF 15
ENDMDL
MODEL 4
REMARK VINA RESULT:    -3.694      1.664      3.094
REMARK INTER + INTRA:          -9.342
REMARK INTER:                  -7.300
REMARK INTRA:                  -2.042
REMARK UNBOUND:                -2.409
REMARK SMILES CCCCCCCCC=CCCCCCCCC(=O)[O-]
REMARK SMILES IDX 10 1 9 2 11 3 12 4 13 5 14 6 15 7 16 8 17 9 18 10 19 11
REMARK SMILES IDX 20 12 8 13 7 14 6 15 5 16 4 17 3 18 2 19 1 20
REMARK H PARENT
REMARK Flexibility Score: inf
ROOT
ATOM      1  C   UNL     1      30.405 167.319 160.223  1.00  0.00    -0.031 C 
ATOM      2  C   UNL     1      31.370 166.484 159.796  1.00  0.00    -0.031 C 
ENDROOT
BRANCH   1   3
ATOM      3  C   UNL     1      28.950 167.217 159.836  1.00  0.00     0.027 C 
BRANCH   3   4
ATOM      4  C   UNL     1      28.036 167.915 160.855  1.00  0.00     0.004 C 
BRANCH   4   5
ATOM      5  C   UNL     1      28.835 168.573 161.993  1.00  0.00     0.000 C 
BRANCH   5   6
ATOM      6  C   UNL     1      28.617 170.095 162.076  1.00  0.00     0.000 C 
BRANCH   6   7
ATOM      7  C   UNL     1      27.145 170.549 162.050  1.00  0.00     0.000 C 
BRANCH   7   8
ATOM      8  C   UNL     1      26.645 171.247 163.331  1.00  0.00     0.006 C 
BRANCH   8   9
ATOM      9  C   UNL     1      27.772 171.664 164.294  1.00  0.00     0.053 C 
BRANCH   9  10
ATOM     10  C   UNL     1      27.740 170.895 165.580  1.00  0.00     0.041 C 
ATOM     11  O   UNL     1      27.864 171.493 166.680  1.00  0.00    -0.550 OA
ATOM     12  O   UNL     1      27.538 169.520 165.565  1.00  0.00    -0.550 OA
ENDBRANCH   9  10
ENDBRANCH   8   9
ENDBRANCH   7   8
ENDBRANCH   6   7
ENDBRANCH   5   6
ENDBRANCH   4   5
ENDBRANCH   3   4
ENDBRANCH   1   3
BRANCH   2  13
ATOM     13  C   UNL     1      31.131 165.265 158.941  1.00  0.00     0.027 C 
BRANCH  13  14
ATOM     14  C   UNL     1      32.212 165.140 157.861  1.00  0.00     0.004 C 
BRANCH  14  15
ATOM     15  C   UNL     1      33.278 166.228 158.023  1.00  0.00     0.000 C 
BRANCH  15  16
ATOM     16  C   UNL     1      33.383 167.090 156.758  1.00  0.00     0.000 C 
BRANCH  16  17
ATOM     17  C   UNL     1      32.167 166.876 155.845  1.00  0.00    -0.000 C 
BRANCH  17  18
ATOM     18  C   UNL     1      31.220 168.088 155.813  1.00  0.00    -0.000 C 
BRANCH  18  19
ATOM     19  C   UNL     1      29.788 167.802 156.300  1.00  0.00    -0.003 C 
ATOM     20  C   UNL     1      29.288 166.413 155.905  1.00  0.00     0.004 C 
ENDBRANCH  18  19
ENDBRANCH  17  18
ENDBRANCH  16  17
ENDBRANCH  15  16
ENDBRANCH  14  15
ENDBRANCH  13  14
ENDBRANCH   2  13
TORSDOF 15
ENDMDL
MODEL 5
REMARK VINA RESULT:    -3.670      1.638      3.154
REMARK INTER + INTRA:          -9.296
REMARK INTER:                  -7.876
REMARK INTRA:                  -1.421
REMARK UNBOUND:                -2.409
REMARK SMILES CCCCCCCCC=CCCCCCCCC(=O)[O-]
REMARK SMILES IDX 10 1 9 2 11 3 12 4 13 5 14 6 15 7 16 8 17 9 18 10 19 11
REMARK SMILES IDX 20 12 8 13 7 14 6 15 5 16 4 17 3 18 2 19 1 20
REMARK H PARENT
REMARK Flexibility Score: inf
ROOT
ATOM      1  C   UNL     1      31.217 166.195 160.682  1.00  0.00    -0.031 C 
ATOM      2  C   UNL     1      31.991 165.427 159.894  1.00  0.00    -0.031 C 
ENDROOT
BRANCH   1   3
ATOM      3  C   UNL     1      30.450 167.407 160.214  1.00  0.00     0.027 C 
BRANCH   3   4
ATOM      4  C   UNL     1      28.964 167.094 159.986  1.00  0.00     0.004 C 
BRANCH   4   5
ATOM      5  C   UNL     1      28.045 168.075 160.736  1.00  0.00     0.000 C 
BRANCH   5   6
ATOM      6  C   UNL     1      28.708 168.679 161.986  1.00  0.00     0.000 C 
BRANCH   6   7
ATOM      7  C   UNL     1      28.721 170.219 162.044  1.00  0.00     0.000 C 
BRANCH   7   8
ATOM      8  C   UNL     1      27.738 170.852 163.048  1.00  0.00     0.006 C 
BRANCH   8   9
ATOM      9  C   UNL     1      26.560 171.591 162.388  1.00  0.00     0.053 C 
BRANCH   9  10
ATOM     10  C   UNL     1      25.437 170.668 162.021  1.00  0.00     0.041 C 
ATOM     11  O   UNL     1      24.943 170.698 160.864  1.00  0.00    -0.550 OA
ATOM     12  O   UNL     1      24.960 169.749 162.948  1.00  0.00    -0.550 OA
ENDBRANCH   9  10
ENDBRANCH   8   9
ENDBRANCH   7   8
ENDBRANCH   6   7
ENDBRANCH   5   6
ENDBRANCH   4   5
ENDBRANCH   3   4
ENDBRANCH   1   3
BRANCH   2  13
ATOM     13  C   UNL     1      32.136 165.604 158.403  1.00  0.00     0.027 C 
BRANCH  13  14
ATOM     14  C   UNL     1      33.406 166.397 158.074  1.00  0.00     0.004 C 
BRANCH  14  15
ATOM     15  C   UNL     1      33.339 166.977 156.656  1.00  0.00     0.000 C 
BRANCH  15  16
ATOM     16  C   UNL     1      31.944 166.788 156.048  1.00  0.00     0.000 C 
BRANCH  16  17
ATOM     17  C   UNL     1      31.716 167.759 154.881  1.00  0.00    -0.000 C 
BRANCH  17  18
ATOM     18  C   UNL     1      30.694 168.863 155.209  1.00  0.00    -0.000 C 
BRANCH  18  19
ATOM     19  C   UNL     1      29.221 168.451 155.040  1.00  0.00    -0.003 C 
ATOM     20  C   UNL     1      28.548 168.079 156.360  1.00  0.00     0.004 C 
ENDBRANCH  18  19
ENDBRANCH  17  18
ENDBRANCH  16  17
ENDBRANCH  15  16
ENDBRANCH  14  15
ENDBRANCH  13  14
ENDBRANCH   2  13
TORSDOF 15
ENDMDL
MODEL 6
REMARK VINA RESULT:    -3.652      1.315      3.291
REMARK INTER + INTRA:          -9.264
REMARK INTER:                  -6.900
REMARK INTRA:                  -2.363
REMARK UNBOUND:                -2.409
REMARK SMILES CCCCCCCCC=CCCCCCCCC(=O)[O-]
REMARK SMILES IDX 10 1 9 2 11 3 12 4 13 5 14 6 15 7 16 8 17 9 18 10 19 11
REMARK SMILES IDX 20 12 8 13 7 14 6 15 5 16 4 17 3 18 2 19 1 20
REMARK H PARENT
REMARK Flexibility Score: inf
ROOT
ATOM      1  C   UNL     1      28.877 167.492 156.865  1.00  0.00    -0.031 C 
ATOM      2  C   UNL     1      29.774 168.002 156.001  1.00  0.00    -0.031 C 
ENDROOT
BRANCH   1   3
ATOM      3  C   UNL     1      28.364 166.073 156.833  1.00  0.00     0.027 C 
BRANCH   3   4
ATOM      4  C   UNL     1      27.769 165.648 158.184  1.00  0.00     0.004 C 
BRANCH   4   5
ATOM      5  C   UNL     1      26.987 166.790 158.856  1.00  0.00     0.000 C 
BRANCH   5   6
ATOM      6  C   UNL     1      27.302 166.928 160.357  1.00  0.00     0.000 C 
BRANCH   6   7
ATOM      7  C   UNL     1      27.232 168.363 160.913  1.00  0.00     0.000 C 
BRANCH   7   8
ATOM      8  C   UNL     1      28.255 168.695 162.019  1.00  0.00     0.006 C 
BRANCH   8   9
ATOM      9  C   UNL     1      28.630 170.186 162.095  1.00  0.00     0.053 C 
BRANCH   9  10
ATOM     10  C   UNL     1      27.564 171.012 162.750  1.00  0.00     0.041 C 
ATOM     11  O   UNL     1      27.529 171.123 164.004  1.00  0.00    -0.550 OA
ATOM     12  O   UNL     1      26.630 171.687 161.975  1.00  0.00    -0.550 OA
ENDBRANCH   9  10
ENDBRANCH   8   9
ENDBRANCH   7   8
ENDBRANCH   6   7
ENDBRANCH   5   6
ENDBRANCH   4   5
ENDBRANCH   3   4
ENDBRANCH   1   3
BRANCH   2  13
ATOM     13  C   UNL     1      30.474 167.208 154.927  1.00  0.00     0.027 C 
BRANCH  13  14
ATOM     14  C   UNL     1      31.995 167.297 155.092  1.00  0.00     0.004 C 
BRANCH  14  15
ATOM     15  C   UNL     1      32.373 167.592 156.548  1.00  0.00     0.000 C 
BRANCH  15  16
ATOM     16  C   UNL     1      33.617 166.798 156.966  1.00  0.00     0.000 C 
BRANCH  16  17
ATOM     17  C   UNL     1      33.323 165.920 158.191  1.00  0.00    -0.000 C 
BRANCH  17  18
ATOM     18  C   UNL     1      31.843 165.509 158.293  1.00  0.00    -0.000 C 
BRANCH  18  19
ATOM     19  C   UNL     1      31.197 165.754 159.668  1.00  0.00    -0.003 C 
ATOM     20  C   UNL     1      30.871 167.225 159.922  1.00  0.00     0.004 C 
ENDBRANCH  18  19
ENDBRANCH  17  18
ENDBRANCH  16  17
ENDBRANCH  15  16
ENDBRANCH  14  15
ENDBRANCH  13  14
ENDBRANCH   2  13
TORSDOF 15
ENDMDL
MODEL 7
REMARK VINA RESULT:    -3.616      2.978      7.083
REMARK INTER + INTRA:          -9.195
REMARK INTER:                  -8.077
REMARK INTRA:                  -1.119
REMARK UNBOUND:                -2.409
REMARK SMILES CCCCCCCCC=CCCCCCCCC(=O)[O-]
REMARK SMILES IDX 10 1 9 2 11 3 12 4 13 5 14 6 15 7 16 8 17 9 18 10 19 11
REMARK SMILES IDX 20 12 8 13 7 14 6 15 5 16 4 17 3 18 2 19 1 20
REMARK H PARENT
REMARK Flexibility Score: inf
ROOT
ATOM      1  C   UNL     1      31.676 165.512 160.231  1.00  0.00    -0.031 C 
ATOM      2  C   UNL     1      30.930 166.288 161.038  1.00  0.00    -0.031 C 
ENDROOT
BRANCH   1   3
ATOM      3  C   UNL     1      31.788 165.684 158.737  1.00  0.00     0.027 C 
BRANCH   3   4
ATOM      4  C   UNL     1      33.234 165.958 158.297  1.00  0.00     0.004 C 
BRANCH   4   5
ATOM      5  C   UNL     1      33.306 166.988 157.156  1.00  0.00     0.000 C 
BRANCH   5   6
ATOM      6  C   UNL     1      31.926 167.551 156.770  1.00  0.00     0.000 C 
BRANCH   6   7
ATOM      7  C   UNL     1      31.707 167.773 155.261  1.00  0.00     0.000 C 
BRANCH   7   8
ATOM      8  C   UNL     1      30.740 168.918 154.895  1.00  0.00     0.006 C 
BRANCH   8   9
ATOM      9  C   UNL     1      29.328 168.755 155.486  1.00  0.00     0.053 C 
BRANCH   9  10
ATOM     10  C   UNL     1      28.439 169.920 155.173  1.00  0.00     0.041 C 
ATOM     11  O   UNL     1      28.937 171.037 154.877  1.00  0.00    -0.550 OA
ATOM     12  O   UNL     1      27.058 169.763 155.174  1.00  0.00    -0.550 OA
ENDBRANCH   9  10
ENDBRANCH   8   9
ENDBRANCH   7   8
ENDBRANCH   6   7
ENDBRANCH   5   6
ENDBRANCH   4   5
ENDBRANCH   3   4
ENDBRANCH   1   3
BRANCH   2  13
ATOM     13  C   UNL     1      30.164 167.506 160.585  1.00  0.00     0.027 C 
BRANCH  13  14
ATOM     14  C   UNL     1      28.663 167.208 160.517  1.00  0.00     0.004 C 
BRANCH  14  15
ATOM     15  C   UNL     1      27.854 168.292 161.238  1.00  0.00     0.000 C 
BRANCH  15  16
ATOM     16  C   UNL     1      28.753 169.134 162.153  1.00  0.00     0.000 C 
BRANCH  16  17
ATOM     17  C   UNL     1      27.916 170.077 163.029  1.00  0.00    -0.000 C 
BRANCH  17  18
ATOM     18  C   UNL     1      27.365 171.287 162.252  1.00  0.00    -0.000 C 
BRANCH  18  19
ATOM     19  C   UNL     1      25.861 171.549 162.445  1.00  0.00    -0.003 C 
ATOM     20  C   UNL     1      25.487 171.847 163.897  1.00  0.00     0.004 C 
ENDBRANCH  18  19
ENDBRANCH  17  18
ENDBRANCH  16  17
ENDBRANCH  15  16
ENDBRANCH  14  15
ENDBRANCH  13  14
ENDBRANCH   2  13
TORSDOF 15
ENDMDL
MODEL 8
REMARK VINA RESULT:    -3.603      1.329      2.934
REMARK INTER + INTRA:          -9.172
REMARK INTER:                  -6.574
REMARK INTRA:                  -2.599
REMARK UNBOUND:                -2.409
REMARK SMILES CCCCCCCCC=CCCCCCCCC(=O)[O-]
REMARK SMILES IDX 10 1 9 2 11 3 12 4 13 5 14 6 15 7 16 8 17 9 18 10 19 11
REMARK SMILES IDX 20 12 8 13 7 14 6 15 5 16 4 17 3 18 2 19 1 20
REMARK H PARENT
REMARK Flexibility Score: inf
ROOT
ATOM      1  C   UNL     1      31.652 167.098 158.672  1.00  0.00    -0.031 C 
ATOM      2  C   UNL     1      32.136 167.756 157.603  1.00  0.00    -0.031 C 
ENDROOT
BRANCH   1   3
ATOM      3  C   UNL     1      31.579 165.596 158.796  1.00  0.00     0.027 C 
BRANCH   3   4
ATOM      4  C   UNL     1      31.120 165.156 160.194  1.00  0.00     0.004 C 
BRANCH   4   5
ATOM      5  C   UNL     1      30.926 166.353 161.141  1.00  0.00     0.000 C 
BRANCH   5   6
ATOM      6  C   UNL     1      29.637 166.254 161.976  1.00  0.00     0.000 C 
BRANCH   6   7
ATOM      7  C   UNL     1      29.173 167.571 162.627  1.00  0.00     0.000 C 
BRANCH   7   8
ATOM      8  C   UNL     1      28.951 168.747 161.655  1.00  0.00     0.006 C 
BRANCH   8   9
ATOM      9  C   UNL     1      28.464 170.038 162.339  1.00  0.00     0.053 C 
BRANCH   9  10
ATOM     10  C   UNL     1      27.047 170.374 161.986  1.00  0.00     0.041 C 
ATOM     11  O   UNL     1      26.239 169.462 161.671  1.00  0.00    -0.550 OA
ATOM     12  O   UNL     1      26.608 171.691 162.041  1.00  0.00    -0.550 OA
ENDBRANCH   9  10
ENDBRANCH   8   9
ENDBRANCH   7   8
ENDBRANCH   6   7
ENDBRANCH   5   6
ENDBRANCH   4   5
ENDBRANCH   3   4
ENDBRANCH   1   3
BRANCH   2  13
ATOM     13  C   UNL     1      32.766 167.094 156.404  1.00  0.00     0.027 C 
BRANCH  13  14
ATOM     14  C   UNL     1      31.936 167.355 155.142  1.00  0.00     0.004 C 
BRANCH  14  15
ATOM     15  C   UNL     1      30.837 166.300 154.979  1.00  0.00     0.000 C 
BRANCH  15  16
ATOM     16  C   UNL     1      29.444 166.933 155.093  1.00  0.00     0.000 C 
BRANCH  16  17
ATOM     17  C   UNL     1      28.737 166.477 156.378  1.00  0.00    -0.000 C 
BRANCH  17  18
ATOM     18  C   UNL     1      28.334 167.651 157.289  1.00  0.00    -0.000 C 
BRANCH  18  19
ATOM     19  C   UNL     1      27.652 167.242 158.607  1.00  0.00    -0.003 C 
ATOM     20  C   UNL     1      27.707 165.737 158.868  1.00  0.00     0.004 C 
ENDBRANCH  18  19
ENDBRANCH  17  18
ENDBRANCH  16  17
ENDBRANCH  15  16
ENDBRANCH  14  15
ENDBRANCH  13  14
ENDBRANCH   2  13
TORSDOF 15
ENDMDL
MODEL 9
REMARK VINA RESULT:    -3.587      2.441      6.892
REMARK INTER + INTRA:          -9.141
REMARK INTER:                  -7.134
REMARK INTRA:                  -2.007
REMARK UNBOUND:                -2.409
REMARK SMILES CCCCCCCCC=CCCCCCCCC(=O)[O-]
REMARK SMILES IDX 10 1 9 2 11 3 12 4 13 5 14 6 15 7 16 8 17 9 18 10 19 11
REMARK SMILES IDX 20 12 8 13 7 14 6 15 5 16 4 17 3 18 2 19 1 20
REMARK H PARENT
REMARK Flexibility Score: inf
ROOT
ATOM      1  C   UNL     1      30.639 166.729 159.396  1.00  0.00    -0.031 C 
ATOM      2  C   UNL     1      30.511 166.975 160.713  1.00  0.00    -0.031 C 
ENDROOT
BRANCH   1   3
ATOM      3  C   UNL     1      31.231 165.470 158.812  1.00  0.00     0.027 C 
BRANCH   3   4
ATOM      4  C   UNL     1      32.705 165.655 158.422  1.00  0.00     0.004 C 
BRANCH   4   5
ATOM      5  C   UNL     1      32.998 167.085 157.935  1.00  0.00     0.000 C 
BRANCH   5   6
ATOM      6  C   UNL     1      33.372 167.144 156.443  1.00  0.00     0.000 C 
BRANCH   6   7
ATOM      7  C   UNL     1      32.181 167.129 155.466  1.00  0.00     0.000 C 
BRANCH   7   8
ATOM      8  C   UNL     1      31.011 168.063 155.837  1.00  0.00     0.006 C 
BRANCH   8   9
ATOM      9  C   UNL     1      29.632 167.378 155.810  1.00  0.00     0.053 C 
BRANCH   9  10
ATOM     10  C   UNL     1      28.519 168.316 156.167  1.00  0.00     0.041 C 
ATOM     11  O   UNL     1      27.717 168.025 157.093  1.00  0.00    -0.550 OA
ATOM     12  O   UNL     1      28.389 169.528 155.502  1.00  0.00    -0.550 OA
ENDBRANCH   9  10
ENDBRANCH   8   9
ENDBRANCH   7   8
ENDBRANCH   6   7
ENDBRANCH   5   6
ENDBRANCH   4   5
ENDBRANCH   3   4
ENDBRANCH   1   3
BRANCH   2  13
ATOM     13  C   UNL     1      30.854 165.992 161.805  1.00  0.00     0.027 C 
BRANCH  13  14
ATOM     14  C   UNL     1      29.909 166.160 163.000  1.00  0.00     0.004 C 
BRANCH  14  15
ATOM     15  C   UNL     1      30.689 166.518 164.270  1.00  0.00     0.000 C 
BRANCH  15  16
ATOM     16  C   UNL     1      30.064 167.726 164.978  1.00  0.00     0.000 C 
BRANCH  16  17
ATOM     17  C   UNL     1      28.858 168.261 164.193  1.00  0.00    -0.000 C 
BRANCH  17  18
ATOM     18  C   UNL     1      28.950 169.771 163.908  1.00  0.00    -0.000 C 
BRANCH  18  19
ATOM     19  C   UNL     1      28.833 170.157 162.423  1.00  0.00    -0.003 C 
ATOM     20  C   UNL     1      27.894 169.241 161.638  1.00  0.00     0.004 C 
ENDBRANCH  18  19
ENDBRANCH  17  18
ENDBRANCH  16  17
ENDBRANCH  15  16
ENDBRANCH  14  15
ENDBRANCH  13  14
ENDBRANCH   2  13
TORSDOF 15
ENDMDL
