MODEL 1
REMARK VINA RESULT:    -5.702      0.000      0.000
REMARK INTER + INTRA:         -18.826
REMARK INTER:                 -15.035
REMARK INTRA:                  -3.791
REMARK UNBOUND:                -3.791
REMARK SMILES CCCCCCCCCCCCCCCCCCCCCCCCCCCCCC(=O)[O-]
REMARK SMILES IDX 16 1 17 2 18 3 19 4 20 5 21 6 22 7 23 8 24 9 25 10 26 11
REMARK SMILES IDX 27 12 28 13 29 14 30 15 31 16 32 17 15 18 14 19 13 20 12 21
REMARK SMILES IDX 11 22 10 23 9 24 8 25 7 26 6 27 5 28 4 29 3 30 2 31 1 32
REMARK H PARENT
REMARK Flexibility Score: inf
ROOT
ATOM      1  C   UNL     1     -17.159 -10.175  44.558  1.00  0.00     0.000 C 
ENDROOT
BRANCH   1   2
ATOM      2  C   UNL     1     -15.868 -10.975  44.800  1.00  0.00     0.000 C 
BRANCH   2   3
ATOM      3  C   UNL     1     -14.680 -10.092  45.229  1.00  0.00     0.000 C 
BRANCH   3   4
ATOM      4  C   UNL     1     -13.982 -10.498  46.545  1.00  0.00     0.000 C 
BRANCH   4   5
ATOM      5  C   UNL     1     -14.895 -11.164  47.591  1.00  0.00     0.000 C 
BRANCH   5   6
ATOM      6  C   UNL     1     -15.526 -10.148  48.561  1.00  0.00     0.000 C 
BRANCH   6   7
ATOM      7  C   UNL     1     -16.990  -9.824  48.209  1.00  0.00     0.000 C 
BRANCH   7   8
ATOM      8  C   UNL     1     -17.190  -8.460  47.509  1.00  0.00     0.000 C 
BRANCH   8   9
ATOM      9  C   UNL     1     -16.076  -7.437  47.804  1.00  0.00     0.000 C 
BRANCH   9  10
ATOM     10  C   UNL     1     -15.886  -6.361  46.721  1.00  0.00     0.000 C 
BRANCH  10  11
ATOM     11  C   UNL     1     -14.746  -6.631  45.719  1.00  0.00     0.000 C 
BRANCH  11  12
ATOM     12  C   UNL     1     -13.360  -6.143  46.196  1.00  0.00     0.000 C 
BRANCH  12  13
ATOM     13  C   UNL     1     -12.258  -7.193  45.969  1.00  0.00     0.006 C 
BRANCH  13  14
ATOM     14  C   UNL     1     -11.607  -7.654  47.282  1.00  0.00     0.053 C 
BRANCH  14  15
ATOM     15  C   UNL     1     -10.221  -7.109  47.453  1.00  0.00     0.041 C 
ATOM     16  O   UNL     1      -9.296  -7.473  46.677  1.00  0.00    -0.550 OA
ATOM     17  O   UNL     1      -9.953  -6.190  48.461  1.00  0.00    -0.550 OA
ENDBRANCH  14  15
ENDBRANCH  13  14
ENDBRANCH  12  13
ENDBRANCH  11  12
ENDBRANCH  10  11
ENDBRANCH   9  10
ENDBRANCH   8   9
ENDBRANCH   7   8
ENDBRANCH   6   7
ENDBRANCH   5   6
ENDBRANCH   4   5
ENDBRANCH   3   4
ENDBRANCH   2   3
ENDBRANCH   1   2
BRANCH   1  18
ATOM     18  C   UNL     1     -16.911  -8.860  43.802  1.00  0.00     0.000 C 
BRANCH  18  19
ATOM     19  C   UNL     1     -18.062  -7.842  43.929  1.00  0.00     0.000 C 
BRANCH  19  20
ATOM     20  C   UNL     1     -17.770  -6.528  43.191  1.00  0.00     0.000 C 
BRANCH  20  21
ATOM     21  C   UNL     1     -16.899  -6.777  41.954  1.00  0.00     0.000 C 
BRANCH  21  22
ATOM     22  C   UNL     1     -17.764  -6.967  40.699  1.00  0.00     0.000 C 
BRANCH  22  23
ATOM     23  C   UNL     1     -17.576  -5.838  39.670  1.00  0.00     0.000 C 
BRANCH  23  24
ATOM     24  C   UNL     1     -16.698  -6.203  38.455  1.00  0.00    -0.000 C 
BRANCH  24  25
ATOM     25  C   UNL     1     -15.328  -5.496  38.392  1.00  0.00    -0.000 C 
BRANCH  25  26
ATOM     26  C   UNL     1     -14.139  -6.334  38.890  1.00  0.00    -0.000 C 
BRANCH  26  27
ATOM     27  C   UNL     1     -13.306  -6.925  37.743  1.00  0.00    -0.000 C 
BRANCH  27  28
ATOM     28  C   UNL     1     -12.144  -7.768  38.291  1.00  0.00    -0.000 C 
BRANCH  28  29
ATOM     29  C   UNL     1     -11.709  -8.886  37.329  1.00  0.00    -0.000 C 
BRANCH  29  30
ATOM     30  C   UNL     1     -10.678  -9.873  37.910  1.00  0.00    -0.000 C 
BRANCH  30  31
ATOM     31  C   UNL     1     -10.407  -9.665  39.417  1.00  0.00    -0.003 C 
ATOM     32  C   UNL     1      -9.162 -10.413  39.896  1.00  0.00     0.004 C 
ENDBRANCH  30  31
ENDBRANCH  29  30
ENDBRANCH  28  29
ENDBRANCH  27  28
ENDBRANCH  26  27
ENDBRANCH  25  26
ENDBRANCH  24  25
ENDBRANCH  23  24
ENDBRANCH  22  23
ENDBRANCH  21  22
ENDBRANCH  20  21
ENDBRANCH  19  20
ENDBRANCH  18  19
ENDBRANCH   1  18
TORSDOF 28
ENDMDL
MODEL 2
REMARK VINA RESULT:    -5.611      2.267      5.617
REMARK INTER + INTRA:         -18.586
REMARK INTER:                 -14.401
REMARK INTRA:                  -4.185
REMARK UNBOUND:                -3.791
REMARK SMILES CCCCCCCCCCCCCCCCCCCCCCCCCCCCCC(=O)[O-]
REMARK SMILES IDX 16 1 17 2 18 3 19 4 20 5 21 6 22 7 23 8 24 9 25 10 26 11
REMARK SMILES IDX 27 12 28 13 29 14 30 15 31 16 32 17 15 18 14 19 13 20 12 21
REMARK SMILES IDX 11 22 10 23 9 24 8 25 7 26 6 27 5 28 4 29 3 30 2 31 1 32
REMARK H PARENT
REMARK Flexibility Score: inf
ROOT
ATOM      1  C   UNL     1     -11.045  -8.368  43.311  1.00  0.00     0.000 C 
ENDROOT
BRANCH   1   2
ATOM      2  C   UNL     1     -12.197  -8.736  44.261  1.00  0.00     0.000 C 
BRANCH   2   3
ATOM      3  C   UNL     1     -11.755  -9.634  45.431  1.00  0.00     0.000 C 
BRANCH   3   4
ATOM      4  C   UNL     1     -12.892 -10.245  46.277  1.00  0.00     0.000 C 
BRANCH   4   5
ATOM      5  C   UNL     1     -14.290  -9.655  46.016  1.00  0.00     0.000 C 
BRANCH   5   6
ATOM      6  C   UNL     1     -15.173 -10.578  45.157  1.00  0.00     0.000 C 
BRANCH   6   7
ATOM      7  C   UNL     1     -16.636 -10.101  45.087  1.00  0.00     0.000 C 
BRANCH   7   8
ATOM      8  C   UNL     1     -17.192  -9.957  43.652  1.00  0.00     0.000 C 
BRANCH   8   9
ATOM      9  C   UNL     1     -18.050  -8.695  43.437  1.00  0.00     0.000 C 
BRANCH   9  10
ATOM     10  C   UNL     1     -17.363  -7.578  42.632  1.00  0.00     0.000 C 
BRANCH  10  11
ATOM     11  C   UNL     1     -16.810  -6.408  43.470  1.00  0.00     0.000 C 
BRANCH  11  12
ATOM     12  C   UNL     1     -15.269  -6.317  43.482  1.00  0.00     0.000 C 
BRANCH  12  13
ATOM     13  C   UNL     1     -14.695  -6.268  44.910  1.00  0.00     0.006 C 
BRANCH  13  14
ATOM     14  C   UNL     1     -15.612  -5.512  45.884  1.00  0.00     0.053 C 
BRANCH  14  15
ATOM     15  C   UNL     1     -15.844  -6.273  47.155  1.00  0.00     0.041 C 
ATOM     16  O   UNL     1     -15.305  -5.892  48.230  1.00  0.00    -0.550 OA
ATOM     17  O   UNL     1     -16.664  -7.395  47.156  1.00  0.00    -0.550 OA
ENDBRANCH  14  15
ENDBRANCH  13  14
ENDBRANCH  12  13
ENDBRANCH  11  12
ENDBRANCH  10  11
ENDBRANCH   9  10
ENDBRANCH   8   9
ENDBRANCH   7   8
ENDBRANCH   6   7
ENDBRANCH   5   6
ENDBRANCH   4   5
ENDBRANCH   3   4
ENDBRANCH   2   3
ENDBRANCH   1   2
BRANCH   1  18
ATOM     18  C   UNL     1      -9.824  -9.287  43.476  1.00  0.00     0.000 C 
BRANCH  18  19
ATOM     19  C   UNL     1      -9.788 -10.460  42.473  1.00  0.00     0.000 C 
BRANCH  19  20
ATOM     20  C   UNL     1      -8.526 -10.449  41.599  1.00  0.00     0.000 C 
BRANCH  20  21
ATOM     21  C   UNL     1      -8.881 -10.658  40.123  1.00  0.00     0.000 C 
BRANCH  21  22
ATOM     22  C   UNL     1     -10.300 -10.156  39.820  1.00  0.00     0.000 C 
BRANCH  22  23
ATOM     23  C   UNL     1     -10.328  -8.681  39.381  1.00  0.00     0.000 C 
BRANCH  23  24
ATOM     24  C   UNL     1     -11.722  -8.022  39.398  1.00  0.00    -0.000 C 
BRANCH  24  25
ATOM     25  C   UNL     1     -11.833  -6.728  40.230  1.00  0.00    -0.000 C 
BRANCH  25  26
ATOM     26  C   UNL     1     -13.269  -6.263  40.526  1.00  0.00    -0.000 C 
BRANCH  26  27
ATOM     27  C   UNL     1     -13.472  -4.761  40.276  1.00  0.00    -0.000 C 
BRANCH  27  28
ATOM     28  C   UNL     1     -14.811  -4.503  39.568  1.00  0.00    -0.000 C 
BRANCH  28  29
ATOM     29  C   UNL     1     -15.722  -5.742  39.539  1.00  0.00    -0.000 C 
BRANCH  29  30
ATOM     30  C   UNL     1     -15.877  -6.396  38.152  1.00  0.00    -0.000 C 
BRANCH  30  31
ATOM     31  C   UNL     1     -14.892  -5.845  37.097  1.00  0.00    -0.003 C 
ATOM     32  C   UNL     1     -13.899  -6.903  36.616  1.00  0.00     0.004 C 
ENDBRANCH  30  31
ENDBRANCH  29  30
ENDBRANCH  28  29
ENDBRANCH  27  28
ENDBRANCH  26  27
ENDBRANCH  25  26
ENDBRANCH  24  25
ENDBRANCH  23  24
ENDBRANCH  22  23
ENDBRANCH  21  22
ENDBRANCH  20  21
ENDBRANCH  19  20
ENDBRANCH  18  19
ENDBRANCH   1  18
TORSDOF 28
ENDMDL
MODEL 3
REMARK VINA RESULT:    -5.573      2.073      4.859
REMARK INTER + INTRA:         -18.487
REMARK INTER:                 -15.412
REMARK INTRA:                  -3.075
REMARK UNBOUND:                -3.791
REMARK SMILES CCCCCCCCCCCCCCCCCCCCCCCCCCCCCC(=O)[O-]
REMARK SMILES IDX 16 1 17 2 18 3 19 4 20 5 21 6 22 7 23 8 24 9 25 10 26 11
REMARK SMILES IDX 27 12 28 13 29 14 30 15 31 16 32 17 15 18 14 19 13 20 12 21
REMARK SMILES IDX 11 22 10 23 9 24 8 25 7 26 6 27 5 28 4 29 3 30 2 31 1 32
REMARK H PARENT
REMARK Flexibility Score: inf
ROOT
ATOM      1  C   UNL     1     -15.484  -6.142  41.909  1.00  0.00     0.000 C 
ENDROOT
BRANCH   1   2
ATOM      2  C   UNL     1     -16.925  -6.621  42.150  1.00  0.00     0.000 C 
BRANCH   2   3
ATOM      3  C   UNL     1     -17.326  -6.611  43.638  1.00  0.00     0.000 C 
BRANCH   3   4
ATOM      4  C   UNL     1     -17.869  -7.943  44.197  1.00  0.00     0.000 C 
BRANCH   4   5
ATOM      5  C   UNL     1     -17.744  -9.150  43.248  1.00  0.00     0.000 C 
BRANCH   5   6
ATOM      6  C   UNL     1     -16.861 -10.270  43.825  1.00  0.00     0.000 C 
BRANCH   6   7
ATOM      7  C   UNL     1     -16.754 -10.208  45.361  1.00  0.00     0.000 C 
BRANCH   7   8
ATOM      8  C   UNL     1     -15.423 -10.751  45.929  1.00  0.00     0.000 C 
BRANCH   8   9
ATOM      9  C   UNL     1     -15.574 -11.500  47.267  1.00  0.00     0.000 C 
BRANCH   9  10
ATOM     10  C   UNL     1     -14.420 -11.286  48.261  1.00  0.00     0.000 C 
BRANCH  10  11
ATOM     11  C   UNL     1     -14.721 -10.317  49.421  1.00  0.00     0.000 C 
BRANCH  11  12
ATOM     12  C   UNL     1     -15.951  -9.413  49.182  1.00  0.00     0.000 C 
BRANCH  12  13
ATOM     13  C   UNL     1     -15.602  -7.916  49.260  1.00  0.00     0.006 C 
BRANCH  13  14
ATOM     14  C   UNL     1     -14.545  -7.505  48.225  1.00  0.00     0.053 C 
BRANCH  14  15
ATOM     15  C   UNL     1     -15.157  -7.055  46.932  1.00  0.00     0.041 C 
ATOM     16  O   UNL     1     -16.183  -6.322  46.937  1.00  0.00    -0.550 OA
ATOM     17  O   UNL     1     -14.588  -7.436  45.722  1.00  0.00    -0.550 OA
ENDBRANCH  14  15
ENDBRANCH  13  14
ENDBRANCH  12  13
ENDBRANCH  11  12
ENDBRANCH  10  11
ENDBRANCH   9  10
ENDBRANCH   8   9
ENDBRANCH   7   8
ENDBRANCH   6   7
ENDBRANCH   5   6
ENDBRANCH   4   5
ENDBRANCH   3   4
ENDBRANCH   2   3
ENDBRANCH   1   2
BRANCH   1  18
ATOM     18  C   UNL     1     -15.225  -5.754  40.444  1.00  0.00     0.000 C 
BRANCH  18  19
ATOM     19  C   UNL     1     -16.436  -5.981  39.516  1.00  0.00     0.000 C 
BRANCH  19  20
ATOM     20  C   UNL     1     -16.023  -6.201  38.054  1.00  0.00     0.000 C 
BRANCH  20  21
ATOM     21  C   UNL     1     -14.537  -5.883  37.851  1.00  0.00     0.000 C 
BRANCH  21  22
ATOM     22  C   UNL     1     -13.930  -6.766  36.751  1.00  0.00     0.000 C 
BRANCH  22  23
ATOM     23  C   UNL     1     -12.735  -7.598  37.248  1.00  0.00     0.000 C 
BRANCH  23  24
ATOM     24  C   UNL     1     -12.365  -7.387  38.731  1.00  0.00    -0.000 C 
BRANCH  24  25
ATOM     25  C   UNL     1     -11.377  -8.416  39.319  1.00  0.00    -0.000 C 
BRANCH  25  26
ATOM     26  C   UNL     1     -10.928  -9.519  38.346  1.00  0.00    -0.000 C 
BRANCH  26  27
ATOM     27  C   UNL     1      -9.485  -9.981  38.595  1.00  0.00    -0.000 C 
BRANCH  27  28
ATOM     28  C   UNL     1      -8.935  -9.374  39.895  1.00  0.00    -0.000 C 
BRANCH  28  29
ATOM     29  C   UNL     1      -8.639 -10.433  40.972  1.00  0.00    -0.000 C 
BRANCH  29  30
ATOM     30  C   UNL     1      -9.854 -10.839  41.827  1.00  0.00    -0.000 C 
BRANCH  30  31
ATOM     31  C   UNL     1     -10.268  -9.768  42.860  1.00  0.00    -0.003 C 
ATOM     32  C   UNL     1      -9.461  -9.862  44.155  1.00  0.00     0.004 C 
ENDBRANCH  30  31
ENDBRANCH  29  30
ENDBRANCH  28  29
ENDBRANCH  27  28
ENDBRANCH  26  27
ENDBRANCH  25  26
ENDBRANCH  24  25
ENDBRANCH  23  24
ENDBRANCH  22  23
ENDBRANCH  21  22
ENDBRANCH  20  21
ENDBRANCH  19  20
ENDBRANCH  18  19
ENDBRANCH   1  18
TORSDOF 28
ENDMDL
MODEL 4
REMARK VINA RESULT:    -5.554      1.716      3.395
REMARK INTER + INTRA:         -18.436
REMARK INTER:                 -13.473
REMARK INTRA:                  -4.964
REMARK UNBOUND:                -3.791
REMARK SMILES CCCCCCCCCCCCCCCCCCCCCCCCCCCCCC(=O)[O-]
REMARK SMILES IDX 16 1 17 2 18 3 19 4 20 5 21 6 22 7 23 8 24 9 25 10 26 11
REMARK SMILES IDX 27 12 28 13 29 14 30 15 31 16 32 17 15 18 14 19 13 20 12 21
REMARK SMILES IDX 11 22 10 23 9 24 8 25 7 26 6 27 5 28 4 29 3 30 2 31 1 32
REMARK H PARENT
REMARK Flexibility Score: inf
ROOT
ATOM      1  C   UNL     1     -16.629  -9.755  44.184  1.00  0.00     0.000 C 
ENDROOT
BRANCH   1   2
ATOM      2  C   UNL     1     -15.692 -10.663  44.998  1.00  0.00     0.000 C 
BRANCH   2   3
ATOM      3  C   UNL     1     -14.353  -9.989  45.352  1.00  0.00     0.000 C 
BRANCH   3   4
ATOM      4  C   UNL     1     -13.688 -10.462  46.663  1.00  0.00     0.000 C 
BRANCH   4   5
ATOM      5  C   UNL     1     -14.563 -11.367  47.550  1.00  0.00     0.000 C 
BRANCH   5   6
ATOM      6  C   UNL     1     -15.136 -10.626  48.771  1.00  0.00     0.000 C 
BRANCH   6   7
ATOM      7  C   UNL     1     -16.444  -9.878  48.449  1.00  0.00     0.000 C 
BRANCH   7   8
ATOM      8  C   UNL     1     -16.280  -8.350  48.283  1.00  0.00     0.000 C 
BRANCH   8   9
ATOM      9  C   UNL     1     -15.178  -7.739  49.170  1.00  0.00     0.000 C 
BRANCH   9  10
ATOM     10  C   UNL     1     -14.448  -6.534  48.553  1.00  0.00     0.000 C 
BRANCH  10  11
ATOM     11  C   UNL     1     -13.711  -6.817  47.229  1.00  0.00     0.000 C 
BRANCH  11  12
ATOM     12  C   UNL     1     -12.826  -5.651  46.739  1.00  0.00     0.000 C 
BRANCH  12  13
ATOM     13  C   UNL     1     -11.343  -6.048  46.624  1.00  0.00     0.006 C 
BRANCH  13  14
ATOM     14  C   UNL     1     -10.846  -6.822  47.855  1.00  0.00     0.053 C 
BRANCH  14  15
ATOM     15  C   UNL     1      -9.999  -5.975  48.757  1.00  0.00     0.041 C 
ATOM     16  O   UNL     1     -10.094  -4.717  48.720  1.00  0.00    -0.550 OA
ATOM     17  O   UNL     1      -9.114  -6.573  49.646  1.00  0.00    -0.550 OA
ENDBRANCH  14  15
ENDBRANCH  13  14
ENDBRANCH  12  13
ENDBRANCH  11  12
ENDBRANCH  10  11
ENDBRANCH   9  10
ENDBRANCH   8   9
ENDBRANCH   7   8
ENDBRANCH   6   7
ENDBRANCH   5   6
ENDBRANCH   4   5
ENDBRANCH   3   4
ENDBRANCH   2   3
ENDBRANCH   1   2
BRANCH   1  18
ATOM     18  C   UNL     1     -17.755  -9.146  45.037  1.00  0.00     0.000 C 
BRANCH  18  19
ATOM     19  C   UNL     1     -17.816  -7.606  44.980  1.00  0.00     0.000 C 
BRANCH  19  20
ATOM     20  C   UNL     1     -16.472  -6.978  44.583  1.00  0.00     0.000 C 
BRANCH  20  21
ATOM     21  C   UNL     1     -16.554  -6.347  43.188  1.00  0.00     0.000 C 
BRANCH  21  22
ATOM     22  C   UNL     1     -15.154  -6.159  42.585  1.00  0.00     0.000 C 
BRANCH  22  23
ATOM     23  C   UNL     1     -14.042  -6.753  43.466  1.00  0.00     0.000 C 
BRANCH  23  24
ATOM     24  C   UNL     1     -12.604  -6.419  43.016  1.00  0.00    -0.000 C 
BRANCH  24  25
ATOM     25  C   UNL     1     -11.757  -7.625  42.558  1.00  0.00    -0.000 C 
BRANCH  25  26
ATOM     26  C   UNL     1     -11.399  -7.639  41.062  1.00  0.00    -0.000 C 
BRANCH  26  27
ATOM     27  C   UNL     1     -11.975  -6.436  40.301  1.00  0.00    -0.000 C 
BRANCH  27  28
ATOM     28  C   UNL     1     -13.033  -6.890  39.283  1.00  0.00    -0.000 C 
BRANCH  28  29
ATOM     29  C   UNL     1     -14.104  -5.819  39.014  1.00  0.00    -0.000 C 
BRANCH  29  30
ATOM     30  C   UNL     1     -15.073  -6.151  37.863  1.00  0.00    -0.000 C 
BRANCH  30  31
ATOM     31  C   UNL     1     -16.485  -6.553  38.344  1.00  0.00    -0.003 C 
ATOM     32  C   UNL     1     -17.086  -5.534  39.312  1.00  0.00     0.004 C 
ENDBRANCH  30  31
ENDBRANCH  29  30
ENDBRANCH  28  29
ENDBRANCH  27  28
ENDBRANCH  26  27
ENDBRANCH  25  26
ENDBRANCH  24  25
ENDBRANCH  23  24
ENDBRANCH  22  23
ENDBRANCH  21  22
ENDBRANCH  20  21
ENDBRANCH  19  20
ENDBRANCH  18  19
ENDBRANCH   1  18
TORSDOF 28
ENDMDL
MODEL 5
REMARK VINA RESULT:    -5.553      2.312      7.960
REMARK INTER + INTRA:         -18.433
REMARK INTER:                 -13.759
REMARK INTRA:                  -4.674
REMARK UNBOUND:                -3.791
REMARK SMILES CCCCCCCCCCCCCCCCCCCCCCCCCCCCCC(=O)[O-]
REMARK SMILES IDX 16 1 17 2 18 3 19 4 20 5 21 6 22 7 23 8 24 9 25 10 26 11
REMARK SMILES IDX 27 12 28 13 29 14 30 15 31 16 32 17 15 18 14 19 13 20 12 21
REMARK SMILES IDX 11 22 10 23 9 24 8 25 7 26 6 27 5 28 4 29 3 30 2 31 1 32
REMARK H PARENT
REMARK Flexibility Score: inf
ROOT
ATOM      1  C   UNL     1     -13.640  -8.191  44.981  1.00  0.00     0.000 C 
ENDROOT
BRANCH   1   2
ATOM      2  C   UNL     1     -14.923  -7.503  44.488  1.00  0.00     0.000 C 
BRANCH   2   3
ATOM      3  C   UNL     1     -16.116  -8.469  44.353  1.00  0.00     0.000 C 
BRANCH   3   4
ATOM      4  C   UNL     1     -17.377  -7.890  43.677  1.00  0.00     0.000 C 
BRANCH   4   5
ATOM      5  C   UNL     1     -17.162  -6.569  42.914  1.00  0.00     0.000 C 
BRANCH   5   6
ATOM      6  C   UNL     1     -18.060  -6.449  41.670  1.00  0.00     0.000 C 
BRANCH   6   7
ATOM      7  C   UNL     1     -17.942  -7.666  40.734  1.00  0.00     0.000 C 
BRANCH   7   8
ATOM      8  C   UNL     1     -17.788  -7.308  39.238  1.00  0.00     0.000 C 
BRANCH   8   9
ATOM      9  C   UNL     1     -17.013  -6.000  38.985  1.00  0.00     0.000 C 
BRANCH   9  10
ATOM     10  C   UNL     1     -15.749  -6.156  38.122  1.00  0.00     0.000 C 
BRANCH  10  11
ATOM     11  C   UNL     1     -14.416  -5.920  38.859  1.00  0.00     0.000 C 
BRANCH  11  12
ATOM     12  C   UNL     1     -14.579  -5.545  40.348  1.00  0.00     0.000 C 
BRANCH  12  13
ATOM     13  C   UNL     1     -13.494  -6.183  41.236  1.00  0.00     0.006 C 
BRANCH  13  14
ATOM     14  C   UNL     1     -12.143  -6.302  40.516  1.00  0.00     0.053 C 
BRANCH  14  15
ATOM     15  C   UNL     1     -11.609  -7.703  40.535  1.00  0.00     0.041 C 
ATOM     16  O   UNL     1     -11.151  -8.193  41.604  1.00  0.00    -0.550 OA
ATOM     17  O   UNL     1     -11.626  -8.472  39.377  1.00  0.00    -0.550 OA
ENDBRANCH  14  15
ENDBRANCH  13  14
ENDBRANCH  12  13
ENDBRANCH  11  12
ENDBRANCH  10  11
ENDBRANCH   9  10
ENDBRANCH   8   9
ENDBRANCH   7   8
ENDBRANCH   6   7
ENDBRANCH   5   6
ENDBRANCH   4   5
ENDBRANCH   3   4
ENDBRANCH   2   3
ENDBRANCH   1   2
BRANCH   1  18
ATOM     18  C   UNL     1     -13.832  -9.696  45.232  1.00  0.00     0.000 C 
BRANCH  18  19
ATOM     19  C   UNL     1     -13.101 -10.215  46.488  1.00  0.00     0.000 C 
BRANCH  19  20
ATOM     20  C   UNL     1     -14.063 -10.820  47.520  1.00  0.00     0.000 C 
BRANCH  20  21
ATOM     21  C   UNL     1     -15.381 -11.240  46.860  1.00  0.00     0.000 C 
BRANCH  21  22
ATOM     22  C   UNL     1     -16.577 -10.539  47.522  1.00  0.00     0.000 C 
BRANCH  22  23
ATOM     23  C   UNL     1     -16.157  -9.346  48.398  1.00  0.00     0.000 C 
BRANCH  23  24
ATOM     24  C   UNL     1     -16.516  -7.958  47.826  1.00  0.00    -0.000 C 
BRANCH  24  25
ATOM     25  C   UNL     1     -15.488  -6.842  48.103  1.00  0.00    -0.000 C 
BRANCH  25  26
ATOM     26  C   UNL     1     -14.322  -7.243  49.023  1.00  0.00    -0.000 C 
BRANCH  26  27
ATOM     27  C   UNL     1     -12.989  -6.604  48.608  1.00  0.00    -0.000 C 
BRANCH  27  28
ATOM     28  C   UNL     1     -11.909  -7.677  48.407  1.00  0.00    -0.000 C 
BRANCH  28  29
ATOM     29  C   UNL     1     -10.783  -7.223  47.462  1.00  0.00    -0.000 C 
BRANCH  29  30
ATOM     30  C   UNL     1      -9.486  -6.783  48.168  1.00  0.00    -0.000 C 
BRANCH  30  31
ATOM     31  C   UNL     1      -9.506  -5.309  48.630  1.00  0.00    -0.003 C 
ATOM     32  C   UNL     1      -8.405  -4.476  47.975  1.00  0.00     0.004 C 
ENDBRANCH  30  31
ENDBRANCH  29  30
ENDBRANCH  28  29
ENDBRANCH  27  28
ENDBRANCH  26  27
ENDBRANCH  25  26
ENDBRANCH  24  25
ENDBRANCH  23  24
ENDBRANCH  22  23
ENDBRANCH  21  22
ENDBRANCH  20  21
ENDBRANCH  19  20
ENDBRANCH  18  19
ENDBRANCH   1  18
TORSDOF 28
ENDMDL
MODEL 6
REMARK VINA RESULT:    -5.550      1.444      2.088
REMARK INTER + INTRA:         -18.426
REMARK INTER:                 -14.339
REMARK INTRA:                  -4.087
REMARK UNBOUND:                -3.791
REMARK SMILES CCCCCCCCCCCCCCCCCCCCCCCCCCCCCC(=O)[O-]
REMARK SMILES IDX 16 1 17 2 18 3 19 4 20 5 21 6 22 7 23 8 24 9 25 10 26 11
REMARK SMILES IDX 27 12 28 13 29 14 30 15 31 16 32 17 15 18 14 19 13 20 12 21
REMARK SMILES IDX 11 22 10 23 9 24 8 25 7 26 6 27 5 28 4 29 3 30 2 31 1 32
REMARK H PARENT
REMARK Flexibility Score: inf
ROOT
ATOM      1  C   UNL     1     -16.704  -9.723  44.712  1.00  0.00     0.000 C 
ENDROOT
BRANCH   1   2
ATOM      2  C   UNL     1     -15.561 -10.735  44.898  1.00  0.00     0.000 C 
BRANCH   2   3
ATOM      3  C   UNL     1     -15.178 -10.951  46.375  1.00  0.00     0.000 C 
BRANCH   3   4
ATOM      4  C   UNL     1     -16.110 -10.293  47.415  1.00  0.00     0.000 C 
BRANCH   4   5
ATOM      5  C   UNL     1     -15.394  -9.526  48.541  1.00  0.00     0.000 C 
BRANCH   5   6
ATOM      6  C   UNL     1     -15.805  -8.044  48.606  1.00  0.00     0.000 C 
BRANCH   6   7
ATOM      7  C   UNL     1     -16.507  -7.568  47.320  1.00  0.00     0.000 C 
BRANCH   7   8
ATOM      8  C   UNL     1     -15.741  -6.473  46.543  1.00  0.00     0.000 C 
BRANCH   8   9
ATOM      9  C   UNL     1     -14.230  -6.745  46.407  1.00  0.00     0.000 C 
BRANCH   9  10
ATOM     10  C   UNL     1     -13.745  -6.985  44.967  1.00  0.00     0.000 C 
BRANCH  10  11
ATOM     11  C   UNL     1     -12.972  -8.300  44.744  1.00  0.00     0.000 C 
BRANCH  11  12
ATOM     12  C   UNL     1     -12.147  -8.759  45.966  1.00  0.00     0.000 C 
BRANCH  12  13
ATOM     13  C   UNL     1     -10.909  -7.875  46.203  1.00  0.00     0.006 C 
BRANCH  13  14
ATOM     14  C   UNL     1     -10.058  -7.706  44.936  1.00  0.00     0.053 C 
BRANCH  14  15
ATOM     15  C   UNL     1      -8.621  -8.073  45.160  1.00  0.00     0.041 C 
ATOM     16  O   UNL     1      -8.307  -9.260  45.448  1.00  0.00    -0.550 OA
ATOM     17  O   UNL     1      -7.628  -7.107  45.040  1.00  0.00    -0.550 OA
ENDBRANCH  14  15
ENDBRANCH  13  14
ENDBRANCH  12  13
ENDBRANCH  11  12
ENDBRANCH  10  11
ENDBRANCH   9  10
ENDBRANCH   8   9
ENDBRANCH   7   8
ENDBRANCH   6   7
ENDBRANCH   5   6
ENDBRANCH   4   5
ENDBRANCH   3   4
ENDBRANCH   2   3
ENDBRANCH   1   2
BRANCH   1  18
ATOM     18  C   UNL     1     -17.370  -9.827  43.330  1.00  0.00     0.000 C 
BRANCH  18  19
ATOM     19  C   UNL     1     -17.935  -8.489  42.809  1.00  0.00     0.000 C 
BRANCH  19  20
ATOM     20  C   UNL     1     -17.063  -7.289  43.203  1.00  0.00     0.000 C 
BRANCH  20  21
ATOM     21  C   UNL     1     -16.554  -6.551  41.959  1.00  0.00     0.000 C 
BRANCH  21  22
ATOM     22  C   UNL     1     -17.542  -6.692  40.792  1.00  0.00     0.000 C 
BRANCH  22  23
ATOM     23  C   UNL     1     -17.199  -5.771  39.607  1.00  0.00     0.000 C 
BRANCH  23  24
ATOM     24  C   UNL     1     -16.751  -6.499  38.323  1.00  0.00    -0.000 C 
BRANCH  24  25
ATOM     25  C   UNL     1     -15.377  -6.073  37.766  1.00  0.00    -0.000 C 
BRANCH  25  26
ATOM     26  C   UNL     1     -14.271  -5.903  38.820  1.00  0.00    -0.000 C 
BRANCH  26  27
ATOM     27  C   UNL     1     -13.167  -6.964  38.702  1.00  0.00    -0.000 C 
BRANCH  27  28
ATOM     28  C   UNL     1     -12.247  -6.933  39.933  1.00  0.00    -0.000 C 
BRANCH  28  29
ATOM     29  C   UNL     1     -11.367  -8.189  40.054  1.00  0.00    -0.000 C 
BRANCH  29  30
ATOM     30  C   UNL     1     -10.908  -8.519  41.487  1.00  0.00    -0.000 C 
BRANCH  30  31
ATOM     31  C   UNL     1      -9.752  -9.542  41.544  1.00  0.00    -0.003 C 
ATOM     32  C   UNL     1      -9.712 -10.449  40.314  1.00  0.00     0.004 C 
ENDBRANCH  30  31
ENDBRANCH  29  30
ENDBRANCH  28  29
ENDBRANCH  27  28
ENDBRANCH  26  27
ENDBRANCH  25  26
ENDBRANCH  24  25
ENDBRANCH  23  24
ENDBRANCH  22  23
ENDBRANCH  21  22
ENDBRANCH  20  21
ENDBRANCH  19  20
ENDBRANCH  18  19
ENDBRANCH   1  18
TORSDOF 28
ENDMDL
MODEL 7
REMARK VINA RESULT:    -5.519      1.548      7.541
REMARK INTER + INTRA:         -18.343
REMARK INTER:                 -14.041
REMARK INTRA:                  -4.302
REMARK UNBOUND:                -3.791
REMARK SMILES CCCCCCCCCCCCCCCCCCCCCCCCCCCCCC(=O)[O-]
REMARK SMILES IDX 16 1 17 2 18 3 19 4 20 5 21 6 22 7 23 8 24 9 25 10 26 11
REMARK SMILES IDX 27 12 28 13 29 14 30 15 31 16 32 17 15 18 14 19 13 20 12 21
REMARK SMILES IDX 11 22 10 23 9 24 8 25 7 26 6 27 5 28 4 29 3 30 2 31 1 32
REMARK H PARENT
REMARK Flexibility Score: inf
ROOT
ATOM      1  C   UNL     1     -17.902  -7.797  43.245  1.00  0.00     0.000 C 
ENDROOT
BRANCH   1   2
ATOM      2  C   UNL     1     -17.349  -6.439  42.781  1.00  0.00     0.000 C 
BRANCH   2   3
ATOM      3  C   UNL     1     -16.749  -6.482  41.363  1.00  0.00     0.000 C 
BRANCH   3   4
ATOM      4  C   UNL     1     -17.758  -6.681  40.211  1.00  0.00     0.000 C 
BRANCH   4   5
ATOM      5  C   UNL     1     -17.149  -6.655  38.797  1.00  0.00     0.000 C 
BRANCH   5   6
ATOM      6  C   UNL     1     -15.746  -6.024  38.765  1.00  0.00     0.000 C 
BRANCH   6   7
ATOM      7  C   UNL     1     -15.050  -6.195  37.402  1.00  0.00     0.000 C 
BRANCH   7   8
ATOM      8  C   UNL     1     -13.619  -6.774  37.485  1.00  0.00     0.000 C 
BRANCH   8   9
ATOM      9  C   UNL     1     -13.081  -6.906  38.923  1.00  0.00     0.000 C 
BRANCH   9  10
ATOM     10  C   UNL     1     -11.817  -7.772  39.062  1.00  0.00     0.000 C 
BRANCH  10  11
ATOM     11  C   UNL     1     -11.361  -8.042  40.509  1.00  0.00     0.000 C 
BRANCH  11  12
ATOM     12  C   UNL     1     -10.318  -9.174  40.639  1.00  0.00     0.000 C 
BRANCH  12  13
ATOM     13  C   UNL     1     -10.131  -9.635  42.096  1.00  0.00     0.006 C 
BRANCH  13  14
ATOM     14  C   UNL     1      -9.498  -8.548  42.978  1.00  0.00     0.053 C 
BRANCH  14  15
ATOM     15  C   UNL     1      -9.065  -9.078  44.313  1.00  0.00     0.041 C 
ATOM     16  O   UNL     1      -9.811  -9.868  44.954  1.00  0.00    -0.550 OA
ATOM     17  O   UNL     1      -7.835  -8.708  44.843  1.00  0.00    -0.550 OA
ENDBRANCH  14  15
ENDBRANCH  13  14
ENDBRANCH  12  13
ENDBRANCH  11  12
ENDBRANCH  10  11
ENDBRANCH   9  10
ENDBRANCH   8   9
ENDBRANCH   7   8
ENDBRANCH   6   7
ENDBRANCH   5   6
ENDBRANCH   4   5
ENDBRANCH   3   4
ENDBRANCH   2   3
ENDBRANCH   1   2
BRANCH   1  18
ATOM     18  C   UNL     1     -16.801  -8.745  43.750  1.00  0.00     0.000 C 
BRANCH  18  19
ATOM     19  C   UNL     1     -17.283 -10.193  43.977  1.00  0.00     0.000 C 
BRANCH  19  20
ATOM     20  C   UNL     1     -16.164 -11.113  44.484  1.00  0.00     0.000 C 
BRANCH  20  21
ATOM     21  C   UNL     1     -15.174 -10.338  45.362  1.00  0.00     0.000 C 
BRANCH  21  22
ATOM     22  C   UNL     1     -14.962 -11.043  46.709  1.00  0.00     0.000 C 
BRANCH  22  23
ATOM     23  C   UNL     1     -15.812 -10.436  47.839  1.00  0.00     0.000 C 
BRANCH  23  24
ATOM     24  C   UNL     1     -16.321  -9.003  47.575  1.00  0.00    -0.000 C 
BRANCH  24  25
ATOM     25  C   UNL     1     -15.668  -7.900  48.432  1.00  0.00    -0.000 C 
BRANCH  25  26
ATOM     26  C   UNL     1     -15.639  -6.504  47.787  1.00  0.00    -0.000 C 
BRANCH  26  27
ATOM     27  C   UNL     1     -15.807  -6.550  46.261  1.00  0.00    -0.000 C 
BRANCH  27  28
ATOM     28  C   UNL     1     -14.814  -5.601  45.574  1.00  0.00    -0.000 C 
BRANCH  28  29
ATOM     29  C   UNL     1     -14.083  -6.254  44.389  1.00  0.00    -0.000 C 
BRANCH  29  30
ATOM     30  C   UNL     1     -13.370  -7.579  44.722  1.00  0.00    -0.000 C 
BRANCH  30  31
ATOM     31  C   UNL     1     -12.170  -7.410  45.679  1.00  0.00    -0.003 C 
ATOM     32  C   UNL     1     -12.287  -8.287  46.925  1.00  0.00     0.004 C 
ENDBRANCH  30  31
ENDBRANCH  29  30
ENDBRANCH  28  29
ENDBRANCH  27  28
ENDBRANCH  26  27
ENDBRANCH  25  26
ENDBRANCH  24  25
ENDBRANCH  23  24
ENDBRANCH  22  23
ENDBRANCH  21  22
ENDBRANCH  20  21
ENDBRANCH  19  20
ENDBRANCH  18  19
ENDBRANCH   1  18
TORSDOF 28
ENDMDL
MODEL 8
REMARK VINA RESULT:    -5.518      2.788      7.722
REMARK INTER + INTRA:         -18.343
REMARK INTER:                 -13.818
REMARK INTRA:                  -4.525
REMARK UNBOUND:                -3.791
REMARK SMILES CCCCCCCCCCCCCCCCCCCCCCCCCCCCCC(=O)[O-]
REMARK SMILES IDX 16 1 17 2 18 3 19 4 20 5 21 6 22 7 23 8 24 9 25 10 26 11
REMARK SMILES IDX 27 12 28 13 29 14 30 15 31 16 32 17 15 18 14 19 13 20 12 21
REMARK SMILES IDX 11 22 10 23 9 24 8 25 7 26 6 27 5 28 4 29 3 30 2 31 1 32
REMARK H PARENT
REMARK Flexibility Score: inf
ROOT
ATOM      1  C   UNL     1     -17.516  -9.358  45.557  1.00  0.00     0.000 C 
ENDROOT
BRANCH   1   2
ATOM      2  C   UNL     1     -17.494  -7.837  45.785  1.00  0.00     0.000 C 
BRANCH   2   3
ATOM      3  C   UNL     1     -16.262  -7.150  45.166  1.00  0.00     0.000 C 
BRANCH   3   4
ATOM      4  C   UNL     1     -16.551  -6.148  44.028  1.00  0.00     0.000 C 
BRANCH   4   5
ATOM      5  C   UNL     1     -16.314  -6.687  42.606  1.00  0.00     0.000 C 
BRANCH   5   6
ATOM      6  C   UNL     1     -17.584  -7.291  41.980  1.00  0.00     0.000 C 
BRANCH   6   7
ATOM      7  C   UNL     1     -17.860  -6.753  40.564  1.00  0.00     0.000 C 
BRANCH   7   8
ATOM      8  C   UNL     1     -16.648  -6.065  39.895  1.00  0.00     0.000 C 
BRANCH   8   9
ATOM      9  C   UNL     1     -16.397  -6.515  38.443  1.00  0.00     0.000 C 
BRANCH   9  10
ATOM     10  C   UNL     1     -15.016  -6.138  37.880  1.00  0.00     0.000 C 
BRANCH  10  11
ATOM     11  C   UNL     1     -13.864  -6.141  38.905  1.00  0.00     0.000 C 
BRANCH  11  12
ATOM     12  C   UNL     1     -12.780  -7.206  38.631  1.00  0.00     0.000 C 
BRANCH  12  13
ATOM     13  C   UNL     1     -12.834  -7.740  37.188  1.00  0.00     0.006 C 
BRANCH  13  14
ATOM     14  C   UNL     1     -11.450  -8.144  36.660  1.00  0.00     0.053 C 
BRANCH  14  15
ATOM     15  C   UNL     1     -10.578  -8.726  37.733  1.00  0.00     0.041 C 
ATOM     16  O   UNL     1     -10.813  -9.880  38.184  1.00  0.00    -0.550 OA
ATOM     17  O   UNL     1      -9.501  -7.999  38.225  1.00  0.00    -0.550 OA
ENDBRANCH  14  15
ENDBRANCH  13  14
ENDBRANCH  12  13
ENDBRANCH  11  12
ENDBRANCH  10  11
ENDBRANCH   9  10
ENDBRANCH   8   9
ENDBRANCH   7   8
ENDBRANCH   6   7
ENDBRANCH   5   6
ENDBRANCH   4   5
ENDBRANCH   3   4
ENDBRANCH   2   3
ENDBRANCH   1   2
BRANCH   1  18
ATOM     18  C   UNL     1     -16.220  -9.882  44.917  1.00  0.00     0.000 C 
BRANCH  18  19
ATOM     19  C   UNL     1     -15.536 -11.004  45.725  1.00  0.00     0.000 C 
BRANCH  19  20
ATOM     20  C   UNL     1     -16.019 -11.058  47.182  1.00  0.00     0.000 C 
BRANCH  20  21
ATOM     21  C   UNL     1     -14.853 -11.347  48.134  1.00  0.00     0.000 C 
BRANCH  21  22
ATOM     22  C   UNL     1     -14.857 -10.374  49.322  1.00  0.00     0.000 C 
BRANCH  22  23
ATOM     23  C   UNL     1     -15.900  -9.252  49.169  1.00  0.00     0.000 C 
BRANCH  23  24
ATOM     24  C   UNL     1     -15.320  -7.866  48.819  1.00  0.00    -0.000 C 
BRANCH  24  25
ATOM     25  C   UNL     1     -13.797  -7.828  48.575  1.00  0.00    -0.000 C 
BRANCH  25  26
ATOM     26  C   UNL     1     -13.375  -7.796  47.096  1.00  0.00    -0.000 C 
BRANCH  26  27
ATOM     27  C   UNL     1     -12.488  -8.987  46.705  1.00  0.00    -0.000 C 
BRANCH  27  28
ATOM     28  C   UNL     1     -12.627  -9.301  45.207  1.00  0.00    -0.000 C 
BRANCH  28  29
ATOM     29  C   UNL     1     -12.801  -8.039  44.345  1.00  0.00    -0.000 C 
BRANCH  29  30
ATOM     30  C   UNL     1     -11.523  -7.568  43.625  1.00  0.00    -0.000 C 
BRANCH  30  31
ATOM     31  C   UNL     1     -11.610  -7.664  42.086  1.00  0.00    -0.003 C 
ATOM     32  C   UNL     1     -10.377  -8.326  41.471  1.00  0.00     0.004 C 
ENDBRANCH  30  31
ENDBRANCH  29  30
ENDBRANCH  28  29
ENDBRANCH  27  28
ENDBRANCH  26  27
ENDBRANCH  25  26
ENDBRANCH  24  25
ENDBRANCH  23  24
ENDBRANCH  22  23
ENDBRANCH  21  22
ENDBRANCH  20  21
ENDBRANCH  19  20
ENDBRANCH  18  19
ENDBRANCH   1  18
TORSDOF 28
ENDMDL
MODEL 9
REMARK VINA RESULT:    -5.489      3.041      8.015
REMARK INTER + INTRA:         -18.264
REMARK INTER:                 -13.829
REMARK INTRA:                  -4.435
REMARK UNBOUND:                -3.791
REMARK SMILES CCCCCCCCCCCCCCCCCCCCCCCCCCCCCC(=O)[O-]
REMARK SMILES IDX 16 1 17 2 18 3 19 4 20 5 21 6 22 7 23 8 24 9 25 10 26 11
REMARK SMILES IDX 27 12 28 13 29 14 30 15 31 16 32 17 15 18 14 19 13 20 12 21
REMARK SMILES IDX 11 22 10 23 9 24 8 25 7 26 6 27 5 28 4 29 3 30 2 31 1 32
REMARK H PARENT
REMARK Flexibility Score: inf
ROOT
ATOM      1  C   UNL     1     -16.926  -6.787  44.263  1.00  0.00     0.000 C 
ENDROOT
BRANCH   1   2
ATOM      2  C   UNL     1     -17.751  -6.517  42.994  1.00  0.00     0.000 C 
BRANCH   2   3
ATOM      3  C   UNL     1     -16.895  -6.468  41.714  1.00  0.00     0.000 C 
BRANCH   3   4
ATOM      4  C   UNL     1     -17.654  -6.685  40.388  1.00  0.00     0.000 C 
BRANCH   4   5
ATOM      5  C   UNL     1     -17.274  -5.720  39.251  1.00  0.00     0.000 C 
BRANCH   5   6
ATOM      6  C   UNL     1     -16.503  -6.415  38.115  1.00  0.00     0.000 C 
BRANCH   6   7
ATOM      7  C   UNL     1     -15.082  -5.850  37.931  1.00  0.00     0.000 C 
BRANCH   7   8
ATOM      8  C   UNL     1     -14.131  -6.116  39.120  1.00  0.00     0.000 C 
BRANCH   8   9
ATOM      9  C   UNL     1     -13.860  -4.876  39.993  1.00  0.00     0.000 C 
BRANCH   9  10
ATOM     10  C   UNL     1     -12.847  -5.096  41.130  1.00  0.00     0.000 C 
BRANCH  10  11
ATOM     11  C   UNL     1     -12.651  -6.563  41.561  1.00  0.00     0.000 C 
BRANCH  11  12
ATOM     12  C   UNL     1     -11.257  -7.136  41.226  1.00  0.00     0.000 C 
BRANCH  12  13
ATOM     13  C   UNL     1     -11.326  -8.276  40.192  1.00  0.00     0.006 C 
BRANCH  13  14
ATOM     14  C   UNL     1     -10.846  -7.835  38.801  1.00  0.00     0.053 C 
BRANCH  14  15
ATOM     15  C   UNL     1     -11.457  -8.652  37.702  1.00  0.00     0.041 C 
ATOM     16  O   UNL     1     -12.325  -8.144  36.941  1.00  0.00    -0.550 OA
ATOM     17  O   UNL     1     -11.059  -9.970  37.511  1.00  0.00    -0.550 OA
ENDBRANCH  14  15
ENDBRANCH  13  14
ENDBRANCH  12  13
ENDBRANCH  11  12
ENDBRANCH  10  11
ENDBRANCH   9  10
ENDBRANCH   8   9
ENDBRANCH   7   8
ENDBRANCH   6   7
ENDBRANCH   5   6
ENDBRANCH   4   5
ENDBRANCH   3   4
ENDBRANCH   2   3
ENDBRANCH   1   2
BRANCH   1  18
ATOM     18  C   UNL     1     -16.113  -8.090  44.177  1.00  0.00     0.000 C 
BRANCH  18  19
ATOM     19  C   UNL     1     -16.978  -9.367  44.213  1.00  0.00     0.000 C 
BRANCH  19  20
ATOM     20  C   UNL     1     -16.155 -10.626  44.520  1.00  0.00     0.000 C 
BRANCH  20  21
ATOM     21  C   UNL     1     -15.922 -10.772  46.028  1.00  0.00     0.000 C 
BRANCH  21  22
ATOM     22  C   UNL     1     -17.171 -10.363  46.822  1.00  0.00     0.000 C 
BRANCH  22  23
ATOM     23  C   UNL     1     -16.841  -9.476  48.035  1.00  0.00     0.000 C 
BRANCH  23  24
ATOM     24  C   UNL     1     -16.624  -7.983  47.712  1.00  0.00    -0.000 C 
BRANCH  24  25
ATOM     25  C   UNL     1     -15.512  -7.285  48.522  1.00  0.00    -0.000 C 
BRANCH  25  26
ATOM     26  C   UNL     1     -14.100  -7.396  47.920  1.00  0.00    -0.000 C 
BRANCH  26  27
ATOM     27  C   UNL     1     -13.310  -8.591  48.472  1.00  0.00    -0.000 C 
BRANCH  27  28
ATOM     28  C   UNL     1     -12.531  -9.295  47.350  1.00  0.00    -0.000 C 
BRANCH  28  29
ATOM     29  C   UNL     1     -13.040  -8.925  45.946  1.00  0.00    -0.000 C 
BRANCH  29  30
ATOM     30  C   UNL     1     -12.108  -9.345  44.792  1.00  0.00    -0.000 C 
BRANCH  30  31
ATOM     31  C   UNL     1     -10.837  -8.475  44.678  1.00  0.00    -0.003 C 
ATOM     32  C   UNL     1     -11.112  -6.998  44.964  1.00  0.00     0.004 C 
ENDBRANCH  30  31
ENDBRANCH  29  30
ENDBRANCH  28  29
ENDBRANCH  27  28
ENDBRANCH  26  27
ENDBRANCH  25  26
ENDBRANCH  24  25
ENDBRANCH  23  24
ENDBRANCH  22  23
ENDBRANCH  21  22
ENDBRANCH  20  21
ENDBRANCH  19  20
ENDBRANCH  18  19
ENDBRANCH   1  18
TORSDOF 28
ENDMDL
