MODEL 1
REMARK VINA RESULT:    -9.147      0.000      0.000
REMARK INTER + INTRA:          -9.759
REMARK INTER:                  -9.949
REMARK INTRA:                   0.189
REMARK UNBOUND:                 0.189
REMARK SMILES C[C@H]1[C@@H](C)CC[C@@]2(C(=O)[O-])CC[C@@]3(C)C(=CC[C@@H]4[C@]5(C)CC[C@H](O)C(C)(C)[C@@H]5CC[C@]43C)[C@@H]12
REMARK SMILES IDX 7 1 6 2 11 3 33 4 5 5 12 6 15 7 2 8 3 9 13 10 16 11 1 12
REMARK SMILES IDX 4 13 14 14 31 15 17 16 18 17 30 18 32 19 19 20 29 21 28 22
REMARK SMILES IDX 21 23 20 24 25 25 22 26 23 27 26 28 27 29 8 30 9 31 10 32
REMARK SMILES IDX 24 33
REMARK H PARENT 24 34
REMARK Flexibility Score: inf
ROOT
ATOM      1  C   UNL     1      14.965  21.043  42.639  1.00  0.00     0.017 C 
ATOM      2  C   UNL     1      15.796  21.495  41.387  1.00  0.00     0.014 C 
ATOM      3  C   UNL     1      13.852  20.015  42.226  1.00  0.00     0.014 C 
ATOM      4  C   UNL     1      15.931  20.478  43.747  1.00  0.00     0.030 C 
ATOM      5  C   UNL     1      16.872  22.528  41.715  1.00  0.00     0.004 C 
ATOM      6  C   UNL     1      14.047  18.530  42.622  1.00  0.00     0.013 C 
ATOM      7  C   UNL     1      16.243  18.946  43.665  1.00  0.00    -0.063 C 
ATOM      8  C   UNL     1      17.134  21.488  44.009  1.00  0.00    -0.003 C 
ATOM      9  C   UNL     1      17.875  21.982  42.741  1.00  0.00    -0.011 C 
ATOM     10  C   UNL     1      15.519  18.013  42.622  1.00  0.00    -0.006 C 
ATOM     11  C   UNL     1      16.674  18.418  44.845  1.00  0.00    -0.027 C 
ATOM     12  C   UNL     1      18.139  21.119  45.115  1.00  0.00     0.008 C 
ATOM     13  C   UNL     1      18.831  20.933  42.148  1.00  0.00     0.008 C 
ATOM     14  C   UNL     1      16.054  18.170  41.158  1.00  0.00     0.017 C 
ATOM     15  C   UNL     1      15.622  16.424  43.017  1.00  0.00    -0.020 C 
ATOM     16  C   UNL     1      16.733  16.969  45.188  1.00  0.00     0.032 C 
ATOM     17  C   UNL     1      15.533  16.235  44.564  1.00  0.00     0.006 C 
ATOM     18  C   UNL     1      14.452  15.612  42.399  1.00  0.00     0.008 C 
ATOM     19  C   UNL     1      16.983  15.842  42.494  1.00  0.00     0.012 C 
ATOM     20  C   UNL     1      15.226  14.774  45.192  1.00  0.00    -0.025 C 
ATOM     21  C   UNL     1      14.487  14.137  42.767  1.00  0.00     0.005 C 
ATOM     22  C   UNL     1      14.243  13.906  44.285  1.00  0.00     0.003 C 
ATOM     23  C   UNL     1      16.510  13.928  45.555  1.00  0.00     0.010 C 
ATOM     24  C   UNL     1      14.489  15.104  46.544  1.00  0.00     0.012 C 
ATOM     25  C   UNL     1      14.221  12.346  44.624  1.00  0.00    -0.006 C 
ATOM     26  C   UNL     1      16.811  12.709  44.661  1.00  0.00     0.033 C 
ATOM     27  C   UNL     1      15.654  11.705  44.490  1.00  0.00     0.120 C 
ATOM     28  C   UNL     1      13.195  11.608  43.708  1.00  0.00     0.014 C 
ATOM     29  C   UNL     1      13.706  12.083  46.068  1.00  0.00     0.014 C 
ENDROOT
BRANCH   1  30
ATOM     30  C   UNL     1      14.214  22.278  43.160  1.00  0.00     0.048 C 
ATOM     31  O   UNL     1      13.127  22.630  42.626  1.00  0.00    -0.550 OA
ATOM     32  O   UNL     1      14.631  22.949  44.306  1.00  0.00    -0.550 OA
ENDBRANCH   1  30
BRANCH  27  33
ATOM     33  O   UNL     1      15.824  11.074  43.241  1.00  0.00    -0.393 OA
ATOM     34  H   UNL     1      16.439  11.641  42.705  1.00  0.00     0.210 HD
ENDBRANCH  27  33
TORSDOF 2
ENDMDL
MODEL 2
REMARK VINA RESULT:    -9.125      2.530      7.855
REMARK INTER + INTRA:          -9.736
REMARK INTER:                  -9.756
REMARK INTRA:                   0.021
REMARK UNBOUND:                 0.189
REMARK SMILES C[C@H]1[C@@H](C)CC[C@@]2(C(=O)[O-])CC[C@@]3(C)C(=CC[C@@H]4[C@]5(C)CC[C@H](O)C(C)(C)[C@@H]5CC[C@]43C)[C@@H]12
REMARK SMILES IDX 7 1 6 2 11 3 33 4 5 5 12 6 15 7 2 8 3 9 13 10 16 11 1 12
REMARK SMILES IDX 4 13 14 14 31 15 17 16 18 17 30 18 32 19 19 20 29 21 28 22
REMARK SMILES IDX 21 23 20 24 25 25 22 26 23 27 26 28 27 29 8 30 9 31 10 32
REMARK SMILES IDX 24 33
REMARK H PARENT 24 34
REMARK Flexibility Score: inf
ROOT
ATOM      1  C   UNL     1      13.577  16.202  45.577  1.00  0.00     0.017 C 
ATOM      2  C   UNL     1      14.165  14.805  45.982  1.00  0.00     0.014 C 
ATOM      3  C   UNL     1      14.158  17.336  46.494  1.00  0.00     0.014 C 
ATOM      4  C   UNL     1      13.834  16.469  44.047  1.00  0.00     0.030 C 
ATOM      5  C   UNL     1      13.608  13.649  45.151  1.00  0.00     0.004 C 
ATOM      6  C   UNL     1      15.192  18.313  45.880  1.00  0.00     0.013 C 
ATOM      7  C   UNL     1      15.187  17.172  43.694  1.00  0.00    -0.063 C 
ATOM      8  C   UNL     1      13.376  15.217  43.175  1.00  0.00    -0.003 C 
ATOM      9  C   UNL     1      13.905  13.843  43.658  1.00  0.00    -0.011 C 
ATOM     10  C   UNL     1      16.157  17.703  44.816  1.00  0.00    -0.006 C 
ATOM     11  C   UNL     1      15.176  17.788  42.477  1.00  0.00    -0.027 C 
ATOM     12  C   UNL     1      13.497  15.338  41.646  1.00  0.00     0.008 C 
ATOM     13  C   UNL     1      15.382  13.602  43.302  1.00  0.00     0.008 C 
ATOM     14  C   UNL     1      16.968  16.572  45.535  1.00  0.00     0.017 C 
ATOM     15  C   UNL     1      17.237  18.801  44.252  1.00  0.00    -0.020 C 
ATOM     16  C   UNL     1      16.156  18.803  41.999  1.00  0.00     0.032 C 
ATOM     17  C   UNL     1      16.580  19.711  43.166  1.00  0.00     0.006 C 
ATOM     18  C   UNL     1      17.731  19.741  45.385  1.00  0.00     0.008 C 
ATOM     19  C   UNL     1      18.470  18.052  43.633  1.00  0.00     0.012 C 
ATOM     20  C   UNL     1      17.288  21.100  42.727  1.00  0.00    -0.025 C 
ATOM     21  C   UNL     1      18.709  20.800  44.900  1.00  0.00     0.005 C 
ATOM     22  C   UNL     1      18.040  21.819  43.935  1.00  0.00     0.003 C 
ATOM     23  C   UNL     1      18.256  20.983  41.484  1.00  0.00     0.010 C 
ATOM     24  C   UNL     1      16.077  22.006  42.290  1.00  0.00     0.012 C 
ATOM     25  C   UNL     1      19.078  22.950  43.500  1.00  0.00    -0.006 C 
ATOM     26  C   UNL     1      19.766  21.114  41.768  1.00  0.00     0.033 C 
ATOM     27  C   UNL     1      20.191  22.377  42.543  1.00  0.00     0.120 C 
ATOM     28  C   UNL     1      19.717  23.613  44.760  1.00  0.00     0.014 C 
ATOM     29  C   UNL     1      18.368  24.125  42.768  1.00  0.00     0.014 C 
ENDROOT
BRANCH   1  30
ATOM     30  C   UNL     1      12.069  16.166  45.870  1.00  0.00     0.048 C 
ATOM     31  O   UNL     1      11.253  16.683  45.059  1.00  0.00    -0.550 OA
ATOM     32  O   UNL     1      11.559  15.453  46.951  1.00  0.00    -0.550 OA
ENDBRANCH   1  30
BRANCH  27  33
ATOM     33  O   UNL     1      21.369  22.062  43.249  1.00  0.00    -0.393 OA
ATOM     34  H   UNL     1      21.417  21.072  43.317  1.00  0.00     0.210 HD
ENDBRANCH  27  33
TORSDOF 2
ENDMDL
MODEL 3
REMARK VINA RESULT:    -9.103      2.020      7.780
REMARK INTER + INTRA:          -9.711
REMARK INTER:                  -9.642
REMARK INTRA:                  -0.069
REMARK UNBOUND:                 0.189
REMARK SMILES C[C@H]1[C@@H](C)CC[C@@]2(C(=O)[O-])CC[C@@]3(C)C(=CC[C@@H]4[C@]5(C)CC[C@H](O)C(C)(C)[C@@H]5CC[C@]43C)[C@@H]12
REMARK SMILES IDX 7 1 6 2 11 3 33 4 5 5 12 6 15 7 2 8 3 9 13 10 16 11 1 12
REMARK SMILES IDX 4 13 14 14 31 15 17 16 18 17 30 18 32 19 19 20 29 21 28 22
REMARK SMILES IDX 21 23 20 24 25 25 22 26 23 27 26 28 27 29 8 30 9 31 10 32
REMARK SMILES IDX 24 33
REMARK H PARENT 24 34
REMARK Flexibility Score: inf
ROOT
ATOM      1  C   UNL     1      13.398  14.949  43.092  1.00  0.00     0.017 C 
ATOM      2  C   UNL     1      11.848  15.196  43.101  1.00  0.00     0.014 C 
ATOM      3  C   UNL     1      14.043  15.508  41.774  1.00  0.00     0.014 C 
ATOM      4  C   UNL     1      14.046  15.560  44.390  1.00  0.00     0.030 C 
ATOM      5  C   UNL     1      11.153  14.639  44.341  1.00  0.00     0.004 C 
ATOM      6  C   UNL     1      14.898  16.797  41.870  1.00  0.00     0.013 C 
ATOM      7  C   UNL     1      14.497  17.056  44.289  1.00  0.00    -0.063 C 
ATOM      8  C   UNL     1      13.250  15.090  45.688  1.00  0.00    -0.003 C 
ATOM      9  C   UNL     1      11.712  15.269  45.624  1.00  0.00    -0.011 C 
ATOM     10  C   UNL     1      14.433  17.845  42.927  1.00  0.00    -0.006 C 
ATOM     11  C   UNL     1      15.434  17.402  45.217  1.00  0.00    -0.027 C 
ATOM     12  C   UNL     1      13.793  15.546  47.054  1.00  0.00     0.008 C 
ATOM     13  C   UNL     1      11.261  16.725  45.825  1.00  0.00     0.008 C 
ATOM     14  C   UNL     1      12.985  18.287  42.522  1.00  0.00     0.017 C 
ATOM     15  C   UNL     1      15.375  19.188  42.930  1.00  0.00    -0.020 C 
ATOM     16  C   UNL     1      16.296  18.617  45.182  1.00  0.00     0.032 C 
ATOM     17  C   UNL     1      16.693  18.934  43.729  1.00  0.00     0.006 C 
ATOM     18  C   UNL     1      15.795  19.586  41.489  1.00  0.00     0.008 C 
ATOM     19  C   UNL     1      14.587  20.379  43.582  1.00  0.00     0.012 C 
ATOM     20  C   UNL     1      17.951  19.942  43.571  1.00  0.00    -0.025 C 
ATOM     21  C   UNL     1      16.700  20.808  41.445  1.00  0.00     0.005 C 
ATOM     22  C   UNL     1      18.085  20.536  42.097  1.00  0.00     0.003 C 
ATOM     23  C   UNL     1      17.996  21.114  44.629  1.00  0.00     0.010 C 
ATOM     24  C   UNL     1      19.196  19.019  43.846  1.00  0.00     0.012 C 
ATOM     25  C   UNL     1      19.029  21.817  41.974  1.00  0.00    -0.006 C 
ATOM     26  C   UNL     1      17.690  22.531  44.105  1.00  0.00     0.033 C 
ATOM     27  C   UNL     1      18.533  22.992  42.899  1.00  0.00     0.120 C 
ATOM     28  C   UNL     1      19.120  22.281  40.487  1.00  0.00     0.014 C 
ATOM     29  C   UNL     1      20.498  21.482  42.363  1.00  0.00     0.014 C 
ENDROOT
BRANCH   1  30
ATOM     30  C   UNL     1      13.618  13.429  43.046  1.00  0.00     0.048 C 
ATOM     31  O   UNL     1      12.892  12.705  42.311  1.00  0.00    -0.550 OA
ATOM     32  O   UNL     1      14.696  12.834  43.695  1.00  0.00    -0.550 OA
ENDBRANCH   1  30
BRANCH  27  33
ATOM     33  O   UNL     1      17.762  23.927  42.178  1.00  0.00    -0.393 OA
ATOM     34  H   UNL     1      18.395  24.541  41.720  1.00  0.00     0.210 HD
ENDBRANCH  27  33
TORSDOF 2
ENDMDL
MODEL 4
REMARK VINA RESULT:    -9.033      1.696      8.096
REMARK INTER + INTRA:          -9.636
REMARK INTER:                  -9.566
REMARK INTRA:                  -0.070
REMARK UNBOUND:                 0.189
REMARK SMILES C[C@H]1[C@@H](C)CC[C@@]2(C(=O)[O-])CC[C@@]3(C)C(=CC[C@@H]4[C@]5(C)CC[C@H](O)C(C)(C)[C@@H]5CC[C@]43C)[C@@H]12
REMARK SMILES IDX 7 1 6 2 11 3 33 4 5 5 12 6 15 7 2 8 3 9 13 10 16 11 1 12
REMARK SMILES IDX 4 13 14 14 31 15 17 16 18 17 30 18 32 19 19 20 29 21 28 22
REMARK SMILES IDX 21 23 20 24 25 25 22 26 23 27 26 28 27 29 8 30 9 31 10 32
REMARK SMILES IDX 24 33
REMARK H PARENT 24 34
REMARK Flexibility Score: inf
ROOT
ATOM      1  C   UNL     1      15.799  14.636  44.200  1.00  0.00     0.017 C 
ATOM      2  C   UNL     1      14.557  14.025  43.462  1.00  0.00     0.014 C 
ATOM      3  C   UNL     1      16.874  15.127  43.165  1.00  0.00     0.014 C 
ATOM      4  C   UNL     1      15.334  15.779  45.178  1.00  0.00     0.030 C 
ATOM      5  C   UNL     1      13.489  13.491  44.415  1.00  0.00     0.004 C 
ATOM      6  C   UNL     1      17.051  16.653  42.965  1.00  0.00     0.013 C 
ATOM      7  C   UNL     1      15.258  17.216  44.562  1.00  0.00    -0.063 C 
ATOM      8  C   UNL     1      14.130  15.277  46.092  1.00  0.00    -0.003 C 
ATOM      9  C   UNL     1      12.960  14.599  45.336  1.00  0.00    -0.011 C 
ATOM     10  C   UNL     1      15.756  17.511  43.096  1.00  0.00    -0.006 C 
ATOM     11  C   UNL     1      15.309  18.208  45.496  1.00  0.00    -0.027 C 
ATOM     12  C   UNL     1      13.596  16.253  47.155  1.00  0.00     0.008 C 
ATOM     13  C   UNL     1      12.045  15.599  44.609  1.00  0.00     0.008 C 
ATOM     14  C   UNL     1      14.769  17.016  41.984  1.00  0.00     0.017 C 
ATOM     15  C   UNL     1      16.035  19.107  42.833  1.00  0.00    -0.020 C 
ATOM     16  C   UNL     1      15.591  19.647  45.232  1.00  0.00     0.032 C 
ATOM     17  C   UNL     1      16.635  19.778  44.109  1.00  0.00     0.006 C 
ATOM     18  C   UNL     1      17.064  19.317  41.690  1.00  0.00     0.008 C 
ATOM     19  C   UNL     1      14.689  19.817  42.449  1.00  0.00     0.012 C 
ATOM     20  C   UNL     1      17.351  21.227  44.008  1.00  0.00    -0.025 C 
ATOM     21  C   UNL     1      17.381  20.783  41.433  1.00  0.00     0.005 C 
ATOM     22  C   UNL     1      18.123  21.441  42.630  1.00  0.00     0.003 C 
ATOM     23  C   UNL     1      16.397  22.456  44.286  1.00  0.00     0.010 C 
ATOM     24  C   UNL     1      18.414  21.192  45.169  1.00  0.00     0.012 C 
ATOM     25  C   UNL     1      18.497  22.957  42.299  1.00  0.00    -0.006 C 
ATOM     26  C   UNL     1      16.027  23.332  43.074  1.00  0.00     0.033 C 
ATOM     27  C   UNL     1      17.215  23.872  42.253  1.00  0.00     0.120 C 
ATOM     28  C   UNL     1      19.287  23.039  40.956  1.00  0.00     0.014 C 
ATOM     29  C   UNL     1      19.475  23.546  43.356  1.00  0.00     0.014 C 
ENDROOT
BRANCH   1  30
ATOM     30  C   UNL     1      16.471  13.498  44.984  1.00  0.00     0.048 C 
ATOM     31  O   UNL     1      16.603  12.358  44.459  1.00  0.00    -0.550 OA
ATOM     32  O   UNL     1      17.067  13.726  46.221  1.00  0.00    -0.550 OA
ENDBRANCH   1  30
BRANCH  27  33
ATOM     33  O   UNL     1      16.764  24.063  40.932  1.00  0.00    -0.393 OA
ATOM     34  H   UNL     1      15.933  24.605  40.980  1.00  0.00     0.210 HD
ENDBRANCH  27  33
TORSDOF 2
ENDMDL
MODEL 5
REMARK VINA RESULT:    -8.986      1.593      8.116
REMARK INTER + INTRA:          -9.584
REMARK INTER:                  -9.512
REMARK INTRA:                  -0.072
REMARK UNBOUND:                 0.189
REMARK SMILES C[C@H]1[C@@H](C)CC[C@@]2(C(=O)[O-])CC[C@@]3(C)C(=CC[C@@H]4[C@]5(C)CC[C@H](O)C(C)(C)[C@@H]5CC[C@]43C)[C@@H]12
REMARK SMILES IDX 7 1 6 2 11 3 33 4 5 5 12 6 15 7 2 8 3 9 13 10 16 11 1 12
REMARK SMILES IDX 4 13 14 14 31 15 17 16 18 17 30 18 32 19 19 20 29 21 28 22
REMARK SMILES IDX 21 23 20 24 25 25 22 26 23 27 26 28 27 29 8 30 9 31 10 32
REMARK SMILES IDX 24 33
REMARK H PARENT 24 34
REMARK Flexibility Score: inf
ROOT
ATOM      1  C   UNL     1      15.236  12.914  45.005  1.00  0.00     0.017 C 
ATOM      2  C   UNL     1      13.996  12.227  44.333  1.00  0.00     0.014 C 
ATOM      3  C   UNL     1      16.249  13.422  43.917  1.00  0.00     0.014 C 
ATOM      4  C   UNL     1      14.756  14.063  45.969  1.00  0.00     0.030 C 
ATOM      5  C   UNL     1      12.990  11.674  45.340  1.00  0.00     0.004 C 
ATOM      6  C   UNL     1      16.349  14.948  43.669  1.00  0.00     0.013 C 
ATOM      7  C   UNL     1      14.593  15.477  45.318  1.00  0.00    -0.063 C 
ATOM      8  C   UNL     1      13.611  13.535  46.942  1.00  0.00    -0.003 C 
ATOM      9  C   UNL     1      12.446  12.784  46.250  1.00  0.00    -0.011 C 
ATOM     10  C   UNL     1      15.021  15.752  43.827  1.00  0.00    -0.006 C 
ATOM     11  C   UNL     1      14.633  16.497  46.222  1.00  0.00    -0.027 C 
ATOM     12  C   UNL     1      13.073  14.516  47.999  1.00  0.00     0.008 C 
ATOM     13  C   UNL     1      11.460  13.722  45.533  1.00  0.00     0.008 C 
ATOM     14  C   UNL     1      14.017  15.182  42.767  1.00  0.00     0.017 C 
ATOM     15  C   UNL     1      15.218  17.349  43.510  1.00  0.00    -0.020 C 
ATOM     16  C   UNL     1      14.840  17.938  45.908  1.00  0.00     0.032 C 
ATOM     17  C   UNL     1      15.834  18.083  44.743  1.00  0.00     0.006 C 
ATOM     18  C   UNL     1      16.193  17.572  42.322  1.00  0.00     0.008 C 
ATOM     19  C   UNL     1      13.828  17.988  43.158  1.00  0.00     0.012 C 
ATOM     20  C   UNL     1      16.479  19.559  44.576  1.00  0.00    -0.025 C 
ATOM     21  C   UNL     1      16.434  19.042  42.014  1.00  0.00     0.005 C 
ATOM     22  C   UNL     1      17.189  19.767  43.163  1.00  0.00     0.003 C 
ATOM     23  C   UNL     1      15.482  20.752  44.857  1.00  0.00     0.010 C 
ATOM     24  C   UNL     1      17.585  19.604  45.695  1.00  0.00     0.012 C 
ATOM     25  C   UNL     1      17.481  21.288  42.777  1.00  0.00    -0.006 C 
ATOM     26  C   UNL     1      15.027  21.576  43.636  1.00  0.00     0.033 C 
ATOM     27  C   UNL     1      16.158  22.143  42.756  1.00  0.00     0.120 C 
ATOM     28  C   UNL     1      18.216  21.366  41.403  1.00  0.00     0.014 C 
ATOM     29  C   UNL     1      18.470  21.950  43.779  1.00  0.00     0.014 C 
ENDROOT
BRANCH   1  30
ATOM     30  C   UNL     1      15.988  11.830  45.794  1.00  0.00     0.048 C 
ATOM     31  O   UNL     1      16.138  10.678  45.302  1.00  0.00    -0.550 OA
ATOM     32  O   UNL     1      16.634  12.123  46.991  1.00  0.00    -0.550 OA
ENDBRANCH   1  30
BRANCH  27  33
ATOM     33  O   UNL     1      15.650  22.277  41.448  1.00  0.00    -0.393 OA
ATOM     34  H   UNL     1      16.384  22.045  40.820  1.00  0.00     0.210 HD
ENDBRANCH  27  33
TORSDOF 2
ENDMDL
MODEL 6
REMARK VINA RESULT:    -8.916      8.636     11.233
REMARK INTER + INTRA:          -9.508
REMARK INTER:                  -9.863
REMARK INTRA:                   0.356
REMARK UNBOUND:                 0.189
REMARK SMILES C[C@H]1[C@@H](C)CC[C@@]2(C(=O)[O-])CC[C@@]3(C)C(=CC[C@@H]4[C@]5(C)CC[C@H](O)C(C)(C)[C@@H]5CC[C@]43C)[C@@H]12
REMARK SMILES IDX 7 1 6 2 11 3 33 4 5 5 12 6 15 7 2 8 3 9 13 10 16 11 1 12
REMARK SMILES IDX 4 13 14 14 31 15 17 16 18 17 30 18 32 19 19 20 29 21 28 22
REMARK SMILES IDX 21 23 20 24 25 25 22 26 23 27 26 28 27 29 8 30 9 31 10 32
REMARK SMILES IDX 24 33
REMARK H PARENT 24 34
REMARK Flexibility Score: inf
ROOT
ATOM      1  C   UNL     1      17.497   7.616  41.923  1.00  0.00     0.017 C 
ATOM      2  C   UNL     1      18.351   6.611  42.773  1.00  0.00     0.014 C 
ATOM      3  C   UNL     1      16.474   6.845  41.014  1.00  0.00     0.014 C 
ATOM      4  C   UNL     1      16.798   8.660  42.871  1.00  0.00     0.030 C 
ATOM      5  C   UNL     1      19.396   7.296  43.653  1.00  0.00     0.004 C 
ATOM      6  C   UNL     1      14.974   6.896  41.399  1.00  0.00     0.013 C 
ATOM      7  C   UNL     1      15.388   8.252  43.416  1.00  0.00    -0.063 C 
ATOM      8  C   UNL     1      17.853   9.291  43.884  1.00  0.00    -0.003 C 
ATOM      9  C   UNL     1      18.740   8.270  44.641  1.00  0.00    -0.011 C 
ATOM     10  C   UNL     1      14.664   6.941  42.927  1.00  0.00    -0.006 C 
ATOM     11  C   UNL     1      14.638   9.314  43.827  1.00  0.00    -0.027 C 
ATOM     12  C   UNL     1      17.347  10.385  44.842  1.00  0.00     0.008 C 
ATOM     13  C   UNL     1      18.003   7.558  45.788  1.00  0.00     0.008 C 
ATOM     14  C   UNL     1      15.250   5.628  43.547  1.00  0.00     0.017 C 
ATOM     15  C   UNL     1      13.053   6.956  43.236  1.00  0.00    -0.020 C 
ATOM     16  C   UNL     1      13.170   9.307  44.075  1.00  0.00     0.032 C 
ATOM     17  C   UNL     1      12.471   8.394  43.053  1.00  0.00     0.006 C 
ATOM     18  C   UNL     1      12.282   6.033  42.255  1.00  0.00     0.008 C 
ATOM     19  C   UNL     1      12.797   6.469  44.706  1.00  0.00     0.012 C 
ATOM     20  C   UNL     1      10.872   8.616  42.920  1.00  0.00    -0.025 C 
ATOM     21  C   UNL     1      10.778   6.041  42.481  1.00  0.00     0.005 C 
ATOM     22  C   UNL     1      10.143   7.423  42.155  1.00  0.00     0.003 C 
ATOM     23  C   UNL     1      10.131   8.912  44.284  1.00  0.00     0.010 C 
ATOM     24  C   UNL     1      10.755   9.914  42.036  1.00  0.00     0.012 C 
ATOM     25  C   UNL     1       8.559   7.375  42.341  1.00  0.00    -0.006 C 
ATOM     26  C   UNL     1       9.225   7.794  44.836  1.00  0.00     0.033 C 
ATOM     27  C   UNL     1       8.158   7.258  43.860  1.00  0.00     0.120 C 
ATOM     28  C   UNL     1       7.952   6.200  41.514  1.00  0.00     0.014 C 
ATOM     29  C   UNL     1       7.878   8.647  41.758  1.00  0.00     0.014 C 
ENDROOT
BRANCH   1  30
ATOM     30  C   UNL     1      18.456   8.326  40.955  1.00  0.00     0.048 C 
ATOM     31  O   UNL     1      18.008   9.143  40.105  1.00  0.00    -0.550 OA
ATOM     32  O   UNL     1      19.836   8.196  41.078  1.00  0.00    -0.550 OA
ENDBRANCH   1  30
BRANCH  27  33
ATOM     33  O   UNL     1       7.888   5.923  44.222  1.00  0.00    -0.393 OA
ATOM     34  H   UNL     1       7.564   5.931  45.161  1.00  0.00     0.210 HD
ENDBRANCH  27  33
TORSDOF 2
ENDMDL
MODEL 7
REMARK VINA RESULT:    -8.905      2.021      8.018
REMARK INTER + INTRA:          -9.497
REMARK INTER:                  -9.424
REMARK INTRA:                  -0.073
REMARK UNBOUND:                 0.189
REMARK SMILES C[C@H]1[C@@H](C)CC[C@@]2(C(=O)[O-])CC[C@@]3(C)C(=CC[C@@H]4[C@]5(C)CC[C@H](O)C(C)(C)[C@@H]5CC[C@]43C)[C@@H]12
REMARK SMILES IDX 7 1 6 2 11 3 33 4 5 5 12 6 15 7 2 8 3 9 13 10 16 11 1 12
REMARK SMILES IDX 4 13 14 14 31 15 17 16 18 17 30 18 32 19 19 20 29 21 28 22
REMARK SMILES IDX 21 23 20 24 25 25 22 26 23 27 26 28 27 29 8 30 9 31 10 32
REMARK SMILES IDX 24 33
REMARK H PARENT 24 34
REMARK Flexibility Score: inf
ROOT
ATOM      1  C   UNL     1      14.840  13.713  45.482  1.00  0.00     0.017 C 
ATOM      2  C   UNL     1      15.011  12.486  44.519  1.00  0.00     0.014 C 
ATOM      3  C   UNL     1      16.227  14.392  45.767  1.00  0.00     0.014 C 
ATOM      4  C   UNL     1      13.784  14.718  44.888  1.00  0.00     0.030 C 
ATOM      5  C   UNL     1      13.701  11.755  44.231  1.00  0.00     0.004 C 
ATOM      6  C   UNL     1      16.515  15.766  45.112  1.00  0.00     0.013 C 
ATOM      7  C   UNL     1      14.352  15.818  43.930  1.00  0.00    -0.063 C 
ATOM      8  C   UNL     1      12.456  13.948  44.462  1.00  0.00    -0.003 C 
ATOM      9  C   UNL     1      12.671  12.690  43.583  1.00  0.00    -0.011 C 
ATOM     10  C   UNL     1      15.901  15.987  43.696  1.00  0.00    -0.006 C 
ATOM     11  C   UNL     1      13.538  16.906  43.812  1.00  0.00    -0.027 C 
ATOM     12  C   UNL     1      11.291  14.795  43.922  1.00  0.00     0.008 C 
ATOM     13  C   UNL     1      12.997  13.022  42.117  1.00  0.00     0.008 C 
ATOM     14  C   UNL     1      16.519  14.895  42.757  1.00  0.00     0.017 C 
ATOM     15  C   UNL     1      16.289  17.453  43.069  1.00  0.00    -0.020 C 
ATOM     16  C   UNL     1      13.924  18.235  43.262  1.00  0.00     0.032 C 
ATOM     17  C   UNL     1      15.372  18.567  43.665  1.00  0.00     0.006 C 
ATOM     18  C   UNL     1      17.751  17.844  43.415  1.00  0.00     0.008 C 
ATOM     19  C   UNL     1      16.124  17.415  41.508  1.00  0.00     0.012 C 
ATOM     20  C   UNL     1      15.780  20.127  43.517  1.00  0.00    -0.025 C 
ATOM     21  C   UNL     1      18.146  19.214  42.883  1.00  0.00     0.005 C 
ATOM     22  C   UNL     1      17.356  20.361  43.574  1.00  0.00     0.003 C 
ATOM     23  C   UNL     1      15.175  20.851  42.250  1.00  0.00     0.010 C 
ATOM     24  C   UNL     1      15.136  20.796  44.787  1.00  0.00     0.012 C 
ATOM     25  C   UNL     1      17.843  21.784  43.039  1.00  0.00    -0.006 C 
ATOM     26  C   UNL     1      16.161  21.207  41.119  1.00  0.00     0.033 C 
ATOM     27  C   UNL     1      17.397  22.023  41.546  1.00  0.00     0.120 C 
ATOM     28  C   UNL     1      19.391  21.917  43.184  1.00  0.00     0.014 C 
ATOM     29  C   UNL     1      17.274  22.944  43.906  1.00  0.00     0.014 C 
ENDROOT
BRANCH   1  30
ATOM     30  C   UNL     1      14.361  13.168  46.836  1.00  0.00     0.048 C 
ATOM     31  O   UNL     1      14.904  12.144  47.335  1.00  0.00    -0.550 OA
ATOM     32  O   UNL     1      13.426  13.856  47.603  1.00  0.00    -0.550 OA
ENDBRANCH   1  30
BRANCH  27  33
ATOM     33  O   UNL     1      18.435  21.721  40.642  1.00  0.00    -0.393 OA
ATOM     34  H   UNL     1      18.703  22.572  40.204  1.00  0.00     0.210 HD
ENDBRANCH  27  33
TORSDOF 2
ENDMDL
MODEL 8
REMARK VINA RESULT:    -8.600      2.222      3.897
REMARK INTER + INTRA:          -9.165
REMARK INTER:                  -9.208
REMARK INTRA:                   0.043
REMARK UNBOUND:                 0.189
REMARK SMILES C[C@H]1[C@@H](C)CC[C@@]2(C(=O)[O-])CC[C@@]3(C)C(=CC[C@@H]4[C@]5(C)CC[C@H](O)C(C)(C)[C@@H]5CC[C@]43C)[C@@H]12
REMARK SMILES IDX 7 1 6 2 11 3 33 4 5 5 12 6 15 7 2 8 3 9 13 10 16 11 1 12
REMARK SMILES IDX 4 13 14 14 31 15 17 16 18 17 30 18 32 19 19 20 29 21 28 22
REMARK SMILES IDX 21 23 20 24 25 25 22 26 23 27 26 28 27 29 8 30 9 31 10 32
REMARK SMILES IDX 24 33
REMARK H PARENT 24 34
REMARK Flexibility Score: inf
ROOT
ATOM      1  C   UNL     1      18.769  21.309  42.918  1.00  0.00     0.017 C 
ATOM      2  C   UNL     1      18.550  22.531  43.878  1.00  0.00     0.014 C 
ATOM      3  C   UNL     1      19.505  20.140  43.666  1.00  0.00     0.014 C 
ATOM      4  C   UNL     1      17.394  20.860  42.298  1.00  0.00     0.030 C 
ATOM      5  C   UNL     1      17.872  23.720  43.199  1.00  0.00     0.004 C 
ATOM      6  C   UNL     1      18.684  18.880  44.036  1.00  0.00     0.013 C 
ATOM      7  C   UNL     1      16.588  19.800  43.120  1.00  0.00    -0.063 C 
ATOM      8  C   UNL     1      16.614  22.114  41.699  1.00  0.00    -0.003 C 
ATOM      9  C   UNL     1      16.494  23.335  42.646  1.00  0.00    -0.011 C 
ATOM     10  C   UNL     1      17.190  19.126  44.411  1.00  0.00    -0.006 C 
ATOM     11  C   UNL     1      15.679  19.112  42.372  1.00  0.00    -0.027 C 
ATOM     12  C   UNL     1      15.274  21.841  40.992  1.00  0.00     0.008 C 
ATOM     13  C   UNL     1      15.434  23.149  43.745  1.00  0.00     0.008 C 
ATOM     14  C   UNL     1      17.186  20.059  45.669  1.00  0.00     0.017 C 
ATOM     15  C   UNL     1      16.413  17.740  44.822  1.00  0.00    -0.020 C 
ATOM     16  C   UNL     1      15.007  17.840  42.759  1.00  0.00     0.032 C 
ATOM     17  C   UNL     1      15.986  16.950  43.545  1.00  0.00     0.006 C 
ATOM     18  C   UNL     1      17.336  16.799  45.643  1.00  0.00     0.008 C 
ATOM     19  C   UNL     1      15.143  18.086  45.676  1.00  0.00     0.012 C 
ATOM     20  C   UNL     1      15.554  15.393  43.656  1.00  0.00    -0.025 C 
ATOM     21  C   UNL     1      16.669  15.485  46.018  1.00  0.00     0.005 C 
ATOM     22  C   UNL     1      16.371  14.603  44.773  1.00  0.00     0.003 C 
ATOM     23  C   UNL     1      14.005  15.149  43.850  1.00  0.00     0.010 C 
ATOM     24  C   UNL     1      15.944  14.804  42.249  1.00  0.00     0.012 C 
ATOM     25  C   UNL     1      15.733  13.206  45.209  1.00  0.00    -0.006 C 
ATOM     26  C   UNL     1      13.551  14.650  45.236  1.00  0.00     0.033 C 
ATOM     27  C   UNL     1      14.266  13.387  45.756  1.00  0.00     0.120 C 
ATOM     28  C   UNL     1      16.638  12.504  46.269  1.00  0.00     0.014 C 
ATOM     29  C   UNL     1      15.686  12.204  44.020  1.00  0.00     0.014 C 
ENDROOT
BRANCH   1  30
ATOM     30  C   UNL     1      19.735  21.763  41.813  1.00  0.00     0.048 C 
ATOM     31  O   UNL     1      19.423  21.613  40.599  1.00  0.00    -0.550 OA
ATOM     32  O   UNL     1      20.897  22.468  42.111  1.00  0.00    -0.550 OA
ENDBRANCH   1  30
BRANCH  27  33
ATOM     33  O   UNL     1      14.242  13.438  47.164  1.00  0.00    -0.393 OA
ATOM     34  H   UNL     1      14.933  14.093  47.448  1.00  0.00     0.210 HD
ENDBRANCH  27  33
TORSDOF 2
ENDMDL
MODEL 9
REMARK VINA RESULT:    -8.436      3.198      8.718
REMARK INTER + INTRA:          -8.986
REMARK INTER:                  -8.915
REMARK INTRA:                  -0.071
REMARK UNBOUND:                 0.189
REMARK SMILES C[C@H]1[C@@H](C)CC[C@@]2(C(=O)[O-])CC[C@@]3(C)C(=CC[C@@H]4[C@]5(C)CC[C@H](O)C(C)(C)[C@@H]5CC[C@]43C)[C@@H]12
REMARK SMILES IDX 7 1 6 2 11 3 33 4 5 5 12 6 15 7 2 8 3 9 13 10 16 11 1 12
REMARK SMILES IDX 4 13 14 14 31 15 17 16 18 17 30 18 32 19 19 20 29 21 28 22
REMARK SMILES IDX 21 23 20 24 25 25 22 26 23 27 26 28 27 29 8 30 9 31 10 32
REMARK SMILES IDX 24 33
REMARK H PARENT 24 34
REMARK Flexibility Score: inf
ROOT
ATOM      1  C   UNL     1      10.479  12.357  46.512  1.00  0.00     0.017 C 
ATOM      2  C   UNL     1      11.025  11.018  47.122  1.00  0.00     0.014 C 
ATOM      3  C   UNL     1      11.034  13.595  47.302  1.00  0.00     0.014 C 
ATOM      4  C   UNL     1      10.811  12.421  44.974  1.00  0.00     0.030 C 
ATOM      5  C   UNL     1      10.490   9.770  46.421  1.00  0.00     0.004 C 
ATOM      6  C   UNL     1      12.111  14.474  46.618  1.00  0.00     0.013 C 
ATOM      7  C   UNL     1      12.190  13.060  44.600  1.00  0.00    -0.063 C 
ATOM      8  C   UNL     1      10.375  11.070  44.251  1.00  0.00    -0.003 C 
ATOM      9  C   UNL     1      10.859   9.766  44.932  1.00  0.00    -0.011 C 
ATOM     10  C   UNL     1      13.114  13.722  45.689  1.00  0.00    -0.006 C 
ATOM     11  C   UNL     1      12.245  13.512  43.314  1.00  0.00    -0.027 C 
ATOM     12  C   UNL     1      10.568  10.991  42.726  1.00  0.00     0.008 C 
ATOM     13  C   UNL     1      12.347   9.467  44.682  1.00  0.00     0.008 C 
ATOM     14  C   UNL     1      13.873  12.686  46.587  1.00  0.00     0.017 C 
ATOM     15  C   UNL     1      14.237  14.728  45.040  1.00  0.00    -0.020 C 
ATOM     16  C   UNL     1      13.262  14.447  42.757  1.00  0.00     0.032 C 
ATOM     17  C   UNL     1      13.645  15.495  43.816  1.00  0.00     0.006 C 
ATOM     18  C   UNL     1      14.692  15.802  46.065  1.00  0.00     0.008 C 
ATOM     19  C   UNL     1      15.485  13.893  44.584  1.00  0.00     0.012 C 
ATOM     20  C   UNL     1      14.395  16.809  43.236  1.00  0.00    -0.025 C 
ATOM     21  C   UNL     1      15.708  16.779  45.496  1.00  0.00     0.005 C 
ATOM     22  C   UNL     1      15.101  17.671  44.376  1.00  0.00     0.003 C 
ATOM     23  C   UNL     1      15.418  16.523  42.067  1.00  0.00     0.010 C 
ATOM     24  C   UNL     1      13.220  17.662  42.628  1.00  0.00     0.012 C 
ATOM     25  C   UNL     1      16.176  18.727  43.849  1.00  0.00    -0.006 C 
ATOM     26  C   UNL     1      16.914  16.675  42.404  1.00  0.00     0.033 C 
ATOM     27  C   UNL     1      17.323  18.024  43.029  1.00  0.00     0.120 C 
ATOM     28  C   UNL     1      16.765  19.541  45.043  1.00  0.00     0.014 C 
ATOM     29  C   UNL     1      15.518  19.803  42.938  1.00  0.00     0.014 C 
ENDROOT
BRANCH   1  30
ATOM     30  C   UNL     1       8.959  12.374  46.735  1.00  0.00     0.048 C 
ATOM     31  O   UNL     1       8.476  12.009  47.842  1.00  0.00    -0.550 OA
ATOM     32  O   UNL     1       8.094  12.915  45.787  1.00  0.00    -0.550 OA
ENDBRANCH   1  30
BRANCH  27  33
ATOM     33  O   UNL     1      18.461  17.792  43.826  1.00  0.00    -0.393 OA
ATOM     34  H   UNL     1      19.067  17.197  43.310  1.00  0.00     0.210 HD
ENDBRANCH  27  33
TORSDOF 2
ENDMDL
