MODEL 1
REMARK VINA RESULT:    -5.429      0.000      0.000
REMARK INTER + INTRA:         -18.031
REMARK INTER:                 -14.317
REMARK INTRA:                  -3.714
REMARK UNBOUND:                -3.714
REMARK SMILES CCCCCCCCCCCCCCCCCCCCCCCCCCCCCC(=O)[O-]
REMARK SMILES IDX 16 1 17 2 18 3 19 4 20 5 21 6 22 7 23 8 24 9 25 10 26 11
REMARK SMILES IDX 27 12 28 13 29 14 30 15 31 16 32 17 15 18 14 19 13 20 12 21
REMARK SMILES IDX 11 22 10 23 9 24 8 25 7 26 6 27 5 28 4 29 3 30 2 31 1 32
REMARK H PARENT
REMARK Flexibility Score: inf
ROOT
ATOM      1  C   UNL     1       3.502 -29.246   3.639  1.00  0.00     0.000 C 
ENDROOT
BRANCH   1   2
ATOM      2  C   UNL     1       2.917 -30.031   4.827  1.00  0.00     0.000 C 
BRANCH   2   3
ATOM      3  C   UNL     1       3.904 -31.066   5.393  1.00  0.00     0.000 C 
BRANCH   3   4
ATOM      4  C   UNL     1       5.357 -30.557   5.403  1.00  0.00     0.000 C 
BRANCH   4   5
ATOM      5  C   UNL     1       6.329 -31.556   4.743  1.00  0.00     0.000 C 
BRANCH   5   6
ATOM      6  C   UNL     1       5.884 -32.024   3.347  1.00  0.00     0.000 C 
BRANCH   6   7
ATOM      7  C   UNL     1       6.683 -31.365   2.211  1.00  0.00     0.000 C 
BRANCH   7   8
ATOM      8  C   UNL     1       6.910 -29.864   2.444  1.00  0.00     0.000 C 
BRANCH   8   9
ATOM      9  C   UNL     1       8.386 -29.462   2.309  1.00  0.00     0.000 C 
BRANCH   9  10
ATOM     10  C   UNL     1       8.843 -28.488   3.410  1.00  0.00     0.000 C 
BRANCH  10  11
ATOM     11  C   UNL     1       9.053 -29.165   4.781  1.00  0.00     0.000 C 
BRANCH  11  12
ATOM     12  C   UNL     1       9.873 -30.463   4.670  1.00  0.00     0.000 C 
BRANCH  12  13
ATOM     13  C   UNL     1      10.008 -31.210   6.008  1.00  0.00     0.006 C 
BRANCH  13  14
ATOM     14  C   UNL     1       9.842 -30.311   7.246  1.00  0.00     0.053 C 
BRANCH  14  15
ATOM     15  C   UNL     1       8.762 -30.790   8.169  1.00  0.00     0.041 C 
ATOM     16  O   UNL     1       8.501 -30.157   9.226  1.00  0.00    -0.550 OA
ATOM     17  O   UNL     1       8.019 -31.917   7.842  1.00  0.00    -0.550 OA
ENDBRANCH  14  15
ENDBRANCH  13  14
ENDBRANCH  12  13
ENDBRANCH  11  12
ENDBRANCH  10  11
ENDBRANCH   9  10
ENDBRANCH   8   9
ENDBRANCH   7   8
ENDBRANCH   6   7
ENDBRANCH   5   6
ENDBRANCH   4   5
ENDBRANCH   3   4
ENDBRANCH   2   3
ENDBRANCH   1   2
BRANCH   1  18
ATOM     18  C   UNL     1       2.914 -29.696   2.284  1.00  0.00     0.000 C 
BRANCH  18  19
ATOM     19  C   UNL     1       3.460 -28.909   1.079  1.00  0.00     0.000 C 
BRANCH  19  20
ATOM     20  C   UNL     1       2.384 -28.310   0.153  1.00  0.00     0.000 C 
BRANCH  20  21
ATOM     21  C   UNL     1       1.268 -27.522   0.870  1.00  0.00     0.000 C 
BRANCH  21  22
ATOM     22  C   UNL     1       0.010 -27.245   0.024  1.00  0.00     0.000 C 
BRANCH  22  23
ATOM     23  C   UNL     1      -0.005 -25.882  -0.692  1.00  0.00     0.000 C 
BRANCH  23  24
ATOM     24  C   UNL     1      -1.415 -25.440  -1.107  1.00  0.00    -0.000 C 
BRANCH  24  25
ATOM     25  C   UNL     1      -1.851 -24.197  -0.314  1.00  0.00    -0.000 C 
BRANCH  25  26
ATOM     26  C   UNL     1      -3.190 -24.390   0.414  1.00  0.00    -0.000 C 
BRANCH  26  27
ATOM     27  C   UNL     1      -3.385 -25.829   0.927  1.00  0.00    -0.000 C 
BRANCH  27  28
ATOM     28  C   UNL     1      -4.634 -26.499   0.330  1.00  0.00    -0.000 C 
BRANCH  28  29
ATOM     29  C   UNL     1      -5.610 -25.484  -0.291  1.00  0.00    -0.000 C 
BRANCH  29  30
ATOM     30  C   UNL     1      -6.100 -25.911  -1.684  1.00  0.00    -0.000 C 
BRANCH  30  31
ATOM     31  C   UNL     1      -5.059 -25.646  -2.781  1.00  0.00    -0.003 C 
ATOM     32  C   UNL     1      -4.761 -24.155  -2.909  1.00  0.00     0.004 C 
ENDBRANCH  30  31
ENDBRANCH  29  30
ENDBRANCH  28  29
ENDBRANCH  27  28
ENDBRANCH  26  27
ENDBRANCH  25  26
ENDBRANCH  24  25
ENDBRANCH  23  24
ENDBRANCH  22  23
ENDBRANCH  21  22
ENDBRANCH  20  21
ENDBRANCH  19  20
ENDBRANCH  18  19
ENDBRANCH   1  18
TORSDOF 28
ENDMDL
MODEL 2
REMARK VINA RESULT:    -5.411      4.706     12.762
REMARK INTER + INTRA:         -17.981
REMARK INTER:                 -14.860
REMARK INTRA:                  -3.121
REMARK UNBOUND:                -3.714
REMARK SMILES CCCCCCCCCCCCCCCCCCCCCCCCCCCCCC(=O)[O-]
REMARK SMILES IDX 16 1 17 2 18 3 19 4 20 5 21 6 22 7 23 8 24 9 25 10 26 11
REMARK SMILES IDX 27 12 28 13 29 14 30 15 31 16 32 17 15 18 14 19 13 20 12 21
REMARK SMILES IDX 11 22 10 23 9 24 8 25 7 26 6 27 5 28 4 29 3 30 2 31 1 32
REMARK H PARENT
REMARK Flexibility Score: inf
ROOT
ATOM      1  C   UNL     1       3.449 -29.243   3.683  1.00  0.00     0.000 C 
ENDROOT
BRANCH   1   2
ATOM      2  C   UNL     1       3.198 -29.544   2.195  1.00  0.00     0.000 C 
BRANCH   2   3
ATOM      3  C   UNL     1       2.393 -28.434   1.497  1.00  0.00     0.000 C 
BRANCH   3   4
ATOM      4  C   UNL     1       2.764 -28.275   0.012  1.00  0.00     0.000 C 
BRANCH   4   5
ATOM      5  C   UNL     1       1.719 -27.449  -0.765  1.00  0.00     0.000 C 
BRANCH   5   6
ATOM      6  C   UNL     1       0.383 -27.281  -0.021  1.00  0.00     0.000 C 
BRANCH   6   7
ATOM      7  C   UNL     1      -0.172 -25.850  -0.103  1.00  0.00     0.000 C 
BRANCH   7   8
ATOM      8  C   UNL     1      -0.703 -25.502  -1.502  1.00  0.00     0.000 C 
BRANCH   8   9
ATOM      9  C   UNL     1      -1.936 -24.587  -1.456  1.00  0.00     0.000 C 
BRANCH   9  10
ATOM     10  C   UNL     1      -2.138 -23.926  -0.081  1.00  0.00     0.000 C 
BRANCH  10  11
ATOM     11  C   UNL     1      -3.581 -24.047   0.453  1.00  0.00     0.000 C 
BRANCH  11  12
ATOM     12  C   UNL     1      -3.850 -25.419   1.098  1.00  0.00     0.000 C 
BRANCH  12  13
ATOM     13  C   UNL     1      -4.438 -26.446   0.115  1.00  0.00     0.006 C 
BRANCH  13  14
ATOM     14  C   UNL     1      -5.700 -25.957  -0.619  1.00  0.00     0.053 C 
BRANCH  14  15
ATOM     15  C   UNL     1      -5.566 -26.026  -2.110  1.00  0.00     0.041 C 
ATOM     16  O   UNL     1      -5.901 -27.069  -2.732  1.00  0.00    -0.550 OA
ATOM     17  O   UNL     1      -5.104 -24.924  -2.818  1.00  0.00    -0.550 OA
ENDBRANCH  14  15
ENDBRANCH  13  14
ENDBRANCH  12  13
ENDBRANCH  11  12
ENDBRANCH  10  11
ENDBRANCH   9  10
ENDBRANCH   8   9
ENDBRANCH   7   8
ENDBRANCH   6   7
ENDBRANCH   5   6
ENDBRANCH   4   5
ENDBRANCH   3   4
ENDBRANCH   2   3
ENDBRANCH   1   2
BRANCH   1  18
ATOM     18  C   UNL     1       2.759 -30.258   4.618  1.00  0.00     0.000 C 
BRANCH  18  19
ATOM     19  C   UNL     1       3.679 -30.809   5.724  1.00  0.00     0.000 C 
BRANCH  19  20
ATOM     20  C   UNL     1       3.625 -32.337   5.913  1.00  0.00     0.000 C 
BRANCH  20  21
ATOM     21  C   UNL     1       4.840 -33.108   5.358  1.00  0.00     0.000 C 
BRANCH  21  22
ATOM     22  C   UNL     1       6.154 -32.305   5.289  1.00  0.00     0.000 C 
BRANCH  22  23
ATOM     23  C   UNL     1       6.920 -32.424   3.959  1.00  0.00     0.000 C 
BRANCH  23  24
ATOM     24  C   UNL     1       6.396 -31.467   2.879  1.00  0.00    -0.000 C 
BRANCH  24  25
ATOM     25  C   UNL     1       6.801 -30.018   3.193  1.00  0.00    -0.000 C 
BRANCH  25  26
ATOM     26  C   UNL     1       8.264 -29.714   2.836  1.00  0.00    -0.000 C 
BRANCH  26  27
ATOM     27  C   UNL     1       9.005 -28.962   3.956  1.00  0.00    -0.000 C 
BRANCH  27  28
ATOM     28  C   UNL     1       8.675 -29.516   5.352  1.00  0.00    -0.000 C 
BRANCH  28  29
ATOM     29  C   UNL     1       9.663 -30.606   5.804  1.00  0.00    -0.000 C 
BRANCH  29  30
ATOM     30  C   UNL     1       9.849 -30.638   7.330  1.00  0.00    -0.000 C 
BRANCH  30  31
ATOM     31  C   UNL     1       8.551 -30.327   8.089  1.00  0.00    -0.003 C 
ATOM     32  C   UNL     1       8.384 -31.247   9.295  1.00  0.00     0.004 C 
ENDBRANCH  30  31
ENDBRANCH  29  30
ENDBRANCH  28  29
ENDBRANCH  27  28
ENDBRANCH  26  27
ENDBRANCH  25  26
ENDBRANCH  24  25
ENDBRANCH  23  24
ENDBRANCH  22  23
ENDBRANCH  21  22
ENDBRANCH  20  21
ENDBRANCH  19  20
ENDBRANCH  18  19
ENDBRANCH   1  18
TORSDOF 28
ENDMDL
MODEL 3
REMARK VINA RESULT:    -5.315      2.883      5.545
REMARK INTER + INTRA:         -17.728
REMARK INTER:                 -14.596
REMARK INTRA:                  -3.132
REMARK UNBOUND:                -3.714
REMARK SMILES CCCCCCCCCCCCCCCCCCCCCCCCCCCCCC(=O)[O-]
REMARK SMILES IDX 16 1 17 2 18 3 19 4 20 5 21 6 22 7 23 8 24 9 25 10 26 11
REMARK SMILES IDX 27 12 28 13 29 14 30 15 31 16 32 17 15 18 14 19 13 20 12 21
REMARK SMILES IDX 11 22 10 23 9 24 8 25 7 26 6 27 5 28 4 29 3 30 2 31 1 32
REMARK H PARENT
REMARK Flexibility Score: inf
ROOT
ATOM      1  C   UNL     1       9.279 -29.055  -1.999  1.00  0.00     0.000 C 
ENDROOT
BRANCH   1   2
ATOM      2  C   UNL     1      10.594 -29.237  -1.221  1.00  0.00     0.000 C 
BRANCH   2   3
ATOM      3  C   UNL     1      11.027 -27.956  -0.487  1.00  0.00     0.000 C 
BRANCH   3   4
ATOM      4  C   UNL     1      11.280 -28.187   1.013  1.00  0.00     0.000 C 
BRANCH   4   5
ATOM      5  C   UNL     1      10.062 -27.796   1.876  1.00  0.00     0.000 C 
BRANCH   5   6
ATOM      6  C   UNL     1       9.579 -28.919   2.811  1.00  0.00     0.000 C 
BRANCH   6   7
ATOM      7  C   UNL     1       9.361 -30.254   2.081  1.00  0.00     0.000 C 
BRANCH   7   8
ATOM      8  C   UNL     1       7.975 -30.348   1.425  1.00  0.00     0.000 C 
BRANCH   8   9
ATOM      9  C   UNL     1       6.931 -29.460   2.119  1.00  0.00     0.000 C 
BRANCH   9  10
ATOM     10  C   UNL     1       5.491 -29.963   1.919  1.00  0.00     0.000 C 
BRANCH  10  11
ATOM     11  C   UNL     1       4.629 -29.884   3.197  1.00  0.00     0.000 C 
BRANCH  11  12
ATOM     12  C   UNL     1       4.583 -31.224   3.953  1.00  0.00     0.000 C 
BRANCH  12  13
ATOM     13  C   UNL     1       3.238 -31.477   4.656  1.00  0.00     0.006 C 
BRANCH  13  14
ATOM     14  C   UNL     1       3.238 -31.119   6.153  1.00  0.00     0.053 C 
BRANCH  14  15
ATOM     15  C   UNL     1       2.172 -30.129   6.512  1.00  0.00     0.041 C 
ATOM     16  O   UNL     1       2.464 -28.918   6.698  1.00  0.00    -0.550 OA
ATOM     17  O   UNL     1       0.847 -30.536   6.606  1.00  0.00    -0.550 OA
ENDBRANCH  14  15
ENDBRANCH  13  14
ENDBRANCH  12  13
ENDBRANCH  11  12
ENDBRANCH  10  11
ENDBRANCH   9  10
ENDBRANCH   8   9
ENDBRANCH   7   8
ENDBRANCH   6   7
ENDBRANCH   5   6
ENDBRANCH   4   5
ENDBRANCH   3   4
ENDBRANCH   2   3
ENDBRANCH   1   2
BRANCH   1  18
ATOM     18  C   UNL     1       8.470 -27.831  -1.519  1.00  0.00     0.000 C 
BRANCH  18  19
ATOM     19  C   UNL     1       6.950 -28.071  -1.473  1.00  0.00     0.000 C 
BRANCH  19  20
ATOM     20  C   UNL     1       6.119 -27.148  -2.385  1.00  0.00     0.000 C 
BRANCH  20  21
ATOM     21  C   UNL     1       4.596 -27.185  -2.141  1.00  0.00     0.000 C 
BRANCH  21  22
ATOM     22  C   UNL     1       4.140 -28.070  -0.964  1.00  0.00     0.000 C 
BRANCH  22  23
ATOM     23  C   UNL     1       2.615 -28.181  -0.787  1.00  0.00     0.000 C 
BRANCH  23  24
ATOM     24  C   UNL     1       2.199 -28.436   0.669  1.00  0.00    -0.000 C 
BRANCH  24  25
ATOM     25  C   UNL     1       0.995 -27.561   1.052  1.00  0.00    -0.000 C 
BRANCH  25  26
ATOM     26  C   UNL     1       0.678 -26.486   0.001  1.00  0.00    -0.000 C 
BRANCH  26  27
ATOM     27  C   UNL     1      -0.834 -26.283  -0.203  1.00  0.00    -0.000 C 
BRANCH  27  28
ATOM     28  C   UNL     1      -1.152 -25.004  -0.994  1.00  0.00    -0.000 C 
BRANCH  28  29
ATOM     29  C   UNL     1      -2.610 -24.544  -0.814  1.00  0.00    -0.000 C 
BRANCH  29  30
ATOM     30  C   UNL     1      -3.391 -25.426   0.173  1.00  0.00    -0.000 C 
BRANCH  30  31
ATOM     31  C   UNL     1      -4.282 -24.608   1.118  1.00  0.00    -0.003 C 
ATOM     32  C   UNL     1      -3.784 -23.169   1.235  1.00  0.00     0.004 C 
ENDBRANCH  30  31
ENDBRANCH  29  30
ENDBRANCH  28  29
ENDBRANCH  27  28
ENDBRANCH  26  27
ENDBRANCH  25  26
ENDBRANCH  24  25
ENDBRANCH  23  24
ENDBRANCH  22  23
ENDBRANCH  21  22
ENDBRANCH  20  21
ENDBRANCH  19  20
ENDBRANCH  18  19
ENDBRANCH   1  18
TORSDOF 28
ENDMDL
MODEL 4
REMARK VINA RESULT:    -5.296      4.634     12.229
REMARK INTER + INTRA:         -17.678
REMARK INTER:                 -14.339
REMARK INTRA:                  -3.339
REMARK UNBOUND:                -3.714
REMARK SMILES CCCCCCCCCCCCCCCCCCCCCCCCCCCCCC(=O)[O-]
REMARK SMILES IDX 16 1 17 2 18 3 19 4 20 5 21 6 22 7 23 8 24 9 25 10 26 11
REMARK SMILES IDX 27 12 28 13 29 14 30 15 31 16 32 17 15 18 14 19 13 20 12 21
REMARK SMILES IDX 11 22 10 23 9 24 8 25 7 26 6 27 5 28 4 29 3 30 2 31 1 32
REMARK H PARENT
REMARK Flexibility Score: inf
ROOT
ATOM      1  C   UNL     1       2.753 -29.910   4.461  1.00  0.00     0.000 C 
ENDROOT
BRANCH   1   2
ATOM      2  C   UNL     1       3.749 -29.265   3.481  1.00  0.00     0.000 C 
BRANCH   2   3
ATOM      3  C   UNL     1       3.688 -29.894   2.079  1.00  0.00     0.000 C 
BRANCH   3   4
ATOM      4  C   UNL     1       3.322 -28.874   0.986  1.00  0.00     0.000 C 
BRANCH   4   5
ATOM      5  C   UNL     1       1.972 -28.181   1.264  1.00  0.00     0.000 C 
BRANCH   5   6
ATOM      6  C   UNL     1       1.208 -27.777  -0.008  1.00  0.00     0.000 C 
BRANCH   6   7
ATOM      7  C   UNL     1       0.776 -26.302  -0.004  1.00  0.00     0.000 C 
BRANCH   7   8
ATOM      8  C   UNL     1      -0.713 -26.124  -0.340  1.00  0.00     0.000 C 
BRANCH   8   9
ATOM      9  C   UNL     1      -0.941 -25.179  -1.530  1.00  0.00     0.000 C 
BRANCH   9  10
ATOM     10  C   UNL     1      -2.217 -24.331  -1.383  1.00  0.00     0.000 C 
BRANCH  10  11
ATOM     11  C   UNL     1      -2.614 -24.067   0.085  1.00  0.00     0.000 C 
BRANCH  11  12
ATOM     12  C   UNL     1      -4.138 -24.114   0.294  1.00  0.00     0.000 C 
BRANCH  12  13
ATOM     13  C   UNL     1      -4.691 -25.546   0.401  1.00  0.00     0.006 C 
BRANCH  13  14
ATOM     14  C   UNL     1      -5.846 -25.845  -0.571  1.00  0.00     0.053 C 
BRANCH  14  15
ATOM     15  C   UNL     1      -5.429 -26.718  -1.716  1.00  0.00     0.041 C 
ATOM     16  O   UNL     1      -4.707 -26.255  -2.639  1.00  0.00    -0.550 OA
ATOM     17  O   UNL     1      -5.807 -28.054  -1.745  1.00  0.00    -0.550 OA
ENDBRANCH  14  15
ENDBRANCH  13  14
ENDBRANCH  12  13
ENDBRANCH  11  12
ENDBRANCH  10  11
ENDBRANCH   9  10
ENDBRANCH   8   9
ENDBRANCH   7   8
ENDBRANCH   6   7
ENDBRANCH   5   6
ENDBRANCH   4   5
ENDBRANCH   3   4
ENDBRANCH   2   3
ENDBRANCH   1   2
BRANCH   1  18
ATOM     18  C   UNL     1       3.231 -29.837   5.927  1.00  0.00     0.000 C 
BRANCH  18  19
ATOM     19  C   UNL     1       3.608 -31.204   6.526  1.00  0.00     0.000 C 
BRANCH  19  20
ATOM     20  C   UNL     1       2.829 -32.402   5.951  1.00  0.00     0.000 C 
BRANCH  20  21
ATOM     21  C   UNL     1       3.683 -33.649   5.639  1.00  0.00     0.000 C 
BRANCH  21  22
ATOM     22  C   UNL     1       5.124 -33.360   5.175  1.00  0.00     0.000 C 
BRANCH  22  23
ATOM     23  C   UNL     1       5.251 -32.846   3.730  1.00  0.00     0.000 C 
BRANCH  23  24
ATOM     24  C   UNL     1       6.450 -31.908   3.532  1.00  0.00    -0.000 C 
BRANCH  24  25
ATOM     25  C   UNL     1       7.157 -31.638   4.869  1.00  0.00    -0.000 C 
BRANCH  25  26
ATOM     26  C   UNL     1       7.065 -30.168   5.309  1.00  0.00    -0.000 C 
BRANCH  26  27
ATOM     27  C   UNL     1       8.347 -29.374   4.999  1.00  0.00    -0.000 C 
BRANCH  27  28
ATOM     28  C   UNL     1       9.490 -30.277   4.506  1.00  0.00    -0.000 C 
BRANCH  28  29
ATOM     29  C   UNL     1       9.965 -29.910   3.089  1.00  0.00    -0.000 C 
BRANCH  29  30
ATOM     30  C   UNL     1       8.853 -29.274   2.239  1.00  0.00    -0.000 C 
BRANCH  30  31
ATOM     31  C   UNL     1       9.306 -27.980   1.548  1.00  0.00    -0.003 C 
ATOM     32  C   UNL     1      10.820 -27.958   1.359  1.00  0.00     0.004 C 
ENDBRANCH  30  31
ENDBRANCH  29  30
ENDBRANCH  28  29
ENDBRANCH  27  28
ENDBRANCH  26  27
ENDBRANCH  25  26
ENDBRANCH  24  25
ENDBRANCH  23  24
ENDBRANCH  22  23
ENDBRANCH  21  22
ENDBRANCH  20  21
ENDBRANCH  19  20
ENDBRANCH  18  19
ENDBRANCH   1  18
TORSDOF 28
ENDMDL
MODEL 5
REMARK VINA RESULT:    -5.289      3.390      4.560
REMARK INTER + INTRA:         -17.660
REMARK INTER:                 -14.782
REMARK INTRA:                  -2.878
REMARK UNBOUND:                -3.714
REMARK SMILES CCCCCCCCCCCCCCCCCCCCCCCCCCCCCC(=O)[O-]
REMARK SMILES IDX 16 1 17 2 18 3 19 4 20 5 21 6 22 7 23 8 24 9 25 10 26 11
REMARK SMILES IDX 27 12 28 13 29 14 30 15 31 16 32 17 15 18 14 19 13 20 12 21
REMARK SMILES IDX 11 22 10 23 9 24 8 25 7 26 6 27 5 28 4 29 3 30 2 31 1 32
REMARK H PARENT
REMARK Flexibility Score: inf
ROOT
ATOM      1  C   UNL     1       4.475 -29.811   2.400  1.00  0.00     0.000 C 
ENDROOT
BRANCH   1   2
ATOM      2  C   UNL     1       3.353 -29.254   3.294  1.00  0.00     0.000 C 
BRANCH   2   3
ATOM      3  C   UNL     1       3.516 -29.662   4.768  1.00  0.00     0.000 C 
BRANCH   3   4
ATOM      4  C   UNL     1       3.819 -31.161   4.939  1.00  0.00     0.000 C 
BRANCH   4   5
ATOM      5  C   UNL     1       5.083 -31.408   5.788  1.00  0.00     0.000 C 
BRANCH   5   6
ATOM      6  C   UNL     1       6.382 -31.462   4.966  1.00  0.00     0.000 C 
BRANCH   6   7
ATOM      7  C   UNL     1       7.256 -30.211   5.143  1.00  0.00     0.000 C 
BRANCH   7   8
ATOM      8  C   UNL     1       8.072 -29.879   3.884  1.00  0.00     0.000 C 
BRANCH   8   9
ATOM      9  C   UNL     1       8.896 -28.591   4.037  1.00  0.00     0.000 C 
BRANCH   9  10
ATOM     10  C   UNL     1       9.137 -27.873   2.697  1.00  0.00     0.000 C 
BRANCH  10  11
ATOM     11  C   UNL     1      10.125 -28.614   1.771  1.00  0.00     0.000 C 
BRANCH  11  12
ATOM     12  C   UNL     1       9.809 -28.389   0.282  1.00  0.00     0.000 C 
BRANCH  12  13
ATOM     13  C   UNL     1       8.310 -28.174   0.008  1.00  0.00     0.006 C 
BRANCH  13  14
ATOM     14  C   UNL     1       7.842 -28.705  -1.359  1.00  0.00     0.053 C 
BRANCH  14  15
ATOM     15  C   UNL     1       7.242 -27.636  -2.221  1.00  0.00     0.041 C 
ATOM     16  O   UNL     1       7.944 -26.667  -2.616  1.00  0.00    -0.550 OA
ATOM     17  O   UNL     1       5.914 -27.728  -2.619  1.00  0.00    -0.550 OA
ENDBRANCH  14  15
ENDBRANCH  13  14
ENDBRANCH  12  13
ENDBRANCH  11  12
ENDBRANCH  10  11
ENDBRANCH   9  10
ENDBRANCH   8   9
ENDBRANCH   7   8
ENDBRANCH   6   7
ENDBRANCH   5   6
ENDBRANCH   4   5
ENDBRANCH   3   4
ENDBRANCH   2   3
ENDBRANCH   1   2
BRANCH   1  18
ATOM     18  C   UNL     1       4.422 -29.252   0.963  1.00  0.00     0.000 C 
BRANCH  18  19
ATOM     19  C   UNL     1       3.073 -28.605   0.598  1.00  0.00     0.000 C 
BRANCH  19  20
ATOM     20  C   UNL     1       2.992 -28.032  -0.830  1.00  0.00     0.000 C 
BRANCH  20  21
ATOM     21  C   UNL     1       1.779 -27.119  -1.101  1.00  0.00     0.000 C 
BRANCH  21  22
ATOM     22  C   UNL     1       0.879 -26.841   0.120  1.00  0.00     0.000 C 
BRANCH  22  23
ATOM     23  C   UNL     1      -0.563 -26.420  -0.218  1.00  0.00     0.000 C 
BRANCH  23  24
ATOM     24  C   UNL     1      -0.648 -25.519  -1.459  1.00  0.00    -0.000 C 
BRANCH  24  25
ATOM     25  C   UNL     1      -1.711 -24.427  -1.265  1.00  0.00    -0.000 C 
BRANCH  25  26
ATOM     26  C   UNL     1      -1.412 -23.504  -0.074  1.00  0.00    -0.000 C 
BRANCH  26  27
ATOM     27  C   UNL     1      -2.642 -23.274   0.823  1.00  0.00    -0.000 C 
BRANCH  27  28
ATOM     28  C   UNL     1      -3.904 -23.958   0.273  1.00  0.00    -0.000 C 
BRANCH  28  29
ATOM     29  C   UNL     1      -4.424 -25.073   1.199  1.00  0.00    -0.000 C 
BRANCH  29  30
ATOM     30  C   UNL     1      -4.162 -26.479   0.636  1.00  0.00    -0.000 C 
BRANCH  30  31
ATOM     31  C   UNL     1      -4.793 -26.686  -0.748  1.00  0.00    -0.003 C 
ATOM     32  C   UNL     1      -6.271 -26.305  -0.743  1.00  0.00     0.004 C 
ENDBRANCH  30  31
ENDBRANCH  29  30
ENDBRANCH  28  29
ENDBRANCH  27  28
ENDBRANCH  26  27
ENDBRANCH  25  26
ENDBRANCH  24  25
ENDBRANCH  23  24
ENDBRANCH  22  23
ENDBRANCH  21  22
ENDBRANCH  20  21
ENDBRANCH  19  20
ENDBRANCH  18  19
ENDBRANCH   1  18
TORSDOF 28
ENDMDL
MODEL 6
REMARK VINA RESULT:    -5.285      1.244      2.594
REMARK INTER + INTRA:         -17.649
REMARK INTER:                 -13.976
REMARK INTRA:                  -3.673
REMARK UNBOUND:                -3.714
REMARK SMILES CCCCCCCCCCCCCCCCCCCCCCCCCCCCCC(=O)[O-]
REMARK SMILES IDX 16 1 17 2 18 3 19 4 20 5 21 6 22 7 23 8 24 9 25 10 26 11
REMARK SMILES IDX 27 12 28 13 29 14 30 15 31 16 32 17 15 18 14 19 13 20 12 21
REMARK SMILES IDX 11 22 10 23 9 24 8 25 7 26 6 27 5 28 4 29 3 30 2 31 1 32
REMARK H PARENT
REMARK Flexibility Score: inf
ROOT
ATOM      1  C   UNL     1       4.238 -29.249   1.207  1.00  0.00     0.000 C 
ENDROOT
BRANCH   1   2
ATOM      2  C   UNL     1       4.203 -29.807   2.641  1.00  0.00     0.000 C 
BRANCH   2   3
ATOM      3  C   UNL     1       3.142 -29.117   3.516  1.00  0.00     0.000 C 
BRANCH   3   4
ATOM      4  C   UNL     1       3.162 -29.611   4.973  1.00  0.00     0.000 C 
BRANCH   4   5
ATOM      5  C   UNL     1       4.300 -30.620   5.232  1.00  0.00     0.000 C 
BRANCH   5   6
ATOM      6  C   UNL     1       3.823 -31.951   5.838  1.00  0.00     0.000 C 
BRANCH   6   7
ATOM      7  C   UNL     1       4.621 -33.162   5.328  1.00  0.00     0.000 C 
BRANCH   7   8
ATOM      8  C   UNL     1       4.660 -33.238   3.794  1.00  0.00     0.000 C 
BRANCH   8   9
ATOM      9  C   UNL     1       6.065 -33.546   3.253  1.00  0.00     0.000 C 
BRANCH   9  10
ATOM     10  C   UNL     1       7.070 -32.413   3.521  1.00  0.00     0.000 C 
BRANCH  10  11
ATOM     11  C   UNL     1       7.417 -31.588   2.262  1.00  0.00     0.000 C 
BRANCH  11  12
ATOM     12  C   UNL     1       8.058 -30.233   2.612  1.00  0.00     0.000 C 
BRANCH  12  13
ATOM     13  C   UNL     1       7.643 -29.707   3.998  1.00  0.00     0.006 C 
BRANCH  13  14
ATOM     14  C   UNL     1       8.820 -29.218   4.859  1.00  0.00     0.053 C 
BRANCH  14  15
ATOM     15  C   UNL     1       9.285 -30.248   5.844  1.00  0.00     0.041 C 
ATOM     16  O   UNL     1       9.859 -31.296   5.446  1.00  0.00    -0.550 OA
ATOM     17  O   UNL     1       9.116 -30.033   7.206  1.00  0.00    -0.550 OA
ENDBRANCH  14  15
ENDBRANCH  13  14
ENDBRANCH  12  13
ENDBRANCH  11  12
ENDBRANCH  10  11
ENDBRANCH   9  10
ENDBRANCH   8   9
ENDBRANCH   7   8
ENDBRANCH   6   7
ENDBRANCH   5   6
ENDBRANCH   4   5
ENDBRANCH   3   4
ENDBRANCH   2   3
ENDBRANCH   1   2
BRANCH   1  18
ATOM     18  C   UNL     1       2.942 -28.500   0.831  1.00  0.00     0.000 C 
BRANCH  18  19
ATOM     19  C   UNL     1       2.908 -28.014  -0.630  1.00  0.00     0.000 C 
BRANCH  19  20
ATOM     20  C   UNL     1       1.661 -27.196  -1.014  1.00  0.00     0.000 C 
BRANCH  20  21
ATOM     21  C   UNL     1       0.516 -27.225   0.020  1.00  0.00     0.000 C 
BRANCH  21  22
ATOM     22  C   UNL     1      -0.426 -26.005  -0.007  1.00  0.00     0.000 C 
BRANCH  22  23
ATOM     23  C   UNL     1      -0.911 -25.589  -1.407  1.00  0.00     0.000 C 
BRANCH  23  24
ATOM     24  C   UNL     1      -1.782 -24.324  -1.388  1.00  0.00    -0.000 C 
BRANCH  24  25
ATOM     25  C   UNL     1      -2.093 -23.900   0.056  1.00  0.00    -0.000 C 
BRANCH  25  26
ATOM     26  C   UNL     1      -3.588 -23.996   0.399  1.00  0.00    -0.000 C 
BRANCH  26  27
ATOM     27  C   UNL     1      -3.920 -25.217   1.275  1.00  0.00    -0.000 C 
BRANCH  27  28
ATOM     28  C   UNL     1      -4.230 -26.470   0.441  1.00  0.00    -0.000 C 
BRANCH  28  29
ATOM     29  C   UNL     1      -5.406 -26.260  -0.529  1.00  0.00    -0.000 C 
BRANCH  29  30
ATOM     30  C   UNL     1      -4.997 -26.431  -2.000  1.00  0.00    -0.000 C 
BRANCH  30  31
ATOM     31  C   UNL     1      -5.186 -25.145  -2.818  1.00  0.00    -0.003 C 
ATOM     32  C   UNL     1      -5.616 -25.461  -4.249  1.00  0.00     0.004 C 
ENDBRANCH  30  31
ENDBRANCH  29  30
ENDBRANCH  28  29
ENDBRANCH  27  28
ENDBRANCH  26  27
ENDBRANCH  25  26
ENDBRANCH  24  25
ENDBRANCH  23  24
ENDBRANCH  22  23
ENDBRANCH  21  22
ENDBRANCH  20  21
ENDBRANCH  19  20
ENDBRANCH  18  19
ENDBRANCH   1  18
TORSDOF 28
ENDMDL
MODEL 7
REMARK VINA RESULT:    -5.280      3.833      9.368
REMARK INTER + INTRA:         -17.636
REMARK INTER:                 -13.588
REMARK INTRA:                  -4.048
REMARK UNBOUND:                -3.714
REMARK SMILES CCCCCCCCCCCCCCCCCCCCCCCCCCCCCC(=O)[O-]
REMARK SMILES IDX 16 1 17 2 18 3 19 4 20 5 21 6 22 7 23 8 24 9 25 10 26 11
REMARK SMILES IDX 27 12 28 13 29 14 30 15 31 16 32 17 15 18 14 19 13 20 12 21
REMARK SMILES IDX 11 22 10 23 9 24 8 25 7 26 6 27 5 28 4 29 3 30 2 31 1 32
REMARK H PARENT
REMARK Flexibility Score: inf
ROOT
ATOM      1  C   UNL     1       2.086 -26.848  -1.533  1.00  0.00     0.000 C 
ENDROOT
BRANCH   1   2
ATOM      2  C   UNL     1       1.438 -27.099  -0.161  1.00  0.00     0.000 C 
BRANCH   2   3
ATOM      3  C   UNL     1       1.678 -28.530   0.351  1.00  0.00     0.000 C 
BRANCH   3   4
ATOM      4  C   UNL     1       2.361 -28.561   1.730  1.00  0.00     0.000 C 
BRANCH   4   5
ATOM      5  C   UNL     1       3.837 -29.001   1.640  1.00  0.00     0.000 C 
BRANCH   5   6
ATOM      6  C   UNL     1       4.239 -30.043   2.698  1.00  0.00     0.000 C 
BRANCH   6   7
ATOM      7  C   UNL     1       5.741 -30.019   3.022  1.00  0.00     0.000 C 
BRANCH   7   8
ATOM      8  C   UNL     1       6.492 -31.222   2.430  1.00  0.00     0.000 C 
BRANCH   8   9
ATOM      9  C   UNL     1       6.152 -32.539   3.144  1.00  0.00     0.000 C 
BRANCH   9  10
ATOM     10  C   UNL     1       6.601 -32.554   4.616  1.00  0.00     0.000 C 
BRANCH  10  11
ATOM     11  C   UNL     1       5.828 -33.569   5.485  1.00  0.00     0.000 C 
BRANCH  11  12
ATOM     12  C   UNL     1       4.303 -33.402   5.358  1.00  0.00     0.000 C 
BRANCH  12  13
ATOM     13  C   UNL     1       3.777 -32.120   6.027  1.00  0.00     0.006 C 
BRANCH  13  14
ATOM     14  C   UNL     1       2.519 -31.536   5.360  1.00  0.00     0.053 C 
BRANCH  14  15
ATOM     15  C   UNL     1       2.023 -30.298   6.043  1.00  0.00     0.041 C 
ATOM     16  O   UNL     1       0.944 -30.319   6.694  1.00  0.00    -0.550 OA
ATOM     17  O   UNL     1       2.770 -29.128   5.991  1.00  0.00    -0.550 OA
ENDBRANCH  14  15
ENDBRANCH  13  14
ENDBRANCH  12  13
ENDBRANCH  11  12
ENDBRANCH  10  11
ENDBRANCH   9  10
ENDBRANCH   8   9
ENDBRANCH   7   8
ENDBRANCH   6   7
ENDBRANCH   5   6
ENDBRANCH   4   5
ENDBRANCH   3   4
ENDBRANCH   2   3
ENDBRANCH   1   2
BRANCH   1  18
ATOM     18  C   UNL     1       3.343 -27.714  -1.764  1.00  0.00     0.000 C 
BRANCH  18  19
ATOM     19  C   UNL     1       4.482 -26.973  -2.488  1.00  0.00     0.000 C 
BRANCH  19  20
ATOM     20  C   UNL     1       5.818 -27.739  -2.551  1.00  0.00     0.000 C 
BRANCH  20  21
ATOM     21  C   UNL     1       6.068 -28.715  -1.382  1.00  0.00     0.000 C 
BRANCH  21  22
ATOM     22  C   UNL     1       7.326 -28.424  -0.540  1.00  0.00     0.000 C 
BRANCH  22  23
ATOM     23  C   UNL     1       8.552 -27.958  -1.345  1.00  0.00     0.000 C 
BRANCH  23  24
ATOM     24  C   UNL     1       9.447 -29.120  -1.801  1.00  0.00    -0.000 C 
BRANCH  24  25
ATOM     25  C   UNL     1      10.804 -29.075  -1.083  1.00  0.00    -0.000 C 
BRANCH  25  26
ATOM     26  C   UNL     1      10.981 -27.821  -0.213  1.00  0.00    -0.000 C 
BRANCH  26  27
ATOM     27  C   UNL     1      11.554 -28.140   1.180  1.00  0.00    -0.000 C 
BRANCH  27  28
ATOM     28  C   UNL     1      10.768 -29.249   1.897  1.00  0.00    -0.000 C 
BRANCH  28  29
ATOM     29  C   UNL     1       9.316 -28.840   2.205  1.00  0.00    -0.000 C 
BRANCH  29  30
ATOM     30  C   UNL     1       9.106 -28.477   3.684  1.00  0.00    -0.000 C 
BRANCH  30  31
ATOM     31  C   UNL     1       9.102 -29.711   4.599  1.00  0.00    -0.003 C 
ATOM     32  C   UNL     1       8.334 -29.437   5.889  1.00  0.00     0.004 C 
ENDBRANCH  30  31
ENDBRANCH  29  30
ENDBRANCH  28  29
ENDBRANCH  27  28
ENDBRANCH  26  27
ENDBRANCH  25  26
ENDBRANCH  24  25
ENDBRANCH  23  24
ENDBRANCH  22  23
ENDBRANCH  21  22
ENDBRANCH  20  21
ENDBRANCH  19  20
ENDBRANCH  18  19
ENDBRANCH   1  18
TORSDOF 28
ENDMDL
MODEL 8
REMARK VINA RESULT:    -5.225      1.832      4.504
REMARK INTER + INTRA:         -17.491
REMARK INTER:                 -14.285
REMARK INTRA:                  -3.207
REMARK UNBOUND:                -3.714
REMARK SMILES CCCCCCCCCCCCCCCCCCCCCCCCCCCCCC(=O)[O-]
REMARK SMILES IDX 16 1 17 2 18 3 19 4 20 5 21 6 22 7 23 8 24 9 25 10 26 11
REMARK SMILES IDX 27 12 28 13 29 14 30 15 31 16 32 17 15 18 14 19 13 20 12 21
REMARK SMILES IDX 11 22 10 23 9 24 8 25 7 26 6 27 5 28 4 29 3 30 2 31 1 32
REMARK H PARENT
REMARK Flexibility Score: inf
ROOT
ATOM      1  C   UNL     1       0.299 -27.286  -0.071  1.00  0.00     0.000 C 
ENDROOT
BRANCH   1   2
ATOM      2  C   UNL     1       1.623 -27.294  -0.855  1.00  0.00     0.000 C 
BRANCH   2   3
ATOM      3  C   UNL     1       2.701 -28.161  -0.182  1.00  0.00     0.000 C 
BRANCH   3   4
ATOM      4  C   UNL     1       2.145 -29.005   0.978  1.00  0.00     0.000 C 
BRANCH   4   5
ATOM      5  C   UNL     1       2.753 -28.601   2.337  1.00  0.00     0.000 C 
BRANCH   5   6
ATOM      6  C   UNL     1       3.907 -29.510   2.794  1.00  0.00     0.000 C 
BRANCH   6   7
ATOM      7  C   UNL     1       3.942 -29.713   4.318  1.00  0.00     0.000 C 
BRANCH   7   8
ATOM      8  C   UNL     1       2.724 -30.492   4.836  1.00  0.00     0.000 C 
BRANCH   8   9
ATOM      9  C   UNL     1       3.107 -31.843   5.459  1.00  0.00     0.000 C 
BRANCH   9  10
ATOM     10  C   UNL     1       4.302 -32.508   4.754  1.00  0.00     0.000 C 
BRANCH  10  11
ATOM     11  C   UNL     1       5.096 -33.470   5.664  1.00  0.00     0.000 C 
BRANCH  11  12
ATOM     12  C   UNL     1       6.541 -32.993   5.896  1.00  0.00     0.000 C 
BRANCH  12  13
ATOM     13  C   UNL     1       6.692 -31.463   5.824  1.00  0.00     0.006 C 
BRANCH  13  14
ATOM     14  C   UNL     1       7.680 -30.883   6.852  1.00  0.00     0.053 C 
BRANCH  14  15
ATOM     15  C   UNL     1       8.931 -30.354   6.218  1.00  0.00     0.041 C 
ATOM     16  O   UNL     1       8.873 -29.411   5.385  1.00  0.00    -0.550 OA
ATOM     17  O   UNL     1      10.166 -30.878   6.576  1.00  0.00    -0.550 OA
ENDBRANCH  14  15
ENDBRANCH  13  14
ENDBRANCH  12  13
ENDBRANCH  11  12
ENDBRANCH  10  11
ENDBRANCH   9  10
ENDBRANCH   8   9
ENDBRANCH   7   8
ENDBRANCH   6   7
ENDBRANCH   5   6
ENDBRANCH   4   5
ENDBRANCH   3   4
ENDBRANCH   2   3
ENDBRANCH   1   2
BRANCH   1  18
ATOM     18  C   UNL     1      -0.366 -25.893  -0.044  1.00  0.00     0.000 C 
BRANCH  18  19
ATOM     19  C   UNL     1      -0.950 -25.457  -1.400  1.00  0.00     0.000 C 
BRANCH  19  20
ATOM     20  C   UNL     1      -1.757 -24.145  -1.369  1.00  0.00     0.000 C 
BRANCH  20  21
ATOM     21  C   UNL     1      -1.641 -23.337  -0.060  1.00  0.00     0.000 C 
BRANCH  21  22
ATOM     22  C   UNL     1      -2.929 -23.262   0.784  1.00  0.00     0.000 C 
BRANCH  22  23
ATOM     23  C   UNL     1      -4.028 -24.262   0.381  1.00  0.00     0.000 C 
BRANCH  23  24
ATOM     24  C   UNL     1      -4.048 -25.518   1.264  1.00  0.00    -0.000 C 
BRANCH  24  25
ATOM     25  C   UNL     1      -4.025 -26.789   0.401  1.00  0.00    -0.000 C 
BRANCH  25  26
ATOM     26  C   UNL     1      -4.520 -26.549  -1.034  1.00  0.00    -0.000 C 
BRANCH  26  27
ATOM     27  C   UNL     1      -5.511 -27.627  -1.509  1.00  0.00    -0.000 C 
BRANCH  27  28
ATOM     28  C   UNL     1      -6.394 -27.140  -2.670  1.00  0.00    -0.000 C 
BRANCH  28  29
ATOM     29  C   UNL     1      -7.199 -25.878  -2.312  1.00  0.00    -0.000 C 
BRANCH  29  30
ATOM     30  C   UNL     1      -7.104 -24.791  -3.394  1.00  0.00    -0.000 C 
BRANCH  30  31
ATOM     31  C   UNL     1      -5.716 -24.730  -4.049  1.00  0.00    -0.003 C 
ATOM     32  C   UNL     1      -4.849 -23.653  -3.401  1.00  0.00     0.004 C 
ENDBRANCH  30  31
ENDBRANCH  29  30
ENDBRANCH  28  29
ENDBRANCH  27  28
ENDBRANCH  26  27
ENDBRANCH  25  26
ENDBRANCH  24  25
ENDBRANCH  23  24
ENDBRANCH  22  23
ENDBRANCH  21  22
ENDBRANCH  20  21
ENDBRANCH  19  20
ENDBRANCH  18  19
ENDBRANCH   1  18
TORSDOF 28
ENDMDL
MODEL 9
REMARK VINA RESULT:    -5.173      4.437     11.183
REMARK INTER + INTRA:         -17.355
REMARK INTER:                 -13.555
REMARK INTRA:                  -3.800
REMARK UNBOUND:                -3.714
REMARK SMILES CCCCCCCCCCCCCCCCCCCCCCCCCCCCCC(=O)[O-]
REMARK SMILES IDX 16 1 17 2 18 3 19 4 20 5 21 6 22 7 23 8 24 9 25 10 26 11
REMARK SMILES IDX 27 12 28 13 29 14 30 15 31 16 32 17 15 18 14 19 13 20 12 21
REMARK SMILES IDX 11 22 10 23 9 24 8 25 7 26 6 27 5 28 4 29 3 30 2 31 1 32
REMARK H PARENT
REMARK Flexibility Score: inf
ROOT
ATOM      1  C   UNL     1       3.047 -29.631   5.073  1.00  0.00     0.000 C 
ENDROOT
BRANCH   1   2
ATOM      2  C   UNL     1       3.807 -29.629   3.735  1.00  0.00     0.000 C 
BRANCH   2   3
ATOM      3  C   UNL     1       3.047 -28.879   2.627  1.00  0.00     0.000 C 
BRANCH   3   4
ATOM      4  C   UNL     1       3.237 -29.518   1.240  1.00  0.00     0.000 C 
BRANCH   4   5
ATOM      5  C   UNL     1       4.441 -28.921   0.483  1.00  0.00     0.000 C 
BRANCH   5   6
ATOM      6  C   UNL     1       4.261 -28.894  -1.045  1.00  0.00     0.000 C 
BRANCH   6   7
ATOM      7  C   UNL     1       3.850 -27.511  -1.576  1.00  0.00     0.000 C 
BRANCH   7   8
ATOM      8  C   UNL     1       2.334 -27.388  -1.790  1.00  0.00     0.000 C 
BRANCH   8   9
ATOM      9  C   UNL     1       1.633 -26.643  -0.644  1.00  0.00     0.000 C 
BRANCH   9  10
ATOM     10  C   UNL     1       0.465 -27.440  -0.038  1.00  0.00     0.000 C 
BRANCH  10  11
ATOM     11  C   UNL     1      -0.857 -26.645   0.021  1.00  0.00     0.000 C 
BRANCH  11  12
ATOM     12  C   UNL     1      -0.736 -25.264  -0.648  1.00  0.00     0.000 C 
BRANCH  12  13
ATOM     13  C   UNL     1      -2.078 -24.731  -1.182  1.00  0.00     0.006 C 
BRANCH  13  14
ATOM     14  C   UNL     1      -3.297 -25.568  -0.756  1.00  0.00     0.053 C 
BRANCH  14  15
ATOM     15  C   UNL     1      -4.258 -24.797   0.098  1.00  0.00     0.041 C 
ATOM     16  O   UNL     1      -3.858 -23.817   0.781  1.00  0.00    -0.550 OA
ATOM     17  O   UNL     1      -5.604 -25.139   0.112  1.00  0.00    -0.550 OA
ENDBRANCH  14  15
ENDBRANCH  13  14
ENDBRANCH  12  13
ENDBRANCH  11  12
ENDBRANCH  10  11
ENDBRANCH   9  10
ENDBRANCH   8   9
ENDBRANCH   7   8
ENDBRANCH   6   7
ENDBRANCH   5   6
ENDBRANCH   4   5
ENDBRANCH   3   4
ENDBRANCH   2   3
ENDBRANCH   1   2
BRANCH   1  18
ATOM     18  C   UNL     1       3.462 -30.802   5.989  1.00  0.00     0.000 C 
BRANCH  18  19
ATOM     19  C   UNL     1       4.737 -31.530   5.527  1.00  0.00     0.000 C 
BRANCH  19  20
ATOM     20  C   UNL     1       4.686 -33.066   5.641  1.00  0.00     0.000 C 
BRANCH  20  21
ATOM     21  C   UNL     1       4.635 -33.820   4.296  1.00  0.00     0.000 C 
BRANCH  21  22
ATOM     22  C   UNL     1       5.197 -33.046   3.087  1.00  0.00     0.000 C 
BRANCH  22  23
ATOM     23  C   UNL     1       6.586 -33.506   2.609  1.00  0.00     0.000 C 
BRANCH  23  24
ATOM     24  C   UNL     1       7.526 -32.336   2.287  1.00  0.00    -0.000 C 
BRANCH  24  25
ATOM     25  C   UNL     1       6.769 -31.000   2.339  1.00  0.00    -0.000 C 
BRANCH  25  26
ATOM     26  C   UNL     1       7.362 -30.015   3.358  1.00  0.00    -0.000 C 
BRANCH  26  27
ATOM     27  C   UNL     1       8.899 -29.957   3.303  1.00  0.00    -0.000 C 
BRANCH  27  28
ATOM     28  C   UNL     1       9.427 -28.522   3.145  1.00  0.00    -0.000 C 
BRANCH  28  29
ATOM     29  C   UNL     1       9.038 -27.893   1.795  1.00  0.00    -0.000 C 
BRANCH  29  30
ATOM     30  C   UNL     1      10.065 -28.188   0.689  1.00  0.00    -0.000 C 
BRANCH  30  31
ATOM     31  C   UNL     1       9.437 -28.189  -0.712  1.00  0.00    -0.003 C 
ATOM     32  C   UNL     1       7.970 -28.606  -0.658  1.00  0.00     0.004 C 
ENDBRANCH  30  31
ENDBRANCH  29  30
ENDBRANCH  28  29
ENDBRANCH  27  28
ENDBRANCH  26  27
ENDBRANCH  25  26
ENDBRANCH  24  25
ENDBRANCH  23  24
ENDBRANCH  22  23
ENDBRANCH  21  22
ENDBRANCH  20  21
ENDBRANCH  19  20
ENDBRANCH  18  19
ENDBRANCH   1  18
TORSDOF 28
ENDMDL
