MODEL 1
REMARK VINA RESULT:    -6.415      0.000      0.000
REMARK INTER + INTRA:          -8.058
REMARK INTER:                  -7.727
REMARK INTRA:                  -0.331
REMARK UNBOUND:                -0.331
REMARK SMILES O=c1c(O)c(-c2ccc(O)c(O)c2)oc2cc(O)cc(O)c12
REMARK SMILES IDX 5 1 3 2 2 3 1 4 22 5 20 6 19 7 17 8 16 9 15 10 14 11 6 12
REMARK SMILES IDX 7 13 8 14 9 15 13 16 11 17 10 18 12 20 4 22 21 24 18 26
REMARK H PARENT 10 19 12 21 4 23 21 25 18 27
REMARK Flexibility Score: inf
ROOT
ATOM      1  C   UNL     1      -6.070 -14.247  20.098  1.00  0.00     0.180 A 
ATOM      2  C   UNL     1      -6.292 -13.895  21.440  1.00  0.00     0.208 A 
ATOM      3  C   UNL     1      -7.534 -13.351  21.805  1.00  0.00     0.238 A 
ATOM      4  O   UNL     1      -7.746 -13.086  23.016  1.00  0.00    -0.285 OA
ATOM      5  C   UNL     1      -8.532 -13.151  20.820  1.00  0.00     0.111 A 
ATOM      6  C   UNL     1      -9.812 -12.570  21.070  1.00  0.00     0.134 A 
ATOM      7  C   UNL     1     -10.768 -12.541  20.048  1.00  0.00     0.093 A 
ATOM      8  C   UNL     1     -10.471 -13.012  18.770  1.00  0.00     0.123 A 
ATOM      9  C   UNL     1      -9.203 -13.527  18.498  1.00  0.00     0.094 A 
ATOM     10  C   UNL     1      -8.239 -13.602  19.507  1.00  0.00     0.146 A 
ATOM     11  O   UNL     1      -7.049 -14.109  19.211  1.00  0.00    -0.452 OA
ENDROOT
BRANCH   1  12
ATOM     12  C   UNL     1      -4.779 -14.803  19.633  1.00  0.00     0.025 A 
ATOM     13  C   UNL     1      -4.628 -16.193  19.511  1.00  0.00     0.016 A 
ATOM     14  C   UNL     1      -3.425 -16.738  19.055  1.00  0.00     0.051 A 
ATOM     15  C   UNL     1      -2.361 -15.900  18.697  1.00  0.00     0.157 A 
ATOM     16  C   UNL     1      -3.715 -13.965  19.253  1.00  0.00     0.062 A 
ATOM     17  C   UNL     1      -2.508 -14.510  18.793  1.00  0.00     0.158 A 
BRANCH  15  18
ATOM     18  O   UNL     1      -1.159 -16.440  18.243  1.00  0.00    -0.504 OA
ATOM     19  H   UNL     1      -0.319 -15.877  18.174  1.00  0.00     0.293 HD
ENDBRANCH  15  18
BRANCH  17  20
ATOM     20  O   UNL     1      -1.452 -13.679  18.424  1.00  0.00    -0.504 OA
ATOM     21  H   UNL     1      -1.404 -13.259  17.502  1.00  0.00     0.293 HD
ENDBRANCH  17  20
ENDBRANCH   1  12
BRANCH   2  22
ATOM     22  O   UNL     1      -5.301 -14.120  22.399  1.00  0.00    -0.502 OA
ATOM     23  H   UNL     1      -4.448 -13.573  22.439  1.00  0.00     0.293 HD
ENDBRANCH   2  22
BRANCH   6  24
ATOM     24  O   UNL     1     -10.180 -11.987  22.286  1.00  0.00    -0.507 OA
ATOM     25  H   UNL     1     -11.086 -11.588  22.481  1.00  0.00     0.293 HD
ENDBRANCH   6  24
BRANCH   8  26
ATOM     26  O   UNL     1     -11.442 -12.954  17.773  1.00  0.00    -0.508 OA
ATOM     27  H   UNL     1     -12.427 -12.879  17.995  1.00  0.00     0.293 HD
ENDBRANCH   8  26
TORSDOF 6
ENDMDL
MODEL 2
REMARK VINA RESULT:    -6.312      4.165      5.823
REMARK INTER + INTRA:          -7.934
REMARK INTER:                  -7.809
REMARK INTRA:                  -0.124
REMARK UNBOUND:                -0.331
REMARK SMILES O=c1c(O)c(-c2ccc(O)c(O)c2)oc2cc(O)cc(O)c12
REMARK SMILES IDX 5 1 3 2 2 3 1 4 22 5 20 6 19 7 17 8 16 9 15 10 14 11 6 12
REMARK SMILES IDX 7 13 8 14 9 15 13 16 11 17 10 18 12 20 4 22 21 24 18 26
REMARK H PARENT 10 19 12 21 4 23 21 25 18 27
REMARK Flexibility Score: inf
ROOT
ATOM      1  C   UNL     1      -9.820 -14.897  21.872  1.00  0.00     0.180 A 
ATOM      2  C   UNL     1      -9.759 -16.189  22.423  1.00  0.00     0.208 A 
ATOM      3  C   UNL     1     -10.751 -17.122  22.081  1.00  0.00     0.238 A 
ATOM      4  O   UNL     1     -10.662 -18.292  22.535  1.00  0.00    -0.285 OA
ATOM      5  C   UNL     1     -11.800 -16.748  21.207  1.00  0.00     0.111 A 
ATOM      6  C   UNL     1     -12.879 -17.600  20.825  1.00  0.00     0.134 A 
ATOM      7  C   UNL     1     -13.789 -17.168  19.852  1.00  0.00     0.093 A 
ATOM      8  C   UNL     1     -13.697 -15.893  19.295  1.00  0.00     0.123 A 
ATOM      9  C   UNL     1     -12.680 -15.029  19.706  1.00  0.00     0.094 A 
ATOM     10  C   UNL     1     -11.737 -15.445  20.648  1.00  0.00     0.146 A 
ATOM     11  O   UNL     1     -10.779 -14.597  21.003  1.00  0.00    -0.452 OA
ENDROOT
BRANCH   1  12
ATOM     12  C   UNL     1      -8.826 -13.852  22.204  1.00  0.00     0.025 A 
ATOM     13  C   UNL     1      -7.481 -14.039  21.847  1.00  0.00     0.016 A 
ATOM     14  C   UNL     1      -6.529 -13.057  22.132  1.00  0.00     0.051 A 
ATOM     15  C   UNL     1      -6.910 -11.866  22.763  1.00  0.00     0.157 A 
ATOM     16  C   UNL     1      -9.208 -12.646  22.819  1.00  0.00     0.062 A 
ATOM     17  C   UNL     1      -8.253 -11.658  23.104  1.00  0.00     0.158 A 
BRANCH  15  18
ATOM     18  O   UNL     1      -5.964 -10.884  23.051  1.00  0.00    -0.504 OA
ATOM     19  H   UNL     1      -5.984  -9.980  22.594  1.00  0.00     0.293 HD
ENDBRANCH  15  18
BRANCH  17  20
ATOM     20  O   UNL     1      -8.632 -10.467  23.719  1.00  0.00    -0.504 OA
ATOM     21  H   UNL     1      -8.226  -9.578  23.450  1.00  0.00     0.293 HD
ENDBRANCH  17  20
ENDBRANCH   1  12
BRANCH   2  22
ATOM     22  O   UNL     1      -8.703 -16.544  23.268  1.00  0.00    -0.502 OA
ATOM     23  H   UNL     1      -7.737 -16.334  23.047  1.00  0.00     0.293 HD
ENDBRANCH   2  22
BRANCH   6  24
ATOM     24  O   UNL     1     -13.117 -18.858  21.386  1.00  0.00    -0.507 OA
ATOM     25  H   UNL     1     -13.939 -19.418  21.215  1.00  0.00     0.293 HD
ENDBRANCH   6  24
BRANCH   8  26
ATOM     26  O   UNL     1     -14.628 -15.490  18.341  1.00  0.00    -0.508 OA
ATOM     27  H   UNL     1     -14.974 -14.539  18.306  1.00  0.00     0.293 HD
ENDBRANCH   8  26
TORSDOF 6
ENDMDL
MODEL 3
REMARK VINA RESULT:    -6.202      5.281      7.888
REMARK INTER + INTRA:          -7.802
REMARK INTER:                  -7.495
REMARK INTRA:                  -0.307
REMARK UNBOUND:                -0.331
REMARK SMILES O=c1c(O)c(-c2ccc(O)c(O)c2)oc2cc(O)cc(O)c12
REMARK SMILES IDX 5 1 3 2 2 3 1 4 22 5 20 6 19 7 17 8 16 9 15 10 14 11 6 12
REMARK SMILES IDX 7 13 8 14 9 15 13 16 11 17 10 18 12 20 4 22 21 24 18 26
REMARK H PARENT 10 19 12 21 4 23 21 25 18 27
REMARK Flexibility Score: inf
ROOT
ATOM      1  C   UNL     1     -11.586 -16.843  21.464  1.00  0.00     0.180 A 
ATOM      2  C   UNL     1     -10.493 -16.912  22.345  1.00  0.00     0.208 A 
ATOM      3  C   UNL     1      -9.680 -15.780  22.511  1.00  0.00     0.238 A 
ATOM      4  O   UNL     1      -8.735 -15.830  23.341  1.00  0.00    -0.285 OA
ATOM      5  C   UNL     1      -9.959 -14.599  21.781  1.00  0.00     0.111 A 
ATOM      6  C   UNL     1      -9.178 -13.406  21.841  1.00  0.00     0.134 A 
ATOM      7  C   UNL     1      -9.621 -12.256  21.177  1.00  0.00     0.093 A 
ATOM      8  C   UNL     1     -10.782 -12.272  20.404  1.00  0.00     0.123 A 
ATOM      9  C   UNL     1     -11.522 -13.450  20.290  1.00  0.00     0.094 A 
ATOM     10  C   UNL     1     -11.124 -14.604  20.970  1.00  0.00     0.146 A 
ATOM     11  O   UNL     1     -11.861 -15.701  20.845  1.00  0.00    -0.452 OA
ENDROOT
BRANCH   1  12
ATOM     12  C   UNL     1     -12.474 -18.002  21.219  1.00  0.00     0.025 A 
ATOM     13  C   UNL     1     -12.219 -18.849  20.128  1.00  0.00     0.016 A 
ATOM     14  C   UNL     1     -13.031 -19.960  19.890  1.00  0.00     0.051 A 
ATOM     15  C   UNL     1     -14.100 -20.251  20.747  1.00  0.00     0.157 A 
ATOM     16  C   UNL     1     -13.536 -18.309  22.088  1.00  0.00     0.062 A 
ATOM     17  C   UNL     1     -14.351 -19.425  21.851  1.00  0.00     0.158 A 
BRANCH  15  18
ATOM     18  O   UNL     1     -14.915 -21.357  20.512  1.00  0.00    -0.504 OA
ATOM     19  H   UNL     1     -14.858 -21.882  19.647  1.00  0.00     0.293 HD
ENDBRANCH  15  18
BRANCH  17  20
ATOM     20  O   UNL     1     -15.407 -19.724  22.709  1.00  0.00    -0.504 OA
ATOM     21  H   UNL     1     -15.919 -18.995  23.195  1.00  0.00     0.293 HD
ENDBRANCH  17  20
ENDBRANCH   1  12
BRANCH   2  22
ATOM     22  O   UNL     1     -10.248 -18.081  23.072  1.00  0.00    -0.502 OA
ATOM     23  H   UNL     1      -9.374 -18.589  23.005  1.00  0.00     0.293 HD
ENDBRANCH   2  22
BRANCH   6  24
ATOM     24  O   UNL     1      -7.953 -13.307  22.509  1.00  0.00    -0.507 OA
ATOM     25  H   UNL     1      -7.069 -13.622  22.139  1.00  0.00     0.293 HD
ENDBRANCH   6  24
BRANCH   8  26
ATOM     26  O   UNL     1     -11.186 -11.114  19.744  1.00  0.00    -0.508 OA
ATOM     27  H   UNL     1     -11.801 -10.441  20.184  1.00  0.00     0.293 HD
ENDBRANCH   8  26
TORSDOF 6
ENDMDL
MODEL 4
REMARK VINA RESULT:    -6.132      3.384      4.825
REMARK INTER + INTRA:          -7.717
REMARK INTER:                  -7.678
REMARK INTRA:                  -0.039
REMARK UNBOUND:                -0.331
REMARK SMILES O=c1c(O)c(-c2ccc(O)c(O)c2)oc2cc(O)cc(O)c12
REMARK SMILES IDX 5 1 3 2 2 3 1 4 22 5 20 6 19 7 17 8 16 9 15 10 14 11 6 12
REMARK SMILES IDX 7 13 8 14 9 15 13 16 11 17 10 18 12 20 4 22 21 24 18 26
REMARK H PARENT 10 19 12 21 4 23 21 25 18 27
REMARK Flexibility Score: inf
ROOT
ATOM      1  C   UNL     1      -7.841 -14.630  18.441  1.00  0.00     0.180 A 
ATOM      2  C   UNL     1      -7.535 -15.935  18.863  1.00  0.00     0.208 A 
ATOM      3  C   UNL     1      -7.928 -16.345  20.147  1.00  0.00     0.238 A 
ATOM      4  O   UNL     1      -7.698 -17.531  20.499  1.00  0.00    -0.285 OA
ATOM      5  C   UNL     1      -8.606 -15.440  20.998  1.00  0.00     0.111 A 
ATOM      6  C   UNL     1      -9.016 -15.736  22.333  1.00  0.00     0.134 A 
ATOM      7  C   UNL     1      -9.796 -14.810  23.038  1.00  0.00     0.093 A 
ATOM      8  C   UNL     1     -10.127 -13.575  22.481  1.00  0.00     0.123 A 
ATOM      9  C   UNL     1      -9.681 -13.252  21.198  1.00  0.00     0.094 A 
ATOM     10  C   UNL     1      -8.932 -14.169  20.457  1.00  0.00     0.146 A 
ATOM     11  O   UNL     1      -8.537 -13.827  19.237  1.00  0.00    -0.452 OA
ENDROOT
BRANCH   1  12
ATOM     12  C   UNL     1      -7.439 -14.118  17.111  1.00  0.00     0.025 A 
ATOM     13  C   UNL     1      -6.640 -12.966  17.027  1.00  0.00     0.016 A 
ATOM     14  C   UNL     1      -6.231 -12.477  15.784  1.00  0.00     0.051 A 
ATOM     15  C   UNL     1      -6.600 -13.141  14.607  1.00  0.00     0.157 A 
ATOM     16  C   UNL     1      -7.790 -14.793  15.928  1.00  0.00     0.062 A 
ATOM     17  C   UNL     1      -7.378 -14.304  14.680  1.00  0.00     0.158 A 
BRANCH  15  18
ATOM     18  O   UNL     1      -6.196 -12.656  13.365  1.00  0.00    -0.504 OA
ATOM     19  H   UNL     1      -6.525 -13.072  12.502  1.00  0.00     0.293 HD
ENDBRANCH  15  18
BRANCH  17  20
ATOM     20  O   UNL     1      -7.732 -14.971  13.509  1.00  0.00    -0.504 OA
ATOM     21  H   UNL     1      -8.688 -14.973  13.168  1.00  0.00     0.293 HD
ENDBRANCH  17  20
ENDBRANCH   1  12
BRANCH   2  22
ATOM     22  O   UNL     1      -6.883 -16.819  17.998  1.00  0.00    -0.502 OA
ATOM     23  H   UNL     1      -7.312 -17.678  17.672  1.00  0.00     0.293 HD
ENDBRANCH   2  22
BRANCH   6  24
ATOM     24  O   UNL     1      -8.662 -16.902  23.019  1.00  0.00    -0.507 OA
ATOM     25  H   UNL     1      -8.457 -17.787  22.579  1.00  0.00     0.293 HD
ENDBRANCH   6  24
BRANCH   8  26
ATOM     26  O   UNL     1     -10.891 -12.672  23.215  1.00  0.00    -0.508 OA
ATOM     27  H   UNL     1     -11.008 -11.711  22.917  1.00  0.00     0.293 HD
ENDBRANCH   8  26
TORSDOF 6
ENDMDL
MODEL 5
REMARK VINA RESULT:    -6.125      5.271      8.385
REMARK INTER + INTRA:          -7.709
REMARK INTER:                  -7.375
REMARK INTRA:                  -0.334
REMARK UNBOUND:                -0.331
REMARK SMILES O=c1c(O)c(-c2ccc(O)c(O)c2)oc2cc(O)cc(O)c12
REMARK SMILES IDX 5 1 3 2 2 3 1 4 22 5 20 6 19 7 17 8 16 9 15 10 14 11 6 12
REMARK SMILES IDX 7 13 8 14 9 15 13 16 11 17 10 18 12 20 4 22 21 24 18 26
REMARK H PARENT 10 19 12 21 4 23 21 25 18 27
REMARK Flexibility Score: inf
ROOT
ATOM      1  C   UNL     1     -12.050 -16.695  20.829  1.00  0.00     0.180 A 
ATOM      2  C   UNL     1     -12.605 -15.558  20.217  1.00  0.00     0.208 A 
ATOM      3  C   UNL     1     -11.859 -14.370  20.185  1.00  0.00     0.238 A 
ATOM      4  O   UNL     1     -12.339 -13.371  19.589  1.00  0.00    -0.285 OA
ATOM      5  C   UNL     1     -10.575 -14.328  20.779  1.00  0.00     0.111 A 
ATOM      6  C   UNL     1      -9.747 -13.166  20.841  1.00  0.00     0.134 A 
ATOM      7  C   UNL     1      -8.442 -13.273  21.336  1.00  0.00     0.093 A 
ATOM      8  C   UNL     1      -7.956 -14.483  21.831  1.00  0.00     0.123 A 
ATOM      9  C   UNL     1      -8.778 -15.611  21.832  1.00  0.00     0.094 A 
ATOM     10  C   UNL     1     -10.072 -15.544  21.311  1.00  0.00     0.146 A 
ATOM     11  O   UNL     1     -10.817 -16.643  21.319  1.00  0.00    -0.452 OA
ENDROOT
BRANCH   1  12
ATOM     12  C   UNL     1     -12.786 -17.977  20.924  1.00  0.00     0.025 A 
ATOM     13  C   UNL     1     -12.583 -18.964  19.947  1.00  0.00     0.016 A 
ATOM     14  C   UNL     1     -13.251 -20.188  20.027  1.00  0.00     0.051 A 
ATOM     15  C   UNL     1     -14.119 -20.450  21.096  1.00  0.00     0.157 A 
ATOM     16  C   UNL     1     -13.642 -18.252  22.006  1.00  0.00     0.062 A 
ATOM     17  C   UNL     1     -14.312 -19.481  22.089  1.00  0.00     0.158 A 
BRANCH  15  18
ATOM     18  O   UNL     1     -14.788 -21.670  21.180  1.00  0.00    -0.504 OA
ATOM     19  H   UNL     1     -14.351 -22.487  21.589  1.00  0.00     0.293 HD
ENDBRANCH  15  18
BRANCH  17  20
ATOM     20  O   UNL     1     -15.165 -19.749  23.158  1.00  0.00    -0.504 OA
ATOM     21  H   UNL     1     -16.131 -20.019  23.010  1.00  0.00     0.293 HD
ENDBRANCH  17  20
ENDBRANCH   1  12
BRANCH   2  22
ATOM     22  O   UNL     1     -13.866 -15.627  19.618  1.00  0.00    -0.502 OA
ATOM     23  H   UNL     1     -14.536 -16.354  19.843  1.00  0.00     0.293 HD
ENDBRANCH   2  22
BRANCH   6  24
ATOM     24  O   UNL     1     -10.166 -11.889  20.457  1.00  0.00    -0.507 OA
ATOM     25  H   UNL     1     -11.025 -11.688  19.966  1.00  0.00     0.293 HD
ENDBRANCH   6  24
BRANCH   8  26
ATOM     26  O   UNL     1      -6.658 -14.549  22.331  1.00  0.00    -0.508 OA
ATOM     27  H   UNL     1      -6.267 -15.417  22.677  1.00  0.00     0.293 HD
ENDBRANCH   8  26
TORSDOF 6
ENDMDL
MODEL 6
REMARK VINA RESULT:    -6.088      4.723      5.607
REMARK INTER + INTRA:          -7.664
REMARK INTER:                  -7.369
REMARK INTRA:                  -0.296
REMARK UNBOUND:                -0.331
REMARK SMILES O=c1c(O)c(-c2ccc(O)c(O)c2)oc2cc(O)cc(O)c12
REMARK SMILES IDX 5 1 3 2 2 3 1 4 22 5 20 6 19 7 17 8 16 9 15 10 14 11 6 12
REMARK SMILES IDX 7 13 8 14 9 15 13 16 11 17 10 18 12 20 4 22 21 24 18 26
REMARK H PARENT 10 19 12 21 4 23 21 25 18 27
REMARK Flexibility Score: inf
ROOT
ATOM      1  C   UNL     1      -9.193 -17.709  21.288  1.00  0.00     0.180 A 
ATOM      2  C   UNL     1      -9.247 -17.305  22.633  1.00  0.00     0.208 A 
ATOM      3  C   UNL     1      -9.695 -16.010  22.938  1.00  0.00     0.238 A 
ATOM      4  O   UNL     1      -9.791 -15.673  24.147  1.00  0.00    -0.285 OA
ATOM      5  C   UNL     1     -10.067 -15.130  21.894  1.00  0.00     0.111 A 
ATOM      6  C   UNL     1     -10.498 -13.782  22.085  1.00  0.00     0.134 A 
ATOM      7  C   UNL     1     -10.968 -13.045  20.991  1.00  0.00     0.093 A 
ATOM      8  C   UNL     1     -10.962 -13.583  19.705  1.00  0.00     0.123 A 
ATOM      9  C   UNL     1     -10.487 -14.879  19.497  1.00  0.00     0.094 A 
ATOM     10  C   UNL     1     -10.046 -15.651  20.575  1.00  0.00     0.146 A 
ATOM     11  O   UNL     1      -9.612 -16.883  20.336  1.00  0.00    -0.452 OA
ENDROOT
BRANCH   1  12
ATOM     12  C   UNL     1      -8.708 -19.049  20.887  1.00  0.00     0.025 A 
ATOM     13  C   UNL     1      -7.327 -19.297  20.834  1.00  0.00     0.016 A 
ATOM     14  C   UNL     1      -6.848 -20.560  20.478  1.00  0.00     0.051 A 
ATOM     15  C   UNL     1      -7.742 -21.598  20.186  1.00  0.00     0.157 A 
ATOM     16  C   UNL     1      -9.602 -20.100  20.612  1.00  0.00     0.062 A 
ATOM     17  C   UNL     1      -9.122 -21.369  20.256  1.00  0.00     0.158 A 
BRANCH  15  18
ATOM     18  O   UNL     1      -7.268 -22.860  19.828  1.00  0.00    -0.504 OA
ATOM     19  H   UNL     1      -6.393 -22.975  19.332  1.00  0.00     0.293 HD
ENDBRANCH  15  18
BRANCH  17  20
ATOM     20  O   UNL     1     -10.009 -22.406  19.978  1.00  0.00    -0.504 OA
ATOM     21  H   UNL     1     -10.252 -23.099  20.678  1.00  0.00     0.293 HD
ENDBRANCH  17  20
ENDBRANCH   1  12
BRANCH   2  22
ATOM     22  O   UNL     1      -8.893 -18.198  23.650  1.00  0.00    -0.502 OA
ATOM     23  H   UNL     1      -8.003 -18.149  24.131  1.00  0.00     0.293 HD
ENDBRANCH   2  22
BRANCH   6  24
ATOM     24  O   UNL     1     -10.458 -13.117  23.315  1.00  0.00    -0.507 OA
ATOM     25  H   UNL     1     -10.999 -12.296  23.542  1.00  0.00     0.293 HD
ENDBRANCH   6  24
BRANCH   8  26
ATOM     26  O   UNL     1     -11.421 -12.816  18.637  1.00  0.00    -0.508 OA
ATOM     27  H   UNL     1     -11.591 -11.822  18.732  1.00  0.00     0.293 HD
ENDBRANCH   8  26
TORSDOF 6
ENDMDL
MODEL 7
REMARK VINA RESULT:    -6.039      5.882      8.413
REMARK INTER + INTRA:          -7.605
REMARK INTER:                  -7.497
REMARK INTRA:                  -0.108
REMARK UNBOUND:                -0.331
REMARK SMILES O=c1c(O)c(-c2ccc(O)c(O)c2)oc2cc(O)cc(O)c12
REMARK SMILES IDX 5 1 3 2 2 3 1 4 22 5 20 6 19 7 17 8 16 9 15 10 14 11 6 12
REMARK SMILES IDX 7 13 8 14 9 15 13 16 11 17 10 18 12 20 4 22 21 24 18 26
REMARK H PARENT 10 19 12 21 4 23 21 25 18 27
REMARK Flexibility Score: inf
ROOT
ATOM      1  C   UNL     1     -12.810 -16.371  20.328  1.00  0.00     0.180 A 
ATOM      2  C   UNL     1     -13.849 -16.110  19.418  1.00  0.00     0.208 A 
ATOM      3  C   UNL     1     -14.944 -16.986  19.365  1.00  0.00     0.238 A 
ATOM      4  O   UNL     1     -15.895 -16.718  18.586  1.00  0.00    -0.285 OA
ATOM      5  C   UNL     1     -14.980 -18.120  20.211  1.00  0.00     0.111 A 
ATOM      6  C   UNL     1     -16.022 -19.096  20.214  1.00  0.00     0.134 A 
ATOM      7  C   UNL     1     -16.020 -20.106  21.184  1.00  0.00     0.093 A 
ATOM      8  C   UNL     1     -14.982 -20.214  22.110  1.00  0.00     0.123 A 
ATOM      9  C   UNL     1     -13.928 -19.300  22.078  1.00  0.00     0.094 A 
ATOM     10  C   UNL     1     -13.921 -18.260  21.145  1.00  0.00     0.146 A 
ATOM     11  O   UNL     1     -12.905 -17.406  21.155  1.00  0.00    -0.452 OA
ENDROOT
BRANCH   1  12
ATOM     12  C   UNL     1     -11.611 -15.507  20.424  1.00  0.00     0.025 A 
ATOM     13  C   UNL     1     -10.349 -16.041  20.120  1.00  0.00     0.016 A 
ATOM     14  C   UNL     1      -9.207 -15.239  20.184  1.00  0.00     0.051 A 
ATOM     15  C   UNL     1      -9.312 -13.888  20.537  1.00  0.00     0.157 A 
ATOM     16  C   UNL     1     -11.714 -14.145  20.759  1.00  0.00     0.062 A 
ATOM     17  C   UNL     1     -10.568 -13.338  20.821  1.00  0.00     0.158 A 
BRANCH  15  18
ATOM     18  O   UNL     1      -8.175 -13.084  20.603  1.00  0.00    -0.504 OA
ATOM     19  H   UNL     1      -8.240 -12.088  20.776  1.00  0.00     0.293 HD
ENDBRANCH  15  18
BRANCH  17  20
ATOM     20  O   UNL     1     -10.672 -11.991  21.160  1.00  0.00    -0.504 OA
ATOM     21  H   UNL     1     -11.497 -11.620  21.619  1.00  0.00     0.293 HD
ENDBRANCH  17  20
ENDBRANCH   1  12
BRANCH   2  22
ATOM     22  O   UNL     1     -13.802 -14.973  18.606  1.00  0.00    -0.502 OA
ATOM     23  H   UNL     1     -14.456 -14.819  17.847  1.00  0.00     0.293 HD
ENDBRANCH   2  22
BRANCH   6  24
ATOM     24  O   UNL     1     -17.058 -19.135  19.276  1.00  0.00    -0.507 OA
ATOM     25  H   UNL     1     -18.036 -19.233  19.504  1.00  0.00     0.293 HD
ENDBRANCH   6  24
BRANCH   8  26
ATOM     26  O   UNL     1     -15.004 -21.240  23.051  1.00  0.00    -0.508 OA
ATOM     27  H   UNL     1     -15.870 -21.688  23.327  1.00  0.00     0.293 HD
ENDBRANCH   8  26
TORSDOF 6
ENDMDL
MODEL 8
REMARK VINA RESULT:    -5.937      8.512     12.698
REMARK INTER + INTRA:          -7.483
REMARK INTER:                  -7.308
REMARK INTRA:                  -0.174
REMARK UNBOUND:                -0.331
REMARK SMILES O=c1c(O)c(-c2ccc(O)c(O)c2)oc2cc(O)cc(O)c12
REMARK SMILES IDX 5 1 3 2 2 3 1 4 22 5 20 6 19 7 17 8 16 9 15 10 14 11 6 12
REMARK SMILES IDX 7 13 8 14 9 15 13 16 11 17 10 18 12 20 4 22 21 24 18 26
REMARK H PARENT 10 19 12 21 4 23 21 25 18 27
REMARK Flexibility Score: inf
ROOT
ATOM      1  C   UNL     1     -17.210 -17.820  17.673  1.00  0.00     0.180 A 
ATOM      2  C   UNL     1     -17.705 -18.838  18.506  1.00  0.00     0.208 A 
ATOM      3  C   UNL     1     -16.975 -19.196  19.651  1.00  0.00     0.238 A 
ATOM      4  O   UNL     1     -17.450 -20.071  20.420  1.00  0.00    -0.285 OA
ATOM      5  C   UNL     1     -15.752 -18.545  19.938  1.00  0.00     0.111 A 
ATOM      6  C   UNL     1     -14.910 -18.855  21.048  1.00  0.00     0.134 A 
ATOM      7  C   UNL     1     -13.789 -18.058  21.309  1.00  0.00     0.093 A 
ATOM      8  C   UNL     1     -13.443 -17.003  20.466  1.00  0.00     0.123 A 
ATOM      9  C   UNL     1     -14.226 -16.728  19.344  1.00  0.00     0.094 A 
ATOM     10  C   UNL     1     -15.370 -17.483  19.077  1.00  0.00     0.146 A 
ATOM     11  O   UNL     1     -16.094 -17.182  18.006  1.00  0.00    -0.452 OA
ENDROOT
BRANCH   1  12
ATOM     12  C   UNL     1     -17.911 -17.403  16.437  1.00  0.00     0.025 A 
ATOM     13  C   UNL     1     -18.031 -18.311  15.372  1.00  0.00     0.016 A 
ATOM     14  C   UNL     1     -18.705 -17.947  14.204  1.00  0.00     0.051 A 
ATOM     15  C   UNL     1     -19.284 -16.676  14.090  1.00  0.00     0.157 A 
ATOM     16  C   UNL     1     -18.511 -16.136  16.326  1.00  0.00     0.062 A 
ATOM     17  C   UNL     1     -19.190 -15.770  15.155  1.00  0.00     0.158 A 
BRANCH  15  18
ATOM     18  O   UNL     1     -19.957 -16.308  12.926  1.00  0.00    -0.504 OA
ATOM     19  H   UNL     1     -19.819 -15.399  12.500  1.00  0.00     0.293 HD
ENDBRANCH  15  18
BRANCH  17  20
ATOM     20  O   UNL     1     -19.778 -14.512  15.043  1.00  0.00    -0.504 OA
ATOM     21  H   UNL     1     -19.899 -13.909  15.850  1.00  0.00     0.293 HD
ENDBRANCH  17  20
ENDBRANCH   1  12
BRANCH   2  22
ATOM     22  O   UNL     1     -18.926 -19.454  18.214  1.00  0.00    -0.502 OA
ATOM     23  H   UNL     1     -19.075 -19.991  17.368  1.00  0.00     0.293 HD
ENDBRANCH   2  22
BRANCH   6  24
ATOM     24  O   UNL     1     -15.113 -19.944  21.901  1.00  0.00    -0.507 OA
ATOM     25  H   UNL     1     -14.913 -19.945  22.891  1.00  0.00     0.293 HD
ENDBRANCH   6  24
BRANCH   8  26
ATOM     26  O   UNL     1     -12.312 -16.240  20.747  1.00  0.00    -0.508 OA
ATOM     27  H   UNL     1     -11.558 -16.601  21.320  1.00  0.00     0.293 HD
ENDBRANCH   8  26
TORSDOF 6
ENDMDL
MODEL 9
REMARK VINA RESULT:    -5.933      1.920      7.028
REMARK INTER + INTRA:          -7.477
REMARK INTER:                  -7.391
REMARK INTRA:                  -0.086
REMARK UNBOUND:                -0.331
REMARK SMILES O=c1c(O)c(-c2ccc(O)c(O)c2)oc2cc(O)cc(O)c12
REMARK SMILES IDX 5 1 3 2 2 3 1 4 22 5 20 6 19 7 17 8 16 9 15 10 14 11 6 12
REMARK SMILES IDX 7 13 8 14 9 15 13 16 11 17 10 18 12 20 4 22 21 24 18 26
REMARK H PARENT 10 19 12 21 4 23 21 25 18 27
REMARK Flexibility Score: inf
ROOT
ATOM      1  C   UNL     1      -7.218 -14.274  19.453  1.00  0.00     0.180 A 
ATOM      2  C   UNL     1      -7.364 -13.979  18.087  1.00  0.00     0.208 A 
ATOM      3  C   UNL     1      -6.383 -14.423  17.186  1.00  0.00     0.238 A 
ATOM      4  O   UNL     1      -6.546 -14.202  15.958  1.00  0.00    -0.285 OA
ATOM      5  C   UNL     1      -5.261 -15.142  17.664  1.00  0.00     0.111 A 
ATOM      6  C   UNL     1      -4.187 -15.606  16.847  1.00  0.00     0.134 A 
ATOM      7  C   UNL     1      -3.195 -16.420  17.406  1.00  0.00     0.093 A 
ATOM      8  C   UNL     1      -3.202 -16.734  18.765  1.00  0.00     0.123 A 
ATOM      9  C   UNL     1      -4.215 -16.237  19.586  1.00  0.00     0.094 A 
ATOM     10  C   UNL     1      -5.239 -15.452  19.049  1.00  0.00     0.146 A 
ATOM     11  O   UNL     1      -6.189 -15.008  19.862  1.00  0.00    -0.452 OA
ENDROOT
BRANCH   1  12
ATOM     12  C   UNL     1      -8.198 -13.819  20.466  1.00  0.00     0.025 A 
ATOM     13  C   UNL     1      -9.534 -14.242  20.376  1.00  0.00     0.016 A 
ATOM     14  C   UNL     1     -10.470 -13.841  21.332  1.00  0.00     0.051 A 
ATOM     15  C   UNL     1     -10.082 -13.025  22.402  1.00  0.00     0.157 A 
ATOM     16  C   UNL     1      -7.808 -13.015  21.553  1.00  0.00     0.062 A 
ATOM     17  C   UNL     1      -8.747 -12.614  22.515  1.00  0.00     0.158 A 
BRANCH  15  18
ATOM     18  O   UNL     1     -11.013 -12.621  23.357  1.00  0.00    -0.504 OA
ATOM     19  H   UNL     1     -11.062 -13.062  24.268  1.00  0.00     0.293 HD
ENDBRANCH  15  18
BRANCH  17  20
ATOM     20  O   UNL     1      -8.361 -11.813  23.587  1.00  0.00    -0.504 OA
ATOM     21  H   UNL     1      -7.467 -11.940  24.050  1.00  0.00     0.293 HD
ENDBRANCH  17  20
ENDBRANCH   1  12
BRANCH   2  22
ATOM     22  O   UNL     1      -8.490 -13.286  17.633  1.00  0.00    -0.502 OA
ATOM     23  H   UNL     1      -8.486 -12.742  16.778  1.00  0.00     0.293 HD
ENDBRANCH   2  22
BRANCH   6  24
ATOM     24  O   UNL     1      -4.034 -15.274  15.497  1.00  0.00    -0.507 OA
ATOM     25  H   UNL     1      -3.375 -14.598  15.142  1.00  0.00     0.293 HD
ENDBRANCH   6  24
BRANCH   8  26
ATOM     26  O   UNL     1      -2.190 -17.534  19.291  1.00  0.00    -0.508 OA
ATOM     27  H   UNL     1      -1.486 -17.157  19.914  1.00  0.00     0.293 HD
ENDBRANCH   8  26
TORSDOF 6
ENDMDL
