MODEL 1
REMARK VINA RESULT:    -3.222      0.000      0.000
REMARK INTER + INTRA:          -5.977
REMARK INTER:                  -5.105
REMARK INTRA:                  -0.872
REMARK UNBOUND:                -0.872
REMARK SMILES CCCCCCCCCCCC(=O)[O-]
REMARK SMILES IDX 7 1 8 2 9 3 10 4 11 5 12 6 13 7 14 8 6 9 5 10 4 11 3 12 2 13
REMARK SMILES IDX 1 14
REMARK H PARENT
REMARK Flexibility Score: inf
ROOT
ATOM      1  C   UNL     1      -1.806  14.009  10.397  1.00  0.00     0.000 C 
ENDROOT
BRANCH   1   2
ATOM      2  C   UNL     1      -1.183  13.140  11.497  1.00  0.00     0.000 C 
BRANCH   2   3
ATOM      3  C   UNL     1      -0.555  11.870  10.905  1.00  0.00     0.000 C 
BRANCH   3   4
ATOM      4  C   UNL     1       0.614  12.171   9.949  1.00  0.00     0.006 C 
BRANCH   4   5
ATOM      5  C   UNL     1       0.797  11.134   8.829  1.00  0.00     0.053 C 
BRANCH   5   6
ATOM      6  C   UNL     1      -0.467  10.913   8.057  1.00  0.00     0.041 C 
ATOM      7  O   UNL     1      -1.018   9.780   8.055  1.00  0.00    -0.550 OA
ATOM      8  O   UNL     1      -1.056  11.965   7.369  1.00  0.00    -0.550 OA
ENDBRANCH   5   6
ENDBRANCH   4   5
ENDBRANCH   3   4
ENDBRANCH   2   3
ENDBRANCH   1   2
BRANCH   1   9
ATOM      9  C   UNL     1      -1.343  15.468  10.521  1.00  0.00     0.000 C 
BRANCH   9  10
ATOM     10  C   UNL     1      -0.005  15.605  11.263  1.00  0.00    -0.000 C 
BRANCH  10  11
ATOM     11  C   UNL     1      -0.041  16.682  12.358  1.00  0.00    -0.000 C 
BRANCH  11  12
ATOM     12  C   UNL     1      -1.480  16.925  12.840  1.00  0.00    -0.000 C 
BRANCH  12  13
ATOM     13  C   UNL     1      -1.905  18.396  12.714  1.00  0.00    -0.003 C 
ATOM     14  C   UNL     1      -3.311  18.654  13.252  1.00  0.00     0.004 C 
ENDBRANCH  12  13
ENDBRANCH  11  12
ENDBRANCH  10  11
ENDBRANCH   9  10
ENDBRANCH   1   9
TORSDOF 10
ENDMDL
MODEL 2
REMARK VINA RESULT:    -3.195     13.785     15.262
REMARK INTER + INTRA:          -5.935
REMARK INTER:                  -5.176
REMARK INTRA:                  -0.759
REMARK UNBOUND:                -0.872
REMARK SMILES CCCCCCCCCCCC(=O)[O-]
REMARK SMILES IDX 7 1 8 2 9 3 10 4 11 5 12 6 13 7 14 8 6 9 5 10 4 11 3 12 2 13
REMARK SMILES IDX 1 14
REMARK H PARENT
REMARK Flexibility Score: inf
ROOT
ATOM      1  C   UNL     1     -12.778   9.771   7.013  1.00  0.00     0.000 C 
ENDROOT
BRANCH   1   2
ATOM      2  C   UNL     1     -13.896   9.075   7.798  1.00  0.00     0.000 C 
BRANCH   2   3
ATOM      3  C   UNL     1     -13.543   8.977   9.290  1.00  0.00     0.000 C 
BRANCH   3   4
ATOM      4  C   UNL     1     -14.568   9.684  10.195  1.00  0.00     0.006 C 
BRANCH   4   5
ATOM      5  C   UNL     1     -14.017  10.101  11.568  1.00  0.00     0.053 C 
BRANCH   5   6
ATOM      6  C   UNL     1     -15.037  10.837  12.381  1.00  0.00     0.041 C 
ATOM      7  O   UNL     1     -14.674  11.582  13.330  1.00  0.00    -0.550 OA
ATOM      8  O   UNL     1     -16.386  10.727  12.071  1.00  0.00    -0.550 OA
ENDBRANCH   5   6
ENDBRANCH   4   5
ENDBRANCH   3   4
ENDBRANCH   2   3
ENDBRANCH   1   2
BRANCH   1   9
ATOM      9  C   UNL     1     -12.268   8.878   5.873  1.00  0.00     0.000 C 
BRANCH   9  10
ATOM     10  C   UNL     1     -11.693   9.686   4.699  1.00  0.00    -0.000 C 
BRANCH  10  11
ATOM     11  C   UNL     1     -12.784  10.335   3.834  1.00  0.00    -0.000 C 
BRANCH  11  12
ATOM     12  C   UNL     1     -13.961   9.370   3.623  1.00  0.00    -0.000 C 
BRANCH  12  13
ATOM     13  C   UNL     1     -15.319  10.015   3.942  1.00  0.00    -0.003 C 
ATOM     14  C   UNL     1     -15.183  11.373   4.629  1.00  0.00     0.004 C 
ENDBRANCH  12  13
ENDBRANCH  11  12
ENDBRANCH  10  11
ENDBRANCH   9  10
ENDBRANCH   1   9
TORSDOF 10
ENDMDL
MODEL 3
REMARK VINA RESULT:    -3.100     13.795     15.318
REMARK INTER + INTRA:          -5.785
REMARK INTER:                  -4.822
REMARK INTRA:                  -0.963
REMARK UNBOUND:                -0.872
REMARK SMILES CCCCCCCCCCCC(=O)[O-]
REMARK SMILES IDX 7 1 8 2 9 3 10 4 11 5 12 6 13 7 14 8 6 9 5 10 4 11 3 12 2 13
REMARK SMILES IDX 1 14
REMARK H PARENT
REMARK Flexibility Score: inf
ROOT
ATOM      1  C   UNL     1     -15.555  10.116   7.410  1.00  0.00     0.000 C 
ENDROOT
BRANCH   1   2
ATOM      2  C   UNL     1     -15.020   9.008   8.327  1.00  0.00     0.000 C 
BRANCH   2   3
ATOM      3  C   UNL     1     -13.606   9.340   8.825  1.00  0.00     0.000 C 
BRANCH   3   4
ATOM      4  C   UNL     1     -13.496   9.333  10.360  1.00  0.00     0.006 C 
BRANCH   4   5
ATOM      5  C   UNL     1     -14.721   9.918  11.083  1.00  0.00     0.053 C 
BRANCH   5   6
ATOM      6  C   UNL     1     -14.330  10.739  12.274  1.00  0.00     0.041 C 
ATOM      7  O   UNL     1     -13.121  10.822  12.616  1.00  0.00    -0.550 OA
ATOM      8  O   UNL     1     -15.295  11.439  12.984  1.00  0.00    -0.550 OA
ENDBRANCH   5   6
ENDBRANCH   4   5
ENDBRANCH   3   4
ENDBRANCH   2   3
ENDBRANCH   1   2
BRANCH   1   9
ATOM      9  C   UNL     1     -16.208   9.523   6.153  1.00  0.00     0.000 C 
BRANCH   9  10
ATOM     10  C   UNL     1     -16.013  10.406   4.911  1.00  0.00    -0.000 C 
BRANCH  10  11
ATOM     11  C   UNL     1     -14.603  11.011   4.829  1.00  0.00    -0.000 C 
BRANCH  11  12
ATOM     12  C   UNL     1     -13.645  10.069   4.083  1.00  0.00    -0.000 C 
BRANCH  12  13
ATOM     13  C   UNL     1     -12.308   9.883   4.818  1.00  0.00    -0.003 C 
ATOM     14  C   UNL     1     -12.032  10.988   5.836  1.00  0.00     0.004 C 
ENDBRANCH  12  13
ENDBRANCH  11  12
ENDBRANCH  10  11
ENDBRANCH   9  10
ENDBRANCH   1   9
TORSDOF 10
ENDMDL
MODEL 4
REMARK VINA RESULT:    -3.092      3.499      6.719
REMARK INTER + INTRA:          -5.771
REMARK INTER:                  -4.942
REMARK INTRA:                  -0.829
REMARK UNBOUND:                -0.872
REMARK SMILES CCCCCCCCCCCC(=O)[O-]
REMARK SMILES IDX 7 1 8 2 9 3 10 4 11 5 12 6 13 7 14 8 6 9 5 10 4 11 3 12 2 13
REMARK SMILES IDX 1 14
REMARK H PARENT
REMARK Flexibility Score: inf
ROOT
ATOM      1  C   UNL     1      -2.036  13.390  11.463  1.00  0.00     0.000 C 
ENDROOT
BRANCH   1   2
ATOM      2  C   UNL     1      -1.800  14.218  10.194  1.00  0.00     0.000 C 
BRANCH   2   3
ATOM      3  C   UNL     1      -1.018  15.502  10.512  1.00  0.00     0.000 C 
BRANCH   3   4
ATOM      4  C   UNL     1      -0.994  15.830  12.016  1.00  0.00     0.006 C 
BRANCH   4   5
ATOM      5  C   UNL     1      -1.133  17.327  12.338  1.00  0.00     0.053 C 
BRANCH   5   6
ATOM      6  C   UNL     1      -2.382  17.620  13.111  1.00  0.00     0.041 C 
ATOM      7  O   UNL     1      -3.075  18.634  12.833  1.00  0.00    -0.550 OA
ATOM      8  O   UNL     1      -2.799  16.756  14.115  1.00  0.00    -0.550 OA
ENDBRANCH   5   6
ENDBRANCH   4   5
ENDBRANCH   3   4
ENDBRANCH   2   3
ENDBRANCH   1   2
BRANCH   1   9
ATOM      9  C   UNL     1      -3.022  12.243  11.196  1.00  0.00     0.000 C 
BRANCH   9  10
ATOM     10  C   UNL     1      -2.315  10.928  10.829  1.00  0.00    -0.000 C 
BRANCH  10  11
ATOM     11  C   UNL     1      -0.799  10.982  11.072  1.00  0.00    -0.000 C 
BRANCH  11  12
ATOM     12  C   UNL     1      -0.032  10.388   9.880  1.00  0.00    -0.000 C 
BRANCH  12  13
ATOM     13  C   UNL     1       0.299  11.437   8.808  1.00  0.00    -0.003 C 
ATOM     14  C   UNL     1      -0.712  11.453   7.663  1.00  0.00     0.004 C 
ENDBRANCH  12  13
ENDBRANCH  11  12
ENDBRANCH  10  11
ENDBRANCH   9  10
ENDBRANCH   1   9
TORSDOF 10
ENDMDL
MODEL 5
REMARK VINA RESULT:    -3.063     13.410     14.573
REMARK INTER + INTRA:          -5.725
REMARK INTER:                  -5.025
REMARK INTRA:                  -0.701
REMARK UNBOUND:                -0.872
REMARK SMILES CCCCCCCCCCCC(=O)[O-]
REMARK SMILES IDX 7 1 8 2 9 3 10 4 11 5 12 6 13 7 14 8 6 9 5 10 4 11 3 12 2 13
REMARK SMILES IDX 1 14
REMARK H PARENT
REMARK Flexibility Score: inf
ROOT
ATOM      1  C   UNL     1     -16.026  11.071   6.936  1.00  0.00     0.000 C 
ENDROOT
BRANCH   1   2
ATOM      2  C   UNL     1     -16.097  10.280   5.624  1.00  0.00     0.000 C 
BRANCH   2   3
ATOM      3  C   UNL     1     -15.106  10.837   4.591  1.00  0.00     0.000 C 
BRANCH   3   4
ATOM      4  C   UNL     1     -14.030   9.814   4.183  1.00  0.00     0.006 C 
BRANCH   4   5
ATOM      5  C   UNL     1     -12.620  10.408   4.027  1.00  0.00     0.053 C 
BRANCH   5   6
ATOM      6  C   UNL     1     -11.973  10.669   5.352  1.00  0.00     0.041 C 
ATOM      7  O   UNL     1     -11.960   9.775   6.238  1.00  0.00    -0.550 OA
ATOM      8  O   UNL     1     -11.353  11.888   5.596  1.00  0.00    -0.550 OA
ENDBRANCH   5   6
ENDBRANCH   4   5
ENDBRANCH   3   4
ENDBRANCH   2   3
ENDBRANCH   1   2
BRANCH   1   9
ATOM      9  C   UNL     1     -16.126  10.135   8.149  1.00  0.00     0.000 C 
BRANCH   9  10
ATOM     10  C   UNL     1     -15.021   9.067   8.166  1.00  0.00    -0.000 C 
BRANCH  10  11
ATOM     11  C   UNL     1     -13.834   9.456   9.059  1.00  0.00    -0.000 C 
BRANCH  11  12
ATOM     12  C   UNL     1     -14.079   9.027  10.514  1.00  0.00    -0.000 C 
BRANCH  12  13
ATOM     13  C   UNL     1     -14.427  10.211  11.429  1.00  0.00    -0.003 C 
ATOM     14  C   UNL     1     -13.351  10.483  12.480  1.00  0.00     0.004 C 
ENDBRANCH  12  13
ENDBRANCH  11  12
ENDBRANCH  10  11
ENDBRANCH   9  10
ENDBRANCH   1   9
TORSDOF 10
ENDMDL
MODEL 6
REMARK VINA RESULT:    -3.058     14.349     15.936
REMARK INTER + INTRA:          -5.718
REMARK INTER:                  -4.602
REMARK INTRA:                  -1.116
REMARK UNBOUND:                -0.872
REMARK SMILES CCCCCCCCCCCC(=O)[O-]
REMARK SMILES IDX 7 1 8 2 9 3 10 4 11 5 12 6 13 7 14 8 6 9 5 10 4 11 3 12 2 13
REMARK SMILES IDX 1 14
REMARK H PARENT
REMARK Flexibility Score: inf
ROOT
ATOM      1  C   UNL     1     -15.227  11.284   5.041  1.00  0.00     0.000 C 
ENDROOT
BRANCH   1   2
ATOM      2  C   UNL     1     -15.740  11.121   6.478  1.00  0.00     0.000 C 
BRANCH   2   3
ATOM      3  C   UNL     1     -15.146   9.866   7.135  1.00  0.00     0.000 C 
BRANCH   3   4
ATOM      4  C   UNL     1     -16.025   9.314   8.272  1.00  0.00     0.006 C 
BRANCH   4   5
ATOM      5  C   UNL     1     -16.902  10.372   8.963  1.00  0.00     0.053 C 
BRANCH   5   6
ATOM      6  C   UNL     1     -16.471  10.620  10.376  1.00  0.00     0.041 C 
ATOM      7  O   UNL     1     -17.258  11.170  11.190  1.00  0.00    -0.550 OA
ATOM      8  O   UNL     1     -15.213  10.215  10.802  1.00  0.00    -0.550 OA
ENDBRANCH   5   6
ENDBRANCH   4   5
ENDBRANCH   3   4
ENDBRANCH   2   3
ENDBRANCH   1   2
BRANCH   1   9
ATOM      9  C   UNL     1     -15.685  10.115   4.157  1.00  0.00     0.000 C 
BRANCH   9  10
ATOM     10  C   UNL     1     -14.513   9.266   3.643  1.00  0.00    -0.000 C 
BRANCH  10  11
ATOM     11  C   UNL     1     -13.182  10.034   3.636  1.00  0.00    -0.000 C 
BRANCH  11  12
ATOM     12  C   UNL     1     -12.120   9.298   4.466  1.00  0.00    -0.000 C 
BRANCH  12  13
ATOM     13  C   UNL     1     -11.826   9.996   5.803  1.00  0.00    -0.003 C 
ATOM     14  C   UNL     1     -11.621  11.503   5.652  1.00  0.00     0.004 C 
ENDBRANCH  12  13
ENDBRANCH  11  12
ENDBRANCH  10  11
ENDBRANCH   9  10
ENDBRANCH   1   9
TORSDOF 10
ENDMDL
MODEL 7
REMARK VINA RESULT:    -3.057     13.487     14.423
REMARK INTER + INTRA:          -5.717
REMARK INTER:                  -4.740
REMARK INTRA:                  -0.977
REMARK UNBOUND:                -0.872
REMARK SMILES CCCCCCCCCCCC(=O)[O-]
REMARK SMILES IDX 7 1 8 2 9 3 10 4 11 5 12 6 13 7 14 8 6 9 5 10 4 11 3 12 2 13
REMARK SMILES IDX 1 14
REMARK H PARENT
REMARK Flexibility Score: inf
ROOT
ATOM      1  C   UNL     1     -15.775   9.999  10.111  1.00  0.00     0.000 C 
ENDROOT
BRANCH   1   2
ATOM      2  C   UNL     1     -14.709   8.915  10.313  1.00  0.00     0.000 C 
BRANCH   2   3
ATOM      3  C   UNL     1     -13.528   9.118   9.352  1.00  0.00     0.000 C 
BRANCH   3   4
ATOM      4  C   UNL     1     -13.962   9.655   7.976  1.00  0.00     0.006 C 
BRANCH   4   5
ATOM      5  C   UNL     1     -12.879   9.559   6.889  1.00  0.00     0.053 C 
BRANCH   5   6
ATOM      6  C   UNL     1     -12.852  10.775   6.017  1.00  0.00     0.041 C 
ATOM      7  O   UNL     1     -13.851  11.539   5.963  1.00  0.00    -0.550 OA
ATOM      8  O   UNL     1     -11.710  11.084   5.288  1.00  0.00    -0.550 OA
ENDBRANCH   5   6
ENDBRANCH   4   5
ENDBRANCH   3   4
ENDBRANCH   2   3
ENDBRANCH   1   2
BRANCH   1   9
ATOM      9  C   UNL     1     -16.692  10.105  11.337  1.00  0.00     0.000 C 
BRANCH   9  10
ATOM     10  C   UNL     1     -16.817  11.544  11.862  1.00  0.00    -0.000 C 
BRANCH  10  11
ATOM     11  C   UNL     1     -15.839  11.844  13.009  1.00  0.00    -0.000 C 
BRANCH  11  12
ATOM     12  C   UNL     1     -15.631  10.602  13.889  1.00  0.00    -0.000 C 
BRANCH  12  13
ATOM     13  C   UNL     1     -14.151  10.203  14.007  1.00  0.00    -0.003 C 
ATOM     14  C   UNL     1     -13.254  10.963  13.032  1.00  0.00     0.004 C 
ENDBRANCH  12  13
ENDBRANCH  11  12
ENDBRANCH  10  11
ENDBRANCH   9  10
ENDBRANCH   1   9
TORSDOF 10
ENDMDL
MODEL 8
REMARK VINA RESULT:    -3.026      1.738      2.621
REMARK INTER + INTRA:          -5.667
REMARK INTER:                  -4.756
REMARK INTRA:                  -0.911
REMARK UNBOUND:                -0.872
REMARK SMILES CCCCCCCCCCCC(=O)[O-]
REMARK SMILES IDX 7 1 8 2 9 3 10 4 11 5 12 6 13 7 14 8 6 9 5 10 4 11 3 12 2 13
REMARK SMILES IDX 1 14
REMARK H PARENT
REMARK Flexibility Score: inf
ROOT
ATOM      1  C   UNL     1      -3.063  11.661  10.914  1.00  0.00     0.000 C 
ENDROOT
BRANCH   1   2
ATOM      2  C   UNL     1      -2.829  10.315  11.611  1.00  0.00     0.000 C 
BRANCH   2   3
ATOM      3  C   UNL     1      -2.304   9.266  10.620  1.00  0.00     0.000 C 
BRANCH   3   4
ATOM      4  C   UNL     1      -0.915   9.619  10.056  1.00  0.00     0.006 C 
BRANCH   4   5
ATOM      5  C   UNL     1      -0.878   9.786   8.528  1.00  0.00     0.053 C 
BRANCH   5   6
ATOM      6  C   UNL     1      -0.313  11.113   8.124  1.00  0.00     0.041 C 
ATOM      7  O   UNL     1       0.852  11.438   8.473  1.00  0.00    -0.550 OA
ATOM      8  O   UNL     1      -1.061  11.977   7.334  1.00  0.00    -0.550 OA
ENDBRANCH   5   6
ENDBRANCH   4   5
ENDBRANCH   3   4
ENDBRANCH   2   3
ENDBRANCH   1   2
BRANCH   1   9
ATOM      9  C   UNL     1      -2.251  12.778  11.587  1.00  0.00     0.000 C 
BRANCH   9  10
ATOM     10  C   UNL     1      -1.490  13.650  10.576  1.00  0.00    -0.000 C 
BRANCH  10  11
ATOM     11  C   UNL     1      -0.046  13.941  11.014  1.00  0.00    -0.000 C 
BRANCH  11  12
ATOM     12  C   UNL     1       0.196  15.453  11.134  1.00  0.00    -0.000 C 
BRANCH  12  13
ATOM     13  C   UNL     1      -1.108  16.266  11.089  1.00  0.00    -0.003 C 
ATOM     14  C   UNL     1      -1.182  17.327  12.184  1.00  0.00     0.004 C 
ENDBRANCH  12  13
ENDBRANCH  11  12
ENDBRANCH  10  11
ENDBRANCH   9  10
ENDBRANCH   1   9
TORSDOF 10
ENDMDL
MODEL 9
REMARK VINA RESULT:    -2.994     13.171     14.087
REMARK INTER + INTRA:          -5.616
REMARK INTER:                  -5.035
REMARK INTRA:                  -0.580
REMARK UNBOUND:                -0.872
REMARK SMILES CCCCCCCCCCCC(=O)[O-]
REMARK SMILES IDX 7 1 8 2 9 3 10 4 11 5 12 6 13 7 14 8 6 9 5 10 4 11 3 12 2 13
REMARK SMILES IDX 1 14
REMARK H PARENT
REMARK Flexibility Score: inf
ROOT
ATOM      1  C   UNL     1     -14.220   9.632  10.429  1.00  0.00     0.000 C 
ENDROOT
BRANCH   1   2
ATOM      2  C   UNL     1     -13.541   9.272   9.101  1.00  0.00     0.000 C 
BRANCH   2   3
ATOM      3  C   UNL     1     -14.552   9.285   7.944  1.00  0.00     0.000 C 
BRANCH   3   4
ATOM      4  C   UNL     1     -14.040  10.053   6.712  1.00  0.00     0.006 C 
BRANCH   4   5
ATOM      5  C   UNL     1     -12.509  10.082   6.577  1.00  0.00     0.053 C 
BRANCH   5   6
ATOM      6  C   UNL     1     -12.065  10.919   5.417  1.00  0.00     0.041 C 
ATOM      7  O   UNL     1     -12.494  10.675   4.259  1.00  0.00    -0.550 OA
ATOM      8  O   UNL     1     -11.204  11.989   5.620  1.00  0.00    -0.550 OA
ENDBRANCH   5   6
ENDBRANCH   4   5
ENDBRANCH   3   4
ENDBRANCH   2   3
ENDBRANCH   1   2
BRANCH   1   9
ATOM      9  C   UNL     1     -13.240   9.493  11.602  1.00  0.00     0.000 C 
BRANCH   9  10
ATOM     10  C   UNL     1     -13.329  10.666  12.591  1.00  0.00    -0.000 C 
BRANCH  10  11
ATOM     11  C   UNL     1     -14.550  10.567  13.519  1.00  0.00    -0.000 C 
BRANCH  11  12
ATOM     12  C   UNL     1     -15.582  11.655  13.185  1.00  0.00    -0.000 C 
BRANCH  12  13
ATOM     13  C   UNL     1     -17.030  11.164  13.341  1.00  0.00    -0.003 C 
ATOM     14  C   UNL     1     -17.314   9.894  12.540  1.00  0.00     0.004 C 
ENDBRANCH  12  13
ENDBRANCH  11  12
ENDBRANCH  10  11
ENDBRANCH   9  10
ENDBRANCH   1   9
TORSDOF 10
ENDMDL
