MODEL 1
REMARK VINA RESULT:    -5.501      0.000      0.000
REMARK INTER + INTRA:          -9.861
REMARK INTER:                  -8.073
REMARK INTRA:                  -1.788
REMARK UNBOUND:                -1.788
REMARK SMILES O=c1c(O[C@@H]2O[C@H](CO)[C@@H](O)[C@@H](O)[C@H]2O)c(-c2ccc(O)c(O)c2)oc2cc(O)cc(O)c12
REMARK SMILES IDX 4 1 3 2 16 3 25 4 2 5 26 6 1 7 33 8 27 9 31 10 28 11 30 12
REMARK SMILES IDX 17 13 18 14 19 15 20 16 24 17 22 18 21 19 23 21 32 23 29 25
REMARK SMILES IDX 5 27 14 28 6 29 12 30 7 31 10 32 15 33 13 35 8 37 9 38 11 40
REMARK H PARENT 21 20 23 22 32 24 29 26 15 34 13 36 9 39 11 41
REMARK Flexibility Score: inf
ROOT
ATOM      1  O   UNL     1     -12.195   5.810 -23.763  1.00  0.00    -0.454 OA
ENDROOT
BRANCH   1   2
ATOM      2  C   UNL     1     -11.268   5.027 -24.481  1.00  0.00     0.214 A 
ATOM      3  C   UNL     1     -11.586   4.651 -25.803  1.00  0.00     0.180 A 
ATOM      4  O   UNL     1     -10.720   3.948 -26.525  1.00  0.00    -0.452 OA
ATOM      5  C   UNL     1     -10.027   4.615 -23.949  1.00  0.00     0.239 A 
ATOM      6  C   UNL     1      -9.543   3.546 -26.064  1.00  0.00     0.146 A 
ATOM      7  O   UNL     1      -9.717   4.910 -22.765  1.00  0.00    -0.285 OA
ATOM      8  C   UNL     1      -9.140   3.861 -24.746  1.00  0.00     0.111 A 
ATOM      9  C   UNL     1      -8.703   2.805 -26.900  1.00  0.00     0.094 A 
ATOM     10  C   UNL     1      -7.879   3.410 -24.287  1.00  0.00     0.134 A 
ATOM     11  C   UNL     1      -7.458   2.364 -26.442  1.00  0.00     0.123 A 
ATOM     12  C   UNL     1      -7.051   2.666 -25.140  1.00  0.00     0.093 A 
BRANCH   3  13
ATOM     13  C   UNL     1     -12.852   5.060 -26.450  1.00  0.00     0.025 A 
ATOM     14  C   UNL     1     -14.041   4.341 -26.252  1.00  0.00     0.016 A 
ATOM     15  C   UNL     1     -15.224   4.744 -26.877  1.00  0.00     0.051 A 
ATOM     16  C   UNL     1     -15.233   5.863 -27.721  1.00  0.00     0.157 A 
ATOM     17  C   UNL     1     -12.860   6.167 -27.314  1.00  0.00     0.062 A 
ATOM     18  C   UNL     1     -14.042   6.575 -27.943  1.00  0.00     0.158 A 
BRANCH  16  19
ATOM     19  O   UNL     1     -16.414   6.264 -28.341  1.00  0.00    -0.504 OA
ATOM     20  H   UNL     1     -16.409   6.872 -29.151  1.00  0.00     0.293 HD
ENDBRANCH  16  19
BRANCH  18  21
ATOM     21  O   UNL     1     -14.014   7.687 -28.784  1.00  0.00    -0.504 OA
ATOM     22  H   UNL     1     -14.191   8.624 -28.443  1.00  0.00     0.293 HD
ENDBRANCH  18  21
ENDBRANCH   3  13
BRANCH  10  23
ATOM     23  O   UNL     1      -7.440   3.696 -22.992  1.00  0.00    -0.507 OA
ATOM     24  H   UNL     1      -7.037   2.983 -22.396  1.00  0.00     0.293 HD
ENDBRANCH  10  23
BRANCH  11  25
ATOM     25  O   UNL     1      -6.618   1.624 -27.270  1.00  0.00    -0.508 OA
ATOM     26  H   UNL     1      -5.928   0.985 -26.891  1.00  0.00     0.293 HD
ENDBRANCH  11  25
ENDBRANCH   1   2
BRANCH   1  27
ATOM     27  C   UNL     1     -12.149   7.228 -23.590  1.00  0.00     0.339 C 
ATOM     28  C   UNL     1     -13.390   7.875 -24.223  1.00  0.00     0.214 C 
ATOM     29  O   UNL     1     -11.970   7.596 -22.226  1.00  0.00    -0.332 OA
ATOM     30  C   UNL     1     -14.641   7.555 -23.393  1.00  0.00     0.180 C 
ATOM     31  C   UNL     1     -13.081   7.319 -21.380  1.00  0.00     0.179 C 
ATOM     32  C   UNL     1     -14.422   7.897 -21.909  1.00  0.00     0.177 C 
BRANCH  28  33
ATOM     33  O   UNL     1     -13.191   9.262 -24.329  1.00  0.00    -0.384 OA
ATOM     34  H   UNL     1     -13.079   9.611 -23.407  1.00  0.00     0.211 HD
ENDBRANCH  28  33
BRANCH  30  35
ATOM     35  O   UNL     1     -15.746   8.256 -23.904  1.00  0.00    -0.387 OA
ATOM     36  H   UNL     1     -16.383   8.376 -23.151  1.00  0.00     0.211 HD
ENDBRANCH  30  35
BRANCH  31  37
ATOM     37  C   UNL     1     -13.182   5.832 -20.991  1.00  0.00     0.191 C 
BRANCH  37  38
ATOM     38  O   UNL     1     -11.901   5.279 -20.875  1.00  0.00    -0.394 OA
ATOM     39  H   UNL     1     -11.989   4.503 -20.262  1.00  0.00     0.210 HD
ENDBRANCH  37  38
ENDBRANCH  31  37
BRANCH  32  40
ATOM     40  O   UNL     1     -14.506   9.287 -21.691  1.00  0.00    -0.387 OA
ATOM     41  H   UNL     1     -14.055   9.752 -22.442  1.00  0.00     0.211 HD
ENDBRANCH  32  40
ENDBRANCH   1  27
TORSDOF 12
ENDMDL
MODEL 2
REMARK VINA RESULT:    -5.448     12.185     14.254
REMARK INTER + INTRA:          -9.783
REMARK INTER:                  -8.168
REMARK INTRA:                  -1.615
REMARK UNBOUND:                -1.788
REMARK SMILES O=c1c(O[C@@H]2O[C@H](CO)[C@@H](O)[C@@H](O)[C@H]2O)c(-c2ccc(O)c(O)c2)oc2cc(O)cc(O)c12
REMARK SMILES IDX 4 1 3 2 16 3 25 4 2 5 26 6 1 7 33 8 27 9 31 10 28 11 30 12
REMARK SMILES IDX 17 13 18 14 19 15 20 16 24 17 22 18 21 19 23 21 32 23 29 25
REMARK SMILES IDX 5 27 14 28 6 29 12 30 7 31 10 32 15 33 13 35 8 37 9 38 11 40
REMARK H PARENT 21 20 23 22 32 24 29 26 15 34 13 36 9 39 11 41
REMARK Flexibility Score: inf
ROOT
ATOM      1  O   UNL     1     -14.177   3.889 -38.205  1.00  0.00    -0.454 OA
ENDROOT
BRANCH   1   2
ATOM      2  C   UNL     1     -12.997   3.378 -38.780  1.00  0.00     0.214 A 
ATOM      3  C   UNL     1     -12.129   4.272 -39.442  1.00  0.00     0.180 A 
ATOM      4  O   UNL     1     -10.987   3.833 -39.961  1.00  0.00    -0.452 OA
ATOM      5  C   UNL     1     -12.629   2.017 -38.712  1.00  0.00     0.239 A 
ATOM      6  C   UNL     1     -10.604   2.565 -39.915  1.00  0.00     0.146 A 
ATOM      7  O   UNL     1     -13.389   1.183 -38.152  1.00  0.00    -0.285 OA
ATOM      8  C   UNL     1     -11.413   1.591 -39.286  1.00  0.00     0.111 A 
ATOM      9  C   UNL     1      -9.386   2.202 -40.496  1.00  0.00     0.094 A 
ATOM     10  C   UNL     1     -10.973   0.245 -39.260  1.00  0.00     0.134 A 
ATOM     11  C   UNL     1      -8.956   0.871 -40.466  1.00  0.00     0.123 A 
ATOM     12  C   UNL     1      -9.749  -0.100 -39.850  1.00  0.00     0.093 A 
BRANCH   3  13
ATOM     13  C   UNL     1     -12.422   5.719 -39.539  1.00  0.00     0.025 A 
ATOM     14  C   UNL     1     -12.863   6.298 -40.739  1.00  0.00     0.016 A 
ATOM     15  C   UNL     1     -13.129   7.668 -40.807  1.00  0.00     0.051 A 
ATOM     16  C   UNL     1     -12.942   8.482 -39.682  1.00  0.00     0.157 A 
ATOM     17  C   UNL     1     -12.214   6.541 -38.420  1.00  0.00     0.062 A 
ATOM     18  C   UNL     1     -12.478   7.914 -38.483  1.00  0.00     0.158 A 
BRANCH  16  19
ATOM     19  O   UNL     1     -13.211   9.847 -39.752  1.00  0.00    -0.504 OA
ATOM     20  H   UNL     1     -13.516  10.371 -38.940  1.00  0.00     0.293 HD
ENDBRANCH  16  19
BRANCH  18  21
ATOM     21  O   UNL     1     -12.273   8.698 -37.348  1.00  0.00    -0.504 OA
ATOM     22  H   UNL     1     -11.921   9.645 -37.404  1.00  0.00     0.293 HD
ENDBRANCH  18  21
ENDBRANCH   3  13
BRANCH  10  23
ATOM     23  O   UNL     1     -11.740  -0.751 -38.651  1.00  0.00    -0.507 OA
ATOM     24  H   UNL     1     -12.523  -0.527 -38.048  1.00  0.00     0.293 HD
ENDBRANCH  10  23
BRANCH  11  25
ATOM     25  O   UNL     1      -7.744   0.503 -41.045  1.00  0.00    -0.508 OA
ATOM     26  H   UNL     1      -7.684   0.226 -42.018  1.00  0.00     0.293 HD
ENDBRANCH  11  25
ENDBRANCH   1   2
BRANCH   1  27
ATOM     27  C   UNL     1     -14.440   4.041 -36.807  1.00  0.00     0.339 C 
ATOM     28  C   UNL     1     -14.767   5.508 -36.492  1.00  0.00     0.214 C 
ATOM     29  O   UNL     1     -15.444   3.140 -36.349  1.00  0.00    -0.332 OA
ATOM     30  C   UNL     1     -16.146   5.881 -37.054  1.00  0.00     0.180 C 
ATOM     31  C   UNL     1     -16.755   3.407 -36.838  1.00  0.00     0.179 C 
ATOM     32  C   UNL     1     -17.217   4.871 -36.606  1.00  0.00     0.177 C 
BRANCH  28  33
ATOM     33  O   UNL     1     -14.714   5.709 -35.102  1.00  0.00    -0.384 OA
ATOM     34  H   UNL     1     -15.230   4.973 -34.681  1.00  0.00     0.211 HD
ENDBRANCH  28  33
BRANCH  30  35
ATOM     35  O   UNL     1     -16.492   7.181 -36.649  1.00  0.00    -0.387 OA
ATOM     36  H   UNL     1     -16.255   7.788 -37.399  1.00  0.00     0.211 HD
ENDBRANCH  30  35
BRANCH  31  37
ATOM     37  C   UNL     1     -16.960   2.936 -38.290  1.00  0.00     0.191 C 
BRANCH  37  38
ATOM     38  O   UNL     1     -16.287   1.727 -38.502  1.00  0.00    -0.394 OA
ATOM     39  H   UNL     1     -16.077   1.693 -39.472  1.00  0.00     0.210 HD
ENDBRANCH  37  38
ENDBRANCH  31  37
BRANCH  32  40
ATOM     40  O   UNL     1     -17.590   5.088 -35.265  1.00  0.00    -0.387 OA
ATOM     41  H   UNL     1     -17.826   4.215 -34.858  1.00  0.00     0.211 HD
ENDBRANCH  32  40
ENDBRANCH   1  27
TORSDOF 12
ENDMDL
MODEL 3
REMARK VINA RESULT:    -5.387     11.448     14.767
REMARK INTER + INTRA:          -9.694
REMARK INTER:                  -7.940
REMARK INTRA:                  -1.753
REMARK UNBOUND:                -1.788
REMARK SMILES O=c1c(O[C@@H]2O[C@H](CO)[C@@H](O)[C@@H](O)[C@H]2O)c(-c2ccc(O)c(O)c2)oc2cc(O)cc(O)c12
REMARK SMILES IDX 4 1 3 2 16 3 25 4 2 5 26 6 1 7 33 8 27 9 31 10 28 11 30 12
REMARK SMILES IDX 17 13 18 14 19 15 20 16 24 17 22 18 21 19 23 21 32 23 29 25
REMARK SMILES IDX 5 27 14 28 6 29 12 30 7 31 10 32 15 33 13 35 8 37 9 38 11 40
REMARK H PARENT 21 20 23 22 32 24 29 26 15 34 13 36 9 39 11 41
REMARK Flexibility Score: inf
ROOT
ATOM      1  O   UNL     1     -18.504   3.443 -36.055  1.00  0.00    -0.454 OA
ENDROOT
BRANCH   1   2
ATOM      2  C   UNL     1     -18.947   4.581 -35.350  1.00  0.00     0.214 A 
ATOM      3  C   UNL     1     -18.028   5.623 -35.109  1.00  0.00     0.180 A 
ATOM      4  O   UNL     1     -18.421   6.728 -34.484  1.00  0.00    -0.452 OA
ATOM      5  C   UNL     1     -20.272   4.737 -34.889  1.00  0.00     0.239 A 
ATOM      6  C   UNL     1     -19.655   6.916 -34.039  1.00  0.00     0.146 A 
ATOM      7  O   UNL     1     -21.116   3.818 -35.063  1.00  0.00    -0.285 OA
ATOM      8  C   UNL     1     -20.644   5.922 -34.219  1.00  0.00     0.111 A 
ATOM      9  C   UNL     1     -19.969   8.112 -33.387  1.00  0.00     0.094 A 
ATOM     10  C   UNL     1     -21.952   6.155 -33.727  1.00  0.00     0.134 A 
ATOM     11  C   UNL     1     -21.261   8.337 -32.905  1.00  0.00     0.123 A 
ATOM     12  C   UNL     1     -22.246   7.361 -33.074  1.00  0.00     0.093 A 
BRANCH   3  13
ATOM     13  C   UNL     1     -16.627   5.556 -35.579  1.00  0.00     0.025 A 
ATOM     14  C   UNL     1     -15.673   4.761 -34.925  1.00  0.00     0.016 A 
ATOM     15  C   UNL     1     -14.354   4.716 -35.386  1.00  0.00     0.051 A 
ATOM     16  C   UNL     1     -13.967   5.478 -36.496  1.00  0.00     0.157 A 
ATOM     17  C   UNL     1     -16.230   6.335 -36.678  1.00  0.00     0.062 A 
ATOM     18  C   UNL     1     -14.910   6.294 -37.143  1.00  0.00     0.158 A 
BRANCH  16  19
ATOM     19  O   UNL     1     -12.652   5.430 -36.954  1.00  0.00    -0.504 OA
ATOM     20  H   UNL     1     -12.403   4.934 -37.803  1.00  0.00     0.293 HD
ENDBRANCH  16  19
BRANCH  18  21
ATOM     21  O   UNL     1     -14.555   7.071 -38.245  1.00  0.00    -0.504 OA
ATOM     22  H   UNL     1     -15.145   7.144 -39.064  1.00  0.00     0.293 HD
ENDBRANCH  18  21
ENDBRANCH   3  13
BRANCH  10  23
ATOM     23  O   UNL     1     -22.960   5.201 -33.882  1.00  0.00    -0.507 OA
ATOM     24  H   UNL     1     -23.819   5.409 -34.376  1.00  0.00     0.293 HD
ENDBRANCH  10  23
BRANCH  11  25
ATOM     25  O   UNL     1     -21.579   9.527 -32.253  1.00  0.00    -0.508 OA
ATOM     26  H   UNL     1     -21.466   9.629 -31.251  1.00  0.00     0.293 HD
ENDBRANCH  11  25
ENDBRANCH   1   2
BRANCH   1  27
ATOM     27  C   UNL     1     -18.614   3.225 -37.464  1.00  0.00     0.339 C 
ATOM     28  C   UNL     1     -17.215   3.173 -38.097  1.00  0.00     0.214 C 
ATOM     29  O   UNL     1     -19.402   2.079 -37.769  1.00  0.00    -0.332 OA
ATOM     30  C   UNL     1     -16.494   1.880 -37.693  1.00  0.00     0.180 C 
ATOM     31  C   UNL     1     -18.811   0.834 -37.411  1.00  0.00     0.179 C 
ATOM     32  C   UNL     1     -17.373   0.647 -37.968  1.00  0.00     0.177 C 
BRANCH  28  33
ATOM     33  O   UNL     1     -17.332   3.275 -39.494  1.00  0.00    -0.384 OA
ATOM     34  H   UNL     1     -17.109   4.211 -39.737  1.00  0.00     0.211 HD
ENDBRANCH  28  33
BRANCH  30  35
ATOM     35  O   UNL     1     -15.272   1.779 -38.379  1.00  0.00    -0.387 OA
ATOM     36  H   UNL     1     -14.701   1.156 -37.856  1.00  0.00     0.211 HD
ENDBRANCH  30  35
BRANCH  31  37
ATOM     37  C   UNL     1     -18.913   0.533 -35.905  1.00  0.00     0.191 C 
BRANCH  37  38
ATOM     38  O   UNL     1     -20.124   1.023 -35.399  1.00  0.00    -0.394 OA
ATOM     39  H   UNL     1     -20.269   1.904 -35.833  1.00  0.00     0.210 HD
ENDBRANCH  37  38
ENDBRANCH  31  37
BRANCH  32  40
ATOM     40  O   UNL     1     -17.389   0.332 -39.342  1.00  0.00    -0.387 OA
ATOM     41  H   UNL     1     -18.293   0.525 -39.699  1.00  0.00     0.211 HD
ENDBRANCH  32  40
ENDBRANCH   1  27
TORSDOF 12
ENDMDL
MODEL 4
REMARK VINA RESULT:    -5.328      9.559     14.044
REMARK INTER + INTRA:          -9.608
REMARK INTER:                  -7.816
REMARK INTRA:                  -1.792
REMARK UNBOUND:                -1.788
REMARK SMILES O=c1c(O[C@@H]2O[C@H](CO)[C@@H](O)[C@@H](O)[C@H]2O)c(-c2ccc(O)c(O)c2)oc2cc(O)cc(O)c12
REMARK SMILES IDX 4 1 3 2 16 3 25 4 2 5 26 6 1 7 33 8 27 9 31 10 28 11 30 12
REMARK SMILES IDX 17 13 18 14 19 15 20 16 24 17 22 18 21 19 23 21 32 23 29 25
REMARK SMILES IDX 5 27 14 28 6 29 12 30 7 31 10 32 15 33 13 35 8 37 9 38 11 40
REMARK H PARENT 21 20 23 22 32 24 29 26 15 34 13 36 9 39 11 41
REMARK Flexibility Score: inf
ROOT
ATOM      1  O   UNL     1     -12.871   6.104 -37.939  1.00  0.00    -0.454 OA
ENDROOT
BRANCH   1   2
ATOM      2  C   UNL     1     -13.833   5.286 -37.311  1.00  0.00     0.214 A 
ATOM      3  C   UNL     1     -13.554   4.788 -36.021  1.00  0.00     0.180 A 
ATOM      4  O   UNL     1     -14.454   4.048 -35.382  1.00  0.00    -0.452 OA
ATOM      5  C   UNL     1     -15.071   4.955 -37.903  1.00  0.00     0.239 A 
ATOM      6  C   UNL     1     -15.629   3.719 -35.900  1.00  0.00     0.146 A 
ATOM      7  O   UNL     1     -15.346   5.359 -39.063  1.00  0.00    -0.285 OA
ATOM      8  C   UNL     1     -15.994   4.157 -37.194  1.00  0.00     0.111 A 
ATOM      9  C   UNL     1     -16.505   2.930 -35.149  1.00  0.00     0.094 A 
ATOM     10  C   UNL     1     -17.255   3.782 -37.717  1.00  0.00     0.134 A 
ATOM     11  C   UNL     1     -17.750   2.564 -35.670  1.00  0.00     0.123 A 
ATOM     12  C   UNL     1     -18.120   2.988 -36.949  1.00  0.00     0.093 A 
BRANCH   3  13
ATOM     13  C   UNL     1     -12.294   5.106 -35.315  1.00  0.00     0.025 A 
ATOM     14  C   UNL     1     -11.146   4.313 -35.472  1.00  0.00     0.016 A 
ATOM     15  C   UNL     1      -9.968   4.631 -34.792  1.00  0.00     0.051 A 
ATOM     16  C   UNL     1      -9.924   5.737 -33.932  1.00  0.00     0.157 A 
ATOM     17  C   UNL     1     -12.252   6.200 -34.436  1.00  0.00     0.062 A 
ATOM     18  C   UNL     1     -11.074   6.523 -33.751  1.00  0.00     0.158 A 
BRANCH  16  19
ATOM     19  O   UNL     1      -8.747   6.053 -33.257  1.00  0.00    -0.504 OA
ATOM     20  H   UNL     1      -8.451   5.538 -32.435  1.00  0.00     0.293 HD
ENDBRANCH  16  19
BRANCH  18  21
ATOM     21  O   UNL     1     -11.066   7.625 -32.897  1.00  0.00    -0.504 OA
ATOM     22  H   UNL     1     -10.314   7.790 -32.240  1.00  0.00     0.293 HD
ENDBRANCH  18  21
ENDBRANCH   3  13
BRANCH  10  23
ATOM     23  O   UNL     1     -17.657   4.190 -38.990  1.00  0.00    -0.507 OA
ATOM     24  H   UNL     1     -18.487   4.753 -39.132  1.00  0.00     0.293 HD
ENDBRANCH  10  23
BRANCH  11  25
ATOM     25  O   UNL     1     -18.627   1.777 -34.927  1.00  0.00    -0.508 OA
ATOM     26  H   UNL     1     -19.400   1.287 -35.364  1.00  0.00     0.293 HD
ENDBRANCH  11  25
ENDBRANCH   1   2
BRANCH   1  27
ATOM     27  C   UNL     1     -12.861   7.533 -37.960  1.00  0.00     0.339 C 
ATOM     28  C   UNL     1     -11.562   8.058 -37.328  1.00  0.00     0.214 C 
ATOM     29  O   UNL     1     -13.087   8.052 -39.267  1.00  0.00    -0.332 OA
ATOM     30  C   UNL     1     -10.368   7.778 -38.250  1.00  0.00     0.180 C 
ATOM     31  C   UNL     1     -12.030   7.821 -40.194  1.00  0.00     0.179 C 
ATOM     32  C   UNL     1     -10.641   8.286 -39.677  1.00  0.00     0.177 C 
BRANCH  28  33
ATOM     33  O   UNL     1     -11.693   9.432 -37.067  1.00  0.00    -0.384 OA
ATOM     34  H   UNL     1     -12.576   9.714 -37.423  1.00  0.00     0.211 HD
ENDBRANCH  28  33
BRANCH  30  35
ATOM     35  O   UNL     1      -9.209   8.375 -37.726  1.00  0.00    -0.387 OA
ATOM     36  H   UNL     1      -9.348   9.358 -37.772  1.00  0.00     0.211 HD
ENDBRANCH  30  35
BRANCH  31  37
ATOM     37  C   UNL     1     -12.016   6.382 -40.741  1.00  0.00     0.191 C 
BRANCH  37  38
ATOM     38  O   UNL     1     -13.326   5.930 -40.936  1.00  0.00    -0.394 OA
ATOM     39  H   UNL     1     -13.674   5.692 -40.037  1.00  0.00     0.210 HD
ENDBRANCH  37  38
ENDBRANCH  31  37
BRANCH  32  40
ATOM     40  O   UNL     1     -10.505   9.687 -39.752  1.00  0.00    -0.387 OA
ATOM     41  H   UNL     1     -11.105  10.098 -39.079  1.00  0.00     0.211 HD
ENDBRANCH  32  40
ENDBRANCH   1  27
TORSDOF 12
ENDMDL
MODEL 5
REMARK VINA RESULT:    -5.290     10.674     14.005
REMARK INTER + INTRA:          -9.552
REMARK INTER:                  -7.837
REMARK INTRA:                  -1.714
REMARK UNBOUND:                -1.788
REMARK SMILES O=c1c(O[C@@H]2O[C@H](CO)[C@@H](O)[C@@H](O)[C@H]2O)c(-c2ccc(O)c(O)c2)oc2cc(O)cc(O)c12
REMARK SMILES IDX 4 1 3 2 16 3 25 4 2 5 26 6 1 7 33 8 27 9 31 10 28 11 30 12
REMARK SMILES IDX 17 13 18 14 19 15 20 16 24 17 22 18 21 19 23 21 32 23 29 25
REMARK SMILES IDX 5 27 14 28 6 29 12 30 7 31 10 32 15 33 13 35 8 37 9 38 11 40
REMARK H PARENT 21 20 23 22 32 24 29 26 15 34 13 36 9 39 11 41
REMARK Flexibility Score: inf
ROOT
ATOM      1  O   UNL     1     -11.591   4.963 -38.501  1.00  0.00    -0.454 OA
ENDROOT
BRANCH   1   2
ATOM      2  C   UNL     1     -11.434   3.629 -38.075  1.00  0.00     0.214 A 
ATOM      3  C   UNL     1     -11.288   3.375 -36.695  1.00  0.00     0.180 A 
ATOM      4  O   UNL     1     -11.179   2.127 -36.253  1.00  0.00    -0.452 OA
ATOM      5  C   UNL     1     -11.433   2.529 -38.961  1.00  0.00     0.239 A 
ATOM      6  C   UNL     1     -11.179   1.068 -37.050  1.00  0.00     0.146 A 
ATOM      7  O   UNL     1     -11.536   2.716 -40.202  1.00  0.00    -0.285 OA
ATOM      8  C   UNL     1     -11.304   1.220 -38.450  1.00  0.00     0.111 A 
ATOM      9  C   UNL     1     -11.053  -0.206 -36.488  1.00  0.00     0.094 A 
ATOM     10  C   UNL     1     -11.296   0.066 -39.271  1.00  0.00     0.134 A 
ATOM     11  C   UNL     1     -11.046  -1.342 -37.304  1.00  0.00     0.123 A 
ATOM     12  C   UNL     1     -11.166  -1.203 -38.688  1.00  0.00     0.093 A 
BRANCH   3  13
ATOM     13  C   UNL     1     -11.303   4.464 -35.694  1.00  0.00     0.025 A 
ATOM     14  C   UNL     1     -12.508   5.013 -35.228  1.00  0.00     0.016 A 
ATOM     15  C   UNL     1     -12.498   6.045 -34.285  1.00  0.00     0.051 A 
ATOM     16  C   UNL     1     -11.284   6.553 -33.807  1.00  0.00     0.157 A 
ATOM     17  C   UNL     1     -10.088   4.992 -35.229  1.00  0.00     0.062 A 
ATOM     18  C   UNL     1     -10.072   6.025 -34.285  1.00  0.00     0.158 A 
BRANCH  16  19
ATOM     19  O   UNL     1     -11.276   7.580 -32.865  1.00  0.00    -0.504 OA
ATOM     20  H   UNL     1     -10.834   7.467 -31.960  1.00  0.00     0.293 HD
ENDBRANCH  16  19
BRANCH  18  21
ATOM     21  O   UNL     1      -8.846   6.514 -33.835  1.00  0.00    -0.504 OA
ATOM     22  H   UNL     1      -8.584   6.491 -32.858  1.00  0.00     0.293 HD
ENDBRANCH  18  21
ENDBRANCH   3  13
BRANCH  10  23
ATOM     23  O   UNL     1     -11.415   0.169 -40.658  1.00  0.00    -0.507 OA
ATOM     24  H   UNL     1     -12.318   0.152 -41.118  1.00  0.00     0.293 HD
ENDBRANCH  10  23
BRANCH  11  25
ATOM     25  O   UNL     1     -10.920  -2.613 -36.749  1.00  0.00    -0.508 OA
ATOM     26  H   UNL     1     -11.096  -2.783 -35.765  1.00  0.00     0.293 HD
ENDBRANCH  11  25
ENDBRANCH   1   2
BRANCH   1  27
ATOM     27  C   UNL     1     -12.792   5.556 -39.001  1.00  0.00     0.339 C 
ATOM     28  C   UNL     1     -13.164   6.781 -38.151  1.00  0.00     0.214 C 
ATOM     29  O   UNL     1     -12.706   5.853 -40.391  1.00  0.00    -0.332 OA
ATOM     30  C   UNL     1     -12.182   7.931 -38.413  1.00  0.00     0.180 C 
ATOM     31  C   UNL     1     -11.802   6.902 -40.723  1.00  0.00     0.179 C 
ATOM     32  C   UNL     1     -12.046   8.209 -39.921  1.00  0.00     0.177 C 
BRANCH  28  33
ATOM     33  O   UNL     1     -14.485   7.164 -38.440  1.00  0.00    -0.384 OA
ATOM     34  H   UNL     1     -14.593   7.119 -39.426  1.00  0.00     0.211 HD
ENDBRANCH  28  33
BRANCH  30  35
ATOM     35  O   UNL     1     -12.606   9.086 -37.734  1.00  0.00    -0.387 OA
ATOM     36  H   UNL     1     -12.656   9.813 -38.409  1.00  0.00     0.211 HD
ENDBRANCH  30  35
BRANCH  31  37
ATOM     37  C   UNL     1     -10.329   6.453 -40.704  1.00  0.00     0.191 C 
BRANCH  37  38
ATOM     38  O   UNL     1     -10.228   5.121 -41.124  1.00  0.00    -0.394 OA
ATOM     39  H   UNL     1      -9.911   5.151 -42.065  1.00  0.00     0.210 HD
ENDBRANCH  37  38
ENDBRANCH  31  37
BRANCH  32  40
ATOM     40  O   UNL     1     -13.164   8.914 -40.410  1.00  0.00    -0.387 OA
ATOM     41  H   UNL     1     -13.776   8.269 -40.850  1.00  0.00     0.211 HD
ENDBRANCH  32  40
ENDBRANCH   1  27
TORSDOF 12
ENDMDL
MODEL 6
REMARK VINA RESULT:    -5.289      3.477      6.755
REMARK INTER + INTRA:          -9.551
REMARK INTER:                  -7.859
REMARK INTRA:                  -1.692
REMARK UNBOUND:                -1.788
REMARK SMILES O=c1c(O[C@@H]2O[C@H](CO)[C@@H](O)[C@@H](O)[C@H]2O)c(-c2ccc(O)c(O)c2)oc2cc(O)cc(O)c12
REMARK SMILES IDX 4 1 3 2 16 3 25 4 2 5 26 6 1 7 33 8 27 9 31 10 28 11 30 12
REMARK SMILES IDX 17 13 18 14 19 15 20 16 24 17 22 18 21 19 23 21 32 23 29 25
REMARK SMILES IDX 5 27 14 28 6 29 12 30 7 31 10 32 15 33 13 35 8 37 9 38 11 40
REMARK H PARENT 21 20 23 22 32 24 29 26 15 34 13 36 9 39 11 41
REMARK Flexibility Score: inf
ROOT
ATOM      1  O   UNL     1     -11.006   3.469 -23.583  1.00  0.00    -0.454 OA
ENDROOT
BRANCH   1   2
ATOM      2  C   UNL     1     -12.199   2.963 -23.028  1.00  0.00     0.214 A 
ATOM      3  C   UNL     1     -13.049   3.851 -22.336  1.00  0.00     0.180 A 
ATOM      4  O   UNL     1     -14.201   3.418 -21.835  1.00  0.00    -0.452 OA
ATOM      5  C   UNL     1     -12.594   1.613 -23.145  1.00  0.00     0.239 A 
ATOM      6  C   UNL     1     -14.611   2.161 -21.928  1.00  0.00     0.146 A 
ATOM      7  O   UNL     1     -11.851   0.784 -23.734  1.00  0.00    -0.285 OA
ATOM      8  C   UNL     1     -13.821   1.193 -22.589  1.00  0.00     0.111 A 
ATOM      9  C   UNL     1     -15.838   1.803 -21.362  1.00  0.00     0.094 A 
ATOM     10  C   UNL     1     -14.289  -0.142 -22.665  1.00  0.00     0.134 A 
ATOM     11  C   UNL     1     -16.295   0.483 -21.441  1.00  0.00     0.123 A 
ATOM     12  C   UNL     1     -15.522  -0.482 -22.089  1.00  0.00     0.093 A 
BRANCH   3  13
ATOM     13  C   UNL     1     -12.727   5.287 -22.188  1.00  0.00     0.025 A 
ATOM     14  C   UNL     1     -12.194   5.798 -20.994  1.00  0.00     0.016 A 
ATOM     15  C   UNL     1     -11.901   7.159 -20.875  1.00  0.00     0.051 A 
ATOM     16  C   UNL     1     -12.151   8.032 -21.942  1.00  0.00     0.157 A 
ATOM     17  C   UNL     1     -12.997   6.168 -23.247  1.00  0.00     0.062 A 
ATOM     18  C   UNL     1     -12.706   7.533 -23.134  1.00  0.00     0.158 A 
BRANCH  16  19
ATOM     19  O   UNL     1     -11.856   9.388 -21.822  1.00  0.00    -0.504 OA
ATOM     20  H   UNL     1     -11.431   9.908 -22.581  1.00  0.00     0.293 HD
ENDBRANCH  16  19
BRANCH  18  21
ATOM     21  O   UNL     1     -12.975   8.376 -24.211  1.00  0.00    -0.504 OA
ATOM     22  H   UNL     1     -13.170   9.362 -24.087  1.00  0.00     0.293 HD
ENDBRANCH  18  21
ENDBRANCH   3  13
BRANCH  10  23
ATOM     23  O   UNL     1     -13.541  -1.131 -23.306  1.00  0.00    -0.507 OA
ATOM     24  H   UNL     1     -13.637  -1.312 -24.298  1.00  0.00     0.293 HD
ENDBRANCH  10  23
BRANCH  11  25
ATOM     25  O   UNL     1     -17.516   0.121 -20.877  1.00  0.00    -0.508 OA
ATOM     26  H   UNL     1     -17.740  -0.847 -20.674  1.00  0.00     0.293 HD
ENDBRANCH  11  25
ENDBRANCH   1   2
BRANCH   1  27
ATOM     27  C   UNL     1     -10.754   3.710 -24.970  1.00  0.00     0.339 C 
ATOM     28  C   UNL     1     -10.365   5.180 -25.185  1.00  0.00     0.214 C 
ATOM     29  O   UNL     1      -9.798   2.801 -25.507  1.00  0.00    -0.332 OA
ATOM     30  C   UNL     1      -8.964   5.451 -24.618  1.00  0.00     0.180 C 
ATOM     31  C   UNL     1      -8.470   2.974 -25.020  1.00  0.00     0.179 C 
ATOM     32  C   UNL     1      -7.945   4.429 -25.154  1.00  0.00     0.177 C 
BRANCH  28  33
ATOM     33  O   UNL     1     -10.426   5.483 -26.555  1.00  0.00    -0.384 OA
ATOM     34  H   UNL     1     -10.002   4.728 -27.040  1.00  0.00     0.211 HD
ENDBRANCH  28  33
BRANCH  30  35
ATOM     35  O   UNL     1      -8.565   6.760 -24.935  1.00  0.00    -0.387 OA
ATOM     36  H   UNL     1      -7.585   6.729 -25.099  1.00  0.00     0.211 HD
ENDBRANCH  30  35
BRANCH  31  37
ATOM     37  C   UNL     1      -8.268   2.390 -23.610  1.00  0.00     0.191 C 
BRANCH  37  38
ATOM     38  O   UNL     1      -8.973   1.187 -23.483  1.00  0.00    -0.394 OA
ATOM     39  H   UNL     1      -9.689   1.355 -22.815  1.00  0.00     0.210 HD
ENDBRANCH  37  38
ENDBRANCH  31  37
BRANCH  32  40
ATOM     40  O   UNL     1      -7.579   4.726 -26.482  1.00  0.00    -0.387 OA
ATOM     41  H   UNL     1      -8.062   5.543 -26.767  1.00  0.00     0.211 HD
ENDBRANCH  32  40
ENDBRANCH   1  27
TORSDOF 12
ENDMDL
MODEL 7
REMARK VINA RESULT:    -5.279      9.436     13.817
REMARK INTER + INTRA:          -9.535
REMARK INTER:                  -8.144
REMARK INTRA:                  -1.391
REMARK UNBOUND:                -1.788
REMARK SMILES O=c1c(O[C@@H]2O[C@H](CO)[C@@H](O)[C@@H](O)[C@H]2O)c(-c2ccc(O)c(O)c2)oc2cc(O)cc(O)c12
REMARK SMILES IDX 4 1 3 2 16 3 25 4 2 5 26 6 1 7 33 8 27 9 31 10 28 11 30 12
REMARK SMILES IDX 17 13 18 14 19 15 20 16 24 17 22 18 21 19 23 21 32 23 29 25
REMARK SMILES IDX 5 27 14 28 6 29 12 30 7 31 10 32 15 33 13 35 8 37 9 38 11 40
REMARK H PARENT 21 20 23 22 32 24 29 26 15 34 13 36 9 39 11 41
REMARK Flexibility Score: inf
ROOT
ATOM      1  O   UNL     1     -13.616   6.146 -37.504  1.00  0.00    -0.454 OA
ENDROOT
BRANCH   1   2
ATOM      2  C   UNL     1     -14.419   5.222 -36.805  1.00  0.00     0.214 A 
ATOM      3  C   UNL     1     -13.932   4.687 -35.594  1.00  0.00     0.180 A 
ATOM      4  O   UNL     1     -14.678   3.845 -34.888  1.00  0.00    -0.452 OA
ATOM      5  C   UNL     1     -15.697   4.817 -37.249  1.00  0.00     0.239 A 
ATOM      6  C   UNL     1     -15.884   3.444 -35.267  1.00  0.00     0.146 A 
ATOM      7  O   UNL     1     -16.156   5.253 -38.337  1.00  0.00    -0.285 OA
ATOM      8  C   UNL     1     -16.452   3.912 -36.473  1.00  0.00     0.111 A 
ATOM      9  C   UNL     1     -16.588   2.549 -34.456  1.00  0.00     0.094 A 
ATOM     10  C   UNL     1     -17.740   3.459 -36.848  1.00  0.00     0.134 A 
ATOM     11  C   UNL     1     -17.861   2.107 -34.830  1.00  0.00     0.123 A 
ATOM     12  C   UNL     1     -18.431   2.560 -36.022  1.00  0.00     0.093 A 
BRANCH   3  13
ATOM     13  C   UNL     1     -12.615   5.075 -35.042  1.00  0.00     0.025 A 
ATOM     14  C   UNL     1     -11.460   4.322 -35.305  1.00  0.00     0.016 A 
ATOM     15  C   UNL     1     -10.228   4.705 -34.768  1.00  0.00     0.051 A 
ATOM     16  C   UNL     1     -10.136   5.837 -33.948  1.00  0.00     0.157 A 
ATOM     17  C   UNL     1     -12.522   6.195 -34.200  1.00  0.00     0.062 A 
ATOM     18  C   UNL     1     -11.291   6.583 -33.660  1.00  0.00     0.158 A 
BRANCH  16  19
ATOM     19  O   UNL     1      -8.905   6.218 -33.416  1.00  0.00    -0.504 OA
ATOM     20  H   UNL     1      -8.073   6.274 -33.991  1.00  0.00     0.293 HD
ENDBRANCH  16  19
BRANCH  18  21
ATOM     21  O   UNL     1     -11.235   7.710 -32.840  1.00  0.00    -0.504 OA
ATOM     22  H   UNL     1     -10.540   7.810 -32.111  1.00  0.00     0.293 HD
ENDBRANCH  18  21
ENDBRANCH   3  13
BRANCH  10  23
ATOM     23  O   UNL     1     -18.340   3.894 -38.032  1.00  0.00    -0.507 OA
ATOM     24  H   UNL     1     -18.543   4.872 -38.198  1.00  0.00     0.293 HD
ENDBRANCH  10  23
BRANCH  11  25
ATOM     25  O   UNL     1     -18.566   1.214 -34.027  1.00  0.00    -0.508 OA
ATOM     26  H   UNL     1     -18.954   1.497 -33.134  1.00  0.00     0.293 HD
ENDBRANCH  11  25
ENDBRANCH   1   2
BRANCH   1  27
ATOM     27  C   UNL     1     -12.690   5.841 -38.550  1.00  0.00     0.339 C 
ATOM     28  C   UNL     1     -13.185   6.435 -39.877  1.00  0.00     0.214 C 
ATOM     29  O   UNL     1     -11.363   6.242 -38.226  1.00  0.00    -0.332 OA
ATOM     30  C   UNL     1     -13.057   7.964 -39.859  1.00  0.00     0.180 C 
ATOM     31  C   UNL     1     -11.160   7.651 -38.173  1.00  0.00     0.179 C 
ATOM     32  C   UNL     1     -11.637   8.395 -39.450  1.00  0.00     0.177 C 
BRANCH  28  33
ATOM     33  O   UNL     1     -12.454   5.876 -40.939  1.00  0.00    -0.384 OA
ATOM     34  H   UNL     1     -13.111   5.593 -41.628  1.00  0.00     0.211 HD
ENDBRANCH  28  33
BRANCH  30  35
ATOM     35  O   UNL     1     -13.388   8.487 -41.121  1.00  0.00    -0.387 OA
ATOM     36  H   UNL     1     -12.594   8.353 -41.703  1.00  0.00     0.211 HD
ENDBRANCH  30  35
BRANCH  31  37
ATOM     37  C   UNL     1     -11.695   8.285 -36.875  1.00  0.00     0.191 C 
BRANCH  37  38
ATOM     38  O   UNL     1     -11.942   9.648 -37.074  1.00  0.00    -0.394 OA
ATOM     39  H   UNL     1     -12.563   9.926 -36.351  1.00  0.00     0.210 HD
ENDBRANCH  37  38
ENDBRANCH  31  37
BRANCH  32  40
ATOM     40  O   UNL     1     -10.729   8.227 -40.514  1.00  0.00    -0.387 OA
ATOM     41  H   UNL     1      -9.893   7.833 -40.156  1.00  0.00     0.211 HD
ENDBRANCH  32  40
ENDBRANCH   1  27
TORSDOF 12
ENDMDL
MODEL 8
REMARK VINA RESULT:    -5.271     11.794     15.021
REMARK INTER + INTRA:          -9.523
REMARK INTER:                  -7.809
REMARK INTRA:                  -1.714
REMARK UNBOUND:                -1.788
REMARK SMILES O=c1c(O[C@@H]2O[C@H](CO)[C@@H](O)[C@@H](O)[C@H]2O)c(-c2ccc(O)c(O)c2)oc2cc(O)cc(O)c12
REMARK SMILES IDX 4 1 3 2 16 3 25 4 2 5 26 6 1 7 33 8 27 9 31 10 28 11 30 12
REMARK SMILES IDX 17 13 18 14 19 15 20 16 24 17 22 18 21 19 23 21 32 23 29 25
REMARK SMILES IDX 5 27 14 28 6 29 12 30 7 31 10 32 15 33 13 35 8 37 9 38 11 40
REMARK H PARENT 21 20 23 22 32 24 29 26 15 34 13 36 9 39 11 41
REMARK Flexibility Score: inf
ROOT
ATOM      1  O   UNL     1     -12.106   4.119 -39.283  1.00  0.00    -0.454 OA
ENDROOT
BRANCH   1   2
ATOM      2  C   UNL     1     -12.548   2.800 -39.059  1.00  0.00     0.214 A 
ATOM      3  C   UNL     1     -13.675   2.598 -38.234  1.00  0.00     0.180 A 
ATOM      4  O   UNL     1     -14.146   1.372 -38.034  1.00  0.00    -0.452 OA
ATOM      5  C   UNL     1     -11.931   1.668 -39.635  1.00  0.00     0.239 A 
ATOM      6  C   UNL     1     -13.598   0.285 -38.559  1.00  0.00     0.146 A 
ATOM      7  O   UNL     1     -10.908   1.804 -40.357  1.00  0.00    -0.285 OA
ATOM      8  C   UNL     1     -12.456   0.382 -39.387  1.00  0.00     0.111 A 
ATOM      9  C   UNL     1     -14.165  -0.963 -38.283  1.00  0.00     0.094 A 
ATOM     10  C   UNL     1     -11.896  -0.801 -39.928  1.00  0.00     0.134 A 
ATOM     11  C   UNL     1     -13.608  -2.127 -38.821  1.00  0.00     0.123 A 
ATOM     12  C   UNL     1     -12.478  -2.043 -39.638  1.00  0.00     0.093 A 
BRANCH   3  13
ATOM     13  C   UNL     1     -14.400   3.727 -37.611  1.00  0.00     0.025 A 
ATOM     14  C   UNL     1     -15.698   4.076 -38.015  1.00  0.00     0.016 A 
ATOM     15  C   UNL     1     -16.362   5.149 -37.415  1.00  0.00     0.051 A 
ATOM     16  C   UNL     1     -15.731   5.900 -36.414  1.00  0.00     0.157 A 
ATOM     17  C   UNL     1     -13.762   4.496 -36.624  1.00  0.00     0.062 A 
ATOM     18  C   UNL     1     -14.422   5.573 -36.020  1.00  0.00     0.158 A 
BRANCH  16  19
ATOM     19  O   UNL     1     -16.396   6.968 -35.816  1.00  0.00    -0.504 OA
ATOM     20  H   UNL     1     -17.137   7.467 -36.294  1.00  0.00     0.293 HD
ENDBRANCH  16  19
BRANCH  18  21
ATOM     21  O   UNL     1     -13.763   6.305 -35.033  1.00  0.00    -0.504 OA
ATOM     22  H   UNL     1     -13.395   5.871 -34.196  1.00  0.00     0.293 HD
ENDBRANCH  18  21
ENDBRANCH   3  13
BRANCH  10  23
ATOM     23  O   UNL     1     -10.768  -0.753 -40.749  1.00  0.00    -0.507 OA
ATOM     24  H   UNL     1     -10.349   0.126 -41.028  1.00  0.00     0.293 HD
ENDBRANCH  10  23
BRANCH  11  25
ATOM     25  O   UNL     1     -14.168  -3.373 -38.548  1.00  0.00    -0.508 OA
ATOM     26  H   UNL     1     -14.796  -3.512 -37.764  1.00  0.00     0.293 HD
ENDBRANCH  11  25
ENDBRANCH   1   2
BRANCH   1  27
ATOM     27  C   UNL     1     -12.420   4.936 -40.413  1.00  0.00     0.339 C 
ATOM     28  C   UNL     1     -13.290   6.124 -39.976  1.00  0.00     0.214 C 
ATOM     29  O   UNL     1     -11.254   5.339 -41.125  1.00  0.00    -0.332 OA
ATOM     30  C   UNL     1     -12.460   7.123 -39.159  1.00  0.00     0.180 C 
ATOM     31  C   UNL     1     -10.416   6.257 -40.430  1.00  0.00     0.179 C 
ATOM     32  C   UNL     1     -11.170   7.509 -39.905  1.00  0.00     0.177 C 
BRANCH  28  33
ATOM     33  O   UNL     1     -13.850   6.735 -41.111  1.00  0.00    -0.384 OA
ATOM     34  H   UNL     1     -14.475   7.434 -40.787  1.00  0.00     0.211 HD
ENDBRANCH  28  33
BRANCH  30  35
ATOM     35  O   UNL     1     -13.228   8.265 -38.876  1.00  0.00    -0.387 OA
ATOM     36  H   UNL     1     -14.152   7.950 -38.690  1.00  0.00     0.211 HD
ENDBRANCH  30  35
BRANCH  31  37
ATOM     37  C   UNL     1      -9.553   5.581 -39.349  1.00  0.00     0.191 C 
BRANCH  37  38
ATOM     38  O   UNL     1      -9.196   4.290 -39.758  1.00  0.00    -0.394 OA
ATOM     39  H   UNL     1      -8.856   3.827 -38.948  1.00  0.00     0.210 HD
ENDBRANCH  37  38
ENDBRANCH  31  37
BRANCH  32  40
ATOM     40  O   UNL     1     -11.439   8.423 -40.944  1.00  0.00    -0.387 OA
ATOM     41  H   UNL     1     -11.725   9.283 -40.542  1.00  0.00     0.211 HD
ENDBRANCH  32  40
ENDBRANCH   1  27
TORSDOF 12
ENDMDL
MODEL 9
REMARK VINA RESULT:    -5.185      3.565      6.980
REMARK INTER + INTRA:          -9.398
REMARK INTER:                  -7.692
REMARK INTRA:                  -1.706
REMARK UNBOUND:                -1.788
REMARK SMILES O=c1c(O[C@@H]2O[C@H](CO)[C@@H](O)[C@@H](O)[C@H]2O)c(-c2ccc(O)c(O)c2)oc2cc(O)cc(O)c12
REMARK SMILES IDX 4 1 3 2 16 3 25 4 2 5 26 6 1 7 33 8 27 9 31 10 28 11 30 12
REMARK SMILES IDX 17 13 18 14 19 15 20 16 24 17 22 18 21 19 23 21 32 23 29 25
REMARK SMILES IDX 5 27 14 28 6 29 12 30 7 31 10 32 15 33 13 35 8 37 9 38 11 40
REMARK H PARENT 21 20 23 22 32 24 29 26 15 34 13 36 9 39 11 41
REMARK Flexibility Score: inf
ROOT
ATOM      1  O   UNL     1      -7.839   3.236 -25.947  1.00  0.00    -0.454 OA
ENDROOT
BRANCH   1   2
ATOM      2  C   UNL     1      -7.233   4.478 -26.224  1.00  0.00     0.214 A 
ATOM      3  C   UNL     1      -7.920   5.658 -25.870  1.00  0.00     0.180 A 
ATOM      4  O   UNL     1      -7.362   6.845 -26.079  1.00  0.00    -0.452 OA
ATOM      5  C   UNL     1      -5.961   4.600 -26.825  1.00  0.00     0.239 A 
ATOM      6  C   UNL     1      -6.169   7.003 -26.635  1.00  0.00     0.146 A 
ATOM      7  O   UNL     1      -5.326   3.572 -27.178  1.00  0.00    -0.285 OA
ATOM      8  C   UNL     1      -5.409   5.881 -27.039  1.00  0.00     0.111 A 
ATOM      9  C   UNL     1      -5.670   8.296 -26.818  1.00  0.00     0.094 A 
ATOM     10  C   UNL     1      -4.140   6.088 -27.633  1.00  0.00     0.134 A 
ATOM     11  C   UNL     1      -4.416   8.494 -27.404  1.00  0.00     0.123 A 
ATOM     12  C   UNL     1      -3.657   7.393 -27.810  1.00  0.00     0.093 A 
BRANCH   3  13
ATOM     13  C   UNL     1      -9.246   5.623 -25.213  1.00  0.00     0.025 A 
ATOM     14  C   UNL     1     -10.430   5.528 -25.960  1.00  0.00     0.016 A 
ATOM     15  C   UNL     1     -11.671   5.501 -25.319  1.00  0.00     0.051 A 
ATOM     16  C   UNL     1     -11.747   5.585 -23.922  1.00  0.00     0.157 A 
ATOM     17  C   UNL     1      -9.327   5.730 -23.816  1.00  0.00     0.062 A 
ATOM     18  C   UNL     1     -10.567   5.704 -23.168  1.00  0.00     0.158 A 
BRANCH  16  19
ATOM     19  O   UNL     1     -12.986   5.556 -23.284  1.00  0.00    -0.504 OA
ATOM     20  H   UNL     1     -13.721   6.211 -23.523  1.00  0.00     0.293 HD
ENDBRANCH  16  19
BRANCH  18  21
ATOM     21  O   UNL     1     -10.608   5.798 -21.777  1.00  0.00    -0.504 OA
ATOM     22  H   UNL     1      -9.846   6.195 -21.242  1.00  0.00     0.293 HD
ENDBRANCH  18  21
ENDBRANCH   3  13
BRANCH  10  23
ATOM     23  O   UNL     1      -3.355   5.011 -28.048  1.00  0.00    -0.507 OA
ATOM     24  H   UNL     1      -2.697   4.558 -27.424  1.00  0.00     0.293 HD
ENDBRANCH  10  23
BRANCH  11  25
ATOM     25  O   UNL     1      -3.915   9.780 -27.590  1.00  0.00    -0.508 OA
ATOM     26  H   UNL     1      -4.514  10.548 -27.871  1.00  0.00     0.293 HD
ENDBRANCH  11  25
ENDBRANCH   1   2
BRANCH   1  27
ATOM     27  C   UNL     1      -7.498   2.349 -24.879  1.00  0.00     0.339 C 
ATOM     28  C   UNL     1      -8.657   2.269 -23.873  1.00  0.00     0.214 C 
ATOM     29  O   UNL     1      -7.092   1.069 -25.355  1.00  0.00    -0.332 OA
ATOM     30  C   UNL     1      -9.839   1.501 -24.478  1.00  0.00     0.180 C 
ATOM     31  C   UNL     1      -8.129   0.294 -25.948  1.00  0.00     0.179 C 
ATOM     32  C   UNL     1      -9.384   0.144 -25.046  1.00  0.00     0.177 C 
BRANCH  28  33
ATOM     33  O   UNL     1      -8.206   1.659 -22.690  1.00  0.00    -0.384 OA
ATOM     34  H   UNL     1      -7.421   2.179 -22.375  1.00  0.00     0.211 HD
ENDBRANCH  28  33
BRANCH  30  35
ATOM     35  O   UNL     1     -10.840   1.321 -23.509  1.00  0.00    -0.387 OA
ATOM     36  H   UNL     1     -10.485   1.693 -22.658  1.00  0.00     0.211 HD
ENDBRANCH  30  35
BRANCH  31  37
ATOM     37  C   UNL     1      -8.470   0.745 -27.380  1.00  0.00     0.191 C 
BRANCH  37  38
ATOM     38  O   UNL     1      -7.322   1.233 -28.015  1.00  0.00    -0.394 OA
ATOM     39  H   UNL     1      -6.761   0.440 -28.222  1.00  0.00     0.210 HD
ENDBRANCH  37  38
ENDBRANCH  31  37
BRANCH  32  40
ATOM     40  O   UNL     1      -9.170  -0.791 -24.014  1.00  0.00    -0.387 OA
ATOM     41  H   UNL     1     -10.050  -1.058 -23.643  1.00  0.00     0.211 HD
ENDBRANCH  32  40
ENDBRANCH   1  27
TORSDOF 12
ENDMDL
