MODEL 1
REMARK VINA RESULT:    -4.716      0.000      0.000
REMARK INTER + INTRA:         -12.337
REMARK INTER:                 -10.781
REMARK INTRA:                  -1.555
REMARK UNBOUND:                -1.555
REMARK SMILES CCCCCCCCCCCCCCCCCCCCCCCC(=O)[O-]
REMARK SMILES IDX 13 1 14 2 15 3 16 4 17 5 18 6 19 7 20 8 21 9 22 10 23 11
REMARK SMILES IDX 24 12 25 13 26 14 12 15 11 16 10 17 9 18 8 19 7 20 6 21 5 22
REMARK SMILES IDX 4 23 3 24 2 25 1 26
REMARK H PARENT
REMARK Flexibility Score: inf
ROOT
ATOM      1  C   UNL     1      -0.859  12.876 -37.620  1.00  0.00     0.000 C 
ENDROOT
BRANCH   1   2
ATOM      2  C   UNL     1      -1.780  13.010 -36.393  1.00  0.00     0.000 C 
BRANCH   2   3
ATOM      3  C   UNL     1      -2.299  11.643 -35.899  1.00  0.00     0.000 C 
BRANCH   3   4
ATOM      4  C   UNL     1      -2.902  10.775 -37.017  1.00  0.00     0.000 C 
BRANCH   4   5
ATOM      5  C   UNL     1      -3.680   9.564 -36.476  1.00  0.00     0.000 C 
BRANCH   5   6
ATOM      6  C   UNL     1      -4.819   9.134 -37.415  1.00  0.00     0.000 C 
BRANCH   6   7
ATOM      7  C   UNL     1      -4.361   9.045 -38.881  1.00  0.00     0.000 C 
BRANCH   7   8
ATOM      8  C   UNL     1      -5.527   9.165 -39.878  1.00  0.00     0.000 C 
BRANCH   8   9
ATOM      9  C   UNL     1      -6.814   8.432 -39.454  1.00  0.00     0.000 C 
BRANCH   9  10
ATOM     10  C   UNL     1      -7.372   7.482 -40.537  1.00  0.00     0.006 C 
BRANCH  10  11
ATOM     11  C   UNL     1      -7.758   6.111 -39.962  1.00  0.00     0.053 C 
BRANCH  11  12
ATOM     12  C   UNL     1      -8.011   5.119 -41.054  1.00  0.00     0.041 C 
ATOM     13  O   UNL     1      -8.576   4.022 -40.798  1.00  0.00    -0.550 OA
ATOM     14  O   UNL     1      -7.618   5.404 -42.356  1.00  0.00    -0.550 OA
ENDBRANCH  11  12
ENDBRANCH  10  11
ENDBRANCH   9  10
ENDBRANCH   8   9
ENDBRANCH   7   8
ENDBRANCH   6   7
ENDBRANCH   5   6
ENDBRANCH   4   5
ENDBRANCH   3   4
ENDBRANCH   2   3
ENDBRANCH   1   2
BRANCH   1  15
ATOM     15  C   UNL     1       0.554  12.384 -37.237  1.00  0.00     0.000 C 
BRANCH  15  16
ATOM     16  C   UNL     1       0.990  11.114 -37.988  1.00  0.00     0.000 C 
BRANCH  16  17
ATOM     17  C   UNL     1      -0.153  10.474 -38.794  1.00  0.00     0.000 C 
BRANCH  17  18
ATOM     18  C   UNL     1      -0.425   9.019 -38.382  1.00  0.00    -0.000 C 
BRANCH  18  19
ATOM     19  C   UNL     1      -1.370   8.291 -39.349  1.00  0.00    -0.000 C 
BRANCH  19  20
ATOM     20  C   UNL     1      -0.579   7.559 -40.440  1.00  0.00    -0.000 C 
BRANCH  20  21
ATOM     21  C   UNL     1      -0.618   6.040 -40.224  1.00  0.00    -0.000 C 
BRANCH  21  22
ATOM     22  C   UNL     1       0.204   5.272 -41.271  1.00  0.00    -0.000 C 
BRANCH  22  23
ATOM     23  C   UNL     1       0.745   6.183 -42.387  1.00  0.00    -0.000 C 
BRANCH  23  24
ATOM     24  C   UNL     1       2.288   6.183 -42.444  1.00  0.00    -0.000 C 
BRANCH  24  25
ATOM     25  C   UNL     1       2.938   5.163 -41.492  1.00  0.00    -0.003 C 
ATOM     26  C   UNL     1       4.447   5.032 -41.697  1.00  0.00     0.004 C 
ENDBRANCH  24  25
ENDBRANCH  23  24
ENDBRANCH  22  23
ENDBRANCH  21  22
ENDBRANCH  20  21
ENDBRANCH  19  20
ENDBRANCH  18  19
ENDBRANCH  17  18
ENDBRANCH  16  17
ENDBRANCH  15  16
ENDBRANCH   1  15
TORSDOF 22
ENDMDL
MODEL 2
REMARK VINA RESULT:    -4.569      1.891      2.688
REMARK INTER + INTRA:         -12.000
REMARK INTER:                 -10.334
REMARK INTRA:                  -1.666
REMARK UNBOUND:                -1.555
REMARK SMILES CCCCCCCCCCCCCCCCCCCCCCCC(=O)[O-]
REMARK SMILES IDX 13 1 14 2 15 3 16 4 17 5 18 6 19 7 20 8 21 9 22 10 23 11
REMARK SMILES IDX 24 12 25 13 26 14 12 15 11 16 10 17 9 18 8 19 7 20 6 21 5 22
REMARK SMILES IDX 4 23 3 24 2 25 1 26
REMARK H PARENT
REMARK Flexibility Score: inf
ROOT
ATOM      1  C   UNL     1       0.266  12.472 -37.656  1.00  0.00     0.000 C 
ENDROOT
BRANCH   1   2
ATOM      2  C   UNL     1       0.266  10.949 -37.886  1.00  0.00     0.000 C 
BRANCH   2   3
ATOM      3  C   UNL     1      -1.136  10.412 -38.250  1.00  0.00     0.000 C 
BRANCH   3   4
ATOM      4  C   UNL     1      -1.129   8.946 -38.713  1.00  0.00     0.000 C 
BRANCH   4   5
ATOM      5  C   UNL     1      -2.434   8.539 -39.419  1.00  0.00     0.000 C 
BRANCH   5   6
ATOM      6  C   UNL     1      -3.682   8.994 -38.647  1.00  0.00     0.000 C 
BRANCH   6   7
ATOM      7  C   UNL     1      -4.946   8.981 -39.524  1.00  0.00     0.000 C 
BRANCH   7   8
ATOM      8  C   UNL     1      -6.229   8.717 -38.718  1.00  0.00     0.000 C 
BRANCH   8   9
ATOM      9  C   UNL     1      -7.460   8.350 -39.569  1.00  0.00     0.000 C 
BRANCH   9  10
ATOM     10  C   UNL     1      -7.207   7.191 -40.559  1.00  0.00     0.006 C 
BRANCH  10  11
ATOM     11  C   UNL     1      -7.776   5.858 -40.051  1.00  0.00     0.053 C 
BRANCH  11  12
ATOM     12  C   UNL     1      -8.148   4.960 -41.188  1.00  0.00     0.041 C 
ATOM     13  O   UNL     1      -7.853   5.277 -42.372  1.00  0.00    -0.550 OA
ATOM     14  O   UNL     1      -8.824   3.772 -40.943  1.00  0.00    -0.550 OA
ENDBRANCH  11  12
ENDBRANCH  10  11
ENDBRANCH   9  10
ENDBRANCH   8   9
ENDBRANCH   7   8
ENDBRANCH   6   7
ENDBRANCH   5   6
ENDBRANCH   4   5
ENDBRANCH   3   4
ENDBRANCH   2   3
ENDBRANCH   1   2
BRANCH   1  15
ATOM     15  C   UNL     1       1.175  13.213 -38.660  1.00  0.00     0.000 C 
BRANCH  15  16
ATOM     16  C   UNL     1       1.903  12.279 -39.642  1.00  0.00     0.000 C 
BRANCH  16  17
ATOM     17  C   UNL     1       2.473  13.023 -40.861  1.00  0.00     0.000 C 
BRANCH  17  18
ATOM     18  C   UNL     1       3.014  12.067 -41.937  1.00  0.00    -0.000 C 
BRANCH  18  19
ATOM     19  C   UNL     1       2.619  10.604 -41.689  1.00  0.00    -0.000 C 
BRANCH  19  20
ATOM     20  C   UNL     1       1.594  10.130 -42.727  1.00  0.00    -0.000 C 
BRANCH  20  21
ATOM     21  C   UNL     1       1.529   8.597 -42.777  1.00  0.00    -0.000 C 
BRANCH  21  22
ATOM     22  C   UNL     1       0.396   8.024 -41.911  1.00  0.00    -0.000 C 
BRANCH  22  23
ATOM     23  C   UNL     1       0.567   6.521 -41.628  1.00  0.00    -0.000 C 
BRANCH  23  24
ATOM     24  C   UNL     1       1.797   5.928 -42.348  1.00  0.00    -0.000 C 
BRANCH  24  25
ATOM     25  C   UNL     1       2.627   4.979 -41.465  1.00  0.00    -0.003 C 
ATOM     26  C   UNL     1       4.123   5.295 -41.492  1.00  0.00     0.004 C 
ENDBRANCH  24  25
ENDBRANCH  23  24
ENDBRANCH  22  23
ENDBRANCH  21  22
ENDBRANCH  20  21
ENDBRANCH  19  20
ENDBRANCH  18  19
ENDBRANCH  17  18
ENDBRANCH  16  17
ENDBRANCH  15  16
ENDBRANCH   1  15
TORSDOF 22
ENDMDL
MODEL 3
REMARK VINA RESULT:    -4.402      1.824      5.520
REMARK INTER + INTRA:         -11.618
REMARK INTER:                  -9.683
REMARK INTRA:                  -1.935
REMARK UNBOUND:                -1.555
REMARK SMILES CCCCCCCCCCCCCCCCCCCCCCCC(=O)[O-]
REMARK SMILES IDX 13 1 14 2 15 3 16 4 17 5 18 6 19 7 20 8 21 9 22 10 23 11
REMARK SMILES IDX 24 12 25 13 26 14 12 15 11 16 10 17 9 18 8 19 7 20 6 21 5 22
REMARK SMILES IDX 4 23 3 24 2 25 1 26
REMARK H PARENT
REMARK Flexibility Score: inf
ROOT
ATOM      1  C   UNL     1       0.089   6.876 -40.750  1.00  0.00     0.000 C 
ENDROOT
BRANCH   1   2
ATOM      2  C   UNL     1      -1.157   7.551 -40.148  1.00  0.00     0.000 C 
BRANCH   2   3
ATOM      3  C   UNL     1      -0.809   8.450 -38.942  1.00  0.00     0.000 C 
BRANCH   3   4
ATOM      4  C   UNL     1      -1.968   9.361 -38.501  1.00  0.00     0.000 C 
BRANCH   4   5
ATOM      5  C   UNL     1      -3.112   9.406 -39.527  1.00  0.00     0.000 C 
BRANCH   5   6
ATOM      6  C   UNL     1      -4.460   8.988 -38.919  1.00  0.00     0.000 C 
BRANCH   6   7
ATOM      7  C   UNL     1      -5.637   9.247 -39.876  1.00  0.00     0.000 C 
BRANCH   7   8
ATOM      8  C   UNL     1      -6.996   9.278 -39.157  1.00  0.00     0.000 C 
BRANCH   8   9
ATOM      9  C   UNL     1      -7.697   7.910 -39.046  1.00  0.00     0.000 C 
BRANCH   9  10
ATOM     10  C   UNL     1      -7.387   6.957 -40.223  1.00  0.00     0.006 C 
BRANCH  10  11
ATOM     11  C   UNL     1      -7.923   5.539 -39.978  1.00  0.00     0.053 C 
BRANCH  11  12
ATOM     12  C   UNL     1      -8.176   4.826 -41.269  1.00  0.00     0.041 C 
ATOM     13  O   UNL     1      -8.861   3.769 -41.289  1.00  0.00    -0.550 OA
ATOM     14  O   UNL     1      -7.650   5.328 -42.454  1.00  0.00    -0.550 OA
ENDBRANCH  11  12
ENDBRANCH  10  11
ENDBRANCH   9  10
ENDBRANCH   8   9
ENDBRANCH   7   8
ENDBRANCH   6   7
ENDBRANCH   5   6
ENDBRANCH   4   5
ENDBRANCH   3   4
ENDBRANCH   2   3
ENDBRANCH   1   2
BRANCH   1  15
ATOM     15  C   UNL     1       0.337   7.308 -42.212  1.00  0.00     0.000 C 
BRANCH  15  16
ATOM     16  C   UNL     1       1.538   8.254 -42.382  1.00  0.00     0.000 C 
BRANCH  16  17
ATOM     17  C   UNL     1       1.185   9.724 -42.094  1.00  0.00     0.000 C 
BRANCH  17  18
ATOM     18  C   UNL     1       2.338  10.684 -42.423  1.00  0.00    -0.000 C 
BRANCH  18  19
ATOM     19  C   UNL     1       3.014  11.258 -41.170  1.00  0.00    -0.000 C 
BRANCH  19  20
ATOM     20  C   UNL     1       2.726  12.758 -41.031  1.00  0.00    -0.000 C 
BRANCH  20  21
ATOM     21  C   UNL     1       1.690  13.021 -39.929  1.00  0.00    -0.000 C 
BRANCH  21  22
ATOM     22  C   UNL     1       1.263  11.737 -39.201  1.00  0.00    -0.000 C 
BRANCH  22  23
ATOM     23  C   UNL     1       0.790  12.000 -37.760  1.00  0.00    -0.000 C 
BRANCH  23  24
ATOM     24  C   UNL     1      -0.631  12.601 -37.713  1.00  0.00    -0.000 C 
BRANCH  24  25
ATOM     25  C   UNL     1      -1.056  13.065 -36.308  1.00  0.00    -0.003 C 
ATOM     26  C   UNL     1      -2.245  12.279 -35.754  1.00  0.00     0.004 C 
ENDBRANCH  24  25
ENDBRANCH  23  24
ENDBRANCH  22  23
ENDBRANCH  21  22
ENDBRANCH  20  21
ENDBRANCH  19  20
ENDBRANCH  18  19
ENDBRANCH  17  18
ENDBRANCH  16  17
ENDBRANCH  15  16
ENDBRANCH   1  15
TORSDOF 22
ENDMDL
MODEL 4
REMARK VINA RESULT:    -4.337      1.843      2.926
REMARK INTER + INTRA:         -11.471
REMARK INTER:                  -9.490
REMARK INTRA:                  -1.981
REMARK UNBOUND:                -1.555
REMARK SMILES CCCCCCCCCCCCCCCCCCCCCCCC(=O)[O-]
REMARK SMILES IDX 13 1 14 2 15 3 16 4 17 5 18 6 19 7 20 8 21 9 22 10 23 11
REMARK SMILES IDX 24 12 25 13 26 14 12 15 11 16 10 17 9 18 8 19 7 20 6 21 5 22
REMARK SMILES IDX 4 23 3 24 2 25 1 26
REMARK H PARENT
REMARK Flexibility Score: inf
ROOT
ATOM      1  C   UNL     1      -1.126  11.080 -37.827  1.00  0.00     0.000 C 
ENDROOT
BRANCH   1   2
ATOM      2  C   UNL     1      -0.420  10.020 -38.693  1.00  0.00     0.000 C 
BRANCH   2   3
ATOM      3  C   UNL     1      -1.016   8.610 -38.493  1.00  0.00     0.000 C 
BRANCH   3   4
ATOM      4  C   UNL     1      -2.495   8.506 -38.902  1.00  0.00     0.000 C 
BRANCH   4   5
ATOM      5  C   UNL     1      -2.865   9.465 -40.046  1.00  0.00     0.000 C 
BRANCH   5   6
ATOM      6  C   UNL     1      -4.381   9.528 -40.289  1.00  0.00     0.000 C 
BRANCH   6   7
ATOM      7  C   UNL     1      -5.178   8.813 -39.184  1.00  0.00     0.000 C 
BRANCH   7   8
ATOM      8  C   UNL     1      -6.638   9.288 -39.098  1.00  0.00     0.000 C 
BRANCH   8   9
ATOM      9  C   UNL     1      -7.689   8.169 -39.231  1.00  0.00     0.000 C 
BRANCH   9  10
ATOM     10  C   UNL     1      -7.319   7.092 -40.274  1.00  0.00     0.006 C 
BRANCH  10  11
ATOM     11  C   UNL     1      -7.982   5.740 -39.972  1.00  0.00     0.053 C 
BRANCH  11  12
ATOM     12  C   UNL     1      -8.171   4.939 -41.222  1.00  0.00     0.041 C 
ATOM     13  O   UNL     1      -8.786   3.840 -41.187  1.00  0.00    -0.550 OA
ATOM     14  O   UNL     1      -7.663   5.405 -42.429  1.00  0.00    -0.550 OA
ENDBRANCH  11  12
ENDBRANCH  10  11
ENDBRANCH   9  10
ENDBRANCH   8   9
ENDBRANCH   7   8
ENDBRANCH   6   7
ENDBRANCH   5   6
ENDBRANCH   4   5
ENDBRANCH   3   4
ENDBRANCH   2   3
ENDBRANCH   1   2
BRANCH   1  15
ATOM     15  C   UNL     1      -0.192  12.257 -37.470  1.00  0.00     0.000 C 
BRANCH  15  16
ATOM     16  C   UNL     1       1.174  12.199 -38.175  1.00  0.00     0.000 C 
BRANCH  16  17
ATOM     17  C   UNL     1       1.374  13.345 -39.182  1.00  0.00     0.000 C 
BRANCH  17  18
ATOM     18  C   UNL     1       2.312  12.959 -40.337  1.00  0.00    -0.000 C 
BRANCH  18  19
ATOM     19  C   UNL     1       2.275  11.458 -40.661  1.00  0.00    -0.000 C 
BRANCH  19  20
ATOM     20  C   UNL     1       2.610  11.209 -42.137  1.00  0.00    -0.000 C 
BRANCH  20  21
ATOM     21  C   UNL     1       1.726  10.098 -42.722  1.00  0.00    -0.000 C 
BRANCH  21  22
ATOM     22  C   UNL     1       1.388   9.008 -41.694  1.00  0.00    -0.000 C 
BRANCH  22  23
ATOM     23  C   UNL     1       0.537   7.872 -42.291  1.00  0.00    -0.000 C 
BRANCH  23  24
ATOM     24  C   UNL     1       0.361   6.696 -41.307  1.00  0.00    -0.000 C 
BRANCH  24  25
ATOM     25  C   UNL     1       1.010   5.387 -41.791  1.00  0.00    -0.003 C 
ATOM     26  C   UNL     1       2.532   5.386 -41.644  1.00  0.00     0.004 C 
ENDBRANCH  24  25
ENDBRANCH  23  24
ENDBRANCH  22  23
ENDBRANCH  21  22
ENDBRANCH  20  21
ENDBRANCH  19  20
ENDBRANCH  18  19
ENDBRANCH  17  18
ENDBRANCH  16  17
ENDBRANCH  15  16
ENDBRANCH   1  15
TORSDOF 22
ENDMDL
MODEL 5
REMARK VINA RESULT:    -4.082      3.045      7.372
REMARK INTER + INTRA:         -10.888
REMARK INTER:                  -9.093
REMARK INTRA:                  -1.794
REMARK UNBOUND:                -1.555
REMARK SMILES CCCCCCCCCCCCCCCCCCCCCCCC(=O)[O-]
REMARK SMILES IDX 13 1 14 2 15 3 16 4 17 5 18 6 19 7 20 8 21 9 22 10 23 11
REMARK SMILES IDX 24 12 25 13 26 14 12 15 11 16 10 17 9 18 8 19 7 20 6 21 5 22
REMARK SMILES IDX 4 23 3 24 2 25 1 26
REMARK H PARENT
REMARK Flexibility Score: inf
ROOT
ATOM      1  C   UNL     1      -1.408  10.990 -37.480  1.00  0.00     0.000 C 
ENDROOT
BRANCH   1   2
ATOM      2  C   UNL     1      -0.864  12.429 -37.407  1.00  0.00     0.000 C 
BRANCH   2   3
ATOM      3  C   UNL     1       0.680  12.473 -37.433  1.00  0.00     0.000 C 
BRANCH   3   4
ATOM      4  C   UNL     1       1.255  13.020 -38.751  1.00  0.00     0.000 C 
BRANCH   4   5
ATOM      5  C   UNL     1       1.658  11.906 -39.732  1.00  0.00     0.000 C 
BRANCH   5   6
ATOM      6  C   UNL     1       2.457  12.444 -40.930  1.00  0.00     0.000 C 
BRANCH   6   7
ATOM      7  C   UNL     1       2.907  11.320 -41.880  1.00  0.00     0.000 C 
BRANCH   7   8
ATOM      8  C   UNL     1       1.728  10.517 -42.454  1.00  0.00     0.000 C 
BRANCH   8   9
ATOM      9  C   UNL     1       1.906   8.987 -42.403  1.00  0.00     0.000 C 
BRANCH   9  10
ATOM     10  C   UNL     1       0.740   8.249 -41.708  1.00  0.00     0.006 C 
BRANCH  10  11
ATOM     11  C   UNL     1       0.417   6.908 -42.383  1.00  0.00     0.053 C 
BRANCH  11  12
ATOM     12  C   UNL     1       0.927   5.759 -41.573  1.00  0.00     0.041 C 
ATOM     13  O   UNL     1       2.160   5.498 -41.543  1.00  0.00    -0.550 OA
ATOM     14  O   UNL     1       0.040   4.969 -40.851  1.00  0.00    -0.550 OA
ENDBRANCH  11  12
ENDBRANCH  10  11
ENDBRANCH   9  10
ENDBRANCH   8   9
ENDBRANCH   7   8
ENDBRANCH   6   7
ENDBRANCH   5   6
ENDBRANCH   4   5
ENDBRANCH   3   4
ENDBRANCH   2   3
ENDBRANCH   1   2
BRANCH   1  15
ATOM     15  C   UNL     1      -0.682  10.147 -38.550  1.00  0.00     0.000 C 
BRANCH  15  16
ATOM     16  C   UNL     1      -0.927   8.634 -38.416  1.00  0.00     0.000 C 
BRANCH  16  17
ATOM     17  C   UNL     1      -2.090   8.138 -39.293  1.00  0.00     0.000 C 
BRANCH  17  18
ATOM     18  C   UNL     1      -2.747   9.270 -40.098  1.00  0.00    -0.000 C 
BRANCH  18  19
ATOM     19  C   UNL     1      -4.263   9.363 -39.869  1.00  0.00    -0.000 C 
BRANCH  19  20
ATOM     20  C   UNL     1      -4.628   8.935 -38.442  1.00  0.00    -0.000 C 
BRANCH  20  21
ATOM     21  C   UNL     1      -6.131   8.648 -38.321  1.00  0.00    -0.000 C 
BRANCH  21  22
ATOM     22  C   UNL     1      -6.808   8.449 -39.686  1.00  0.00    -0.000 C 
BRANCH  22  23
ATOM     23  C   UNL     1      -7.484   7.073 -39.819  1.00  0.00    -0.000 C 
BRANCH  23  24
ATOM     24  C   UNL     1      -7.382   6.508 -41.252  1.00  0.00    -0.000 C 
BRANCH  24  25
ATOM     25  C   UNL     1      -8.140   5.183 -41.446  1.00  0.00    -0.003 C 
ATOM     26  C   UNL     1      -8.530   4.520 -40.124  1.00  0.00     0.004 C 
ENDBRANCH  24  25
ENDBRANCH  23  24
ENDBRANCH  22  23
ENDBRANCH  21  22
ENDBRANCH  20  21
ENDBRANCH  19  20
ENDBRANCH  18  19
ENDBRANCH  17  18
ENDBRANCH  16  17
ENDBRANCH  15  16
ENDBRANCH   1  15
TORSDOF 22
ENDMDL
MODEL 6
REMARK VINA RESULT:    -4.069      3.770      7.931
REMARK INTER + INTRA:         -10.859
REMARK INTER:                  -9.237
REMARK INTRA:                  -1.622
REMARK UNBOUND:                -1.555
REMARK SMILES CCCCCCCCCCCCCCCCCCCCCCCC(=O)[O-]
REMARK SMILES IDX 13 1 14 2 15 3 16 4 17 5 18 6 19 7 20 8 21 9 22 10 23 11
REMARK SMILES IDX 24 12 25 13 26 14 12 15 11 16 10 17 9 18 8 19 7 20 6 21 5 22
REMARK SMILES IDX 4 23 3 24 2 25 1 26
REMARK H PARENT
REMARK Flexibility Score: inf
ROOT
ATOM      1  C   UNL     1       0.313  12.631 -37.879  1.00  0.00     0.000 C 
ENDROOT
BRANCH   1   2
ATOM      2  C   UNL     1       1.255  13.175 -38.969  1.00  0.00     0.000 C 
BRANCH   2   3
ATOM      3  C   UNL     1       1.948  12.045 -39.760  1.00  0.00     0.000 C 
BRANCH   3   4
ATOM      4  C   UNL     1       2.539  12.508 -41.103  1.00  0.00     0.000 C 
BRANCH   4   5
ATOM      5  C   UNL     1       2.983  11.337 -41.993  1.00  0.00     0.000 C 
BRANCH   5   6
ATOM      6  C   UNL     1       1.807  10.440 -42.410  1.00  0.00     0.000 C 
BRANCH   6   7
ATOM      7  C   UNL     1       1.888   9.041 -41.776  1.00  0.00     0.000 C 
BRANCH   7   8
ATOM      8  C   UNL     1       0.886   8.048 -42.389  1.00  0.00     0.000 C 
BRANCH   8   9
ATOM      9  C   UNL     1       0.508   6.867 -41.475  1.00  0.00     0.000 C 
BRANCH   9  10
ATOM     10  C   UNL     1       1.205   5.541 -41.853  1.00  0.00     0.006 C 
BRANCH  10  11
ATOM     11  C   UNL     1       2.561   5.773 -42.534  1.00  0.00     0.053 C 
BRANCH  11  12
ATOM     12  C   UNL     1       3.689   5.324 -41.660  1.00  0.00     0.041 C 
ATOM     13  O   UNL     1       3.462   4.899 -40.496  1.00  0.00    -0.550 OA
ATOM     14  O   UNL     1       4.996   5.378 -42.129  1.00  0.00    -0.550 OA
ENDBRANCH  11  12
ENDBRANCH  10  11
ENDBRANCH   9  10
ENDBRANCH   8   9
ENDBRANCH   7   8
ENDBRANCH   6   7
ENDBRANCH   5   6
ENDBRANCH   4   5
ENDBRANCH   3   4
ENDBRANCH   2   3
ENDBRANCH   1   2
BRANCH   1  15
ATOM     15  C   UNL     1       0.297  11.088 -37.839  1.00  0.00     0.000 C 
BRANCH  15  16
ATOM     16  C   UNL     1      -1.031  10.470 -38.311  1.00  0.00     0.000 C 
BRANCH  16  17
ATOM     17  C   UNL     1      -0.948   8.945 -38.493  1.00  0.00     0.000 C 
BRANCH  17  18
ATOM     18  C   UNL     1      -2.030   8.403 -39.441  1.00  0.00    -0.000 C 
BRANCH  18  19
ATOM     19  C   UNL     1      -3.208   9.373 -39.619  1.00  0.00    -0.000 C 
BRANCH  19  20
ATOM     20  C   UNL     1      -4.476   8.819 -38.957  1.00  0.00    -0.000 C 
BRANCH  20  21
ATOM     21  C   UNL     1      -5.737   9.367 -39.639  1.00  0.00    -0.000 C 
BRANCH  21  22
ATOM     22  C   UNL     1      -7.018   8.656 -39.175  1.00  0.00    -0.000 C 
BRANCH  22  23
ATOM     23  C   UNL     1      -7.033   7.160 -39.539  1.00  0.00    -0.000 C 
BRANCH  23  24
ATOM     24  C   UNL     1      -7.437   6.923 -41.010  1.00  0.00    -0.000 C 
BRANCH  24  25
ATOM     25  C   UNL     1      -7.855   5.472 -41.306  1.00  0.00    -0.003 C 
ATOM     26  C   UNL     1      -8.492   4.777 -40.102  1.00  0.00     0.004 C 
ENDBRANCH  24  25
ENDBRANCH  23  24
ENDBRANCH  22  23
ENDBRANCH  21  22
ENDBRANCH  20  21
ENDBRANCH  19  20
ENDBRANCH  18  19
ENDBRANCH  17  18
ENDBRANCH  16  17
ENDBRANCH  15  16
ENDBRANCH   1  15
TORSDOF 22
ENDMDL
MODEL 7
REMARK VINA RESULT:    -3.881      3.730      8.498
REMARK INTER + INTRA:         -10.427
REMARK INTER:                  -8.580
REMARK INTRA:                  -1.848
REMARK UNBOUND:                -1.555
REMARK SMILES CCCCCCCCCCCCCCCCCCCCCCCC(=O)[O-]
REMARK SMILES IDX 13 1 14 2 15 3 16 4 17 5 18 6 19 7 20 8 21 9 22 10 23 11
REMARK SMILES IDX 24 12 25 13 26 14 12 15 11 16 10 17 9 18 8 19 7 20 6 21 5 22
REMARK SMILES IDX 4 23 3 24 2 25 1 26
REMARK H PARENT
REMARK Flexibility Score: inf
ROOT
ATOM      1  C   UNL     1       0.035   6.450 -40.816  1.00  0.00     0.000 C 
ENDROOT
BRANCH   1   2
ATOM      2  C   UNL     1       0.916   6.772 -42.037  1.00  0.00     0.000 C 
BRANCH   2   3
ATOM      3  C   UNL     1       0.879   8.271 -42.407  1.00  0.00     0.000 C 
BRANCH   3   4
ATOM      4  C   UNL     1       1.967   9.103 -41.707  1.00  0.00     0.000 C 
BRANCH   4   5
ATOM      5  C   UNL     1       2.049  10.543 -42.239  1.00  0.00     0.000 C 
BRANCH   5   6
ATOM      6  C   UNL     1       3.037  11.407 -41.438  1.00  0.00     0.000 C 
BRANCH   6   7
ATOM      7  C   UNL     1       2.464  12.798 -41.116  1.00  0.00     0.000 C 
BRANCH   7   8
ATOM      8  C   UNL     1       1.905  12.896 -39.686  1.00  0.00     0.000 C 
BRANCH   8   9
ATOM      9  C   UNL     1       1.190  11.626 -39.185  1.00  0.00     0.000 C 
BRANCH   9  10
ATOM     10  C   UNL     1       0.741  11.708 -37.709  1.00  0.00     0.006 C 
BRANCH  10  11
ATOM     11  C   UNL     1      -0.787  11.777 -37.572  1.00  0.00     0.053 C 
BRANCH  11  12
ATOM     12  C   UNL     1      -1.233  13.149 -37.178  1.00  0.00     0.041 C 
ATOM     13  O   UNL     1      -1.660  13.371 -36.014  1.00  0.00    -0.550 OA
ATOM     14  O   UNL     1      -1.181  14.188 -38.100  1.00  0.00    -0.550 OA
ENDBRANCH  11  12
ENDBRANCH  10  11
ENDBRANCH   9  10
ENDBRANCH   8   9
ENDBRANCH   7   8
ENDBRANCH   6   7
ENDBRANCH   5   6
ENDBRANCH   4   5
ENDBRANCH   3   4
ENDBRANCH   2   3
ENDBRANCH   1   2
BRANCH   1  15
ATOM     15  C   UNL     1      -1.015   7.550 -40.549  1.00  0.00     0.000 C 
BRANCH  15  16
ATOM     16  C   UNL     1      -1.022   8.058 -39.096  1.00  0.00     0.000 C 
BRANCH  16  17
ATOM     17  C   UNL     1      -2.224   8.968 -38.789  1.00  0.00     0.000 C 
BRANCH  17  18
ATOM     18  C   UNL     1      -2.985   9.390 -40.056  1.00  0.00    -0.000 C 
BRANCH  18  19
ATOM     19  C   UNL     1      -4.504   9.459 -39.845  1.00  0.00    -0.000 C 
BRANCH  19  20
ATOM     20  C   UNL     1      -4.899   8.833 -38.501  1.00  0.00    -0.000 C 
BRANCH  20  21
ATOM     21  C   UNL     1      -6.418   8.901 -38.287  1.00  0.00    -0.000 C 
BRANCH  21  22
ATOM     22  C   UNL     1      -7.210   8.515 -39.545  1.00  0.00    -0.000 C 
BRANCH  22  23
ATOM     23  C   UNL     1      -7.138   7.009 -39.854  1.00  0.00    -0.000 C 
BRANCH  23  24
ATOM     24  C   UNL     1      -7.603   6.685 -41.290  1.00  0.00    -0.000 C 
BRANCH  24  25
ATOM     25  C   UNL     1      -7.984   5.208 -41.495  1.00  0.00    -0.003 C 
ATOM     26  C   UNL     1      -8.590   4.570 -40.244  1.00  0.00     0.004 C 
ENDBRANCH  24  25
ENDBRANCH  23  24
ENDBRANCH  22  23
ENDBRANCH  21  22
ENDBRANCH  20  21
ENDBRANCH  19  20
ENDBRANCH  18  19
ENDBRANCH  17  18
ENDBRANCH  16  17
ENDBRANCH  15  16
ENDBRANCH   1  15
TORSDOF 22
ENDMDL
MODEL 8
REMARK VINA RESULT:    -3.868      3.680      7.843
REMARK INTER + INTRA:         -10.398
REMARK INTER:                  -9.024
REMARK INTRA:                  -1.374
REMARK UNBOUND:                -1.555
REMARK SMILES CCCCCCCCCCCCCCCCCCCCCCCC(=O)[O-]
REMARK SMILES IDX 13 1 14 2 15 3 16 4 17 5 18 6 19 7 20 8 21 9 22 10 23 11
REMARK SMILES IDX 24 12 25 13 26 14 12 15 11 16 10 17 9 18 8 19 7 20 6 21 5 22
REMARK SMILES IDX 4 23 3 24 2 25 1 26
REMARK H PARENT
REMARK Flexibility Score: inf
ROOT
ATOM      1  C   UNL     1      -0.630  12.621 -37.759  1.00  0.00     0.000 C 
ENDROOT
BRANCH   1   2
ATOM      2  C   UNL     1       0.478  11.556 -37.656  1.00  0.00     0.000 C 
BRANCH   2   3
ATOM      3  C   UNL     1       0.339  10.461 -38.735  1.00  0.00     0.000 C 
BRANCH   3   4
ATOM      4  C   UNL     1      -0.408   9.209 -38.246  1.00  0.00     0.000 C 
BRANCH   4   5
ATOM      5  C   UNL     1      -1.376   8.644 -39.298  1.00  0.00     0.000 C 
BRANCH   5   6
ATOM      6  C   UNL     1      -0.649   7.857 -40.400  1.00  0.00     0.000 C 
BRANCH   6   7
ATOM      7  C   UNL     1      -0.680   6.339 -40.147  1.00  0.00     0.000 C 
BRANCH   7   8
ATOM      8  C   UNL     1       0.066   5.540 -41.229  1.00  0.00     0.000 C 
BRANCH   8   9
ATOM      9  C   UNL     1       0.788   6.400 -42.284  1.00  0.00     0.000 C 
BRANCH   9  10
ATOM     10  C   UNL     1       2.249   5.970 -42.542  1.00  0.00     0.006 C 
BRANCH  10  11
ATOM     11  C   UNL     1       2.807   5.101 -41.405  1.00  0.00     0.053 C 
BRANCH  11  12
ATOM     12  C   UNL     1       4.300   5.171 -41.354  1.00  0.00     0.041 C 
ATOM     13  O   UNL     1       4.992   4.130 -41.516  1.00  0.00    -0.550 OA
ATOM     14  O   UNL     1       4.931   6.387 -41.123  1.00  0.00    -0.550 OA
ENDBRANCH  11  12
ENDBRANCH  10  11
ENDBRANCH   9  10
ENDBRANCH   8   9
ENDBRANCH   7   8
ENDBRANCH   6   7
ENDBRANCH   5   6
ENDBRANCH   4   5
ENDBRANCH   3   4
ENDBRANCH   2   3
ENDBRANCH   1   2
BRANCH   1  15
ATOM     15  C   UNL     1      -1.314  12.885 -36.400  1.00  0.00     0.000 C 
BRANCH  15  16
ATOM     16  C   UNL     1      -2.218  11.734 -35.929  1.00  0.00     0.000 C 
BRANCH  16  17
ATOM     17  C   UNL     1      -2.813  10.926 -37.096  1.00  0.00     0.000 C 
BRANCH  17  18
ATOM     18  C   UNL     1      -3.587   9.686 -36.622  1.00  0.00    -0.000 C 
BRANCH  18  19
ATOM     19  C   UNL     1      -4.536   9.129 -37.693  1.00  0.00    -0.000 C 
BRANCH  19  20
ATOM     20  C   UNL     1      -5.917   8.829 -37.096  1.00  0.00    -0.000 C 
BRANCH  20  21
ATOM     21  C   UNL     1      -7.018   8.968 -38.157  1.00  0.00    -0.000 C 
BRANCH  21  22
ATOM     22  C   UNL     1      -6.454   9.131 -39.577  1.00  0.00    -0.000 C 
BRANCH  22  23
ATOM     23  C   UNL     1      -6.978   8.061 -40.552  1.00  0.00    -0.000 C 
BRANCH  23  24
ATOM     24  C   UNL     1      -7.474   6.797 -39.818  1.00  0.00    -0.000 C 
BRANCH  24  25
ATOM     25  C   UNL     1      -7.806   5.628 -40.762  1.00  0.00    -0.003 C 
ATOM     26  C   UNL     1      -8.639   4.536 -40.091  1.00  0.00     0.004 C 
ENDBRANCH  24  25
ENDBRANCH  23  24
ENDBRANCH  22  23
ENDBRANCH  21  22
ENDBRANCH  20  21
ENDBRANCH  19  20
ENDBRANCH  18  19
ENDBRANCH  17  18
ENDBRANCH  16  17
ENDBRANCH  15  16
ENDBRANCH   1  15
TORSDOF 22
ENDMDL
MODEL 9
REMARK VINA RESULT:    -3.846      2.719      7.294
REMARK INTER + INTRA:         -10.347
REMARK INTER:                  -9.935
REMARK INTRA:                  -0.412
REMARK UNBOUND:                -1.555
REMARK SMILES CCCCCCCCCCCCCCCCCCCCCCCC(=O)[O-]
REMARK SMILES IDX 13 1 14 2 15 3 16 4 17 5 18 6 19 7 20 8 21 9 22 10 23 11
REMARK SMILES IDX 24 12 25 13 26 14 12 15 11 16 10 17 9 18 8 19 7 20 6 21 5 22
REMARK SMILES IDX 4 23 3 24 2 25 1 26
REMARK H PARENT
REMARK Flexibility Score: inf
ROOT
ATOM      1  C   UNL     1      -2.488  12.113 -35.731  1.00  0.00     0.000 C 
ENDROOT
BRANCH   1   2
ATOM      2  C   UNL     1      -1.451  13.142 -36.219  1.00  0.00     0.000 C 
BRANCH   2   3
ATOM      3  C   UNL     1      -0.892  12.793 -37.615  1.00  0.00     0.000 C 
BRANCH   3   4
ATOM      4  C   UNL     1       0.595  12.400 -37.601  1.00  0.00     0.000 C 
BRANCH   4   5
ATOM      5  C   UNL     1       0.828  10.939 -38.020  1.00  0.00     0.000 C 
BRANCH   5   6
ATOM      6  C   UNL     1      -0.327  10.382 -38.868  1.00  0.00     0.000 C 
BRANCH   6   7
ATOM      7  C   UNL     1      -0.629   8.909 -38.543  1.00  0.00     0.000 C 
BRANCH   7   8
ATOM      8  C   UNL     1      -1.384   8.192 -39.676  1.00  0.00     0.000 C 
BRANCH   8   9
ATOM      9  C   UNL     1      -0.552   7.143 -40.440  1.00  0.00     0.000 C 
BRANCH   9  10
ATOM     10  C   UNL     1       0.033   7.666 -41.771  1.00  0.00     0.006 C 
BRANCH  10  11
ATOM     11  C   UNL     1       0.836   6.588 -42.515  1.00  0.00     0.053 C 
BRANCH  11  12
ATOM     12  C   UNL     1       1.287   5.509 -41.581  1.00  0.00     0.041 C 
ATOM     13  O   UNL     1       2.513   5.249 -41.455  1.00  0.00    -0.550 OA
ATOM     14  O   UNL     1       0.351   4.787 -40.850  1.00  0.00    -0.550 OA
ENDBRANCH  11  12
ENDBRANCH  10  11
ENDBRANCH   9  10
ENDBRANCH   8   9
ENDBRANCH   7   8
ENDBRANCH   6   7
ENDBRANCH   5   6
ENDBRANCH   4   5
ENDBRANCH   3   4
ENDBRANCH   2   3
ENDBRANCH   1   2
BRANCH   1  15
ATOM     15  C   UNL     1      -2.453  10.812 -36.562  1.00  0.00     0.000 C 
BRANCH  15  16
ATOM     16  C   UNL     1      -3.693   9.922 -36.368  1.00  0.00     0.000 C 
BRANCH  16  17
ATOM     17  C   UNL     1      -4.201   9.312 -37.686  1.00  0.00     0.000 C 
BRANCH  17  18
ATOM     18  C   UNL     1      -5.428   8.410 -37.485  1.00  0.00    -0.000 C 
BRANCH  18  19
ATOM     19  C   UNL     1      -6.748   9.195 -37.448  1.00  0.00    -0.000 C 
BRANCH  19  20
ATOM     20  C   UNL     1      -7.426   9.188 -38.824  1.00  0.00    -0.000 C 
BRANCH  20  21
ATOM     21  C   UNL     1      -6.583   8.417 -39.850  1.00  0.00    -0.000 C 
BRANCH  21  22
ATOM     22  C   UNL     1      -7.398   7.360 -40.611  1.00  0.00    -0.000 C 
BRANCH  22  23
ATOM     23  C   UNL     1      -7.768   6.150 -39.734  1.00  0.00    -0.000 C 
BRANCH  23  24
ATOM     24  C   UNL     1      -7.975   4.867 -40.567  1.00  0.00    -0.000 C 
BRANCH  24  25
ATOM     25  C   UNL     1      -9.231   4.072 -40.170  1.00  0.00    -0.003 C 
ATOM     26  C   UNL     1      -9.681   3.088 -41.250  1.00  0.00     0.004 C 
ENDBRANCH  24  25
ENDBRANCH  23  24
ENDBRANCH  22  23
ENDBRANCH  21  22
ENDBRANCH  20  21
ENDBRANCH  19  20
ENDBRANCH  18  19
ENDBRANCH  17  18
ENDBRANCH  16  17
ENDBRANCH  15  16
ENDBRANCH   1  15
TORSDOF 22
ENDMDL
