MODEL 1
REMARK VINA RESULT:    -3.582      0.000      0.000
REMARK INTER + INTRA:         -14.105
REMARK INTER:                  -9.445
REMARK INTRA:                  -4.661
REMARK UNBOUND:                -4.661
REMARK SMILES CCCCCCCCCCCCCCCCCCCCCCCCCCCCCC(=O)[O-]
REMARK SMILES IDX 16 1 17 2 18 3 19 4 20 5 21 6 22 7 23 8 24 9 25 10 26 11
REMARK SMILES IDX 27 12 28 13 29 14 30 15 31 16 32 17 15 18 14 19 13 20 12 21
REMARK SMILES IDX 11 22 10 23 9 24 8 25 7 26 6 27 5 28 4 29 3 30 2 31 1 32
REMARK H PARENT
REMARK Flexibility Score: inf
ROOT
ATOM      1  C   UNL     1     -12.215   5.187   9.125  1.00  0.00     0.000 C 
ENDROOT
BRANCH   1   2
ATOM      2  C   UNL     1     -12.849   6.552   8.803  1.00  0.00     0.000 C 
BRANCH   2   3
ATOM      3  C   UNL     1     -14.382   6.548   8.998  1.00  0.00     0.000 C 
BRANCH   3   4
ATOM      4  C   UNL     1     -15.042   7.914   8.742  1.00  0.00     0.000 C 
BRANCH   4   5
ATOM      5  C   UNL     1     -14.078   9.093   8.946  1.00  0.00     0.000 C 
BRANCH   5   6
ATOM      6  C   UNL     1     -14.754  10.456   8.734  1.00  0.00     0.000 C 
BRANCH   6   7
ATOM      7  C   UNL     1     -13.745  11.608   8.599  1.00  0.00     0.000 C 
BRANCH   7   8
ATOM      8  C   UNL     1     -12.307  11.122   8.347  1.00  0.00     0.000 C 
BRANCH   8   9
ATOM      9  C   UNL     1     -11.481  12.060   7.441  1.00  0.00     0.000 C 
BRANCH   9  10
ATOM     10  C   UNL     1     -11.652  11.729   5.948  1.00  0.00     0.000 C 
BRANCH  10  11
ATOM     11  C   UNL     1     -10.925  10.437   5.537  1.00  0.00     0.000 C 
BRANCH  11  12
ATOM     12  C   UNL     1      -9.425  10.605   5.218  1.00  0.00     0.000 C 
BRANCH  12  13
ATOM     13  C   UNL     1      -8.545   9.385   5.554  1.00  0.00     0.006 C 
BRANCH  13  14
ATOM     14  C   UNL     1      -7.042   9.687   5.448  1.00  0.00     0.053 C 
BRANCH  14  15
ATOM     15  C   UNL     1      -6.499  10.153   6.763  1.00  0.00     0.041 C 
ATOM     16  O   UNL     1      -5.259  10.115   6.985  1.00  0.00    -0.550 OA
ATOM     17  O   UNL     1      -7.363  10.610   7.752  1.00  0.00    -0.550 OA
ENDBRANCH  14  15
ENDBRANCH  13  14
ENDBRANCH  12  13
ENDBRANCH  11  12
ENDBRANCH  10  11
ENDBRANCH   9  10
ENDBRANCH   8   9
ENDBRANCH   7   8
ENDBRANCH   6   7
ENDBRANCH   5   6
ENDBRANCH   4   5
ENDBRANCH   3   4
ENDBRANCH   2   3
ENDBRANCH   1   2
BRANCH   1  18
ATOM     18  C   UNL     1     -10.705   5.155   8.807  1.00  0.00     0.000 C 
BRANCH  18  19
ATOM     19  C   UNL     1     -10.260   6.253   7.826  1.00  0.00     0.000 C 
BRANCH  19  20
ATOM     20  C   UNL     1      -9.258   5.747   6.780  1.00  0.00     0.000 C 
BRANCH  20  21
ATOM     21  C   UNL     1      -9.858   5.819   5.367  1.00  0.00     0.000 C 
BRANCH  21  22
ATOM     22  C   UNL     1     -10.917   4.731   5.112  1.00  0.00     0.000 C 
BRANCH  22  23
ATOM     23  C   UNL     1     -12.374   5.160   5.387  1.00  0.00     0.000 C 
BRANCH  23  24
ATOM     24  C   UNL     1     -13.333   5.002   4.195  1.00  0.00    -0.000 C 
BRANCH  24  25
ATOM     25  C   UNL     1     -14.118   6.290   3.885  1.00  0.00    -0.000 C 
BRANCH  25  26
ATOM     26  C   UNL     1     -14.449   7.092   5.153  1.00  0.00    -0.000 C 
BRANCH  26  27
ATOM     27  C   UNL     1     -13.655   8.407   5.240  1.00  0.00    -0.000 C 
BRANCH  27  28
ATOM     28  C   UNL     1     -14.560   9.644   5.389  1.00  0.00    -0.000 C 
BRANCH  28  29
ATOM     29  C   UNL     1     -15.125  10.203   4.069  1.00  0.00    -0.000 C 
BRANCH  29  30
ATOM     30  C   UNL     1     -14.232  11.290   3.444  1.00  0.00    -0.000 C 
BRANCH  30  31
ATOM     31  C   UNL     1     -13.162  10.707   2.506  1.00  0.00    -0.003 C 
ATOM     32  C   UNL     1     -12.088  11.728   2.128  1.00  0.00     0.004 C 
ENDBRANCH  30  31
ENDBRANCH  29  30
ENDBRANCH  28  29
ENDBRANCH  27  28
ENDBRANCH  26  27
ENDBRANCH  25  26
ENDBRANCH  24  25
ENDBRANCH  23  24
ENDBRANCH  22  23
ENDBRANCH  21  22
ENDBRANCH  20  21
ENDBRANCH  19  20
ENDBRANCH  18  19
ENDBRANCH   1  18
TORSDOF 28
ENDMDL
MODEL 2
REMARK VINA RESULT:    -3.072      2.111      4.437
REMARK INTER + INTRA:         -12.761
REMARK INTER:                  -9.236
REMARK INTRA:                  -3.525
REMARK UNBOUND:                -4.661
REMARK SMILES CCCCCCCCCCCCCCCCCCCCCCCCCCCCCC(=O)[O-]
REMARK SMILES IDX 16 1 17 2 18 3 19 4 20 5 21 6 22 7 23 8 24 9 25 10 26 11
REMARK SMILES IDX 27 12 28 13 29 14 30 15 31 16 32 17 15 18 14 19 13 20 12 21
REMARK SMILES IDX 11 22 10 23 9 24 8 25 7 26 6 27 5 28 4 29 3 30 2 31 1 32
REMARK H PARENT
REMARK Flexibility Score: inf
ROOT
ATOM      1  C   UNL     1      -9.924   6.010   5.504  1.00  0.00     0.000 C 
ENDROOT
BRANCH   1   2
ATOM      2  C   UNL     1      -9.082   6.441   6.718  1.00  0.00     0.000 C 
BRANCH   2   3
ATOM      3  C   UNL     1      -8.736   7.947   6.688  1.00  0.00     0.000 C 
BRANCH   3   4
ATOM      4  C   UNL     1      -8.804   8.570   5.283  1.00  0.00     0.000 C 
BRANCH   4   5
ATOM      5  C   UNL     1      -9.875   9.665   5.163  1.00  0.00     0.000 C 
BRANCH   5   6
ATOM      6  C   UNL     1      -9.282  11.082   5.186  1.00  0.00     0.000 C 
BRANCH   6   7
ATOM      7  C   UNL     1     -10.100  12.057   6.048  1.00  0.00     0.000 C 
BRANCH   7   8
ATOM      8  C   UNL     1     -10.020  11.743   7.552  1.00  0.00     0.000 C 
BRANCH   8   9
ATOM      9  C   UNL     1      -8.671  12.123   8.198  1.00  0.00     0.000 C 
BRANCH   9  10
ATOM     10  C   UNL     1      -7.570  11.090   7.900  1.00  0.00     0.000 C 
BRANCH  10  11
ATOM     11  C   UNL     1      -6.431  11.663   7.039  1.00  0.00     0.000 C 
BRANCH  11  12
ATOM     12  C   UNL     1      -5.100  10.887   7.115  1.00  0.00     0.000 C 
BRANCH  12  13
ATOM     13  C   UNL     1      -4.367  10.714   5.771  1.00  0.00     0.006 C 
BRANCH  13  14
ATOM     14  C   UNL     1      -3.455  11.904   5.433  1.00  0.00     0.053 C 
BRANCH  14  15
ATOM     15  C   UNL     1      -2.503  11.550   4.333  1.00  0.00     0.041 C 
ATOM     16  O   UNL     1      -2.819  11.754   3.131  1.00  0.00    -0.550 OA
ATOM     17  O   UNL     1      -1.273  10.974   4.634  1.00  0.00    -0.550 OA
ENDBRANCH  14  15
ENDBRANCH  13  14
ENDBRANCH  12  13
ENDBRANCH  11  12
ENDBRANCH  10  11
ENDBRANCH   9  10
ENDBRANCH   8   9
ENDBRANCH   7   8
ENDBRANCH   6   7
ENDBRANCH   5   6
ENDBRANCH   4   5
ENDBRANCH   3   4
ENDBRANCH   2   3
ENDBRANCH   1   2
BRANCH   1  18
ATOM     18  C   UNL     1     -11.024   4.997   5.886  1.00  0.00     0.000 C 
BRANCH  18  19
ATOM     19  C   UNL     1     -10.827   4.373   7.278  1.00  0.00     0.000 C 
BRANCH  19  20
ATOM     20  C   UNL     1     -12.027   4.603   8.208  1.00  0.00     0.000 C 
BRANCH  20  21
ATOM     21  C   UNL     1     -12.800   5.867   7.802  1.00  0.00     0.000 C 
BRANCH  21  22
ATOM     22  C   UNL     1     -13.366   6.635   9.010  1.00  0.00     0.000 C 
BRANCH  22  23
ATOM     23  C   UNL     1     -14.812   7.145   8.842  1.00  0.00     0.000 C 
BRANCH  23  24
ATOM     24  C   UNL     1     -14.945   8.661   8.621  1.00  0.00    -0.000 C 
BRANCH  24  25
ATOM     25  C   UNL     1     -13.585   9.357   8.425  1.00  0.00    -0.000 C 
BRANCH  25  26
ATOM     26  C   UNL     1     -13.736  10.830   8.016  1.00  0.00    -0.000 C 
BRANCH  26  27
ATOM     27  C   UNL     1     -14.128  10.992   6.537  1.00  0.00    -0.000 C 
BRANCH  27  28
ATOM     28  C   UNL     1     -13.273  10.127   5.593  1.00  0.00    -0.000 C 
BRANCH  28  29
ATOM     29  C   UNL     1     -13.407  10.468   4.096  1.00  0.00    -0.000 C 
BRANCH  29  30
ATOM     30  C   UNL     1     -12.889  11.875   3.750  1.00  0.00    -0.000 C 
BRANCH  30  31
ATOM     31  C   UNL     1     -11.957  11.877   2.527  1.00  0.00    -0.003 C 
ATOM     32  C   UNL     1     -12.413  10.908   1.435  1.00  0.00     0.004 C 
ENDBRANCH  30  31
ENDBRANCH  29  30
ENDBRANCH  28  29
ENDBRANCH  27  28
ENDBRANCH  26  27
ENDBRANCH  25  26
ENDBRANCH  24  25
ENDBRANCH  23  24
ENDBRANCH  22  23
ENDBRANCH  21  22
ENDBRANCH  20  21
ENDBRANCH  19  20
ENDBRANCH  18  19
ENDBRANCH   1  18
TORSDOF 28
ENDMDL
MODEL 3
REMARK VINA RESULT:    -3.005      2.454      5.598
REMARK INTER + INTRA:         -12.586
REMARK INTER:                  -8.901
REMARK INTRA:                  -3.684
REMARK UNBOUND:                -4.661
REMARK SMILES CCCCCCCCCCCCCCCCCCCCCCCCCCCCCC(=O)[O-]
REMARK SMILES IDX 16 1 17 2 18 3 19 4 20 5 21 6 22 7 23 8 24 9 25 10 26 11
REMARK SMILES IDX 27 12 28 13 29 14 30 15 31 16 32 17 15 18 14 19 13 20 12 21
REMARK SMILES IDX 11 22 10 23 9 24 8 25 7 26 6 27 5 28 4 29 3 30 2 31 1 32
REMARK H PARENT
REMARK Flexibility Score: inf
ROOT
ATOM      1  C   UNL     1     -11.600   4.660   8.193  1.00  0.00     0.000 C 
ENDROOT
BRANCH   1   2
ATOM      2  C   UNL     1     -12.248   6.056   8.187  1.00  0.00     0.000 C 
BRANCH   2   3
ATOM      3  C   UNL     1     -13.606   6.070   7.450  1.00  0.00     0.000 C 
BRANCH   3   4
ATOM      4  C   UNL     1     -14.104   7.482   7.097  1.00  0.00     0.000 C 
BRANCH   4   5
ATOM      5  C   UNL     1     -14.667   8.240   8.309  1.00  0.00     0.000 C 
BRANCH   5   6
ATOM      6  C   UNL     1     -13.613   9.111   9.008  1.00  0.00     0.000 C 
BRANCH   6   7
ATOM      7  C   UNL     1     -13.924  10.613   8.916  1.00  0.00     0.000 C 
BRANCH   7   8
ATOM      8  C   UNL     1     -12.945  11.375   8.005  1.00  0.00     0.000 C 
BRANCH   8   9
ATOM      9  C   UNL     1     -13.630  12.121   6.840  1.00  0.00     0.000 C 
BRANCH   9  10
ATOM     10  C   UNL     1     -14.930  11.432   6.391  1.00  0.00     0.000 C 
BRANCH  10  11
ATOM     11  C   UNL     1     -15.048  11.321   4.861  1.00  0.00     0.000 C 
BRANCH  11  12
ATOM     12  C   UNL     1     -14.419  10.053   4.247  1.00  0.00     0.000 C 
BRANCH  12  13
ATOM     13  C   UNL     1     -14.111  10.141   2.740  1.00  0.00     0.006 C 
BRANCH  13  14
ATOM     14  C   UNL     1     -13.666  11.545   2.303  1.00  0.00     0.053 C 
BRANCH  14  15
ATOM     15  C   UNL     1     -12.214  11.557   1.943  1.00  0.00     0.041 C 
ATOM     16  O   UNL     1     -11.378  12.123   2.698  1.00  0.00    -0.550 OA
ATOM     17  O   UNL     1     -11.783  10.961   0.763  1.00  0.00    -0.550 OA
ENDBRANCH  14  15
ENDBRANCH  13  14
ENDBRANCH  12  13
ENDBRANCH  11  12
ENDBRANCH  10  11
ENDBRANCH   9  10
ENDBRANCH   8   9
ENDBRANCH   7   8
ENDBRANCH   6   7
ENDBRANCH   5   6
ENDBRANCH   4   5
ENDBRANCH   3   4
ENDBRANCH   2   3
ENDBRANCH   1   2
BRANCH   1  18
ATOM     18  C   UNL     1     -11.380   4.112   6.767  1.00  0.00     0.000 C 
BRANCH  18  19
ATOM     19  C   UNL     1     -11.262   5.211   5.698  1.00  0.00     0.000 C 
BRANCH  19  20
ATOM     20  C   UNL     1      -9.808   5.514   5.312  1.00  0.00     0.000 C 
BRANCH  20  21
ATOM     21  C   UNL     1      -9.145   6.430   6.353  1.00  0.00     0.000 C 
BRANCH  21  22
ATOM     22  C   UNL     1      -9.172   7.914   5.945  1.00  0.00     0.000 C 
BRANCH  22  23
ATOM     23  C   UNL     1     -10.491   8.653   6.255  1.00  0.00     0.000 C 
BRANCH  23  24
ATOM     24  C   UNL     1     -10.756   9.898   5.392  1.00  0.00    -0.000 C 
BRANCH  24  25
ATOM     25  C   UNL     1      -9.659  10.969   5.536  1.00  0.00    -0.000 C 
BRANCH  25  26
ATOM     26  C   UNL     1      -9.420  11.367   7.000  1.00  0.00    -0.000 C 
BRANCH  26  27
ATOM     27  C   UNL     1      -7.958  11.162   7.433  1.00  0.00    -0.000 C 
BRANCH  27  28
ATOM     28  C   UNL     1      -6.948  11.590   6.353  1.00  0.00    -0.000 C 
BRANCH  28  29
ATOM     29  C   UNL     1      -6.254  10.431   5.611  1.00  0.00    -0.000 C 
BRANCH  29  30
ATOM     30  C   UNL     1      -4.750  10.332   5.922  1.00  0.00    -0.000 C 
BRANCH  30  31
ATOM     31  C   UNL     1      -3.960  11.548   5.410  1.00  0.00    -0.003 C 
ATOM     32  C   UNL     1      -2.741  11.152   4.575  1.00  0.00     0.004 C 
ENDBRANCH  30  31
ENDBRANCH  29  30
ENDBRANCH  28  29
ENDBRANCH  27  28
ENDBRANCH  26  27
ENDBRANCH  25  26
ENDBRANCH  24  25
ENDBRANCH  23  24
ENDBRANCH  22  23
ENDBRANCH  21  22
ENDBRANCH  20  21
ENDBRANCH  19  20
ENDBRANCH  18  19
ENDBRANCH   1  18
TORSDOF 28
ENDMDL
MODEL 4
REMARK VINA RESULT:    -2.895      2.443      6.253
REMARK INTER + INTRA:         -12.295
REMARK INTER:                  -8.210
REMARK INTRA:                  -4.086
REMARK UNBOUND:                -4.661
REMARK SMILES CCCCCCCCCCCCCCCCCCCCCCCCCCCCCC(=O)[O-]
REMARK SMILES IDX 16 1 17 2 18 3 19 4 20 5 21 6 22 7 23 8 24 9 25 10 26 11
REMARK SMILES IDX 27 12 28 13 29 14 30 15 31 16 32 17 15 18 14 19 13 20 12 21
REMARK SMILES IDX 11 22 10 23 9 24 8 25 7 26 6 27 5 28 4 29 3 30 2 31 1 32
REMARK H PARENT
REMARK Flexibility Score: inf
ROOT
ATOM      1  C   UNL     1     -10.421   5.258   6.800  1.00  0.00     0.000 C 
ENDROOT
BRANCH   1   2
ATOM      2  C   UNL     1     -10.091   5.016   8.283  1.00  0.00     0.000 C 
BRANCH   2   3
ATOM      3  C   UNL     1     -11.312   4.505   9.080  1.00  0.00     0.000 C 
BRANCH   3   4
ATOM      4  C   UNL     1     -12.658   4.758   8.380  1.00  0.00     0.000 C 
BRANCH   4   5
ATOM      5  C   UNL     1     -13.531   5.789   9.112  1.00  0.00     0.000 C 
BRANCH   5   6
ATOM      6  C   UNL     1     -14.175   6.807   8.159  1.00  0.00     0.000 C 
BRANCH   6   7
ATOM      7  C   UNL     1     -13.169   7.420   7.173  1.00  0.00     0.000 C 
BRANCH   7   8
ATOM      8  C   UNL     1     -13.702   7.485   5.731  1.00  0.00     0.000 C 
BRANCH   8   9
ATOM      9  C   UNL     1     -15.062   8.204   5.601  1.00  0.00     0.000 C 
BRANCH   9  10
ATOM     10  C   UNL     1     -15.097   9.531   6.379  1.00  0.00     0.000 C 
BRANCH  10  11
ATOM     11  C   UNL     1     -14.487  10.702   5.590  1.00  0.00     0.000 C 
BRANCH  11  12
ATOM     12  C   UNL     1     -15.124  10.960   4.207  1.00  0.00     0.000 C 
BRANCH  12  13
ATOM     13  C   UNL     1     -14.186  11.601   3.166  1.00  0.00     0.006 C 
BRANCH  13  14
ATOM     14  C   UNL     1     -13.483  10.562   2.277  1.00  0.00     0.053 C 
BRANCH  14  15
ATOM     15  C   UNL     1     -12.199  11.107   1.735  1.00  0.00     0.041 C 
ATOM     16  O   UNL     1     -11.730  10.665   0.652  1.00  0.00    -0.550 OA
ATOM     17  O   UNL     1     -11.507  12.089   2.435  1.00  0.00    -0.550 OA
ENDBRANCH  14  15
ENDBRANCH  13  14
ENDBRANCH  12  13
ENDBRANCH  11  12
ENDBRANCH  10  11
ENDBRANCH   9  10
ENDBRANCH   8   9
ENDBRANCH   7   8
ENDBRANCH   6   7
ENDBRANCH   5   6
ENDBRANCH   4   5
ENDBRANCH   3   4
ENDBRANCH   2   3
ENDBRANCH   1   2
BRANCH   1  18
ATOM     18  C   UNL     1      -9.195   5.751   6.002  1.00  0.00     0.000 C 
BRANCH  18  19
ATOM     19  C   UNL     1      -8.381   6.832   6.732  1.00  0.00     0.000 C 
BRANCH  19  20
ATOM     20  C   UNL     1      -9.083   8.197   6.746  1.00  0.00     0.000 C 
BRANCH  20  21
ATOM     21  C   UNL     1      -9.575   8.574   5.340  1.00  0.00     0.000 C 
BRANCH  21  22
ATOM     22  C   UNL     1     -10.866   9.412   5.364  1.00  0.00     0.000 C 
BRANCH  22  23
ATOM     23  C   UNL     1     -10.661  10.923   5.597  1.00  0.00     0.000 C 
BRANCH  23  24
ATOM     24  C   UNL     1     -11.169  11.447   6.951  1.00  0.00    -0.000 C 
BRANCH  24  25
ATOM     25  C   UNL     1     -10.064  12.125   7.782  1.00  0.00    -0.000 C 
BRANCH  25  26
ATOM     26  C   UNL     1      -8.686  12.031   7.110  1.00  0.00    -0.000 C 
BRANCH  26  27
ATOM     27  C   UNL     1      -7.538  11.957   8.131  1.00  0.00    -0.000 C 
BRANCH  27  28
ATOM     28  C   UNL     1      -6.781  10.617   8.084  1.00  0.00    -0.000 C 
BRANCH  28  29
ATOM     29  C   UNL     1      -6.059  10.322   6.755  1.00  0.00    -0.000 C 
BRANCH  29  30
ATOM     30  C   UNL     1      -5.083  11.437   6.339  1.00  0.00    -0.000 C 
BRANCH  30  31
ATOM     31  C   UNL     1      -4.157  11.013   5.188  1.00  0.00    -0.003 C 
ATOM     32  C   UNL     1      -2.915  11.897   5.072  1.00  0.00     0.004 C 
ENDBRANCH  30  31
ENDBRANCH  29  30
ENDBRANCH  28  29
ENDBRANCH  27  28
ENDBRANCH  26  27
ENDBRANCH  25  26
ENDBRANCH  24  25
ENDBRANCH  23  24
ENDBRANCH  22  23
ENDBRANCH  21  22
ENDBRANCH  20  21
ENDBRANCH  19  20
ENDBRANCH  18  19
ENDBRANCH   1  18
TORSDOF 28
ENDMDL
MODEL 5
REMARK VINA RESULT:    -2.849      2.635      5.325
REMARK INTER + INTRA:         -12.174
REMARK INTER:                  -8.482
REMARK INTRA:                  -3.692
REMARK UNBOUND:                -4.661
REMARK SMILES CCCCCCCCCCCCCCCCCCCCCCCCCCCCCC(=O)[O-]
REMARK SMILES IDX 16 1 17 2 18 3 19 4 20 5 21 6 22 7 23 8 24 9 25 10 26 11
REMARK SMILES IDX 27 12 28 13 29 14 30 15 31 16 32 17 15 18 14 19 13 20 12 21
REMARK SMILES IDX 11 22 10 23 9 24 8 25 7 26 6 27 5 28 4 29 3 30 2 31 1 32
REMARK H PARENT
REMARK Flexibility Score: inf
ROOT
ATOM      1  C   UNL     1     -11.018   4.647   8.953  1.00  0.00     0.000 C 
ENDROOT
BRANCH   1   2
ATOM      2  C   UNL     1     -11.787   5.969   9.124  1.00  0.00     0.000 C 
BRANCH   2   3
ATOM      3  C   UNL     1     -13.318   5.764   9.115  1.00  0.00     0.000 C 
BRANCH   3   4
ATOM      4  C   UNL     1     -14.098   6.947   8.516  1.00  0.00     0.000 C 
BRANCH   4   5
ATOM      5  C   UNL     1     -13.694   8.300   9.121  1.00  0.00     0.000 C 
BRANCH   5   6
ATOM      6  C   UNL     1     -14.437   9.483   8.481  1.00  0.00     0.000 C 
BRANCH   6   7
ATOM      7  C   UNL     1     -13.795  10.839   8.812  1.00  0.00     0.000 C 
BRANCH   7   8
ATOM      8  C   UNL     1     -13.040  11.455   7.621  1.00  0.00     0.000 C 
BRANCH   8   9
ATOM      9  C   UNL     1     -13.961  11.918   6.472  1.00  0.00     0.000 C 
BRANCH   9  10
ATOM     10  C   UNL     1     -13.196  12.100   5.149  1.00  0.00     0.000 C 
BRANCH  10  11
ATOM     11  C   UNL     1     -12.901  10.766   4.442  1.00  0.00     0.000 C 
BRANCH  11  12
ATOM     12  C   UNL     1     -14.037   9.723   4.513  1.00  0.00     0.000 C 
BRANCH  12  13
ATOM     13  C   UNL     1     -13.717   8.465   5.343  1.00  0.00     0.006 C 
BRANCH  13  14
ATOM     14  C   UNL     1     -14.760   7.351   5.161  1.00  0.00     0.053 C 
BRANCH  14  15
ATOM     15  C   UNL     1     -14.133   6.124   4.576  1.00  0.00     0.041 C 
ATOM     16  O   UNL     1     -13.763   5.182   5.326  1.00  0.00    -0.550 OA
ATOM     17  O   UNL     1     -13.937   6.029   3.203  1.00  0.00    -0.550 OA
ENDBRANCH  14  15
ENDBRANCH  13  14
ENDBRANCH  12  13
ENDBRANCH  11  12
ENDBRANCH  10  11
ENDBRANCH   9  10
ENDBRANCH   8   9
ENDBRANCH   7   8
ENDBRANCH   6   7
ENDBRANCH   5   6
ENDBRANCH   4   5
ENDBRANCH   3   4
ENDBRANCH   2   3
ENDBRANCH   1   2
BRANCH   1  18
ATOM     18  C   UNL     1     -11.627   3.756   7.849  1.00  0.00     0.000 C 
BRANCH  18  19
ATOM     19  C   UNL     1     -10.680   3.518   6.661  1.00  0.00     0.000 C 
BRANCH  19  20
ATOM     20  C   UNL     1     -11.119   4.260   5.391  1.00  0.00     0.000 C 
BRANCH  20  21
ATOM     21  C   UNL     1     -10.084   5.324   4.994  1.00  0.00     0.000 C 
BRANCH  21  22
ATOM     22  C   UNL     1      -9.606   6.168   6.189  1.00  0.00     0.000 C 
BRANCH  22  23
ATOM     23  C   UNL     1      -8.964   7.522   5.819  1.00  0.00     0.000 C 
BRANCH  23  24
ATOM     24  C   UNL     1      -9.676   8.758   6.397  1.00  0.00    -0.000 C 
BRANCH  24  25
ATOM     25  C   UNL     1     -10.033   9.799   5.321  1.00  0.00    -0.000 C 
BRANCH  25  26
ATOM     26  C   UNL     1      -9.334  11.147   5.556  1.00  0.00    -0.000 C 
BRANCH  26  27
ATOM     27  C   UNL     1      -9.614  11.718   6.956  1.00  0.00    -0.000 C 
BRANCH  27  28
ATOM     28  C   UNL     1      -8.330  12.092   7.719  1.00  0.00    -0.000 C 
BRANCH  28  29
ATOM     29  C   UNL     1      -7.457  10.898   8.152  1.00  0.00    -0.000 C 
BRANCH  29  30
ATOM     30  C   UNL     1      -6.065  10.900   7.495  1.00  0.00    -0.000 C 
BRANCH  30  31
ATOM     31  C   UNL     1      -5.959   9.894   6.336  1.00  0.00    -0.003 C 
ATOM     32  C   UNL     1      -6.039  10.564   4.963  1.00  0.00     0.004 C 
ENDBRANCH  30  31
ENDBRANCH  29  30
ENDBRANCH  28  29
ENDBRANCH  27  28
ENDBRANCH  26  27
ENDBRANCH  25  26
ENDBRANCH  24  25
ENDBRANCH  23  24
ENDBRANCH  22  23
ENDBRANCH  21  22
ENDBRANCH  20  21
ENDBRANCH  19  20
ENDBRANCH  18  19
ENDBRANCH   1  18
TORSDOF 28
ENDMDL
MODEL 6
REMARK VINA RESULT:    -2.594      2.444      5.684
REMARK INTER + INTRA:         -11.501
REMARK INTER:                  -8.677
REMARK INTRA:                  -2.824
REMARK UNBOUND:                -4.661
REMARK SMILES CCCCCCCCCCCCCCCCCCCCCCCCCCCCCC(=O)[O-]
REMARK SMILES IDX 16 1 17 2 18 3 19 4 20 5 21 6 22 7 23 8 24 9 25 10 26 11
REMARK SMILES IDX 27 12 28 13 29 14 30 15 31 16 32 17 15 18 14 19 13 20 12 21
REMARK SMILES IDX 11 22 10 23 9 24 8 25 7 26 6 27 5 28 4 29 3 30 2 31 1 32
REMARK H PARENT
REMARK Flexibility Score: inf
ROOT
ATOM      1  C   UNL     1      -9.979   4.686   6.535  1.00  0.00     0.000 C 
ENDROOT
BRANCH   1   2
ATOM      2  C   UNL     1     -10.915   5.442   5.576  1.00  0.00     0.000 C 
BRANCH   2   3
ATOM      3  C   UNL     1     -12.190   4.634   5.241  1.00  0.00     0.000 C 
BRANCH   3   4
ATOM      4  C   UNL     1     -12.577   4.678   3.753  1.00  0.00     0.000 C 
BRANCH   4   5
ATOM      5  C   UNL     1     -14.036   5.103   3.526  1.00  0.00     0.000 C 
BRANCH   5   6
ATOM      6  C   UNL     1     -14.283   6.583   3.855  1.00  0.00     0.000 C 
BRANCH   6   7
ATOM      7  C   UNL     1     -14.961   6.786   5.219  1.00  0.00     0.000 C 
BRANCH   7   8
ATOM      8  C   UNL     1     -15.125   8.269   5.594  1.00  0.00     0.000 C 
BRANCH   8   9
ATOM      9  C   UNL     1     -14.141   9.209   4.865  1.00  0.00     0.000 C 
BRANCH   9  10
ATOM     10  C   UNL     1     -14.754  10.594   4.590  1.00  0.00     0.000 C 
BRANCH  10  11
ATOM     11  C   UNL     1     -15.043  10.832   3.099  1.00  0.00     0.000 C 
BRANCH  11  12
ATOM     12  C   UNL     1     -14.181  11.925   2.431  1.00  0.00     0.000 C 
BRANCH  12  13
ATOM     13  C   UNL     1     -12.762  12.080   3.010  1.00  0.00     0.006 C 
BRANCH  13  14
ATOM     14  C   UNL     1     -11.669  12.035   1.930  1.00  0.00     0.053 C 
BRANCH  14  15
ATOM     15  C   UNL     1     -11.967  10.977   0.914  1.00  0.00     0.041 C 
ATOM     16  O   UNL     1     -11.533  11.088  -0.264  1.00  0.00    -0.550 OA
ATOM     17  O   UNL     1     -12.744   9.876   1.261  1.00  0.00    -0.550 OA
ENDBRANCH  14  15
ENDBRANCH  13  14
ENDBRANCH  12  13
ENDBRANCH  11  12
ENDBRANCH  10  11
ENDBRANCH   9  10
ENDBRANCH   8   9
ENDBRANCH   7   8
ENDBRANCH   6   7
ENDBRANCH   5   6
ENDBRANCH   4   5
ENDBRANCH   3   4
ENDBRANCH   2   3
ENDBRANCH   1   2
BRANCH   1  18
ATOM     18  C   UNL     1     -10.387   4.866   8.013  1.00  0.00     0.000 C 
BRANCH  18  19
ATOM     19  C   UNL     1     -11.574   3.983   8.434  1.00  0.00     0.000 C 
BRANCH  19  20
ATOM     20  C   UNL     1     -12.920   4.715   8.349  1.00  0.00     0.000 C 
BRANCH  20  21
ATOM     21  C   UNL     1     -12.873   6.040   9.125  1.00  0.00     0.000 C 
BRANCH  21  22
ATOM     22  C   UNL     1     -13.692   7.156   8.452  1.00  0.00     0.000 C 
BRANCH  22  23
ATOM     23  C   UNL     1     -12.907   8.448   8.142  1.00  0.00     0.000 C 
BRANCH  23  24
ATOM     24  C   UNL     1     -13.622   9.752   8.535  1.00  0.00    -0.000 C 
BRANCH  24  25
ATOM     25  C   UNL     1     -12.669  10.961   8.595  1.00  0.00    -0.000 C 
BRANCH  25  26
ATOM     26  C   UNL     1     -12.430  11.586   7.212  1.00  0.00    -0.000 C 
BRANCH  26  27
ATOM     27  C   UNL     1     -10.952  11.530   6.790  1.00  0.00    -0.000 C 
BRANCH  27  28
ATOM     28  C   UNL     1     -10.722  10.683   5.525  1.00  0.00    -0.000 C 
BRANCH  28  29
ATOM     29  C   UNL     1      -9.752   9.498   5.700  1.00  0.00    -0.000 C 
BRANCH  29  30
ATOM     30  C   UNL     1      -8.514   9.853   6.543  1.00  0.00    -0.000 C 
BRANCH  30  31
ATOM     31  C   UNL     1      -7.197   9.485   5.840  1.00  0.00    -0.003 C 
ATOM     32  C   UNL     1      -6.553  10.677   5.131  1.00  0.00     0.004 C 
ENDBRANCH  30  31
ENDBRANCH  29  30
ENDBRANCH  28  29
ENDBRANCH  27  28
ENDBRANCH  26  27
ENDBRANCH  25  26
ENDBRANCH  24  25
ENDBRANCH  23  24
ENDBRANCH  22  23
ENDBRANCH  21  22
ENDBRANCH  20  21
ENDBRANCH  19  20
ENDBRANCH  18  19
ENDBRANCH   1  18
TORSDOF 28
ENDMDL
MODEL 7
REMARK VINA RESULT:    -2.434      2.332      6.377
REMARK INTER + INTRA:         -11.080
REMARK INTER:                  -8.423
REMARK INTRA:                  -2.657
REMARK UNBOUND:                -4.661
REMARK SMILES CCCCCCCCCCCCCCCCCCCCCCCCCCCCCC(=O)[O-]
REMARK SMILES IDX 16 1 17 2 18 3 19 4 20 5 21 6 22 7 23 8 24 9 25 10 26 11
REMARK SMILES IDX 27 12 28 13 29 14 30 15 31 16 32 17 15 18 14 19 13 20 12 21
REMARK SMILES IDX 11 22 10 23 9 24 8 25 7 26 6 27 5 28 4 29 3 30 2 31 1 32
REMARK H PARENT
REMARK Flexibility Score: inf
ROOT
ATOM      1  C   UNL     1      -6.880   9.450   5.896  1.00  0.00     0.000 C 
ENDROOT
BRANCH   1   2
ATOM      2  C   UNL     1      -7.905   8.526   6.576  1.00  0.00     0.000 C 
BRANCH   2   3
ATOM      3  C   UNL     1      -9.062   8.134   5.630  1.00  0.00     0.000 C 
BRANCH   3   4
ATOM      4  C   UNL     1      -9.984   7.042   6.200  1.00  0.00     0.000 C 
BRANCH   4   5
ATOM      5  C   UNL     1      -9.915   5.726   5.409  1.00  0.00     0.000 C 
BRANCH   5   6
ATOM      6  C   UNL     1     -10.207   4.494   6.279  1.00  0.00     0.000 C 
BRANCH   6   7
ATOM      7  C   UNL     1     -10.299   4.830   7.776  1.00  0.00     0.000 C 
BRANCH   7   8
ATOM      8  C   UNL     1     -11.144   3.816   8.568  1.00  0.00     0.000 C 
BRANCH   8   9
ATOM      9  C   UNL     1     -12.659   3.917   8.292  1.00  0.00     0.000 C 
BRANCH   9  10
ATOM     10  C   UNL     1     -13.286   5.170   8.929  1.00  0.00     0.000 C 
BRANCH  10  11
ATOM     11  C   UNL     1     -12.430   6.432   8.731  1.00  0.00     0.000 C 
BRANCH  11  12
ATOM     12  C   UNL     1     -13.209   7.688   8.288  1.00  0.00     0.000 C 
BRANCH  12  13
ATOM     13  C   UNL     1     -14.708   7.464   8.013  1.00  0.00     0.006 C 
BRANCH  13  14
ATOM     14  C   UNL     1     -15.042   7.435   6.513  1.00  0.00     0.053 C 
BRANCH  14  15
ATOM     15  C   UNL     1     -13.801   7.259   5.694  1.00  0.00     0.041 C 
ATOM     16  O   UNL     1     -13.130   8.264   5.337  1.00  0.00    -0.550 OA
ATOM     17  O   UNL     1     -13.396   5.986   5.306  1.00  0.00    -0.550 OA
ENDBRANCH  14  15
ENDBRANCH  13  14
ENDBRANCH  12  13
ENDBRANCH  11  12
ENDBRANCH  10  11
ENDBRANCH   9  10
ENDBRANCH   8   9
ENDBRANCH   7   8
ENDBRANCH   6   7
ENDBRANCH   5   6
ENDBRANCH   4   5
ENDBRANCH   3   4
ENDBRANCH   2   3
ENDBRANCH   1   2
BRANCH   1  18
ATOM     18  C   UNL     1      -6.552  10.691   6.753  1.00  0.00     0.000 C 
BRANCH  18  19
ATOM     19  C   UNL     1      -7.302  11.958   6.312  1.00  0.00     0.000 C 
BRANCH  19  20
ATOM     20  C   UNL     1      -8.422  11.666   5.304  1.00  0.00     0.000 C 
BRANCH  20  21
ATOM     21  C   UNL     1      -9.803  11.899   5.936  1.00  0.00     0.000 C 
BRANCH  21  22
ATOM     22  C   UNL     1     -10.008  11.099   7.235  1.00  0.00     0.000 C 
BRANCH  22  23
ATOM     23  C   UNL     1     -10.671  11.881   8.388  1.00  0.00     0.000 C 
BRANCH  23  24
ATOM     24  C   UNL     1     -12.182  12.121   8.225  1.00  0.00    -0.000 C 
BRANCH  24  25
ATOM     25  C   UNL     1     -12.796  11.306   7.072  1.00  0.00    -0.000 C 
BRANCH  25  26
ATOM     26  C   UNL     1     -14.321  11.174   7.197  1.00  0.00    -0.000 C 
BRANCH  26  27
ATOM     27  C   UNL     1     -15.053  11.556   5.899  1.00  0.00    -0.000 C 
BRANCH  27  28
ATOM     28  C   UNL     1     -14.121  11.585   4.673  1.00  0.00    -0.000 C 
BRANCH  28  29
ATOM     29  C   UNL     1     -14.763  11.110   3.355  1.00  0.00    -0.000 C 
BRANCH  29  30
ATOM     30  C   UNL     1     -13.909  11.437   2.118  1.00  0.00    -0.000 C 
BRANCH  30  31
ATOM     31  C   UNL     1     -12.574  10.675   2.103  1.00  0.00    -0.003 C 
ATOM     32  C   UNL     1     -11.761  10.929   0.833  1.00  0.00     0.004 C 
ENDBRANCH  30  31
ENDBRANCH  29  30
ENDBRANCH  28  29
ENDBRANCH  27  28
ENDBRANCH  26  27
ENDBRANCH  25  26
ENDBRANCH  24  25
ENDBRANCH  23  24
ENDBRANCH  22  23
ENDBRANCH  21  22
ENDBRANCH  20  21
ENDBRANCH  19  20
ENDBRANCH  18  19
ENDBRANCH   1  18
TORSDOF 28
ENDMDL
MODEL 8
REMARK VINA RESULT:    -1.920      2.339      5.052
REMARK INTER + INTRA:          -9.723
REMARK INTER:                  -6.373
REMARK INTRA:                  -3.351
REMARK UNBOUND:                -4.661
REMARK SMILES CCCCCCCCCCCCCCCCCCCCCCCCCCCCCC(=O)[O-]
REMARK SMILES IDX 16 1 17 2 18 3 19 4 20 5 21 6 22 7 23 8 24 9 25 10 26 11
REMARK SMILES IDX 27 12 28 13 29 14 30 15 31 16 32 17 15 18 14 19 13 20 12 21
REMARK SMILES IDX 11 22 10 23 9 24 8 25 7 26 6 27 5 28 4 29 3 30 2 31 1 32
REMARK H PARENT
REMARK Flexibility Score: inf
ROOT
ATOM      1  C   UNL     1     -12.840   5.763   8.665  1.00  0.00     0.000 C 
ENDROOT
BRANCH   1   2
ATOM      2  C   UNL     1     -13.377   7.171   8.979  1.00  0.00     0.000 C 
BRANCH   2   3
ATOM      3  C   UNL     1     -14.649   7.507   8.170  1.00  0.00     0.000 C 
BRANCH   3   4
ATOM      4  C   UNL     1     -14.599   8.882   7.480  1.00  0.00     0.000 C 
BRANCH   4   5
ATOM      5  C   UNL     1     -14.909  10.044   8.436  1.00  0.00     0.000 C 
BRANCH   5   6
ATOM      6  C   UNL     1     -13.653  10.599   9.125  1.00  0.00     0.000 C 
BRANCH   6   7
ATOM      7  C   UNL     1     -12.938  11.671   8.288  1.00  0.00     0.000 C 
BRANCH   7   8
ATOM      8  C   UNL     1     -12.090  11.078   7.149  1.00  0.00     0.000 C 
BRANCH   8   9
ATOM      9  C   UNL     1     -12.484  11.590   5.747  1.00  0.00     0.000 C 
BRANCH   9  10
ATOM     10  C   UNL     1     -13.926  12.125   5.705  1.00  0.00     0.000 C 
BRANCH  10  11
ATOM     11  C   UNL     1     -14.671  11.732   4.419  1.00  0.00     0.000 C 
BRANCH  11  12
ATOM     12  C   UNL     1     -14.398  10.298   3.917  1.00  0.00     0.000 C 
BRANCH  12  13
ATOM     13  C   UNL     1     -14.473  10.114   2.389  1.00  0.00     0.006 C 
BRANCH  13  14
ATOM     14  C   UNL     1     -13.113   9.768   1.763  1.00  0.00     0.053 C 
BRANCH  14  15
ATOM     15  C   UNL     1     -12.264  10.992   1.623  1.00  0.00     0.041 C 
ATOM     16  O   UNL     1     -11.547  11.380   2.584  1.00  0.00    -0.550 OA
ATOM     17  O   UNL     1     -12.278  11.719   0.437  1.00  0.00    -0.550 OA
ENDBRANCH  14  15
ENDBRANCH  13  14
ENDBRANCH  12  13
ENDBRANCH  11  12
ENDBRANCH  10  11
ENDBRANCH   9  10
ENDBRANCH   8   9
ENDBRANCH   7   8
ENDBRANCH   6   7
ENDBRANCH   5   6
ENDBRANCH   4   5
ENDBRANCH   3   4
ENDBRANCH   2   3
ENDBRANCH   1   2
BRANCH   1  18
ATOM     18  C   UNL     1     -13.284   5.265   7.273  1.00  0.00     0.000 C 
BRANCH  18  19
ATOM     19  C   UNL     1     -12.824   6.173   6.120  1.00  0.00     0.000 C 
BRANCH  19  20
ATOM     20  C   UNL     1     -12.307   5.383   4.910  1.00  0.00     0.000 C 
BRANCH  20  21
ATOM     21  C   UNL     1     -11.763   4.013   5.343  1.00  0.00     0.000 C 
BRANCH  21  22
ATOM     22  C   UNL     1     -10.292   4.069   5.794  1.00  0.00     0.000 C 
BRANCH  22  23
ATOM     23  C   UNL     1      -9.584   5.418   5.548  1.00  0.00     0.000 C 
BRANCH  23  24
ATOM     24  C   UNL     1      -9.210   6.197   6.820  1.00  0.00    -0.000 C 
BRANCH  24  25
ATOM     25  C   UNL     1      -9.062   7.710   6.573  1.00  0.00    -0.000 C 
BRANCH  25  26
ATOM     26  C   UNL     1      -8.781   8.036   5.098  1.00  0.00    -0.000 C 
BRANCH  26  27
ATOM     27  C   UNL     1      -8.121   9.414   4.916  1.00  0.00    -0.000 C 
BRANCH  27  28
ATOM     28  C   UNL     1      -9.004  10.571   5.420  1.00  0.00    -0.000 C 
BRANCH  28  29
ATOM     29  C   UNL     1      -8.244  11.715   6.118  1.00  0.00    -0.000 C 
BRANCH  29  30
ATOM     30  C   UNL     1      -8.168  11.543   7.646  1.00  0.00    -0.000 C 
BRANCH  30  31
ATOM     31  C   UNL     1      -6.941  10.729   8.088  1.00  0.00    -0.003 C 
ATOM     32  C   UNL     1      -5.621  11.446   7.800  1.00  0.00     0.004 C 
ENDBRANCH  30  31
ENDBRANCH  29  30
ENDBRANCH  28  29
ENDBRANCH  27  28
ENDBRANCH  26  27
ENDBRANCH  25  26
ENDBRANCH  24  25
ENDBRANCH  23  24
ENDBRANCH  22  23
ENDBRANCH  21  22
ENDBRANCH  20  21
ENDBRANCH  19  20
ENDBRANCH  18  19
ENDBRANCH   1  18
TORSDOF 28
ENDMDL
MODEL 9
REMARK VINA RESULT:    -1.840      2.182      4.615
REMARK INTER + INTRA:          -9.513
REMARK INTER:                  -8.742
REMARK INTRA:                  -0.771
REMARK UNBOUND:                -4.661
REMARK SMILES CCCCCCCCCCCCCCCCCCCCCCCCCCCCCC(=O)[O-]
REMARK SMILES IDX 16 1 17 2 18 3 19 4 20 5 21 6 22 7 23 8 24 9 25 10 26 11
REMARK SMILES IDX 27 12 28 13 29 14 30 15 31 16 32 17 15 18 14 19 13 20 12 21
REMARK SMILES IDX 11 22 10 23 9 24 8 25 7 26 6 27 5 28 4 29 3 30 2 31 1 32
REMARK H PARENT
REMARK Flexibility Score: inf
ROOT
ATOM      1  C   UNL     1     -11.100   3.554   6.766  1.00  0.00     0.000 C 
ENDROOT
BRANCH   1   2
ATOM      2  C   UNL     1     -10.782   4.661   5.745  1.00  0.00     0.000 C 
BRANCH   2   3
ATOM      3  C   UNL     1     -11.936   5.679   5.605  1.00  0.00     0.000 C 
BRANCH   3   4
ATOM      4  C   UNL     1     -11.609   7.068   6.179  1.00  0.00     0.000 C 
BRANCH   4   5
ATOM      5  C   UNL     1     -10.468   7.774   5.429  1.00  0.00     0.000 C 
BRANCH   5   6
ATOM      6  C   UNL     1      -9.092   7.162   5.728  1.00  0.00     0.000 C 
BRANCH   6   7
ATOM      7  C   UNL     1      -8.385   7.835   6.915  1.00  0.00     0.000 C 
BRANCH   7   8
ATOM      8  C   UNL     1      -7.417   8.951   6.485  1.00  0.00     0.000 C 
BRANCH   8   9
ATOM      9  C   UNL     1      -8.108  10.301   6.201  1.00  0.00     0.000 C 
BRANCH   9  10
ATOM     10  C   UNL     1      -7.444  11.466   6.956  1.00  0.00     0.000 C 
BRANCH  10  11
ATOM     11  C   UNL     1      -5.976  11.184   7.316  1.00  0.00     0.000 C 
BRANCH  11  12
ATOM     12  C   UNL     1      -5.172  10.428   6.236  1.00  0.00     0.000 C 
BRANCH  12  13
ATOM     13  C   UNL     1      -4.577  11.313   5.125  1.00  0.00     0.006 C 
BRANCH  13  14
ATOM     14  C   UNL     1      -3.241  11.959   5.527  1.00  0.00     0.053 C 
BRANCH  14  15
ATOM     15  C   UNL     1      -2.224  11.800   4.441  1.00  0.00     0.041 C 
ATOM     16  O   UNL     1      -0.999  11.722   4.726  1.00  0.00    -0.550 OA
ATOM     17  O   UNL     1      -2.625  11.761   3.110  1.00  0.00    -0.550 OA
ENDBRANCH  14  15
ENDBRANCH  13  14
ENDBRANCH  12  13
ENDBRANCH  11  12
ENDBRANCH  10  11
ENDBRANCH   9  10
ENDBRANCH   8   9
ENDBRANCH   7   8
ENDBRANCH   6   7
ENDBRANCH   5   6
ENDBRANCH   4   5
ENDBRANCH   3   4
ENDBRANCH   2   3
ENDBRANCH   1   2
BRANCH   1  18
ATOM     18  C   UNL     1     -12.498   3.725   7.397  1.00  0.00     0.000 C 
BRANCH  18  19
ATOM     19  C   UNL     1     -12.458   4.233   8.848  1.00  0.00     0.000 C 
BRANCH  19  20
ATOM     20  C   UNL     1     -12.548   5.762   8.945  1.00  0.00     0.000 C 
BRANCH  20  21
ATOM     21  C   UNL     1     -14.005   6.215   9.125  1.00  0.00     0.000 C 
BRANCH  21  22
ATOM     22  C   UNL     1     -14.413   7.321   8.135  1.00  0.00     0.000 C 
BRANCH  22  23
ATOM     23  C   UNL     1     -14.814   8.663   8.783  1.00  0.00     0.000 C 
BRANCH  23  24
ATOM     24  C   UNL     1     -14.320   9.916   8.040  1.00  0.00    -0.000 C 
BRANCH  24  25
ATOM     25  C   UNL     1     -12.839   9.821   7.629  1.00  0.00    -0.000 C 
BRANCH  25  26
ATOM     26  C   UNL     1     -12.193  11.203   7.446  1.00  0.00    -0.000 C 
BRANCH  26  27
ATOM     27  C   UNL     1     -12.366  11.747   6.017  1.00  0.00    -0.000 C 
BRANCH  27  28
ATOM     28  C   UNL     1     -13.687  11.303   5.363  1.00  0.00    -0.000 C 
BRANCH  28  29
ATOM     29  C   UNL     1     -13.532  10.356   4.157  1.00  0.00    -0.000 C 
BRANCH  29  30
ATOM     30  C   UNL     1     -13.594  11.088   2.805  1.00  0.00    -0.000 C 
BRANCH  30  31
ATOM     31  C   UNL     1     -12.200  11.455   2.268  1.00  0.00    -0.003 C 
ATOM     32  C   UNL     1     -11.914  10.842   0.897  1.00  0.00     0.004 C 
ENDBRANCH  30  31
ENDBRANCH  29  30
ENDBRANCH  28  29
ENDBRANCH  27  28
ENDBRANCH  26  27
ENDBRANCH  25  26
ENDBRANCH  24  25
ENDBRANCH  23  24
ENDBRANCH  22  23
ENDBRANCH  21  22
ENDBRANCH  20  21
ENDBRANCH  19  20
ENDBRANCH  18  19
ENDBRANCH   1  18
TORSDOF 28
ENDMDL
