MODEL 1
REMARK VINA RESULT:    -3.973      0.000      0.000
REMARK INTER + INTRA:         -10.119
REMARK INTER:                  -7.689
REMARK INTRA:                  -2.429
REMARK UNBOUND:                -2.429
REMARK SMILES CCCCCCCCCCCCCCCCCC(=O)[O-]
REMARK SMILES IDX 10 1 11 2 12 3 13 4 14 5 15 6 16 7 17 8 18 9 19 10 20 11
REMARK SMILES IDX 9 12 8 13 7 14 6 15 5 16 4 17 3 18 2 19 1 20
REMARK H PARENT
REMARK Flexibility Score: inf
ROOT
ATOM      1  C   UNL     1     -45.210 -51.954  38.613  1.00  0.00     0.000 C 
ENDROOT
BRANCH   1   2
ATOM      2  C   UNL     1     -46.563 -51.885  37.888  1.00  0.00     0.000 C 
BRANCH   2   3
ATOM      3  C   UNL     1     -46.901 -50.466  37.398  1.00  0.00     0.000 C 
BRANCH   3   4
ATOM      4  C   UNL     1     -45.668 -49.748  36.811  1.00  0.00     0.000 C 
BRANCH   4   5
ATOM      5  C   UNL     1     -45.278 -48.470  37.573  1.00  0.00     0.000 C 
BRANCH   5   6
ATOM      6  C   UNL     1     -43.930 -48.592  38.296  1.00  0.00     0.000 C 
BRANCH   6   7
ATOM      7  C   UNL     1     -43.970 -47.891  39.660  1.00  0.00     0.006 C 
BRANCH   7   8
ATOM      8  C   UNL     1     -42.789 -46.929  39.820  1.00  0.00     0.053 C 
BRANCH   8   9
ATOM      9  C   UNL     1     -43.246 -45.635  40.416  1.00  0.00     0.041 C 
ATOM     10  O   UNL     1     -44.476 -45.392  40.538  1.00  0.00    -0.550 OA
ATOM     11  O   UNL     1     -42.314 -44.673  40.785  1.00  0.00    -0.550 OA
ENDBRANCH   8   9
ENDBRANCH   7   8
ENDBRANCH   6   7
ENDBRANCH   5   6
ENDBRANCH   4   5
ENDBRANCH   3   4
ENDBRANCH   2   3
ENDBRANCH   1   2
BRANCH   1  12
ATOM     12  C   UNL     1     -45.362 -52.111  40.136  1.00  0.00     0.000 C 
BRANCH  12  13
ATOM     13  C   UNL     1     -45.735 -50.791  40.831  1.00  0.00    -0.000 C 
BRANCH  13  14
ATOM     14  C   UNL     1     -47.174 -50.796  41.371  1.00  0.00    -0.000 C 
BRANCH  14  15
ATOM     15  C   UNL     1     -47.589 -52.161  41.947  1.00  0.00    -0.000 C 
BRANCH  15  16
ATOM     16  C   UNL     1     -48.993 -52.623  41.495  1.00  0.00    -0.000 C 
BRANCH  16  17
ATOM     17  C   UNL     1     -48.933 -53.549  40.268  1.00  0.00    -0.000 C 
BRANCH  17  18
ATOM     18  C   UNL     1     -47.832 -54.623  40.400  1.00  0.00    -0.000 C 
BRANCH  18  19
ATOM     19  C   UNL     1     -47.619 -55.445  39.119  1.00  0.00    -0.003 C 
ATOM     20  C   UNL     1     -46.143 -55.605  38.748  1.00  0.00     0.004 C 
ENDBRANCH  18  19
ENDBRANCH  17  18
ENDBRANCH  16  17
ENDBRANCH  15  16
ENDBRANCH  14  15
ENDBRANCH  13  14
ENDBRANCH  12  13
ENDBRANCH   1  12
TORSDOF 16
ENDMDL
MODEL 2
REMARK VINA RESULT:    -3.933      4.297      7.945
REMARK INTER + INTRA:         -10.041
REMARK INTER:                  -7.670
REMARK INTRA:                  -2.371
REMARK UNBOUND:                -2.429
REMARK SMILES CCCCCCCCCCCCCCCCCC(=O)[O-]
REMARK SMILES IDX 10 1 11 2 12 3 13 4 14 5 15 6 16 7 17 8 18 9 19 10 20 11
REMARK SMILES IDX 9 12 8 13 7 14 6 15 5 16 4 17 3 18 2 19 1 20
REMARK H PARENT
REMARK Flexibility Score: inf
ROOT
ATOM      1  C   UNL     1     -45.515 -51.430  40.801  1.00  0.00     0.000 C 
ENDROOT
BRANCH   1   2
ATOM      2  C   UNL     1     -46.847 -50.833  41.282  1.00  0.00     0.000 C 
BRANCH   2   3
ATOM      3  C   UNL     1     -47.638 -51.798  42.182  1.00  0.00     0.000 C 
BRANCH   3   4
ATOM      4  C   UNL     1     -49.040 -52.104  41.611  1.00  0.00     0.000 C 
BRANCH   4   5
ATOM      5  C   UNL     1     -49.143 -53.480  40.934  1.00  0.00     0.000 C 
BRANCH   5   6
ATOM      6  C   UNL     1     -47.875 -54.328  41.104  1.00  0.00     0.000 C 
BRANCH   6   7
ATOM      7  C   UNL     1     -47.384 -54.861  39.752  1.00  0.00     0.006 C 
BRANCH   7   8
ATOM      8  C   UNL     1     -46.656 -56.198  39.920  1.00  0.00     0.053 C 
BRANCH   8   9
ATOM      9  C   UNL     1     -47.545 -57.333  39.519  1.00  0.00     0.041 C 
ATOM     10  O   UNL     1     -48.426 -57.165  38.634  1.00  0.00    -0.550 OA
ATOM     11  O   UNL     1     -47.440 -58.559  40.163  1.00  0.00    -0.550 OA
ENDBRANCH   8   9
ENDBRANCH   7   8
ENDBRANCH   6   7
ENDBRANCH   5   6
ENDBRANCH   4   5
ENDBRANCH   3   4
ENDBRANCH   2   3
ENDBRANCH   1   2
BRANCH   1  12
ATOM     12  C   UNL     1     -45.520 -51.753  39.297  1.00  0.00     0.000 C 
BRANCH  12  13
ATOM     13  C   UNL     1     -46.828 -51.330  38.607  1.00  0.00    -0.000 C 
BRANCH  13  14
ATOM     14  C   UNL     1     -46.596 -50.789  37.187  1.00  0.00    -0.000 C 
BRANCH  14  15
ATOM     15  C   UNL     1     -45.199 -51.130  36.640  1.00  0.00    -0.000 C 
BRANCH  15  16
ATOM     16  C   UNL     1     -44.430 -49.905  36.095  1.00  0.00    -0.000 C 
BRANCH  16  17
ATOM     17  C   UNL     1     -44.660 -48.647  36.950  1.00  0.00    -0.000 C 
BRANCH  17  18
ATOM     18  C   UNL     1     -43.709 -48.584  38.164  1.00  0.00    -0.000 C 
BRANCH  18  19
ATOM     19  C   UNL     1     -44.387 -48.084  39.450  1.00  0.00    -0.003 C 
ATOM     20  C   UNL     1     -43.630 -46.935  40.118  1.00  0.00     0.004 C 
ENDBRANCH  18  19
ENDBRANCH  17  18
ENDBRANCH  16  17
ENDBRANCH  15  16
ENDBRANCH  14  15
ENDBRANCH  13  14
ENDBRANCH  12  13
ENDBRANCH   1  12
TORSDOF 16
ENDMDL
MODEL 3
REMARK VINA RESULT:    -3.931      1.252      3.053
REMARK INTER + INTRA:         -10.037
REMARK INTER:                  -8.338
REMARK INTRA:                  -1.698
REMARK UNBOUND:                -2.429
REMARK SMILES CCCCCCCCCCCCCCCCCC(=O)[O-]
REMARK SMILES IDX 10 1 11 2 12 3 13 4 14 5 15 6 16 7 17 8 18 9 19 10 20 11
REMARK SMILES IDX 9 12 8 13 7 14 6 15 5 16 4 17 3 18 2 19 1 20
REMARK H PARENT
REMARK Flexibility Score: inf
ROOT
ATOM      1  C   UNL     1     -45.482 -51.100  37.295  1.00  0.00     0.000 C 
ENDROOT
BRANCH   1   2
ATOM      2  C   UNL     1     -44.864 -50.124  36.282  1.00  0.00     0.000 C 
BRANCH   2   3
ATOM      3  C   UNL     1     -44.296 -48.859  36.949  1.00  0.00     0.000 C 
BRANCH   3   4
ATOM      4  C   UNL     1     -45.346 -48.147  37.828  1.00  0.00     0.000 C 
BRANCH   4   5
ATOM      5  C   UNL     1     -44.795 -47.671  39.183  1.00  0.00     0.000 C 
BRANCH   5   6
ATOM      6  C   UNL     1     -43.451 -48.319  39.544  1.00  0.00     0.000 C 
BRANCH   6   7
ATOM      7  C   UNL     1     -42.379 -47.253  39.804  1.00  0.00     0.006 C 
BRANCH   7   8
ATOM      8  C   UNL     1     -42.969 -46.045  40.537  1.00  0.00     0.053 C 
BRANCH   8   9
ATOM      9  C   UNL     1     -41.972 -45.476  41.497  1.00  0.00     0.041 C 
ATOM     10  O   UNL     1     -41.661 -44.257  41.438  1.00  0.00    -0.550 OA
ATOM     11  O   UNL     1     -41.343 -46.303  42.418  1.00  0.00    -0.550 OA
ENDBRANCH   8   9
ENDBRANCH   7   8
ENDBRANCH   6   7
ENDBRANCH   5   6
ENDBRANCH   4   5
ENDBRANCH   3   4
ENDBRANCH   2   3
ENDBRANCH   1   2
BRANCH   1  12
ATOM     12  C   UNL     1     -47.012 -51.196  37.167  1.00  0.00     0.000 C 
BRANCH  12  13
ATOM     13  C   UNL     1     -47.520 -52.646  37.213  1.00  0.00    -0.000 C 
BRANCH  13  14
ATOM     14  C   UNL     1     -46.772 -53.499  38.251  1.00  0.00    -0.000 C 
BRANCH  14  15
ATOM     15  C   UNL     1     -47.682 -54.525  38.946  1.00  0.00    -0.000 C 
BRANCH  15  16
ATOM     16  C   UNL     1     -47.919 -54.229  40.445  1.00  0.00    -0.000 C 
BRANCH  16  17
ATOM     17  C   UNL     1     -48.898 -53.062  40.660  1.00  0.00    -0.000 C 
BRANCH  17  18
ATOM     18  C   UNL     1     -48.562 -52.245  41.926  1.00  0.00    -0.000 C 
BRANCH  18  19
ATOM     19  C   UNL     1     -48.044 -50.830  41.625  1.00  0.00    -0.003 C 
ATOM     20  C   UNL     1     -46.680 -50.826  40.933  1.00  0.00     0.004 C 
ENDBRANCH  18  19
ENDBRANCH  17  18
ENDBRANCH  16  17
ENDBRANCH  15  16
ENDBRANCH  14  15
ENDBRANCH  13  14
ENDBRANCH  12  13
ENDBRANCH   1  12
TORSDOF 16
ENDMDL
MODEL 4
REMARK VINA RESULT:    -3.919      3.282      7.130
REMARK INTER + INTRA:         -10.014
REMARK INTER:                  -7.453
REMARK INTRA:                  -2.561
REMARK UNBOUND:                -2.429
REMARK SMILES CCCCCCCCCCCCCCCCCC(=O)[O-]
REMARK SMILES IDX 10 1 11 2 12 3 13 4 14 5 15 6 16 7 17 8 18 9 19 10 20 11
REMARK SMILES IDX 9 12 8 13 7 14 6 15 5 16 4 17 3 18 2 19 1 20
REMARK H PARENT
REMARK Flexibility Score: inf
ROOT
ATOM      1  C   UNL     1     -46.158 -51.086  41.155  1.00  0.00     0.000 C 
ENDROOT
BRANCH   1   2
ATOM      2  C   UNL     1     -47.685 -50.958  41.277  1.00  0.00     0.000 C 
BRANCH   2   3
ATOM      3  C   UNL     1     -48.306 -52.078  42.130  1.00  0.00     0.000 C 
BRANCH   3   4
ATOM      4  C   UNL     1     -49.228 -52.995  41.298  1.00  0.00     0.000 C 
BRANCH   4   5
ATOM      5  C   UNL     1     -48.466 -53.972  40.387  1.00  0.00     0.000 C 
BRANCH   5   6
ATOM      6  C   UNL     1     -47.304 -54.675  41.102  1.00  0.00     0.000 C 
BRANCH   6   7
ATOM      7  C   UNL     1     -46.550 -55.605  40.144  1.00  0.00     0.006 C 
BRANCH   7   8
ATOM      8  C   UNL     1     -46.738 -55.166  38.688  1.00  0.00     0.053 C 
BRANCH   8   9
ATOM      9  C   UNL     1     -45.426 -54.776  38.085  1.00  0.00     0.041 C 
ATOM     10  O   UNL     1     -45.393 -54.117  37.011  1.00  0.00    -0.550 OA
ATOM     11  O   UNL     1     -44.239 -55.190  38.675  1.00  0.00    -0.550 OA
ENDBRANCH   8   9
ENDBRANCH   7   8
ENDBRANCH   6   7
ENDBRANCH   5   6
ENDBRANCH   4   5
ENDBRANCH   3   4
ENDBRANCH   2   3
ENDBRANCH   1   2
BRANCH   1  12
ATOM     12  C   UNL     1     -45.696 -51.295  39.702  1.00  0.00     0.000 C 
BRANCH  12  13
ATOM     13  C   UNL     1     -46.873 -51.389  38.716  1.00  0.00    -0.000 C 
BRANCH  13  14
ATOM     14  C   UNL     1     -46.565 -50.719  37.367  1.00  0.00    -0.000 C 
BRANCH  14  15
ATOM     15  C   UNL     1     -47.099 -49.279  37.282  1.00  0.00    -0.000 C 
BRANCH  15  16
ATOM     16  C   UNL     1     -46.035 -48.204  37.597  1.00  0.00    -0.000 C 
BRANCH  16  17
ATOM     17  C   UNL     1     -44.616 -48.660  37.216  1.00  0.00    -0.000 C 
BRANCH  17  18
ATOM     18  C   UNL     1     -43.601 -48.423  38.356  1.00  0.00    -0.000 C 
BRANCH  18  19
ATOM     19  C   UNL     1     -44.245 -47.913  39.655  1.00  0.00    -0.003 C 
ATOM     20  C   UNL     1     -43.573 -46.652  40.201  1.00  0.00     0.004 C 
ENDBRANCH  18  19
ENDBRANCH  17  18
ENDBRANCH  16  17
ENDBRANCH  15  16
ENDBRANCH  14  15
ENDBRANCH  13  14
ENDBRANCH  12  13
ENDBRANCH   1  12
TORSDOF 16
ENDMDL
MODEL 5
REMARK VINA RESULT:    -3.907      3.168      5.899
REMARK INTER + INTRA:          -9.991
REMARK INTER:                  -7.136
REMARK INTRA:                  -2.855
REMARK UNBOUND:                -2.429
REMARK SMILES CCCCCCCCCCCCCCCCCC(=O)[O-]
REMARK SMILES IDX 10 1 11 2 12 3 13 4 14 5 15 6 16 7 17 8 18 9 19 10 20 11
REMARK SMILES IDX 9 12 8 13 7 14 6 15 5 16 4 17 3 18 2 19 1 20
REMARK H PARENT
REMARK Flexibility Score: inf
ROOT
ATOM      1  C   UNL     1     -43.737 -49.083  40.367  1.00  0.00     0.000 C 
ENDROOT
BRANCH   1   2
ATOM      2  C   UNL     1     -43.509 -50.603  40.358  1.00  0.00     0.000 C 
BRANCH   2   3
ATOM      3  C   UNL     1     -44.762 -51.392  40.776  1.00  0.00     0.000 C 
BRANCH   3   4
ATOM      4  C   UNL     1     -45.985 -50.472  40.977  1.00  0.00     0.000 C 
BRANCH   4   5
ATOM      5  C   UNL     1     -47.312 -51.102  40.520  1.00  0.00     0.000 C 
BRANCH   5   6
ATOM      6  C   UNL     1     -48.344 -51.207  41.650  1.00  0.00     0.000 C 
BRANCH   6   7
ATOM      7  C   UNL     1     -48.836 -52.651  41.814  1.00  0.00     0.006 C 
BRANCH   7   8
ATOM      8  C   UNL     1     -47.707 -53.565  42.300  1.00  0.00     0.053 C 
BRANCH   8   9
ATOM      9  C   UNL     1     -47.271 -53.172  43.676  1.00  0.00     0.041 C 
ATOM     10  O   UNL     1     -46.048 -53.009  43.930  1.00  0.00    -0.550 OA
ATOM     11  O   UNL     1     -48.208 -53.041  44.692  1.00  0.00    -0.550 OA
ENDBRANCH   8   9
ENDBRANCH   7   8
ENDBRANCH   6   7
ENDBRANCH   5   6
ENDBRANCH   4   5
ENDBRANCH   3   4
ENDBRANCH   2   3
ENDBRANCH   1   2
BRANCH   1  12
ATOM     12  C   UNL     1     -43.601 -48.457  38.968  1.00  0.00     0.000 C 
BRANCH  12  13
ATOM     13  C   UNL     1     -44.949 -48.349  38.236  1.00  0.00    -0.000 C 
BRANCH  13  14
ATOM     14  C   UNL     1     -44.922 -49.020  36.853  1.00  0.00    -0.000 C 
BRANCH  14  15
ATOM     15  C   UNL     1     -45.738 -50.322  36.806  1.00  0.00    -0.000 C 
BRANCH  15  16
ATOM     16  C   UNL     1     -44.890 -51.594  37.028  1.00  0.00    -0.000 C 
BRANCH  16  17
ATOM     17  C   UNL     1     -45.761 -52.845  37.241  1.00  0.00    -0.000 C 
BRANCH  17  18
ATOM     18  C   UNL     1     -47.264 -52.503  37.314  1.00  0.00    -0.000 C 
BRANCH  18  19
ATOM     19  C   UNL     1     -48.116 -53.611  37.954  1.00  0.00    -0.003 C 
ATOM     20  C   UNL     1     -47.289 -54.609  38.765  1.00  0.00     0.004 C 
ENDBRANCH  18  19
ENDBRANCH  17  18
ENDBRANCH  16  17
ENDBRANCH  15  16
ENDBRANCH  14  15
ENDBRANCH  13  14
ENDBRANCH  12  13
ENDBRANCH   1  12
TORSDOF 16
ENDMDL
MODEL 6
REMARK VINA RESULT:    -3.895      1.176      2.875
REMARK INTER + INTRA:          -9.968
REMARK INTER:                  -7.111
REMARK INTRA:                  -2.858
REMARK UNBOUND:                -2.429
REMARK SMILES CCCCCCCCCCCCCCCCCC(=O)[O-]
REMARK SMILES IDX 10 1 11 2 12 3 13 4 14 5 15 6 16 7 17 8 18 9 19 10 20 11
REMARK SMILES IDX 9 12 8 13 7 14 6 15 5 16 4 17 3 18 2 19 1 20
REMARK H PARENT
REMARK Flexibility Score: inf
ROOT
ATOM      1  C   UNL     1     -46.090 -53.078  37.629  1.00  0.00     0.000 C 
ENDROOT
BRANCH   1   2
ATOM      2  C   UNL     1     -47.304 -52.256  37.169  1.00  0.00     0.000 C 
BRANCH   2   3
ATOM      3  C   UNL     1     -47.040 -50.741  37.195  1.00  0.00     0.000 C 
BRANCH   3   4
ATOM      4  C   UNL     1     -45.544 -50.412  37.007  1.00  0.00     0.000 C 
BRANCH   4   5
ATOM      5  C   UNL     1     -45.221 -48.914  37.136  1.00  0.00     0.000 C 
BRANCH   5   6
ATOM      6  C   UNL     1     -43.715 -48.627  37.182  1.00  0.00     0.000 C 
BRANCH   6   7
ATOM      7  C   UNL     1     -43.251 -48.343  38.616  1.00  0.00     0.006 C 
BRANCH   7   8
ATOM      8  C   UNL     1     -44.301 -47.535  39.384  1.00  0.00     0.053 C 
BRANCH   8   9
ATOM      9  C   UNL     1     -43.643 -46.633  40.380  1.00  0.00     0.041 C 
ATOM     10  O   UNL     1     -42.770 -47.088  41.166  1.00  0.00    -0.550 OA
ATOM     11  O   UNL     1     -44.033 -45.304  40.478  1.00  0.00    -0.550 OA
ENDBRANCH   8   9
ENDBRANCH   7   8
ENDBRANCH   6   7
ENDBRANCH   5   6
ENDBRANCH   4   5
ENDBRANCH   3   4
ENDBRANCH   2   3
ENDBRANCH   1   2
BRANCH   1  12
ATOM     12  C   UNL     1     -46.419 -54.010  38.808  1.00  0.00     0.000 C 
BRANCH  12  13
ATOM     13  C   UNL     1     -47.932 -54.168  39.032  1.00  0.00    -0.000 C 
BRANCH  13  14
ATOM     14  C   UNL     1     -48.354 -53.819  40.468  1.00  0.00    -0.000 C 
BRANCH  14  15
ATOM     15  C   UNL     1     -47.162 -53.735  41.436  1.00  0.00    -0.000 C 
BRANCH  15  16
ATOM     16  C   UNL     1     -46.971 -52.337  42.065  1.00  0.00    -0.000 C 
BRANCH  16  17
ATOM     17  C   UNL     1     -47.323 -51.205  41.084  1.00  0.00    -0.000 C 
BRANCH  17  18
ATOM     18  C   UNL     1     -46.095 -50.338  40.729  1.00  0.00    -0.000 C 
BRANCH  18  19
ATOM     19  C   UNL     1     -44.781 -51.132  40.664  1.00  0.00    -0.003 C 
ATOM     20  C   UNL     1     -43.700 -50.580  41.596  1.00  0.00     0.004 C 
ENDBRANCH  18  19
ENDBRANCH  17  18
ENDBRANCH  16  17
ENDBRANCH  15  16
ENDBRANCH  14  15
ENDBRANCH  13  14
ENDBRANCH  12  13
ENDBRANCH   1  12
TORSDOF 16
ENDMDL
MODEL 7
REMARK VINA RESULT:    -3.851      2.369      3.732
REMARK INTER + INTRA:          -9.883
REMARK INTER:                  -6.918
REMARK INTRA:                  -2.965
REMARK UNBOUND:                -2.429
REMARK SMILES CCCCCCCCCCCCCCCCCC(=O)[O-]
REMARK SMILES IDX 10 1 11 2 12 3 13 4 14 5 15 6 16 7 17 8 18 9 19 10 20 11
REMARK SMILES IDX 9 12 8 13 7 14 6 15 5 16 4 17 3 18 2 19 1 20
REMARK H PARENT
REMARK Flexibility Score: inf
ROOT
ATOM      1  C   UNL     1     -47.317 -54.392  38.695  1.00  0.00     0.000 C 
ENDROOT
BRANCH   1   2
ATOM      2  C   UNL     1     -47.896 -53.237  37.863  1.00  0.00     0.000 C 
BRANCH   2   3
ATOM      3  C   UNL     1     -46.806 -52.396  37.177  1.00  0.00     0.000 C 
BRANCH   3   4
ATOM      4  C   UNL     1     -47.092 -50.883  37.280  1.00  0.00     0.000 C 
BRANCH   4   5
ATOM      5  C   UNL     1     -45.939 -50.002  36.770  1.00  0.00     0.000 C 
BRANCH   5   6
ATOM      6  C   UNL     1     -45.665 -48.792  37.674  1.00  0.00     0.000 C 
BRANCH   6   7
ATOM      7  C   UNL     1     -44.159 -48.593  37.886  1.00  0.00     0.006 C 
BRANCH   7   8
ATOM      8  C   UNL     1     -43.349 -49.575  37.035  1.00  0.00     0.053 C 
BRANCH   8   9
ATOM      9  C   UNL     1     -42.479 -48.835  36.068  1.00  0.00     0.041 C 
ATOM     10  O   UNL     1     -41.282 -48.576  36.362  1.00  0.00    -0.550 OA
ATOM     11  O   UNL     1     -43.006 -48.380  34.867  1.00  0.00    -0.550 OA
ENDBRANCH   8   9
ENDBRANCH   7   8
ENDBRANCH   6   7
ENDBRANCH   5   6
ENDBRANCH   4   5
ENDBRANCH   3   4
ENDBRANCH   2   3
ENDBRANCH   1   2
BRANCH   1  12
ATOM     12  C   UNL     1     -47.902 -54.448  40.117  1.00  0.00     0.000 C 
BRANCH  12  13
ATOM     13  C   UNL     1     -48.772 -53.224  40.446  1.00  0.00    -0.000 C 
BRANCH  13  14
ATOM     14  C   UNL     1     -48.596 -52.750  41.898  1.00  0.00    -0.000 C 
BRANCH  14  15
ATOM     15  C   UNL     1     -48.088 -51.302  41.994  1.00  0.00    -0.000 C 
BRANCH  15  16
ATOM     16  C   UNL     1     -47.274 -50.847  40.762  1.00  0.00    -0.000 C 
BRANCH  16  17
ATOM     17  C   UNL     1     -45.762 -50.816  41.042  1.00  0.00    -0.000 C 
BRANCH  17  18
ATOM     18  C   UNL     1     -44.982 -51.803  40.146  1.00  0.00    -0.000 C 
BRANCH  18  19
ATOM     19  C   UNL     1     -44.171 -52.841  40.937  1.00  0.00    -0.003 C 
ATOM     20  C   UNL     1     -44.936 -53.418  42.130  1.00  0.00     0.004 C 
ENDBRANCH  18  19
ENDBRANCH  17  18
ENDBRANCH  16  17
ENDBRANCH  15  16
ENDBRANCH  14  15
ENDBRANCH  13  14
ENDBRANCH  12  13
ENDBRANCH   1  12
TORSDOF 16
ENDMDL
MODEL 8
REMARK VINA RESULT:    -3.792      1.654      2.729
REMARK INTER + INTRA:          -9.768
REMARK INTER:                  -6.659
REMARK INTRA:                  -3.110
REMARK UNBOUND:                -2.429
REMARK SMILES CCCCCCCCCCCCCCCCCC(=O)[O-]
REMARK SMILES IDX 10 1 11 2 12 3 13 4 14 5 15 6 16 7 17 8 18 9 19 10 20 11
REMARK SMILES IDX 9 12 8 13 7 14 6 15 5 16 4 17 3 18 2 19 1 20
REMARK H PARENT
REMARK Flexibility Score: inf
ROOT
ATOM      1  C   UNL     1     -44.169 -51.521  40.458  1.00  0.00     0.000 C 
ENDROOT
BRANCH   1   2
ATOM      2  C   UNL     1     -44.563 -52.781  39.670  1.00  0.00     0.000 C 
BRANCH   2   3
ATOM      3  C   UNL     1     -43.693 -52.994  38.420  1.00  0.00     0.000 C 
BRANCH   3   4
ATOM      4  C   UNL     1     -43.373 -51.665  37.704  1.00  0.00     0.000 C 
BRANCH   4   5
ATOM      5  C   UNL     1     -44.004 -51.551  36.306  1.00  0.00     0.000 C 
BRANCH   5   6
ATOM      6  C   UNL     1     -44.660 -50.186  36.055  1.00  0.00     0.000 C 
BRANCH   6   7
ATOM      7  C   UNL     1     -45.504 -49.751  37.260  1.00  0.00     0.006 C 
BRANCH   7   8
ATOM      8  C   UNL     1     -45.277 -48.271  37.585  1.00  0.00     0.053 C 
BRANCH   8   9
ATOM      9  C   UNL     1     -44.267 -48.125  38.679  1.00  0.00     0.041 C 
ATOM     10  O   UNL     1     -44.639 -47.850  39.851  1.00  0.00    -0.550 OA
ATOM     11  O   UNL     1     -42.913 -48.234  38.393  1.00  0.00    -0.550 OA
ENDBRANCH   8   9
ENDBRANCH   7   8
ENDBRANCH   6   7
ENDBRANCH   5   6
ENDBRANCH   4   5
ENDBRANCH   3   4
ENDBRANCH   2   3
ENDBRANCH   1   2
BRANCH   1  12
ATOM     12  C   UNL     1     -45.324 -50.973  41.314  1.00  0.00     0.000 C 
BRANCH  12  13
ATOM     13  C   UNL     1     -46.636 -50.841  40.522  1.00  0.00    -0.000 C 
BRANCH  13  14
ATOM     14  C   UNL     1     -47.875 -51.135  41.382  1.00  0.00    -0.000 C 
BRANCH  14  15
ATOM     15  C   UNL     1     -47.880 -52.564  41.952  1.00  0.00    -0.000 C 
BRANCH  15  16
ATOM     16  C   UNL     1     -48.536 -53.603  41.015  1.00  0.00    -0.000 C 
BRANCH  16  17
ATOM     17  C   UNL     1     -47.520 -54.625  40.478  1.00  0.00    -0.000 C 
BRANCH  17  18
ATOM     18  C   UNL     1     -47.542 -54.715  38.937  1.00  0.00    -0.000 C 
BRANCH  18  19
ATOM     19  C   UNL     1     -48.290 -53.553  38.264  1.00  0.00    -0.003 C 
ATOM     20  C   UNL     1     -47.422 -52.774  37.275  1.00  0.00     0.004 C 
ENDBRANCH  18  19
ENDBRANCH  17  18
ENDBRANCH  16  17
ENDBRANCH  15  16
ENDBRANCH  14  15
ENDBRANCH  13  14
ENDBRANCH  12  13
ENDBRANCH   1  12
TORSDOF 16
ENDMDL
MODEL 9
REMARK VINA RESULT:    -3.786      1.981      3.321
REMARK INTER + INTRA:          -9.757
REMARK INTER:                  -6.727
REMARK INTRA:                  -3.030
REMARK UNBOUND:                -2.429
REMARK SMILES CCCCCCCCCCCCCCCCCC(=O)[O-]
REMARK SMILES IDX 10 1 11 2 12 3 13 4 14 5 15 6 16 7 17 8 18 9 19 10 20 11
REMARK SMILES IDX 9 12 8 13 7 14 6 15 5 16 4 17 3 18 2 19 1 20
REMARK H PARENT
REMARK Flexibility Score: inf
ROOT
ATOM      1  C   UNL     1     -45.153 -52.691  37.095  1.00  0.00     0.000 C 
ENDROOT
BRANCH   1   2
ATOM      2  C   UNL     1     -45.227 -51.175  36.851  1.00  0.00     0.000 C 
BRANCH   2   3
ATOM      3  C   UNL     1     -46.628 -50.600  37.120  1.00  0.00     0.000 C 
BRANCH   3   4
ATOM      4  C   UNL     1     -46.576 -49.107  37.506  1.00  0.00     0.000 C 
BRANCH   4   5
ATOM      5  C   UNL     1     -45.149 -48.540  37.587  1.00  0.00     0.000 C 
BRANCH   5   6
ATOM      6  C   UNL     1     -44.882 -47.773  38.889  1.00  0.00     0.000 C 
BRANCH   6   7
ATOM      7  C   UNL     1     -43.407 -47.877  39.298  1.00  0.00     0.006 C 
BRANCH   7   8
ATOM      8  C   UNL     1     -42.744 -49.100  38.658  1.00  0.00     0.053 C 
BRANCH   8   9
ATOM      9  C   UNL     1     -41.399 -48.739  38.110  1.00  0.00     0.041 C 
ATOM     10  O   UNL     1     -40.406 -48.642  38.879  1.00  0.00    -0.550 OA
ATOM     11  O   UNL     1     -41.253 -48.454  36.758  1.00  0.00    -0.550 OA
ENDBRANCH   8   9
ENDBRANCH   7   8
ENDBRANCH   6   7
ENDBRANCH   5   6
ENDBRANCH   4   5
ENDBRANCH   3   4
ENDBRANCH   2   3
ENDBRANCH   1   2
BRANCH   1  12
ATOM     12  C   UNL     1     -46.506 -53.289  37.516  1.00  0.00     0.000 C 
BRANCH  12  13
ATOM     13  C   UNL     1     -46.355 -54.439  38.526  1.00  0.00    -0.000 C 
BRANCH  13  14
ATOM     14  C   UNL     1     -47.606 -54.621  39.401  1.00  0.00    -0.000 C 
BRANCH  14  15
ATOM     15  C   UNL     1     -48.357 -53.302  39.649  1.00  0.00    -0.000 C 
BRANCH  15  16
ATOM     16  C   UNL     1     -48.667 -53.037  41.139  1.00  0.00    -0.000 C 
BRANCH  16  17
ATOM     17  C   UNL     1     -47.669 -52.054  41.775  1.00  0.00    -0.000 C 
BRANCH  17  18
ATOM     18  C   UNL     1     -47.184 -50.985  40.772  1.00  0.00    -0.000 C 
BRANCH  18  19
ATOM     19  C   UNL     1     -45.687 -50.657  40.900  1.00  0.00    -0.003 C 
ATOM     20  C   UNL     1     -44.787 -51.873  40.683  1.00  0.00     0.004 C 
ENDBRANCH  18  19
ENDBRANCH  17  18
ENDBRANCH  16  17
ENDBRANCH  15  16
ENDBRANCH  14  15
ENDBRANCH  13  14
ENDBRANCH  12  13
ENDBRANCH   1  12
TORSDOF 16
ENDMDL
