MODEL 1
REMARK VINA RESULT:    -3.487      0.000      0.000
REMARK INTER + INTRA:         -10.429
REMARK INTER:                  -7.565
REMARK INTRA:                  -2.865
REMARK UNBOUND:                -2.865
REMARK SMILES CCCCCCCCCCCCCCCCCCCCCC(=O)[O-]
REMARK SMILES IDX 12 1 11 2 10 3 9 4 8 5 7 6 6 7 5 8 4 9 3 10 2 11 1 12 13 13
REMARK SMILES IDX 14 14 15 15 16 16 17 17 18 18 19 19 20 20 21 21 22 22 23 23
REMARK SMILES IDX 24 24
REMARK H PARENT
REMARK Flexibility Score: inf
ROOT
ATOM      1  C   UNL     1      11.757  21.213  20.372  1.00  0.00     0.000 C 
ENDROOT
BRANCH   1   2
ATOM      2  C   UNL     1      12.249  22.650  20.116  1.00  0.00     0.000 C 
BRANCH   2   3
ATOM      3  C   UNL     1      12.890  22.899  18.733  1.00  0.00     0.000 C 
BRANCH   3   4
ATOM      4  C   UNL     1      12.000  22.568  17.517  1.00  0.00    -0.000 C 
BRANCH   4   5
ATOM      5  C   UNL     1      12.643  21.628  16.481  1.00  0.00    -0.000 C 
BRANCH   5   6
ATOM      6  C   UNL     1      11.730  20.449  16.103  1.00  0.00    -0.000 C 
BRANCH   6   7
ATOM      7  C   UNL     1      10.522  20.313  17.044  1.00  0.00    -0.000 C 
BRANCH   7   8
ATOM      8  C   UNL     1      10.455  18.944  17.737  1.00  0.00    -0.000 C 
BRANCH   8   9
ATOM      9  C   UNL     1       9.028  18.636  18.215  1.00  0.00    -0.000 C 
BRANCH   9  10
ATOM     10  C   UNL     1       8.045  19.788  17.940  1.00  0.00    -0.000 C 
BRANCH  10  11
ATOM     11  C   UNL     1       6.909  19.926  18.970  1.00  0.00    -0.003 C 
ATOM     12  C   UNL     1       5.756  20.797  18.472  1.00  0.00     0.004 C 
ENDBRANCH  10  11
ENDBRANCH   9  10
ENDBRANCH   8   9
ENDBRANCH   7   8
ENDBRANCH   6   7
ENDBRANCH   5   6
ENDBRANCH   4   5
ENDBRANCH   3   4
ENDBRANCH   2   3
ENDBRANCH   1   2
BRANCH   1  13
ATOM     13  C   UNL     1      10.283  21.140  20.800  1.00  0.00     0.000 C 
BRANCH  13  14
ATOM     14  C   UNL     1       9.445  22.298  20.229  1.00  0.00     0.000 C 
BRANCH  14  15
ATOM     15  C   UNL     1       8.221  22.674  21.094  1.00  0.00     0.000 C 
BRANCH  15  16
ATOM     16  C   UNL     1       7.898  21.645  22.193  1.00  0.00     0.000 C 
BRANCH  16  17
ATOM     17  C   UNL     1       7.537  22.276  23.559  1.00  0.00     0.000 C 
BRANCH  17  18
ATOM     18  C   UNL     1       6.071  22.053  23.977  1.00  0.00     0.000 C 
BRANCH  18  19
ATOM     19  C   UNL     1       5.328  20.960  23.184  1.00  0.00     0.000 C 
BRANCH  19  20
ATOM     20  C   UNL     1       5.142  19.620  23.930  1.00  0.00     0.006 C 
BRANCH  20  21
ATOM     21  C   UNL     1       3.679  19.168  24.081  1.00  0.00     0.053 C 
BRANCH  21  22
ATOM     22  C   UNL     1       3.500  17.716  23.749  1.00  0.00     0.041 C 
ATOM     23  O   UNL     1       2.563  17.351  22.989  1.00  0.00    -0.550 OA
ATOM     24  O   UNL     1       4.337  16.763  24.316  1.00  0.00    -0.550 OA
ENDBRANCH  21  22
ENDBRANCH  20  21
ENDBRANCH  19  20
ENDBRANCH  18  19
ENDBRANCH  17  18
ENDBRANCH  16  17
ENDBRANCH  15  16
ENDBRANCH  14  15
ENDBRANCH  13  14
ENDBRANCH   1  13
TORSDOF 20
ENDMDL
MODEL 2
REMARK VINA RESULT:    -3.322      1.062      2.390
REMARK INTER + INTRA:         -10.071
REMARK INTER:                  -7.203
REMARK INTRA:                  -2.868
REMARK UNBOUND:                -2.865
REMARK SMILES CCCCCCCCCCCCCCCCCCCCCC(=O)[O-]
REMARK SMILES IDX 12 1 11 2 10 3 9 4 8 5 7 6 6 7 5 8 4 9 3 10 2 11 1 12 13 13
REMARK SMILES IDX 14 14 15 15 16 16 17 17 18 18 19 19 20 20 21 21 22 22 23 23
REMARK SMILES IDX 24 24
REMARK H PARENT
REMARK Flexibility Score: inf
ROOT
ATOM      1  C   UNL     1       9.387  21.781  20.638  1.00  0.00     0.000 C 
ENDROOT
BRANCH   1   2
ATOM      2  C   UNL     1      10.626  20.881  20.467  1.00  0.00     0.000 C 
BRANCH   2   3
ATOM      3  C   UNL     1      11.990  21.578  20.663  1.00  0.00     0.000 C 
BRANCH   3   4
ATOM      4  C   UNL     1      12.152  22.935  19.948  1.00  0.00    -0.000 C 
BRANCH   4   5
ATOM      5  C   UNL     1      12.984  22.888  18.652  1.00  0.00    -0.000 C 
BRANCH   5   6
ATOM      6  C   UNL     1      12.131  22.580  17.410  1.00  0.00    -0.000 C 
BRANCH   6   7
ATOM      7  C   UNL     1      12.848  21.651  16.417  1.00  0.00    -0.000 C 
BRANCH   7   8
ATOM      8  C   UNL     1      11.972  20.476  15.957  1.00  0.00    -0.000 C 
BRANCH   8   9
ATOM      9  C   UNL     1      10.662  20.417  16.757  1.00  0.00    -0.000 C 
BRANCH   9  10
ATOM     10  C   UNL     1      10.453  19.064  17.460  1.00  0.00    -0.000 C 
BRANCH  10  11
ATOM     11  C   UNL     1       8.991  18.743  17.819  1.00  0.00    -0.003 C 
ATOM     12  C   UNL     1       8.049  18.828  16.618  1.00  0.00     0.004 C 
ENDBRANCH  10  11
ENDBRANCH   9  10
ENDBRANCH   8   9
ENDBRANCH   7   8
ENDBRANCH   6   7
ENDBRANCH   5   6
ENDBRANCH   4   5
ENDBRANCH   3   4
ENDBRANCH   2   3
ENDBRANCH   1   2
BRANCH   1  13
ATOM     13  C   UNL     1       8.708  22.141  19.307  1.00  0.00     0.000 C 
BRANCH  13  14
ATOM     14  C   UNL     1       7.172  22.123  19.404  1.00  0.00     0.000 C 
BRANCH  14  15
ATOM     15  C   UNL     1       6.579  20.729  19.709  1.00  0.00     0.000 C 
BRANCH  15  16
ATOM     16  C   UNL     1       5.244  20.776  20.475  1.00  0.00     0.000 C 
BRANCH  16  17
ATOM     17  C   UNL     1       5.013  22.094  21.252  1.00  0.00     0.000 C 
BRANCH  17  18
ATOM     18  C   UNL     1       4.898  21.904  22.777  1.00  0.00     0.000 C 
BRANCH  18  19
ATOM     19  C   UNL     1       5.968  20.985  23.399  1.00  0.00     0.000 C 
BRANCH  19  20
ATOM     20  C   UNL     1       5.433  19.672  24.010  1.00  0.00     0.006 C 
BRANCH  20  21
ATOM     21  C   UNL     1       3.903  19.611  24.162  1.00  0.00     0.053 C 
BRANCH  21  22
ATOM     22  C   UNL     1       3.304  18.473  23.392  1.00  0.00     0.041 C 
ATOM     23  O   UNL     1       2.701  18.691  22.305  1.00  0.00    -0.550 OA
ATOM     24  O   UNL     1       3.370  17.180  23.894  1.00  0.00    -0.550 OA
ENDBRANCH  21  22
ENDBRANCH  20  21
ENDBRANCH  19  20
ENDBRANCH  18  19
ENDBRANCH  17  18
ENDBRANCH  16  17
ENDBRANCH  15  16
ENDBRANCH  14  15
ENDBRANCH  13  14
ENDBRANCH   1  13
TORSDOF 20
ENDMDL
MODEL 3
REMARK VINA RESULT:    -3.313     17.062     20.350
REMARK INTER + INTRA:         -10.051
REMARK INTER:                  -6.805
REMARK INTRA:                  -3.246
REMARK UNBOUND:                -2.865
REMARK SMILES CCCCCCCCCCCCCCCCCCCCCC(=O)[O-]
REMARK SMILES IDX 12 1 11 2 10 3 9 4 8 5 7 6 6 7 5 8 4 9 3 10 2 11 1 12 13 13
REMARK SMILES IDX 14 14 15 15 16 16 17 17 18 18 19 19 20 20 21 21 22 22 23 23
REMARK SMILES IDX 24 24
REMARK H PARENT
REMARK Flexibility Score: inf
ROOT
ATOM      1  C   UNL     1       8.454   4.396  30.505  1.00  0.00     0.000 C 
ENDROOT
BRANCH   1   2
ATOM      2  C   UNL     1       9.901   4.015  30.140  1.00  0.00     0.000 C 
BRANCH   2   3
ATOM      3  C   UNL     1      11.003   4.694  30.983  1.00  0.00     0.000 C 
BRANCH   3   4
ATOM      4  C   UNL     1      11.939   3.736  31.749  1.00  0.00    -0.000 C 
BRANCH   4   5
ATOM      5  C   UNL     1      11.481   3.390  33.178  1.00  0.00    -0.000 C 
BRANCH   5   6
ATOM      6  C   UNL     1      12.649   3.329  34.176  1.00  0.00    -0.000 C 
BRANCH   6   7
ATOM      7  C   UNL     1      12.281   3.911  35.551  1.00  0.00    -0.000 C 
BRANCH   7   8
ATOM      8  C   UNL     1      10.769   4.112  35.731  1.00  0.00    -0.000 C 
BRANCH   8   9
ATOM      9  C   UNL     1      10.394   5.598  35.632  1.00  0.00    -0.000 C 
BRANCH   9  10
ATOM     10  C   UNL     1       8.963   5.819  35.110  1.00  0.00    -0.000 C 
BRANCH  10  11
ATOM     11  C   UNL     1       8.861   6.733  33.876  1.00  0.00    -0.003 C 
ATOM     12  C   UNL     1      10.222   7.214  33.376  1.00  0.00     0.004 C 
ENDBRANCH  10  11
ENDBRANCH   9  10
ENDBRANCH   8   9
ENDBRANCH   7   8
ENDBRANCH   6   7
ENDBRANCH   5   6
ENDBRANCH   4   5
ENDBRANCH   3   4
ENDBRANCH   2   3
ENDBRANCH   1   2
BRANCH   1  13
ATOM     13  C   UNL     1       7.676   3.256  31.182  1.00  0.00     0.000 C 
BRANCH  13  14
ATOM     14  C   UNL     1       7.753   3.319  32.718  1.00  0.00     0.000 C 
BRANCH  14  15
ATOM     15  C   UNL     1       6.388   3.152  33.422  1.00  0.00     0.000 C 
BRANCH  15  16
ATOM     16  C   UNL     1       5.833   4.460  34.017  1.00  0.00     0.000 C 
BRANCH  16  17
ATOM     17  C   UNL     1       5.268   5.440  32.962  1.00  0.00     0.000 C 
BRANCH  17  18
ATOM     18  C   UNL     1       4.234   4.803  32.013  1.00  0.00     0.000 C 
BRANCH  18  19
ATOM     19  C   UNL     1       4.218   5.383  30.586  1.00  0.00     0.000 C 
BRANCH  19  20
ATOM     20  C   UNL     1       4.629   4.397  29.470  1.00  0.00     0.006 C 
BRANCH  20  21
ATOM     21  C   UNL     1       5.537   4.998  28.384  1.00  0.00     0.053 C 
BRANCH  21  22
ATOM     22  C   UNL     1       4.818   6.013  27.546  1.00  0.00     0.041 C 
ATOM     23  O   UNL     1       3.639   5.793  27.157  1.00  0.00    -0.550 OA
ATOM     24  O   UNL     1       5.464   7.179  27.157  1.00  0.00    -0.550 OA
ENDBRANCH  21  22
ENDBRANCH  20  21
ENDBRANCH  19  20
ENDBRANCH  18  19
ENDBRANCH  17  18
ENDBRANCH  16  17
ENDBRANCH  15  16
ENDBRANCH  14  15
ENDBRANCH  13  14
ENDBRANCH   1  13
TORSDOF 20
ENDMDL
MODEL 4
REMARK VINA RESULT:    -3.312      3.967      4.936
REMARK INTER + INTRA:         -10.049
REMARK INTER:                  -8.267
REMARK INTRA:                  -1.783
REMARK UNBOUND:                -2.865
REMARK SMILES CCCCCCCCCCCCCCCCCCCCCC(=O)[O-]
REMARK SMILES IDX 12 1 11 2 10 3 9 4 8 5 7 6 6 7 5 8 4 9 3 10 2 11 1 12 13 13
REMARK SMILES IDX 14 14 15 15 16 16 17 17 18 18 19 19 20 20 21 21 22 22 23 23
REMARK SMILES IDX 24 24
REMARK H PARENT
REMARK Flexibility Score: inf
ROOT
ATOM      1  C   UNL     1      10.630  21.426  21.619  1.00  0.00     0.000 C 
ENDROOT
BRANCH   1   2
ATOM      2  C   UNL     1      12.042  21.968  21.910  1.00  0.00     0.000 C 
BRANCH   2   3
ATOM      3  C   UNL     1      12.726  22.710  20.739  1.00  0.00     0.000 C 
BRANCH   3   4
ATOM      4  C   UNL     1      12.227  22.330  19.330  1.00  0.00    -0.000 C 
BRANCH   4   5
ATOM      5  C   UNL     1      13.060  22.909  18.171  1.00  0.00    -0.000 C 
BRANCH   5   6
ATOM      6  C   UNL     1      12.380  22.728  16.803  1.00  0.00    -0.000 C 
BRANCH   6   7
ATOM      7  C   UNL     1      12.500  21.291  16.271  1.00  0.00    -0.000 C 
BRANCH   7   8
ATOM      8  C   UNL     1      11.137  20.642  15.987  1.00  0.00    -0.000 C 
BRANCH   8   9
ATOM      9  C   UNL     1      10.756  19.649  17.095  1.00  0.00    -0.000 C 
BRANCH   9  10
ATOM     10  C   UNL     1       9.904  20.290  18.205  1.00  0.00    -0.000 C 
BRANCH  10  11
ATOM     11  C   UNL     1       8.634  21.006  17.710  1.00  0.00    -0.003 C 
ATOM     12  C   UNL     1       8.424  22.370  18.367  1.00  0.00     0.004 C 
ENDBRANCH  10  11
ENDBRANCH   9  10
ENDBRANCH   8   9
ENDBRANCH   7   8
ENDBRANCH   6   7
ENDBRANCH   5   6
ENDBRANCH   4   5
ENDBRANCH   3   4
ENDBRANCH   2   3
ENDBRANCH   1   2
BRANCH   1  13
ATOM     13  C   UNL     1       9.516  22.448  21.897  1.00  0.00     0.000 C 
BRANCH  13  14
ATOM     14  C   UNL     1       8.149  21.781  22.135  1.00  0.00     0.000 C 
BRANCH  14  15
ATOM     15  C   UNL     1       7.275  22.498  23.188  1.00  0.00     0.000 C 
BRANCH  15  16
ATOM     16  C   UNL     1       7.987  22.723  24.536  1.00  0.00     0.000 C 
BRANCH  16  17
ATOM     17  C   UNL     1       7.057  22.597  25.765  1.00  0.00     0.000 C 
BRANCH  17  18
ATOM     18  C   UNL     1       7.800  22.652  27.114  1.00  0.00     0.000 C 
BRANCH  18  19
ATOM     19  C   UNL     1       7.676  21.380  27.976  1.00  0.00     0.000 C 
BRANCH  19  20
ATOM     20  C   UNL     1       8.091  21.544  29.454  1.00  0.00     0.006 C 
BRANCH  20  21
ATOM     21  C   UNL     1       9.215  22.565  29.695  1.00  0.00     0.053 C 
BRANCH  21  22
ATOM     22  C   UNL     1      10.575  21.941  29.595  1.00  0.00     0.041 C 
ATOM     23  O   UNL     1      10.716  20.813  29.048  1.00  0.00    -0.550 OA
ATOM     24  O   UNL     1      11.678  22.581  30.146  1.00  0.00    -0.550 OA
ENDBRANCH  21  22
ENDBRANCH  20  21
ENDBRANCH  19  20
ENDBRANCH  18  19
ENDBRANCH  17  18
ENDBRANCH  16  17
ENDBRANCH  15  16
ENDBRANCH  14  15
ENDBRANCH  13  14
ENDBRANCH   1  13
TORSDOF 20
ENDMDL
MODEL 5
REMARK VINA RESULT:    -3.310      1.746      4.186
REMARK INTER + INTRA:         -10.044
REMARK INTER:                  -6.769
REMARK INTRA:                  -3.275
REMARK UNBOUND:                -2.865
REMARK SMILES CCCCCCCCCCCCCCCCCCCCCC(=O)[O-]
REMARK SMILES IDX 12 1 11 2 10 3 9 4 8 5 7 6 6 7 5 8 4 9 3 10 2 11 1 12 13 13
REMARK SMILES IDX 14 14 15 15 16 16 17 17 18 18 19 19 20 20 21 21 22 22 23 23
REMARK SMILES IDX 24 24
REMARK H PARENT
REMARK Flexibility Score: inf
ROOT
ATOM      1  C   UNL     1       8.907  18.910  17.742  1.00  0.00     0.000 C 
ENDROOT
BRANCH   1   2
ATOM      2  C   UNL     1      10.374  19.337  17.541  1.00  0.00     0.000 C 
BRANCH   2   3
ATOM      3  C   UNL     1      10.650  20.212  16.298  1.00  0.00     0.000 C 
BRANCH   3   4
ATOM      4  C   UNL     1      10.686  21.734  16.550  1.00  0.00    -0.000 C 
BRANCH   4   5
ATOM      5  C   UNL     1      12.068  22.388  16.365  1.00  0.00    -0.000 C 
BRANCH   5   6
ATOM      6  C   UNL     1      12.912  22.363  17.651  1.00  0.00    -0.000 C 
BRANCH   6   7
ATOM      7  C   UNL     1      12.246  23.125  18.809  1.00  0.00    -0.000 C 
BRANCH   7   8
ATOM      8  C   UNL     1      12.395  22.409  20.160  1.00  0.00    -0.000 C 
BRANCH   8   9
ATOM      9  C   UNL     1      11.517  21.150  20.217  1.00  0.00    -0.000 C 
BRANCH   9  10
ATOM     10  C   UNL     1      10.320  21.299  21.173  1.00  0.00    -0.000 C 
BRANCH  10  11
ATOM     11  C   UNL     1       8.943  21.297  20.486  1.00  0.00    -0.003 C 
ATOM     12  C   UNL     1       8.706  22.534  19.621  1.00  0.00     0.004 C 
ENDBRANCH  10  11
ENDBRANCH   9  10
ENDBRANCH   8   9
ENDBRANCH   7   8
ENDBRANCH   6   7
ENDBRANCH   5   6
ENDBRANCH   4   5
ENDBRANCH   3   4
ENDBRANCH   2   3
ENDBRANCH   1   2
BRANCH   1  13
ATOM     13  C   UNL     1       8.211  18.491  16.437  1.00  0.00     0.000 C 
BRANCH  13  14
ATOM     14  C   UNL     1       6.978  19.357  16.121  1.00  0.00     0.000 C 
BRANCH  14  15
ATOM     15  C   UNL     1       7.030  20.772  16.739  1.00  0.00     0.000 C 
BRANCH  15  16
ATOM     16  C   UNL     1       5.875  21.065  17.715  1.00  0.00     0.000 C 
BRANCH  16  17
ATOM     17  C   UNL     1       5.441  19.844  18.560  1.00  0.00     0.000 C 
BRANCH  17  18
ATOM     18  C   UNL     1       4.404  20.179  19.649  1.00  0.00     0.000 C 
BRANCH  18  19
ATOM     19  C   UNL     1       4.547  21.581  20.272  1.00  0.00     0.000 C 
BRANCH  19  20
ATOM     20  C   UNL     1       4.537  21.618  21.816  1.00  0.00     0.006 C 
BRANCH  20  21
ATOM     21  C   UNL     1       5.920  21.467  22.471  1.00  0.00     0.053 C 
BRANCH  21  22
ATOM     22  C   UNL     1       5.843  20.776  23.800  1.00  0.00     0.041 C 
ATOM     23  O   UNL     1       5.739  19.520  23.857  1.00  0.00    -0.550 OA
ATOM     24  O   UNL     1       5.838  21.520  24.973  1.00  0.00    -0.550 OA
ENDBRANCH  21  22
ENDBRANCH  20  21
ENDBRANCH  19  20
ENDBRANCH  18  19
ENDBRANCH  17  18
ENDBRANCH  16  17
ENDBRANCH  15  16
ENDBRANCH  14  15
ENDBRANCH  13  14
ENDBRANCH   1  13
TORSDOF 20
ENDMDL
MODEL 6
REMARK VINA RESULT:    -3.266     17.888     20.522
REMARK INTER + INTRA:          -9.950
REMARK INTER:                  -6.878
REMARK INTRA:                  -3.072
REMARK UNBOUND:                -2.865
REMARK SMILES CCCCCCCCCCCCCCCCCCCCCC(=O)[O-]
REMARK SMILES IDX 12 1 11 2 10 3 9 4 8 5 7 6 6 7 5 8 4 9 3 10 2 11 1 12 13 13
REMARK SMILES IDX 14 14 15 15 16 16 17 17 18 18 19 19 20 20 21 21 22 22 23 23
REMARK SMILES IDX 24 24
REMARK H PARENT
REMARK Flexibility Score: inf
ROOT
ATOM      1  C   UNL     1       8.862   7.198  33.884  1.00  0.00     0.000 C 
ENDROOT
BRANCH   1   2
ATOM      2  C   UNL     1       8.359   6.601  35.212  1.00  0.00     0.000 C 
BRANCH   2   3
ATOM      3  C   UNL     1       6.827   6.622  35.416  1.00  0.00     0.000 C 
BRANCH   3   4
ATOM      4  C   UNL     1       6.174   5.251  35.687  1.00  0.00    -0.000 C 
BRANCH   4   5
ATOM      5  C   UNL     1       4.760   5.081  35.100  1.00  0.00    -0.000 C 
BRANCH   5   6
ATOM      6  C   UNL     1       4.359   6.242  34.173  1.00  0.00    -0.000 C 
BRANCH   6   7
ATOM      7  C   UNL     1       2.866   6.590  34.277  1.00  0.00    -0.000 C 
BRANCH   7   8
ATOM      8  C   UNL     1       2.550   7.530  35.450  1.00  0.00    -0.000 C 
BRANCH   8   9
ATOM      9  C   UNL     1       3.231   8.894  35.264  1.00  0.00    -0.000 C 
BRANCH   9  10
ATOM     10  C   UNL     1       2.809   9.600  33.964  1.00  0.00    -0.000 C 
BRANCH  10  11
ATOM     11  C   UNL     1       2.907  11.135  34.001  1.00  0.00    -0.003 C 
ATOM     12  C   UNL     1       1.717  11.791  34.700  1.00  0.00     0.004 C 
ENDBRANCH  10  11
ENDBRANCH   9  10
ENDBRANCH   8   9
ENDBRANCH   7   8
ENDBRANCH   6   7
ENDBRANCH   5   6
ENDBRANCH   4   5
ENDBRANCH   3   4
ENDBRANCH   2   3
ENDBRANCH   1   2
BRANCH   1  13
ATOM     13  C   UNL     1      10.360   6.956  33.637  1.00  0.00     0.000 C 
BRANCH  13  14
ATOM     14  C   UNL     1      10.630   6.246  32.298  1.00  0.00     0.000 C 
BRANCH  14  15
ATOM     15  C   UNL     1      11.060   4.769  32.446  1.00  0.00     0.000 C 
BRANCH  15  16
ATOM     16  C   UNL     1      11.002   4.248  33.894  1.00  0.00     0.000 C 
BRANCH  16  17
ATOM     17  C   UNL     1       9.792   3.328  34.182  1.00  0.00     0.000 C 
BRANCH  17  18
ATOM     18  C   UNL     1       8.992   2.941  32.923  1.00  0.00     0.000 C 
BRANCH  18  19
ATOM     19  C   UNL     1       7.511   3.366  32.940  1.00  0.00     0.000 C 
BRANCH  19  20
ATOM     20  C   UNL     1       7.176   4.615  32.095  1.00  0.00     0.006 C 
BRANCH  20  21
ATOM     21  C   UNL     1       7.238   4.398  30.574  1.00  0.00     0.053 C 
BRANCH  21  22
ATOM     22  C   UNL     1       5.962   4.794  29.894  1.00  0.00     0.041 C 
ATOM     23  O   UNL     1       5.937   4.969  28.645  1.00  0.00    -0.550 OA
ATOM     24  O   UNL     1       4.813   5.016  30.643  1.00  0.00    -0.550 OA
ENDBRANCH  21  22
ENDBRANCH  20  21
ENDBRANCH  19  20
ENDBRANCH  18  19
ENDBRANCH  17  18
ENDBRANCH  16  17
ENDBRANCH  15  16
ENDBRANCH  14  15
ENDBRANCH  13  14
ENDBRANCH   1  13
TORSDOF 20
ENDMDL
MODEL 7
REMARK VINA RESULT:    -3.259      1.627      3.337
REMARK INTER + INTRA:          -9.935
REMARK INTER:                  -7.024
REMARK INTRA:                  -2.911
REMARK UNBOUND:                -2.865
REMARK SMILES CCCCCCCCCCCCCCCCCCCCCC(=O)[O-]
REMARK SMILES IDX 12 1 11 2 10 3 9 4 8 5 7 6 6 7 5 8 4 9 3 10 2 11 1 12 13 13
REMARK SMILES IDX 14 14 15 15 16 16 17 17 18 18 19 19 20 20 21 21 22 22 23 23
REMARK SMILES IDX 24 24
REMARK H PARENT
REMARK Flexibility Score: inf
ROOT
ATOM      1  C   UNL     1       8.967  21.656  20.142  1.00  0.00     0.000 C 
ENDROOT
BRANCH   1   2
ATOM      2  C   UNL     1      10.218  21.209  20.921  1.00  0.00     0.000 C 
BRANCH   2   3
ATOM      3  C   UNL     1      11.504  21.043  20.080  1.00  0.00     0.000 C 
BRANCH   3   4
ATOM      4  C   UNL     1      12.284  22.343  19.795  1.00  0.00    -0.000 C 
BRANCH   4   5
ATOM      5  C   UNL     1      12.074  22.927  18.385  1.00  0.00    -0.000 C 
BRANCH   5   6
ATOM      6  C   UNL     1      12.745  22.083  17.288  1.00  0.00    -0.000 C 
BRANCH   6   7
ATOM      7  C   UNL     1      11.728  21.466  16.314  1.00  0.00    -0.000 C 
BRANCH   7   8
ATOM      8  C   UNL     1      10.400  22.237  16.267  1.00  0.00    -0.000 C 
BRANCH   8   9
ATOM      9  C   UNL     1       9.207  21.297  16.494  1.00  0.00    -0.000 C 
BRANCH   9  10
ATOM     10  C   UNL     1       9.554  19.819  16.241  1.00  0.00    -0.000 C 
BRANCH  10  11
ATOM     11  C   UNL     1       9.159  18.860  17.378  1.00  0.00    -0.003 C 
ATOM     12  C   UNL     1      10.362  18.334  18.159  1.00  0.00     0.004 C 
ENDBRANCH  10  11
ENDBRANCH   9  10
ENDBRANCH   8   9
ENDBRANCH   7   8
ENDBRANCH   6   7
ENDBRANCH   5   6
ENDBRANCH   4   5
ENDBRANCH   3   4
ENDBRANCH   2   3
ENDBRANCH   1   2
BRANCH   1  13
ATOM     13  C   UNL     1       7.723  21.819  21.030  1.00  0.00     0.000 C 
BRANCH  13  14
ATOM     14  C   UNL     1       6.440  21.308  20.349  1.00  0.00     0.000 C 
BRANCH  14  15
ATOM     15  C   UNL     1       6.695  20.313  19.195  1.00  0.00     0.000 C 
BRANCH  15  16
ATOM     16  C   UNL     1       5.413  19.854  18.476  1.00  0.00     0.000 C 
BRANCH  16  17
ATOM     17  C   UNL     1       4.108  20.357  19.138  1.00  0.00     0.000 C 
BRANCH  17  18
ATOM     18  C   UNL     1       3.144  19.227  19.546  1.00  0.00     0.000 C 
BRANCH  18  19
ATOM     19  C   UNL     1       2.645  19.294  21.003  1.00  0.00     0.000 C 
BRANCH  19  20
ATOM     20  C   UNL     1       3.161  20.500  21.819  1.00  0.00     0.006 C 
BRANCH  20  21
ATOM     21  C   UNL     1       4.115  20.136  22.969  1.00  0.00     0.053 C 
BRANCH  21  22
ATOM     22  C   UNL     1       3.472  19.222  23.969  1.00  0.00     0.041 C 
ATOM     23  O   UNL     1       2.570  19.656  24.736  1.00  0.00    -0.550 OA
ATOM     24  O   UNL     1       3.900  17.906  24.086  1.00  0.00    -0.550 OA
ENDBRANCH  21  22
ENDBRANCH  20  21
ENDBRANCH  19  20
ENDBRANCH  18  19
ENDBRANCH  17  18
ENDBRANCH  16  17
ENDBRANCH  15  16
ENDBRANCH  14  15
ENDBRANCH  13  14
ENDBRANCH   1  13
TORSDOF 20
ENDMDL
MODEL 8
REMARK VINA RESULT:    -3.258      3.368      5.308
REMARK INTER + INTRA:          -9.932
REMARK INTER:                  -7.310
REMARK INTRA:                  -2.622
REMARK UNBOUND:                -2.865
REMARK SMILES CCCCCCCCCCCCCCCCCCCCCC(=O)[O-]
REMARK SMILES IDX 12 1 11 2 10 3 9 4 8 5 7 6 6 7 5 8 4 9 3 10 2 11 1 12 13 13
REMARK SMILES IDX 14 14 15 15 16 16 17 17 18 18 19 19 20 20 21 21 22 22 23 23
REMARK SMILES IDX 24 24
REMARK H PARENT
REMARK Flexibility Score: inf
ROOT
ATOM      1  C   UNL     1       8.487  21.747  21.341  1.00  0.00     0.000 C 
ENDROOT
BRANCH   1   2
ATOM      2  C   UNL     1       9.851  21.298  20.782  1.00  0.00     0.000 C 
BRANCH   2   3
ATOM      3  C   UNL     1      10.733  22.420  20.191  1.00  0.00     0.000 C 
BRANCH   3   4
ATOM      4  C   UNL     1      11.978  21.947  19.412  1.00  0.00    -0.000 C 
BRANCH   4   5
ATOM      5  C   UNL     1      12.583  22.997  18.461  1.00  0.00    -0.000 C 
BRANCH   5   6
ATOM      6  C   UNL     1      12.203  22.753  16.990  1.00  0.00    -0.000 C 
BRANCH   6   7
ATOM      7  C   UNL     1      12.705  21.397  16.469  1.00  0.00    -0.000 C 
BRANCH   7   8
ATOM      8  C   UNL     1      11.579  20.520  15.901  1.00  0.00    -0.000 C 
BRANCH   8   9
ATOM      9  C   UNL     1      10.236  21.266  15.919  1.00  0.00    -0.000 C 
BRANCH   9  10
ATOM     10  C   UNL     1       9.287  20.761  17.020  1.00  0.00    -0.000 C 
BRANCH  10  11
ATOM     11  C   UNL     1       9.726  19.453  17.700  1.00  0.00    -0.003 C 
ATOM     12  C   UNL     1       8.974  18.229  17.180  1.00  0.00     0.004 C 
ENDBRANCH  10  11
ENDBRANCH   9  10
ENDBRANCH   8   9
ENDBRANCH   7   8
ENDBRANCH   6   7
ENDBRANCH   5   6
ENDBRANCH   4   5
ENDBRANCH   3   4
ENDBRANCH   2   3
ENDBRANCH   1   2
BRANCH   1  13
ATOM     13  C   UNL     1       7.292  21.207  20.538  1.00  0.00     0.000 C 
BRANCH  13  14
ATOM     14  C   UNL     1       6.817  22.191  19.454  1.00  0.00     0.000 C 
BRANCH  14  15
ATOM     15  C   UNL     1       5.660  21.653  18.581  1.00  0.00     0.000 C 
BRANCH  15  16
ATOM     16  C   UNL     1       5.929  20.258  17.986  1.00  0.00     0.000 C 
BRANCH  16  17
ATOM     17  C   UNL     1       5.646  20.158  16.469  1.00  0.00     0.000 C 
BRANCH  17  18
ATOM     18  C   UNL     1       5.371  18.722  15.982  1.00  0.00     0.000 C 
BRANCH  18  19
ATOM     19  C   UNL     1       3.913  18.249  16.147  1.00  0.00     0.000 C 
BRANCH  19  20
ATOM     20  C   UNL     1       3.735  16.728  16.347  1.00  0.00     0.006 C 
BRANCH  20  21
ATOM     21  C   UNL     1       2.328  16.198  16.020  1.00  0.00     0.053 C 
BRANCH  21  22
ATOM     22  C   UNL     1       2.165  14.757  16.402  1.00  0.00     0.041 C 
ATOM     23  O   UNL     1       1.253  14.062  15.876  1.00  0.00    -0.550 OA
ATOM     24  O   UNL     1       2.986  14.196  17.370  1.00  0.00    -0.550 OA
ENDBRANCH  21  22
ENDBRANCH  20  21
ENDBRANCH  19  20
ENDBRANCH  18  19
ENDBRANCH  17  18
ENDBRANCH  16  17
ENDBRANCH  15  16
ENDBRANCH  14  15
ENDBRANCH  13  14
ENDBRANCH   1  13
TORSDOF 20
ENDMDL
MODEL 9
REMARK VINA RESULT:    -3.231      1.296      3.310
REMARK INTER + INTRA:          -9.874
REMARK INTER:                  -7.182
REMARK INTRA:                  -2.692
REMARK UNBOUND:                -2.865
REMARK SMILES CCCCCCCCCCCCCCCCCCCCCC(=O)[O-]
REMARK SMILES IDX 12 1 11 2 10 3 9 4 8 5 7 6 6 7 5 8 4 9 3 10 2 11 1 12 13 13
REMARK SMILES IDX 14 14 15 15 16 16 17 17 18 18 19 19 20 20 21 21 22 22 23 23
REMARK SMILES IDX 24 24
REMARK H PARENT
REMARK Flexibility Score: inf
ROOT
ATOM      1  C   UNL     1       7.992  19.711  18.205  1.00  0.00     0.000 C 
ENDROOT
BRANCH   1   2
ATOM      2  C   UNL     1       7.927  20.377  16.818  1.00  0.00     0.000 C 
BRANCH   2   3
ATOM      3  C   UNL     1       9.112  20.073  15.875  1.00  0.00     0.000 C 
BRANCH   3   4
ATOM      4  C   UNL     1      10.270  21.092  15.913  1.00  0.00    -0.000 C 
BRANCH   4   5
ATOM      5  C   UNL     1      11.666  20.477  16.129  1.00  0.00    -0.000 C 
BRANCH   5   6
ATOM      6  C   UNL     1      12.771  21.541  16.244  1.00  0.00    -0.000 C 
BRANCH   6   7
ATOM      7  C   UNL     1      12.344  22.744  17.101  1.00  0.00    -0.000 C 
BRANCH   7   8
ATOM      8  C   UNL     1      12.643  22.551  18.595  1.00  0.00    -0.000 C 
BRANCH   8   9
ATOM      9  C   UNL     1      11.361  22.230  19.378  1.00  0.00    -0.000 C 
BRANCH   9  10
ATOM     10  C   UNL     1      11.632  21.429  20.664  1.00  0.00    -0.000 C 
BRANCH  10  11
ATOM     11  C   UNL     1      10.407  21.242  21.578  1.00  0.00    -0.003 C 
ATOM     12  C   UNL     1       9.977  22.535  22.270  1.00  0.00     0.004 C 
ENDBRANCH  10  11
ENDBRANCH   9  10
ENDBRANCH   8   9
ENDBRANCH   7   8
ENDBRANCH   6   7
ENDBRANCH   5   6
ENDBRANCH   4   5
ENDBRANCH   3   4
ENDBRANCH   2   3
ENDBRANCH   1   2
BRANCH   1  13
ATOM     13  C   UNL     1       7.702  20.682  19.361  1.00  0.00     0.000 C 
BRANCH  13  14
ATOM     14  C   UNL     1       7.680  22.152  18.906  1.00  0.00     0.000 C 
BRANCH  14  15
ATOM     15  C   UNL     1       7.042  23.117  19.931  1.00  0.00     0.000 C 
BRANCH  15  16
ATOM     16  C   UNL     1       5.699  22.621  20.498  1.00  0.00     0.000 C 
BRANCH  16  17
ATOM     17  C   UNL     1       5.470  22.990  21.983  1.00  0.00     0.000 C 
BRANCH  17  18
ATOM     18  C   UNL     1       6.423  22.271  22.956  1.00  0.00     0.000 C 
BRANCH  18  19
ATOM     19  C   UNL     1       6.266  20.738  23.004  1.00  0.00     0.000 C 
BRANCH  19  20
ATOM     20  C   UNL     1       5.508  20.193  24.234  1.00  0.00     0.006 C 
BRANCH  20  21
ATOM     21  C   UNL     1       4.056  19.768  23.957  1.00  0.00     0.053 C 
BRANCH  21  22
ATOM     22  C   UNL     1       3.897  18.277  23.943  1.00  0.00     0.041 C 
ATOM     23  O   UNL     1       2.852  17.756  23.465  1.00  0.00    -0.550 OA
ATOM     24  O   UNL     1       4.878  17.466  24.498  1.00  0.00    -0.550 OA
ENDBRANCH  21  22
ENDBRANCH  20  21
ENDBRANCH  19  20
ENDBRANCH  18  19
ENDBRANCH  17  18
ENDBRANCH  16  17
ENDBRANCH  15  16
ENDBRANCH  14  15
ENDBRANCH  13  14
ENDBRANCH   1  13
TORSDOF 20
ENDMDL
