MODEL 1
REMARK VINA RESULT:    10.173      0.000      0.000
REMARK INTER + INTRA:          22.522
REMARK INTER:                  23.256
REMARK INTRA:                  -0.734
REMARK UNBOUND:                -0.734
REMARK SMILES CCCCCCCCCCCCCCCCCCCCCCCC(=O)[O-]
REMARK SMILES IDX 13 1 14 2 15 3 16 4 17 5 18 6 19 7 20 8 21 9 22 10 23 11
REMARK SMILES IDX 24 12 25 13 26 14 12 15 11 16 10 17 9 18 8 19 7 20 6 21 5 22
REMARK SMILES IDX 4 23 3 24 2 25 1 26
REMARK H PARENT
REMARK Flexibility Score: inf
ROOT
ATOM      1  C   UNL     1      31.586  18.668  38.111  1.00  0.00     0.000 C 
ENDROOT
BRANCH   1   2
ATOM      2  C   UNL     1      32.797  17.900  38.661  1.00  0.00     0.000 C 
BRANCH   2   3
ATOM      3  C   UNL     1      33.098  18.242  40.131  1.00  0.00     0.000 C 
BRANCH   3   4
ATOM      4  C   UNL     1      33.990  17.193  40.813  1.00  0.00     0.000 C 
BRANCH   4   5
ATOM      5  C   UNL     1      33.626  16.976  42.289  1.00  0.00     0.000 C 
BRANCH   5   6
ATOM      6  C   UNL     1      34.877  17.019  43.175  1.00  0.00     0.000 C 
BRANCH   6   7
ATOM      7  C   UNL     1      35.070  15.688  43.915  1.00  0.00     0.000 C 
BRANCH   7   8
ATOM      8  C   UNL     1      35.597  14.566  43.003  1.00  0.00     0.000 C 
BRANCH   8   9
ATOM      9  C   UNL     1      34.523  13.594  42.473  1.00  0.00     0.000 C 
BRANCH   9  10
ATOM     10  C   UNL     1      35.054  12.447  41.590  1.00  0.00     0.006 C 
BRANCH  10  11
ATOM     11  C   UNL     1      34.120  12.050  40.436  1.00  0.00     0.053 C 
BRANCH  11  12
ATOM     12  C   UNL     1      33.138  10.998  40.845  1.00  0.00     0.041 C 
ATOM     13  O   UNL     1      32.860  10.053  40.062  1.00  0.00    -0.550 OA
ATOM     14  O   UNL     1      32.556  11.042  42.106  1.00  0.00    -0.550 OA
ENDBRANCH  11  12
ENDBRANCH  10  11
ENDBRANCH   9  10
ENDBRANCH   8   9
ENDBRANCH   7   8
ENDBRANCH   6   7
ENDBRANCH   5   6
ENDBRANCH   4   5
ENDBRANCH   3   4
ENDBRANCH   2   3
ENDBRANCH   1   2
BRANCH   1  15
ATOM     15  C   UNL     1      31.993  19.819  37.173  1.00  0.00     0.000 C 
BRANCH  15  16
ATOM     16  C   UNL     1      31.349  21.158  37.567  1.00  0.00     0.000 C 
BRANCH  16  17
ATOM     17  C   UNL     1      32.232  22.365  37.217  1.00  0.00     0.000 C 
BRANCH  17  18
ATOM     18  C   UNL     1      31.390  23.523  36.670  1.00  0.00    -0.000 C 
BRANCH  18  19
ATOM     19  C   UNL     1      32.020  24.109  35.398  1.00  0.00    -0.000 C 
BRANCH  19  20
ATOM     20  C   UNL     1      31.046  24.125  34.209  1.00  0.00    -0.000 C 
BRANCH  20  21
ATOM     21  C   UNL     1      31.722  23.722  32.886  1.00  0.00    -0.000 C 
BRANCH  21  22
ATOM     22  C   UNL     1      30.766  23.806  31.686  1.00  0.00    -0.000 C 
BRANCH  22  23
ATOM     23  C   UNL     1      31.495  24.125  30.370  1.00  0.00    -0.000 C 
BRANCH  23  24
ATOM     24  C   UNL     1      31.780  22.856  29.538  1.00  0.00    -0.000 C 
BRANCH  24  25
ATOM     25  C   UNL     1      30.755  22.616  28.418  1.00  0.00    -0.003 C 
ATOM     26  C   UNL     1      31.403  22.369  27.057  1.00  0.00     0.004 C 
ENDBRANCH  24  25
ENDBRANCH  23  24
ENDBRANCH  22  23
ENDBRANCH  21  22
ENDBRANCH  20  21
ENDBRANCH  19  20
ENDBRANCH  18  19
ENDBRANCH  17  18
ENDBRANCH  16  17
ENDBRANCH  15  16
ENDBRANCH   1  15
TORSDOF 22
ENDMDL
MODEL 2
REMARK VINA RESULT:    10.874      2.566      3.657
REMARK INTER + INTRA:          24.124
REMARK INTER:                  25.807
REMARK INTRA:                  -1.683
REMARK UNBOUND:                -0.734
REMARK SMILES CCCCCCCCCCCCCCCCCCCCCCCC(=O)[O-]
REMARK SMILES IDX 13 1 14 2 15 3 16 4 17 5 18 6 19 7 20 8 21 9 22 10 23 11
REMARK SMILES IDX 24 12 25 13 26 14 12 15 11 16 10 17 9 18 8 19 7 20 6 21 5 22
REMARK SMILES IDX 4 23 3 24 2 25 1 26
REMARK H PARENT
REMARK Flexibility Score: inf
ROOT
ATOM      1  C   UNL     1      34.270  18.226  39.703  1.00  0.00     0.000 C 
ENDROOT
BRANCH   1   2
ATOM      2  C   UNL     1      33.857  17.106  40.670  1.00  0.00     0.000 C 
BRANCH   2   3
ATOM      3  C   UNL     1      34.070  17.488  42.145  1.00  0.00     0.000 C 
BRANCH   3   4
ATOM      4  C   UNL     1      34.138  16.264  43.071  1.00  0.00     0.000 C 
BRANCH   4   5
ATOM      5  C   UNL     1      35.443  16.203  43.878  1.00  0.00     0.000 C 
BRANCH   5   6
ATOM      6  C   UNL     1      36.275  14.976  43.485  1.00  0.00     0.000 C 
BRANCH   6   7
ATOM      7  C   UNL     1      35.368  13.783  43.152  1.00  0.00     0.000 C 
BRANCH   7   8
ATOM      8  C   UNL     1      35.750  13.090  41.832  1.00  0.00     0.000 C 
BRANCH   8   9
ATOM      9  C   UNL     1      34.839  13.419  40.632  1.00  0.00     0.000 C 
BRANCH   9  10
ATOM     10  C   UNL     1      33.470  12.707  40.633  1.00  0.00     0.006 C 
BRANCH  10  11
ATOM     11  C   UNL     1      33.429  11.413  41.461  1.00  0.00     0.053 C 
BRANCH  11  12
ATOM     12  C   UNL     1      33.503  10.192  40.598  1.00  0.00     0.041 C 
ATOM     13  O   UNL     1      32.461   9.536  40.340  1.00  0.00    -0.550 OA
ATOM     14  O   UNL     1      34.718   9.800  40.050  1.00  0.00    -0.550 OA
ENDBRANCH  11  12
ENDBRANCH  10  11
ENDBRANCH   9  10
ENDBRANCH   8   9
ENDBRANCH   7   8
ENDBRANCH   6   7
ENDBRANCH   5   6
ENDBRANCH   4   5
ENDBRANCH   3   4
ENDBRANCH   2   3
ENDBRANCH   1   2
BRANCH   1  15
ATOM     15  C   UNL     1      33.462  18.201  38.392  1.00  0.00     0.000 C 
BRANCH  15  16
ATOM     16  C   UNL     1      31.950  18.340  38.626  1.00  0.00     0.000 C 
BRANCH  16  17
ATOM     17  C   UNL     1      31.232  19.036  37.461  1.00  0.00     0.000 C 
BRANCH  17  18
ATOM     18  C   UNL     1      31.748  20.468  37.274  1.00  0.00    -0.000 C 
BRANCH  18  19
ATOM     19  C   UNL     1      31.150  21.411  38.329  1.00  0.00    -0.000 C 
BRANCH  19  20
ATOM     20  C   UNL     1      31.071  22.867  37.844  1.00  0.00    -0.000 C 
BRANCH  20  21
ATOM     21  C   UNL     1      32.310  23.287  37.033  1.00  0.00    -0.000 C 
BRANCH  21  22
ATOM     22  C   UNL     1      31.949  24.125  35.796  1.00  0.00    -0.000 C 
BRANCH  22  23
ATOM     23  C   UNL     1      32.403  23.465  34.482  1.00  0.00    -0.000 C 
BRANCH  23  24
ATOM     24  C   UNL     1      33.675  24.124  33.907  1.00  0.00    -0.000 C 
BRANCH  24  25
ATOM     25  C   UNL     1      34.939  23.840  34.734  1.00  0.00    -0.003 C 
ATOM     26  C   UNL     1      36.222  23.918  33.911  1.00  0.00     0.004 C 
ENDBRANCH  24  25
ENDBRANCH  23  24
ENDBRANCH  22  23
ENDBRANCH  21  22
ENDBRANCH  20  21
ENDBRANCH  19  20
ENDBRANCH  18  19
ENDBRANCH  17  18
ENDBRANCH  16  17
ENDBRANCH  15  16
ENDBRANCH   1  15
TORSDOF 22
ENDMDL
MODEL 3
REMARK VINA RESULT:    11.469      4.716      9.134
REMARK INTER + INTRA:          25.486
REMARK INTER:                  26.942
REMARK INTRA:                  -1.456
REMARK UNBOUND:                -0.734
REMARK SMILES CCCCCCCCCCCCCCCCCCCCCCCC(=O)[O-]
REMARK SMILES IDX 13 1 14 2 15 3 16 4 17 5 18 6 19 7 20 8 21 9 22 10 23 11
REMARK SMILES IDX 24 12 25 13 26 14 12 15 11 16 10 17 9 18 8 19 7 20 6 21 5 22
REMARK SMILES IDX 4 23 3 24 2 25 1 26
REMARK H PARENT
REMARK Flexibility Score: inf
ROOT
ATOM      1  C   UNL     1      34.972  12.600  41.109  1.00  0.00     0.000 C 
ENDROOT
BRANCH   1   2
ATOM      2  C   UNL     1      33.635  12.239  40.446  1.00  0.00     0.000 C 
BRANCH   2   3
ATOM      3  C   UNL     1      32.997  10.974  41.047  1.00  0.00     0.000 C 
BRANCH   3   4
ATOM      4  C   UNL     1      32.901   9.820  40.037  1.00  0.00     0.000 C 
BRANCH   4   5
ATOM      5  C   UNL     1      34.249   9.125  39.803  1.00  0.00     0.000 C 
BRANCH   5   6
ATOM      6  C   UNL     1      34.540   8.103  40.909  1.00  0.00     0.000 C 
BRANCH   6   7
ATOM      7  C   UNL     1      34.337   6.669  40.398  1.00  0.00     0.000 C 
BRANCH   7   8
ATOM      8  C   UNL     1      33.549   5.789  41.384  1.00  0.00     0.000 C 
BRANCH   8   9
ATOM      9  C   UNL     1      32.621   4.744  40.731  1.00  0.00     0.000 C 
BRANCH   9  10
ATOM     10  C   UNL     1      31.269   4.531  41.442  1.00  0.00     0.006 C 
BRANCH  10  11
ATOM     11  C   UNL     1      30.807   5.723  42.295  1.00  0.00     0.053 C 
BRANCH  11  12
ATOM     12  C   UNL     1      29.343   5.990  42.139  1.00  0.00     0.041 C 
ATOM     13  O   UNL     1      28.948   6.970  41.455  1.00  0.00    -0.550 OA
ATOM     14  O   UNL     1      28.413   5.136  42.720  1.00  0.00    -0.550 OA
ENDBRANCH  11  12
ENDBRANCH  10  11
ENDBRANCH   9  10
ENDBRANCH   8   9
ENDBRANCH   7   8
ENDBRANCH   6   7
ENDBRANCH   5   6
ENDBRANCH   4   5
ENDBRANCH   3   4
ENDBRANCH   2   3
ENDBRANCH   1   2
BRANCH   1  15
ATOM     15  C   UNL     1      34.788  13.413  42.404  1.00  0.00     0.000 C 
BRANCH  15  16
ATOM     16  C   UNL     1      36.124  13.743  43.089  1.00  0.00     0.000 C 
BRANCH  16  17
ATOM     17  C   UNL     1      36.031  14.975  44.002  1.00  0.00     0.000 C 
BRANCH  17  18
ATOM     18  C   UNL     1      34.697  15.705  43.809  1.00  0.00    -0.000 C 
BRANCH  18  19
ATOM     19  C   UNL     1      34.901  17.039  43.076  1.00  0.00    -0.000 C 
BRANCH  19  20
ATOM     20  C   UNL     1      33.748  17.368  42.115  1.00  0.00    -0.000 C 
BRANCH  20  21
ATOM     21  C   UNL     1      34.006  16.857  40.686  1.00  0.00    -0.000 C 
BRANCH  21  22
ATOM     22  C   UNL     1      34.027  17.991  39.649  1.00  0.00    -0.000 C 
BRANCH  22  23
ATOM     23  C   UNL     1      32.620  18.524  39.327  1.00  0.00    -0.000 C 
BRANCH  23  24
ATOM     24  C   UNL     1      32.144  18.102  37.921  1.00  0.00    -0.000 C 
BRANCH  24  25
ATOM     25  C   UNL     1      31.044  19.011  37.348  1.00  0.00    -0.003 C 
ATOM     26  C   UNL     1      31.028  20.400  37.981  1.00  0.00     0.004 C 
ENDBRANCH  24  25
ENDBRANCH  23  24
ENDBRANCH  22  23
ENDBRANCH  21  22
ENDBRANCH  20  21
ENDBRANCH  19  20
ENDBRANCH  18  19
ENDBRANCH  17  18
ENDBRANCH  16  17
ENDBRANCH  15  16
ENDBRANCH   1  15
TORSDOF 22
ENDMDL
MODEL 4
REMARK VINA RESULT:    11.815      2.145      4.507
REMARK INTER + INTRA:          26.277
REMARK INTER:                  27.836
REMARK INTRA:                  -1.559
REMARK UNBOUND:                -0.734
REMARK SMILES CCCCCCCCCCCCCCCCCCCCCCCC(=O)[O-]
REMARK SMILES IDX 13 1 14 2 15 3 16 4 17 5 18 6 19 7 20 8 21 9 22 10 23 11
REMARK SMILES IDX 24 12 25 13 26 14 12 15 11 16 10 17 9 18 8 19 7 20 6 21 5 22
REMARK SMILES IDX 4 23 3 24 2 25 1 26
REMARK H PARENT
REMARK Flexibility Score: inf
ROOT
ATOM      1  C   UNL     1      33.607  17.242  41.528  1.00  0.00     0.000 C 
ENDROOT
BRANCH   1   2
ATOM      2  C   UNL     1      34.310  17.484  42.872  1.00  0.00     0.000 C 
BRANCH   2   3
ATOM      3  C   UNL     1      34.559  16.183  43.654  1.00  0.00     0.000 C 
BRANCH   3   4
ATOM      4  C   UNL     1      36.054  15.870  43.824  1.00  0.00     0.000 C 
BRANCH   4   5
ATOM      5  C   UNL     1      36.416  14.447  43.379  1.00  0.00     0.000 C 
BRANCH   5   6
ATOM      6  C   UNL     1      35.158  13.584  43.220  1.00  0.00     0.000 C 
BRANCH   6   7
ATOM      7  C   UNL     1      35.249  12.707  41.963  1.00  0.00     0.000 C 
BRANCH   7   8
ATOM      8  C   UNL     1      34.647  13.381  40.717  1.00  0.00     0.000 C 
BRANCH   8   9
ATOM      9  C   UNL     1      33.370  12.716  40.166  1.00  0.00     0.000 C 
BRANCH   9  10
ATOM     10  C   UNL     1      32.979  11.385  40.841  1.00  0.00     0.006 C 
BRANCH  10  11
ATOM     11  C   UNL     1      32.859  10.195  39.876  1.00  0.00     0.053 C 
BRANCH  11  12
ATOM     12  C   UNL     1      34.081   9.332  39.896  1.00  0.00     0.041 C 
ATOM     13  O   UNL     1      34.662   9.083  40.984  1.00  0.00    -0.550 OA
ATOM     14  O   UNL     1      34.557   8.772  38.716  1.00  0.00    -0.550 OA
ENDBRANCH  11  12
ENDBRANCH  10  11
ENDBRANCH   9  10
ENDBRANCH   8   9
ENDBRANCH   7   8
ENDBRANCH   6   7
ENDBRANCH   5   6
ENDBRANCH   4   5
ENDBRANCH   3   4
ENDBRANCH   2   3
ENDBRANCH   1   2
BRANCH   1  15
ATOM     15  C   UNL     1      33.933  18.328  40.486  1.00  0.00     0.000 C 
BRANCH  15  16
ATOM     16  C   UNL     1      33.561  17.906  39.056  1.00  0.00     0.000 C 
BRANCH  16  17
ATOM     17  C   UNL     1      32.053  18.009  38.782  1.00  0.00     0.000 C 
BRANCH  17  18
ATOM     18  C   UNL     1      31.780  18.272  37.296  1.00  0.00    -0.000 C 
BRANCH  18  19
ATOM     19  C   UNL     1      31.202  19.679  37.084  1.00  0.00    -0.000 C 
BRANCH  19  20
ATOM     20  C   UNL     1      31.827  20.722  38.024  1.00  0.00    -0.000 C 
BRANCH  20  21
ATOM     21  C   UNL     1      31.162  22.105  37.898  1.00  0.00    -0.000 C 
BRANCH  21  22
ATOM     22  C   UNL     1      32.177  23.256  37.968  1.00  0.00    -0.000 C 
BRANCH  22  23
ATOM     23  C   UNL     1      32.785  23.592  36.595  1.00  0.00    -0.000 C 
BRANCH  23  24
ATOM     24  C   UNL     1      31.727  24.115  35.600  1.00  0.00    -0.000 C 
BRANCH  24  25
ATOM     25  C   UNL     1      32.155  23.989  34.129  1.00  0.00    -0.003 C 
ATOM     26  C   UNL     1      30.989  24.123  33.153  1.00  0.00     0.004 C 
ENDBRANCH  24  25
ENDBRANCH  23  24
ENDBRANCH  22  23
ENDBRANCH  21  22
ENDBRANCH  20  21
ENDBRANCH  19  20
ENDBRANCH  18  19
ENDBRANCH  17  18
ENDBRANCH  16  17
ENDBRANCH  15  16
ENDBRANCH   1  15
TORSDOF 22
ENDMDL
MODEL 5
REMARK VINA RESULT:    11.952      5.574     13.016
REMARK INTER + INTRA:          26.590
REMARK INTER:                  28.315
REMARK INTRA:                  -1.725
REMARK UNBOUND:                -0.734
REMARK SMILES CCCCCCCCCCCCCCCCCCCCCCCC(=O)[O-]
REMARK SMILES IDX 13 1 14 2 15 3 16 4 17 5 18 6 19 7 20 8 21 9 22 10 23 11
REMARK SMILES IDX 24 12 25 13 26 14 12 15 11 16 10 17 9 18 8 19 7 20 6 21 5 22
REMARK SMILES IDX 4 23 3 24 2 25 1 26
REMARK H PARENT
REMARK Flexibility Score: inf
ROOT
ATOM      1  C   UNL     1      34.465  13.385  40.369  1.00  0.00     0.000 C 
ENDROOT
BRANCH   1   2
ATOM      2  C   UNL     1      35.301  12.784  41.508  1.00  0.00     0.000 C 
BRANCH   2   3
ATOM      3  C   UNL     1      35.022  13.454  42.865  1.00  0.00     0.000 C 
BRANCH   3   4
ATOM      4  C   UNL     1      36.246  14.196  43.424  1.00  0.00     0.000 C 
BRANCH   4   5
ATOM      5  C   UNL     1      35.871  15.502  44.138  1.00  0.00     0.000 C 
BRANCH   5   6
ATOM      6  C   UNL     1      34.513  16.023  43.654  1.00  0.00     0.000 C 
BRANCH   6   7
ATOM      7  C   UNL     1      34.653  17.416  43.024  1.00  0.00     0.000 C 
BRANCH   7   8
ATOM      8  C   UNL     1      33.689  17.640  41.845  1.00  0.00     0.000 C 
BRANCH   8   9
ATOM      9  C   UNL     1      34.194  17.131  40.480  1.00  0.00     0.000 C 
BRANCH   9  10
ATOM     10  C   UNL     1      33.710  17.938  39.258  1.00  0.00     0.006 C 
BRANCH  10  11
ATOM     11  C   UNL     1      32.224  18.328  39.304  1.00  0.00     0.053 C 
BRANCH  11  12
ATOM     12  C   UNL     1      31.717  18.761  37.964  1.00  0.00     0.041 C 
ATOM     13  O   UNL     1      31.289  19.933  37.798  1.00  0.00    -0.550 OA
ATOM     14  O   UNL     1      31.749  17.881  36.889  1.00  0.00    -0.550 OA
ENDBRANCH  11  12
ENDBRANCH  10  11
ENDBRANCH   9  10
ENDBRANCH   8   9
ENDBRANCH   7   8
ENDBRANCH   6   7
ENDBRANCH   5   6
ENDBRANCH   4   5
ENDBRANCH   3   4
ENDBRANCH   2   3
ENDBRANCH   1   2
BRANCH   1  15
ATOM     15  C   UNL     1      33.262  12.500  39.989  1.00  0.00     0.000 C 
BRANCH  15  16
ATOM     16  C   UNL     1      33.054  11.334  40.967  1.00  0.00     0.000 C 
BRANCH  16  17
ATOM     17  C   UNL     1      32.951   9.977  40.256  1.00  0.00     0.000 C 
BRANCH  17  18
ATOM     18  C   UNL     1      34.335   9.468  39.835  1.00  0.00    -0.000 C 
BRANCH  18  19
ATOM     19  C   UNL     1      34.668   8.140  40.531  1.00  0.00    -0.000 C 
BRANCH  19  20
ATOM     20  C   UNL     1      33.437   7.237  40.702  1.00  0.00    -0.000 C 
BRANCH  20  21
ATOM     21  C   UNL     1      33.809   5.751  40.847  1.00  0.00    -0.000 C 
BRANCH  21  22
ATOM     22  C   UNL     1      32.619   4.884  41.288  1.00  0.00    -0.000 C 
BRANCH  22  23
ATOM     23  C   UNL     1      31.512   5.705  41.972  1.00  0.00    -0.000 C 
BRANCH  23  24
ATOM     24  C   UNL     1      30.190   4.916  42.092  1.00  0.00    -0.000 C 
BRANCH  24  25
ATOM     25  C   UNL     1      28.939   5.807  42.045  1.00  0.00    -0.003 C 
ATOM     26  C   UNL     1      29.208   7.185  41.445  1.00  0.00     0.004 C 
ENDBRANCH  24  25
ENDBRANCH  23  24
ENDBRANCH  22  23
ENDBRANCH  21  22
ENDBRANCH  20  21
ENDBRANCH  19  20
ENDBRANCH  18  19
ENDBRANCH  17  18
ENDBRANCH  16  17
ENDBRANCH  15  16
ENDBRANCH   1  15
TORSDOF 22
ENDMDL
MODEL 6
REMARK VINA RESULT:    12.183      5.538     11.578
REMARK INTER + INTRA:          27.118
REMARK INTER:                  28.239
REMARK INTRA:                  -1.122
REMARK UNBOUND:                -0.734
REMARK SMILES CCCCCCCCCCCCCCCCCCCCCCCC(=O)[O-]
REMARK SMILES IDX 13 1 14 2 15 3 16 4 17 5 18 6 19 7 20 8 21 9 22 10 23 11
REMARK SMILES IDX 24 12 25 13 26 14 12 15 11 16 10 17 9 18 8 19 7 20 6 21 5 22
REMARK SMILES IDX 4 23 3 24 2 25 1 26
REMARK H PARENT
REMARK Flexibility Score: inf
ROOT
ATOM      1  C   UNL     1      34.775  13.161  40.669  1.00  0.00     0.000 C 
ENDROOT
BRANCH   1   2
ATOM      2  C   UNL     1      35.095  13.031  42.165  1.00  0.00     0.000 C 
BRANCH   2   3
ATOM      3  C   UNL     1      36.286  13.905  42.595  1.00  0.00     0.000 C 
BRANCH   3   4
ATOM      4  C   UNL     1      36.188  14.363  44.058  1.00  0.00     0.000 C 
BRANCH   4   5
ATOM      5  C   UNL     1      35.588  15.769  44.199  1.00  0.00     0.000 C 
BRANCH   5   6
ATOM      6  C   UNL     1      34.450  15.983  43.194  1.00  0.00     0.000 C 
BRANCH   6   7
ATOM      7  C   UNL     1      34.273  17.475  42.875  1.00  0.00     0.000 C 
BRANCH   7   8
ATOM      8  C   UNL     1      33.481  17.720  41.579  1.00  0.00     0.000 C 
BRANCH   8   9
ATOM      9  C   UNL     1      34.222  17.351  40.278  1.00  0.00     0.000 C 
BRANCH   9  10
ATOM     10  C   UNL     1      33.648  17.983  38.993  1.00  0.00     0.006 C 
BRANCH  10  11
ATOM     11  C   UNL     1      32.332  18.749  39.197  1.00  0.00     0.053 C 
BRANCH  11  12
ATOM     12  C   UNL     1      31.479  18.735  37.968  1.00  0.00     0.041 C 
ATOM     13  O   UNL     1      31.168  19.815  37.401  1.00  0.00    -0.550 OA
ATOM     14  O   UNL     1      31.057  17.527  37.426  1.00  0.00    -0.550 OA
ENDBRANCH  11  12
ENDBRANCH  10  11
ENDBRANCH   9  10
ENDBRANCH   8   9
ENDBRANCH   7   8
ENDBRANCH   6   7
ENDBRANCH   5   6
ENDBRANCH   4   5
ENDBRANCH   3   4
ENDBRANCH   2   3
ENDBRANCH   1   2
BRANCH   1  15
ATOM     15  C   UNL     1      33.407  12.555  40.302  1.00  0.00     0.000 C 
BRANCH  15  16
ATOM     16  C   UNL     1      33.055  11.330  41.161  1.00  0.00     0.000 C 
BRANCH  16  17
ATOM     17  C   UNL     1      33.760  10.051  40.685  1.00  0.00     0.000 C 
BRANCH  17  18
ATOM     18  C   UNL     1      33.121   9.517  39.397  1.00  0.00    -0.000 C 
BRANCH  18  19
ATOM     19  C   UNL     1      31.615   9.282  39.587  1.00  0.00    -0.000 C 
BRANCH  19  20
ATOM     20  C   UNL     1      30.816   9.496  38.291  1.00  0.00    -0.000 C 
BRANCH  20  21
ATOM     21  C   UNL     1      29.701   8.451  38.106  1.00  0.00    -0.000 C 
BRANCH  21  22
ATOM     22  C   UNL     1      28.385   9.075  37.614  1.00  0.00    -0.000 C 
BRANCH  22  23
ATOM     23  C   UNL     1      27.785   8.320  36.415  1.00  0.00    -0.000 C 
BRANCH  23  24
ATOM     24  C   UNL     1      28.258   6.852  36.352  1.00  0.00    -0.000 C 
BRANCH  24  25
ATOM     25  C   UNL     1      27.390   5.894  37.183  1.00  0.00    -0.003 C 
ATOM     26  C   UNL     1      27.757   4.426  36.979  1.00  0.00     0.004 C 
ENDBRANCH  24  25
ENDBRANCH  23  24
ENDBRANCH  22  23
ENDBRANCH  21  22
ENDBRANCH  20  21
ENDBRANCH  19  20
ENDBRANCH  18  19
ENDBRANCH  17  18
ENDBRANCH  16  17
ENDBRANCH  15  16
ENDBRANCH   1  15
TORSDOF 22
ENDMDL
MODEL 7
REMARK VINA RESULT:    12.292      5.541     12.744
REMARK INTER + INTRA:          27.367
REMARK INTER:                  27.940
REMARK INTRA:                  -0.573
REMARK UNBOUND:                -0.734
REMARK SMILES CCCCCCCCCCCCCCCCCCCCCCCC(=O)[O-]
REMARK SMILES IDX 13 1 14 2 15 3 16 4 17 5 18 6 19 7 20 8 21 9 22 10 23 11
REMARK SMILES IDX 24 12 25 13 26 14 12 15 11 16 10 17 9 18 8 19 7 20 6 21 5 22
REMARK SMILES IDX 4 23 3 24 2 25 1 26
REMARK H PARENT
REMARK Flexibility Score: inf
ROOT
ATOM      1  C   UNL     1      34.509  13.315  40.219  1.00  0.00     0.000 C 
ENDROOT
BRANCH   1   2
ATOM      2  C   UNL     1      35.490  13.110  41.383  1.00  0.00     0.000 C 
BRANCH   2   3
ATOM      3  C   UNL     1      34.984  13.722  42.701  1.00  0.00     0.000 C 
BRANCH   3   4
ATOM      4  C   UNL     1      36.093  14.439  43.486  1.00  0.00     0.000 C 
BRANCH   4   5
ATOM      5  C   UNL     1      35.613  15.749  44.127  1.00  0.00     0.000 C 
BRANCH   5   6
ATOM      6  C   UNL     1      34.255  16.174  43.555  1.00  0.00     0.000 C 
BRANCH   6   7
ATOM      7  C   UNL     1      34.331  17.584  42.951  1.00  0.00     0.000 C 
BRANCH   7   8
ATOM      8  C   UNL     1      33.473  17.740  41.683  1.00  0.00     0.000 C 
BRANCH   8   9
ATOM      9  C   UNL     1      34.048  17.073  40.417  1.00  0.00     0.000 C 
BRANCH   9  10
ATOM     10  C   UNL     1      33.667  17.753  39.087  1.00  0.00     0.006 C 
BRANCH  10  11
ATOM     11  C   UNL     1      32.512  18.761  39.197  1.00  0.00     0.053 C 
BRANCH  11  12
ATOM     12  C   UNL     1      31.640  18.750  37.981  1.00  0.00     0.041 C 
ATOM     13  O   UNL     1      31.073  19.807  37.599  1.00  0.00    -0.550 OA
ATOM     14  O   UNL     1      31.483  17.581  37.246  1.00  0.00    -0.550 OA
ENDBRANCH  11  12
ENDBRANCH  10  11
ENDBRANCH   9  10
ENDBRANCH   8   9
ENDBRANCH   7   8
ENDBRANCH   6   7
ENDBRANCH   5   6
ENDBRANCH   4   5
ENDBRANCH   3   4
ENDBRANCH   2   3
ENDBRANCH   1   2
BRANCH   1  15
ATOM     15  C   UNL     1      33.222  12.485  40.378  1.00  0.00     0.000 C 
BRANCH  15  16
ATOM     16  C   UNL     1      33.421  11.251  41.272  1.00  0.00     0.000 C 
BRANCH  16  17
ATOM     17  C   UNL     1      34.526  10.318  40.756  1.00  0.00     0.000 C 
BRANCH  17  18
ATOM     18  C   UNL     1      33.939   9.195  39.892  1.00  0.00    -0.000 C 
BRANCH  18  19
ATOM     19  C   UNL     1      32.431   9.398  39.676  1.00  0.00    -0.000 C 
BRANCH  19  20
ATOM     20  C   UNL     1      31.580   8.622  40.693  1.00  0.00    -0.000 C 
BRANCH  20  21
ATOM     21  C   UNL     1      30.090   8.579  40.306  1.00  0.00    -0.000 C 
BRANCH  21  22
ATOM     22  C   UNL     1      29.263   7.683  41.242  1.00  0.00    -0.000 C 
BRANCH  22  23
ATOM     23  C   UNL     1      29.571   6.187  41.053  1.00  0.00    -0.000 C 
BRANCH  23  24
ATOM     24  C   UNL     1      29.769   5.458  42.400  1.00  0.00    -0.000 C 
BRANCH  24  25
ATOM     25  C   UNL     1      28.507   4.736  42.896  1.00  0.00    -0.003 C 
ATOM     26  C   UNL     1      27.381   4.723  41.865  1.00  0.00     0.004 C 
ENDBRANCH  24  25
ENDBRANCH  23  24
ENDBRANCH  22  23
ENDBRANCH  21  22
ENDBRANCH  20  21
ENDBRANCH  19  20
ENDBRANCH  18  19
ENDBRANCH  17  18
ENDBRANCH  16  17
ENDBRANCH  15  16
ENDBRANCH   1  15
TORSDOF 22
ENDMDL
MODEL 8
REMARK VINA RESULT:    12.374      4.626      8.327
REMARK INTER + INTRA:          27.555
REMARK INTER:                  28.997
REMARK INTRA:                  -1.441
REMARK UNBOUND:                -0.734
REMARK SMILES CCCCCCCCCCCCCCCCCCCCCCCC(=O)[O-]
REMARK SMILES IDX 13 1 14 2 15 3 16 4 17 5 18 6 19 7 20 8 21 9 22 10 23 11
REMARK SMILES IDX 24 12 25 13 26 14 12 15 11 16 10 17 9 18 8 19 7 20 6 21 5 22
REMARK SMILES IDX 4 23 3 24 2 25 1 26
REMARK H PARENT
REMARK Flexibility Score: inf
ROOT
ATOM      1  C   UNL     1      35.255  13.561  42.787  1.00  0.00     0.000 C 
ENDROOT
BRANCH   1   2
ATOM      2  C   UNL     1      35.479  13.190  41.314  1.00  0.00     0.000 C 
BRANCH   2   3
ATOM      3  C   UNL     1      34.401  13.776  40.384  1.00  0.00     0.000 C 
BRANCH   3   4
ATOM      4  C   UNL     1      33.440  12.707  39.843  1.00  0.00     0.000 C 
BRANCH   4   5
ATOM      5  C   UNL     1      33.368  11.465  40.743  1.00  0.00     0.000 C 
BRANCH   5   6
ATOM      6  C   UNL     1      33.928  10.232  40.023  1.00  0.00     0.000 C 
BRANCH   6   7
ATOM      7  C   UNL     1      32.841   9.163  39.841  1.00  0.00     0.000 C 
BRANCH   7   8
ATOM      8  C   UNL     1      31.899   9.053  41.053  1.00  0.00     0.000 C 
BRANCH   8   9
ATOM      9  C   UNL     1      30.421   8.779  40.710  1.00  0.00     0.000 C 
BRANCH   9  10
ATOM     10  C   UNL     1      30.020   7.290  40.679  1.00  0.00     0.006 C 
BRANCH  10  11
ATOM     11  C   UNL     1      29.088   6.860  41.823  1.00  0.00     0.053 C 
BRANCH  11  12
ATOM     12  C   UNL     1      29.389   5.475  42.302  1.00  0.00     0.041 C 
ATOM     13  O   UNL     1      30.573   5.049  42.299  1.00  0.00    -0.550 OA
ATOM     14  O   UNL     1      28.367   4.667  42.784  1.00  0.00    -0.550 OA
ENDBRANCH  11  12
ENDBRANCH  10  11
ENDBRANCH   9  10
ENDBRANCH   8   9
ENDBRANCH   7   8
ENDBRANCH   6   7
ENDBRANCH   5   6
ENDBRANCH   4   5
ENDBRANCH   3   4
ENDBRANCH   2   3
ENDBRANCH   1   2
BRANCH   1  15
ATOM     15  C   UNL     1      36.473  14.270  43.409  1.00  0.00     0.000 C 
BRANCH  15  16
ATOM     16  C   UNL     1      36.181  15.734  43.774  1.00  0.00     0.000 C 
BRANCH  16  17
ATOM     17  C   UNL     1      34.859  15.901  44.537  1.00  0.00     0.000 C 
BRANCH  17  18
ATOM     18  C   UNL     1      33.855  16.729  43.725  1.00  0.00    -0.000 C 
BRANCH  18  19
ATOM     19  C   UNL     1      34.493  17.248  42.428  1.00  0.00    -0.000 C 
BRANCH  19  20
ATOM     20  C   UNL     1      33.462  17.467  41.309  1.00  0.00    -0.000 C 
BRANCH  20  21
ATOM     21  C   UNL     1      34.117  17.641  39.928  1.00  0.00    -0.000 C 
BRANCH  21  22
ATOM     22  C   UNL     1      33.287  18.531  38.989  1.00  0.00    -0.000 C 
BRANCH  22  23
ATOM     23  C   UNL     1      32.234  17.736  38.198  1.00  0.00    -0.000 C 
BRANCH  23  24
ATOM     24  C   UNL     1      31.324  18.653  37.352  1.00  0.00    -0.000 C 
BRANCH  24  25
ATOM     25  C   UNL     1      30.797  19.873  38.125  1.00  0.00    -0.003 C 
ATOM     26  C   UNL     1      31.593  21.146  37.846  1.00  0.00     0.004 C 
ENDBRANCH  24  25
ENDBRANCH  23  24
ENDBRANCH  22  23
ENDBRANCH  21  22
ENDBRANCH  20  21
ENDBRANCH  19  20
ENDBRANCH  18  19
ENDBRANCH  17  18
ENDBRANCH  16  17
ENDBRANCH  15  16
ENDBRANCH   1  15
TORSDOF 22
ENDMDL
MODEL 9
REMARK VINA RESULT:    12.482      5.092      9.689
REMARK INTER + INTRA:          27.801
REMARK INTER:                  29.188
REMARK INTRA:                  -1.387
REMARK UNBOUND:                -0.734
REMARK SMILES CCCCCCCCCCCCCCCCCCCCCCCC(=O)[O-]
REMARK SMILES IDX 13 1 14 2 15 3 16 4 17 5 18 6 19 7 20 8 21 9 22 10 23 11
REMARK SMILES IDX 24 12 25 13 26 14 12 15 11 16 10 17 9 18 8 19 7 20 6 21 5 22
REMARK SMILES IDX 4 23 3 24 2 25 1 26
REMARK H PARENT
REMARK Flexibility Score: inf
ROOT
ATOM      1  C   UNL     1      34.479  13.555  40.601  1.00  0.00     0.000 C 
ENDROOT
BRANCH   1   2
ATOM      2  C   UNL     1      33.513  12.421  40.228  1.00  0.00     0.000 C 
BRANCH   2   3
ATOM      3  C   UNL     1      33.731  11.155  41.075  1.00  0.00     0.000 C 
BRANCH   3   4
ATOM      4  C   UNL     1      33.747   9.872  40.230  1.00  0.00     0.000 C 
BRANCH   4   5
ATOM      5  C   UNL     1      32.337   9.360  39.903  1.00  0.00     0.000 C 
BRANCH   5   6
ATOM      6  C   UNL     1      32.040   9.488  38.404  1.00  0.00     0.000 C 
BRANCH   6   7
ATOM      7  C   UNL     1      30.613  10.007  38.171  1.00  0.00     0.000 C 
BRANCH   7   8
ATOM      8  C   UNL     1      29.830   9.166  37.147  1.00  0.00     0.000 C 
BRANCH   8   9
ATOM      9  C   UNL     1      28.437   8.697  37.614  1.00  0.00     0.000 C 
BRANCH   9  10
ATOM     10  C   UNL     1      27.652   7.853  36.589  1.00  0.00     0.006 C 
BRANCH  10  11
ATOM     11  C   UNL     1      28.279   6.484  36.280  1.00  0.00     0.053 C 
BRANCH  11  12
ATOM     12  C   UNL     1      27.444   5.355  36.796  1.00  0.00     0.041 C 
ATOM     13  O   UNL     1      26.205   5.507  36.958  1.00  0.00    -0.550 OA
ATOM     14  O   UNL     1      28.027   4.122  37.062  1.00  0.00    -0.550 OA
ENDBRANCH  11  12
ENDBRANCH  10  11
ENDBRANCH   9  10
ENDBRANCH   8   9
ENDBRANCH   7   8
ENDBRANCH   6   7
ENDBRANCH   5   6
ENDBRANCH   4   5
ENDBRANCH   3   4
ENDBRANCH   2   3
ENDBRANCH   1   2
BRANCH   1  15
ATOM     15  C   UNL     1      35.613  13.084  41.531  1.00  0.00     0.000 C 
BRANCH  15  16
ATOM     16  C   UNL     1      35.373  13.474  42.998  1.00  0.00     0.000 C 
BRANCH  16  17
ATOM     17  C   UNL     1      36.437  14.443  43.534  1.00  0.00     0.000 C 
BRANCH  17  18
ATOM     18  C   UNL     1      35.789  15.696  44.134  1.00  0.00    -0.000 C 
BRANCH  18  19
ATOM     19  C   UNL     1      34.470  16.030  43.420  1.00  0.00    -0.000 C 
BRANCH  19  20
ATOM     20  C   UNL     1      34.388  17.503  42.990  1.00  0.00    -0.000 C 
BRANCH  20  21
ATOM     21  C   UNL     1      33.502  17.707  41.747  1.00  0.00    -0.000 C 
BRANCH  21  22
ATOM     22  C   UNL     1      34.167  17.196  40.459  1.00  0.00    -0.000 C 
BRANCH  22  23
ATOM     23  C   UNL     1      33.826  18.063  39.234  1.00  0.00    -0.000 C 
BRANCH  23  24
ATOM     24  C   UNL     1      32.332  18.448  39.189  1.00  0.00    -0.000 C 
BRANCH  24  25
ATOM     25  C   UNL     1      31.769  18.550  37.763  1.00  0.00    -0.003 C 
ATOM     26  C   UNL     1      31.118  19.900  37.472  1.00  0.00     0.004 C 
ENDBRANCH  24  25
ENDBRANCH  23  24
ENDBRANCH  22  23
ENDBRANCH  21  22
ENDBRANCH  20  21
ENDBRANCH  19  20
ENDBRANCH  18  19
ENDBRANCH  17  18
ENDBRANCH  16  17
ENDBRANCH  15  16
ENDBRANCH   1  15
TORSDOF 22
ENDMDL
