MODEL 1
REMARK VINA RESULT:    -3.699      0.000      0.000
REMARK INTER + INTRA:          -8.087
REMARK INTER:                  -6.727
REMARK INTRA:                  -1.360
REMARK UNBOUND:                -1.360
REMARK SMILES CCCCCCCCCCCCCCCC(=O)[O-]
REMARK SMILES IDX 9 1 10 2 11 3 12 4 13 5 14 6 15 7 16 8 17 9 18 10 8 11 7 12
REMARK SMILES IDX 6 13 5 14 4 15 3 16 2 17 1 18
REMARK H PARENT
REMARK Flexibility Score: inf
ROOT
ATOM      1  C   UNL     1      -7.874   6.525  -3.671  1.00  0.00     0.000 C 
ENDROOT
BRANCH   1   2
ATOM      2  C   UNL     1      -6.701   7.116  -4.470  1.00  0.00     0.000 C 
BRANCH   2   3
ATOM      3  C   UNL     1      -5.372   7.057  -3.698  1.00  0.00     0.000 C 
BRANCH   3   4
ATOM      4  C   UNL     1      -5.112   5.679  -3.063  1.00  0.00     0.000 C 
BRANCH   4   5
ATOM      5  C   UNL     1      -4.050   5.666  -1.945  1.00  0.00     0.000 C 
BRANCH   5   6
ATOM      6  C   UNL     1      -2.762   6.437  -2.301  1.00  0.00     0.006 C 
BRANCH   6   7
ATOM      7  C   UNL     1      -1.495   5.669  -1.900  1.00  0.00     0.053 C 
BRANCH   7   8
ATOM      8  C   UNL     1      -0.923   6.226  -0.636  1.00  0.00     0.041 C 
ATOM      9  O   UNL     1      -1.572   6.148   0.441  1.00  0.00    -0.550 OA
ATOM     10  O   UNL     1       0.348   6.786  -0.635  1.00  0.00    -0.550 OA
ENDBRANCH   7   8
ENDBRANCH   6   7
ENDBRANCH   5   6
ENDBRANCH   4   5
ENDBRANCH   3   4
ENDBRANCH   2   3
ENDBRANCH   1   2
BRANCH   1  11
ATOM     11  C   UNL     1      -9.002   5.999  -4.572  1.00  0.00     0.000 C 
BRANCH  11  12
ATOM     12  C   UNL     1      -8.496   5.754  -5.998  1.00  0.00    -0.000 C 
BRANCH  12  13
ATOM     13  C   UNL     1      -8.655   4.277  -6.392  1.00  0.00    -0.000 C 
BRANCH  13  14
ATOM     14  C   UNL     1      -7.405   3.710  -7.081  1.00  0.00    -0.000 C 
BRANCH  14  15
ATOM     15  C   UNL     1      -6.107   4.031  -6.318  1.00  0.00    -0.000 C 
BRANCH  15  16
ATOM     16  C   UNL     1      -4.896   4.169  -7.262  1.00  0.00    -0.000 C 
BRANCH  16  17
ATOM     17  C   UNL     1      -5.276   4.585  -8.694  1.00  0.00    -0.003 C 
ATOM     18  C   UNL     1      -4.572   5.860  -9.153  1.00  0.00     0.004 C 
ENDBRANCH  16  17
ENDBRANCH  15  16
ENDBRANCH  14  15
ENDBRANCH  13  14
ENDBRANCH  12  13
ENDBRANCH  11  12
ENDBRANCH   1  11
TORSDOF 14
ENDMDL
MODEL 2
REMARK VINA RESULT:    -3.686     14.586     17.188
REMARK INTER + INTRA:          -8.063
REMARK INTER:                  -7.065
REMARK INTRA:                  -0.998
REMARK UNBOUND:                -1.360
REMARK SMILES CCCCCCCCCCCCCCCC(=O)[O-]
REMARK SMILES IDX 9 1 10 2 11 3 12 4 13 5 14 6 15 7 16 8 17 9 18 10 8 11 7 12
REMARK SMILES IDX 6 13 5 14 4 15 3 16 2 17 1 18
REMARK H PARENT
REMARK Flexibility Score: inf
ROOT
ATOM      1  C   UNL     1       6.181  -6.817  -9.005  1.00  0.00     0.000 C 
ENDROOT
BRANCH   1   2
ATOM      2  C   UNL     1       5.854  -8.175  -8.365  1.00  0.00     0.000 C 
BRANCH   2   3
ATOM      3  C   UNL     1       4.642  -8.860  -9.021  1.00  0.00     0.000 C 
BRANCH   3   4
ATOM      4  C   UNL     1       3.306  -8.454  -8.376  1.00  0.00     0.000 C 
BRANCH   4   5
ATOM      5  C   UNL     1       2.286  -7.812  -9.338  1.00  0.00     0.000 C 
BRANCH   5   6
ATOM      6  C   UNL     1       2.313  -6.269  -9.337  1.00  0.00     0.006 C 
BRANCH   6   7
ATOM      7  C   UNL     1       2.700  -5.696  -7.967  1.00  0.00     0.053 C 
BRANCH   7   8
ATOM      8  C   UNL     1       1.926  -4.448  -7.684  1.00  0.00     0.041 C 
ATOM      9  O   UNL     1       1.537  -3.715  -8.632  1.00  0.00    -0.550 OA
ATOM     10  O   UNL     1       1.589  -4.120  -6.377  1.00  0.00    -0.550 OA
ENDBRANCH   7   8
ENDBRANCH   6   7
ENDBRANCH   5   6
ENDBRANCH   4   5
ENDBRANCH   3   4
ENDBRANCH   2   3
ENDBRANCH   1   2
BRANCH   1  11
ATOM     11  C   UNL     1       7.539  -6.811  -9.725  1.00  0.00     0.000 C 
BRANCH  11  12
ATOM     12  C   UNL     1       8.175  -5.416  -9.684  1.00  0.00    -0.000 C 
BRANCH  12  13
ATOM     13  C   UNL     1       9.598  -5.477  -9.110  1.00  0.00    -0.000 C 
BRANCH  13  14
ATOM     14  C   UNL     1       9.920  -4.285  -8.197  1.00  0.00    -0.000 C 
BRANCH  14  15
ATOM     15  C   UNL     1       8.851  -3.180  -8.261  1.00  0.00    -0.000 C 
BRANCH  15  16
ATOM     16  C   UNL     1       9.218  -1.963  -7.387  1.00  0.00    -0.000 C 
BRANCH  16  17
ATOM     17  C   UNL     1       8.021  -1.048  -7.072  1.00  0.00    -0.003 C 
ATOM     18  C   UNL     1       7.359  -1.370  -5.735  1.00  0.00     0.004 C 
ENDBRANCH  16  17
ENDBRANCH  15  16
ENDBRANCH  14  15
ENDBRANCH  13  14
ENDBRANCH  12  13
ENDBRANCH  11  12
ENDBRANCH   1  11
TORSDOF 14
ENDMDL
MODEL 3
REMARK VINA RESULT:    -3.639     11.587     13.676
REMARK INTER + INTRA:          -7.977
REMARK INTER:                  -6.913
REMARK INTRA:                  -1.064
REMARK UNBOUND:                -1.360
REMARK SMILES CCCCCCCCCCCCCCCC(=O)[O-]
REMARK SMILES IDX 9 1 10 2 11 3 12 4 13 5 14 6 15 7 16 8 17 9 18 10 8 11 7 12
REMARK SMILES IDX 6 13 5 14 4 15 3 16 2 17 1 18
REMARK H PARENT
REMARK Flexibility Score: inf
ROOT
ATOM      1  C   UNL     1      -8.066  -5.567  -4.036  1.00  0.00     0.000 C 
ENDROOT
BRANCH   1   2
ATOM      2  C   UNL     1      -7.705  -4.101  -3.751  1.00  0.00     0.000 C 
BRANCH   2   3
ATOM      3  C   UNL     1      -8.752  -3.117  -4.303  1.00  0.00     0.000 C 
BRANCH   3   4
ATOM      4  C   UNL     1      -8.178  -2.181  -5.381  1.00  0.00     0.000 C 
BRANCH   4   5
ATOM      5  C   UNL     1      -8.596  -2.518  -6.826  1.00  0.00     0.000 C 
BRANCH   5   6
ATOM      6  C   UNL     1      -7.874  -3.750  -7.413  1.00  0.00     0.006 C 
BRANCH   6   7
ATOM      7  C   UNL     1      -7.829  -3.722  -8.946  1.00  0.00     0.053 C 
BRANCH   7   8
ATOM      8  C   UNL     1      -6.774  -2.775  -9.422  1.00  0.00     0.041 C 
ATOM      9  O   UNL     1      -7.092  -1.750 -10.082  1.00  0.00    -0.550 OA
ATOM     10  O   UNL     1      -5.442  -2.996  -9.093  1.00  0.00    -0.550 OA
ENDBRANCH   7   8
ENDBRANCH   6   7
ENDBRANCH   5   6
ENDBRANCH   4   5
ENDBRANCH   3   4
ENDBRANCH   2   3
ENDBRANCH   1   2
BRANCH   1  11
ATOM     11  C   UNL     1      -9.478  -5.729  -4.622  1.00  0.00     0.000 C 
BRANCH  11  12
ATOM     12  C   UNL     1     -10.097  -7.067  -4.200  1.00  0.00    -0.000 C 
BRANCH  12  13
ATOM     13  C   UNL     1      -9.029  -8.168  -4.126  1.00  0.00    -0.000 C 
BRANCH  13  14
ATOM     14  C   UNL     1      -9.376  -9.390  -4.991  1.00  0.00    -0.000 C 
BRANCH  14  15
ATOM     15  C   UNL     1      -9.726 -10.632  -4.152  1.00  0.00    -0.000 C 
BRANCH  15  16
ATOM     16  C   UNL     1      -9.375 -10.446  -2.662  1.00  0.00    -0.000 C 
BRANCH  16  17
ATOM     17  C   UNL     1      -9.300 -11.768  -1.878  1.00  0.00    -0.003 C 
ATOM     18  C   UNL     1      -7.960 -11.969  -1.173  1.00  0.00     0.004 C 
ENDBRANCH  16  17
ENDBRANCH  15  16
ENDBRANCH  14  15
ENDBRANCH  13  14
ENDBRANCH  12  13
ENDBRANCH  11  12
ENDBRANCH   1  11
TORSDOF 14
ENDMDL
MODEL 4
REMARK VINA RESULT:    -3.631     15.823     17.807
REMARK INTER + INTRA:          -7.962
REMARK INTER:                  -6.684
REMARK INTRA:                  -1.278
REMARK UNBOUND:                -1.360
REMARK SMILES CCCCCCCCCCCCCCCC(=O)[O-]
REMARK SMILES IDX 9 1 10 2 11 3 12 4 13 5 14 6 15 7 16 8 17 9 18 10 8 11 7 12
REMARK SMILES IDX 6 13 5 14 4 15 3 16 2 17 1 18
REMARK H PARENT
REMARK Flexibility Score: inf
ROOT
ATOM      1  C   UNL     1      -5.997  -5.881   8.909  1.00  0.00     0.000 C 
ENDROOT
BRANCH   1   2
ATOM      2  C   UNL     1      -7.148  -5.225   9.688  1.00  0.00     0.000 C 
BRANCH   2   3
ATOM      3  C   UNL     1      -7.495  -3.822   9.160  1.00  0.00     0.000 C 
BRANCH   3   4
ATOM      4  C   UNL     1      -8.771  -3.808   8.301  1.00  0.00     0.000 C 
BRANCH   4   5
ATOM      5  C   UNL     1      -9.605  -2.514   8.393  1.00  0.00     0.000 C 
BRANCH   5   6
ATOM      6  C   UNL     1      -9.045  -1.482   9.395  1.00  0.00     0.006 C 
BRANCH   6   7
ATOM      7  C   UNL     1      -8.555  -0.204   8.700  1.00  0.00     0.053 C 
BRANCH   7   8
ATOM      8  C   UNL     1      -7.135   0.083   9.071  1.00  0.00     0.041 C 
ATOM      9  O   UNL     1      -6.220  -0.716   8.738  1.00  0.00    -0.550 OA
ATOM     10  O   UNL     1      -6.815   1.257   9.741  1.00  0.00    -0.550 OA
ENDBRANCH   7   8
ENDBRANCH   6   7
ENDBRANCH   5   6
ENDBRANCH   4   5
ENDBRANCH   3   4
ENDBRANCH   2   3
ENDBRANCH   1   2
BRANCH   1  11
ATOM     11  C   UNL     1      -5.134  -6.803   9.785  1.00  0.00     0.000 C 
BRANCH  11  12
ATOM     12  C   UNL     1      -4.248  -7.708   8.922  1.00  0.00    -0.000 C 
BRANCH  12  13
ATOM     13  C   UNL     1      -4.466  -7.428   7.427  1.00  0.00    -0.000 C 
BRANCH  13  14
ATOM     14  C   UNL     1      -4.841  -8.691   6.636  1.00  0.00    -0.000 C 
BRANCH  14  15
ATOM     15  C   UNL     1      -5.476  -9.780   7.519  1.00  0.00    -0.000 C 
BRANCH  15  16
ATOM     16  C   UNL     1      -6.816 -10.286   6.946  1.00  0.00    -0.000 C 
BRANCH  16  17
ATOM     17  C   UNL     1      -8.002 -10.114   7.911  1.00  0.00    -0.003 C 
ATOM     18  C   UNL     1      -7.603  -9.478   9.240  1.00  0.00     0.004 C 
ENDBRANCH  16  17
ENDBRANCH  15  16
ENDBRANCH  14  15
ENDBRANCH  13  14
ENDBRANCH  12  13
ENDBRANCH  11  12
ENDBRANCH   1  11
TORSDOF 14
ENDMDL
MODEL 5
REMARK VINA RESULT:    -3.581     18.299     19.824
REMARK INTER + INTRA:          -7.872
REMARK INTER:                  -6.014
REMARK INTRA:                  -1.859
REMARK UNBOUND:                -1.360
REMARK SMILES CCCCCCCCCCCCCCCC(=O)[O-]
REMARK SMILES IDX 9 1 10 2 11 3 12 4 13 5 14 6 15 7 16 8 17 9 18 10 8 11 7 12
REMARK SMILES IDX 6 13 5 14 4 15 3 16 2 17 1 18
REMARK H PARENT
REMARK Flexibility Score: inf
ROOT
ATOM      1  C   UNL     1      -4.809  -7.644   7.470  1.00  0.00     0.000 C 
ENDROOT
BRANCH   1   2
ATOM      2  C   UNL     1      -3.482  -8.420   7.447  1.00  0.00     0.000 C 
BRANCH   2   3
ATOM      3  C   UNL     1      -3.550  -9.732   8.248  1.00  0.00     0.000 C 
BRANCH   3   4
ATOM      4  C   UNL     1      -2.602  -9.740   9.460  1.00  0.00     0.000 C 
BRANCH   4   5
ATOM      5  C   UNL     1      -1.812  -8.433   9.679  1.00  0.00     0.000 C 
BRANCH   5   6
ATOM      6  C   UNL     1      -0.283  -8.604   9.570  1.00  0.00     0.006 C 
BRANCH   6   7
ATOM      7  C   UNL     1       0.108  -9.824   8.725  1.00  0.00     0.053 C 
BRANCH   7   8
ATOM      8  C   UNL     1       1.518  -9.697   8.242  1.00  0.00     0.041 C 
ATOM      9  O   UNL     1       1.755  -9.256   7.086  1.00  0.00    -0.550 OA
ATOM     10  O   UNL     1       2.573 -10.017   9.087  1.00  0.00    -0.550 OA
ENDBRANCH   7   8
ENDBRANCH   6   7
ENDBRANCH   5   6
ENDBRANCH   4   5
ENDBRANCH   3   4
ENDBRANCH   2   3
ENDBRANCH   1   2
BRANCH   1  11
ATOM     11  C   UNL     1      -5.068  -6.950   8.817  1.00  0.00     0.000 C 
BRANCH  11  12
ATOM     12  C   UNL     1      -6.476  -7.266   9.334  1.00  0.00    -0.000 C 
BRANCH  12  13
ATOM     13  C   UNL     1      -6.546  -8.691   9.903  1.00  0.00    -0.000 C 
BRANCH  13  14
ATOM     14  C   UNL     1      -7.646  -9.539   9.246  1.00  0.00    -0.000 C 
BRANCH  14  15
ATOM     15  C   UNL     1      -7.085 -10.590   8.272  1.00  0.00    -0.000 C 
BRANCH  15  16
ATOM     16  C   UNL     1      -7.396 -10.247   6.801  1.00  0.00    -0.000 C 
BRANCH  16  17
ATOM     17  C   UNL     1      -6.238 -10.560   5.838  1.00  0.00    -0.003 C 
ATOM     18  C   UNL     1      -6.592 -11.626   4.803  1.00  0.00     0.004 C 
ENDBRANCH  16  17
ENDBRANCH  15  16
ENDBRANCH  14  15
ENDBRANCH  13  14
ENDBRANCH  12  13
ENDBRANCH  11  12
ENDBRANCH   1  11
TORSDOF 14
ENDMDL
MODEL 6
REMARK VINA RESULT:    -3.570     15.163     17.118
REMARK INTER + INTRA:          -7.852
REMARK INTER:                  -7.088
REMARK INTRA:                  -0.764
REMARK UNBOUND:                -1.360
REMARK SMILES CCCCCCCCCCCCCCCC(=O)[O-]
REMARK SMILES IDX 9 1 10 2 11 3 12 4 13 5 14 6 15 7 16 8 17 9 18 10 8 11 7 12
REMARK SMILES IDX 6 13 5 14 4 15 3 16 2 17 1 18
REMARK H PARENT
REMARK Flexibility Score: inf
ROOT
ATOM      1  C   UNL     1      -6.360  -5.370   9.021  1.00  0.00     0.000 C 
ENDROOT
BRANCH   1   2
ATOM      2  C   UNL     1      -7.142  -4.212   9.661  1.00  0.00     0.000 C 
BRANCH   2   3
ATOM      3  C   UNL     1      -8.274  -3.693   8.758  1.00  0.00     0.000 C 
BRANCH   3   4
ATOM      4  C   UNL     1      -8.520  -2.183   8.919  1.00  0.00     0.000 C 
BRANCH   4   5
ATOM      5  C   UNL     1      -7.280  -1.360   9.323  1.00  0.00     0.000 C 
BRANCH   5   6
ATOM      6  C   UNL     1      -7.435   0.157   9.085  1.00  0.00     0.006 C 
BRANCH   6   7
ATOM      7  C   UNL     1      -8.590   0.480   8.128  1.00  0.00     0.053 C 
BRANCH   7   8
ATOM      8  C   UNL     1      -8.153   1.470   7.095  1.00  0.00     0.041 C 
ATOM      9  O   UNL     1      -7.167   2.223   7.316  1.00  0.00    -0.550 OA
ATOM     10  O   UNL     1      -8.801   1.527   5.867  1.00  0.00    -0.550 OA
ENDBRANCH   7   8
ENDBRANCH   6   7
ENDBRANCH   5   6
ENDBRANCH   4   5
ENDBRANCH   3   4
ENDBRANCH   2   3
ENDBRANCH   1   2
BRANCH   1  11
ATOM     11  C   UNL     1      -5.514  -6.151  10.038  1.00  0.00     0.000 C 
BRANCH  11  12
ATOM     12  C   UNL     1      -4.582  -7.142   9.331  1.00  0.00    -0.000 C 
BRANCH  12  13
ATOM     13  C   UNL     1      -4.806  -7.119   7.811  1.00  0.00    -0.000 C 
BRANCH  13  14
ATOM     14  C   UNL     1      -4.105  -8.281   7.091  1.00  0.00    -0.000 C 
BRANCH  14  15
ATOM     15  C   UNL     1      -5.096  -9.266   6.446  1.00  0.00    -0.000 C 
BRANCH  15  16
ATOM     16  C   UNL     1      -6.255  -9.631   7.396  1.00  0.00    -0.000 C 
BRANCH  16  17
ATOM     17  C   UNL     1      -7.390 -10.411   6.709  1.00  0.00    -0.003 C 
ATOM     18  C   UNL     1      -6.979 -11.005   5.365  1.00  0.00     0.004 C 
ENDBRANCH  16  17
ENDBRANCH  15  16
ENDBRANCH  14  15
ENDBRANCH  13  14
ENDBRANCH  12  13
ENDBRANCH  11  12
ENDBRANCH   1  11
TORSDOF 14
ENDMDL
MODEL 7
REMARK VINA RESULT:    -3.495      3.443      6.304
REMARK INTER + INTRA:          -7.716
REMARK INTER:                  -6.139
REMARK INTRA:                  -1.577
REMARK UNBOUND:                -1.360
REMARK SMILES CCCCCCCCCCCCCCCC(=O)[O-]
REMARK SMILES IDX 9 1 10 2 11 3 12 4 13 5 14 6 15 7 16 8 17 9 18 10 8 11 7 12
REMARK SMILES IDX 6 13 5 14 4 15 3 16 2 17 1 18
REMARK H PARENT
REMARK Flexibility Score: inf
ROOT
ATOM      1  C   UNL     1      -9.350   6.199  -3.026  1.00  0.00     0.000 C 
ENDROOT
BRANCH   1   2
ATOM      2  C   UNL     1      -8.978   6.807  -4.388  1.00  0.00     0.000 C 
BRANCH   2   3
ATOM      3  C   UNL     1      -8.838   5.742  -5.490  1.00  0.00     0.000 C 
BRANCH   3   4
ATOM      4  C   UNL     1      -7.812   6.133  -6.568  1.00  0.00     0.000 C 
BRANCH   4   5
ATOM      5  C   UNL     1      -6.371   6.331  -6.057  1.00  0.00     0.000 C 
BRANCH   5   6
ATOM      6  C   UNL     1      -5.624   5.011  -5.772  1.00  0.00     0.006 C 
BRANCH   6   7
ATOM      7  C   UNL     1      -5.858   3.963  -6.868  1.00  0.00     0.053 C 
BRANCH   7   8
ATOM      8  C   UNL     1      -5.002   4.250  -8.059  1.00  0.00     0.041 C 
ATOM      9  O   UNL     1      -5.531   4.529  -9.168  1.00  0.00    -0.550 OA
ATOM     10  O   UNL     1      -3.618   4.260  -7.935  1.00  0.00    -0.550 OA
ENDBRANCH   7   8
ENDBRANCH   6   7
ENDBRANCH   5   6
ENDBRANCH   4   5
ENDBRANCH   3   4
ENDBRANCH   2   3
ENDBRANCH   1   2
BRANCH   1  11
ATOM     11  C   UNL     1      -8.375   6.602  -1.909  1.00  0.00     0.000 C 
BRANCH  11  12
ATOM     12  C   UNL     1      -7.036   7.070  -2.492  1.00  0.00    -0.000 C 
BRANCH  12  13
ATOM     13  C   UNL     1      -5.875   6.731  -1.545  1.00  0.00    -0.000 C 
BRANCH  13  14
ATOM     14  C   UNL     1      -4.912   5.690  -2.137  1.00  0.00    -0.000 C 
BRANCH  14  15
ATOM     15  C   UNL     1      -3.737   6.332  -2.897  1.00  0.00    -0.000 C 
BRANCH  15  16
ATOM     16  C   UNL     1      -2.381   6.047  -2.220  1.00  0.00    -0.000 C 
BRANCH  16  17
ATOM     17  C   UNL     1      -2.497   5.194  -0.944  1.00  0.00    -0.003 C 
ATOM     18  C   UNL     1      -2.260   5.996   0.334  1.00  0.00     0.004 C 
ENDBRANCH  16  17
ENDBRANCH  15  16
ENDBRANCH  14  15
ENDBRANCH  13  14
ENDBRANCH  12  13
ENDBRANCH  11  12
ENDBRANCH   1  11
TORSDOF 14
ENDMDL
MODEL 8
REMARK VINA RESULT:    -3.480     11.903     13.783
REMARK INTER + INTRA:          -7.688
REMARK INTER:                  -6.577
REMARK INTRA:                  -1.111
REMARK UNBOUND:                -1.360
REMARK SMILES CCCCCCCCCCCCCCCC(=O)[O-]
REMARK SMILES IDX 9 1 10 2 11 3 12 4 13 5 14 6 15 7 16 8 17 9 18 10 8 11 7 12
REMARK SMILES IDX 6 13 5 14 4 15 3 16 2 17 1 18
REMARK H PARENT
REMARK Flexibility Score: inf
ROOT
ATOM      1  C   UNL     1      -8.246  -5.738  -4.238  1.00  0.00     0.000 C 
ENDROOT
BRANCH   1   2
ATOM      2  C   UNL     1      -9.756  -6.017  -4.181  1.00  0.00     0.000 C 
BRANCH   2   3
ATOM      3  C   UNL     1     -10.125  -7.390  -4.769  1.00  0.00     0.000 C 
BRANCH   3   4
ATOM      4  C   UNL     1      -9.066  -8.468  -4.477  1.00  0.00     0.000 C 
BRANCH   4   5
ATOM      5  C   UNL     1      -9.500  -9.912  -4.797  1.00  0.00     0.000 C 
BRANCH   5   6
ATOM      6  C   UNL     1      -9.465 -10.858  -3.578  1.00  0.00     0.006 C 
BRANCH   6   7
ATOM      7  C   UNL     1      -9.174 -10.110  -2.270  1.00  0.00     0.053 C 
BRANCH   7   8
ATOM      8  C   UNL     1      -8.781 -11.071  -1.194  1.00  0.00     0.041 C 
ATOM      9  O   UNL     1      -7.992 -12.020  -1.448  1.00  0.00    -0.550 OA
ATOM     10  O   UNL     1      -9.246 -10.890   0.103  1.00  0.00    -0.550 OA
ENDBRANCH   7   8
ENDBRANCH   6   7
ENDBRANCH   5   6
ENDBRANCH   4   5
ENDBRANCH   3   4
ENDBRANCH   2   3
ENDBRANCH   1   2
BRANCH   1  11
ATOM     11  C   UNL     1      -7.899  -4.274  -3.926  1.00  0.00     0.000 C 
BRANCH  11  12
ATOM     12  C   UNL     1      -9.169  -3.420  -3.825  1.00  0.00    -0.000 C 
BRANCH  12  13
ATOM     13  C   UNL     1      -9.006  -2.098  -4.590  1.00  0.00    -0.000 C 
BRANCH  13  14
ATOM     14  C   UNL     1      -8.248  -2.270  -5.915  1.00  0.00    -0.000 C 
BRANCH  14  15
ATOM     15  C   UNL     1      -9.075  -3.011  -6.981  1.00  0.00    -0.000 C 
BRANCH  15  16
ATOM     16  C   UNL     1      -8.183  -3.710  -8.028  1.00  0.00    -0.000 C 
BRANCH  16  17
ATOM     17  C   UNL     1      -6.851  -2.983  -8.285  1.00  0.00    -0.003 C 
ATOM     18  C   UNL     1      -6.104  -3.518  -9.504  1.00  0.00     0.004 C 
ENDBRANCH  16  17
ENDBRANCH  15  16
ENDBRANCH  14  15
ENDBRANCH  13  14
ENDBRANCH  12  13
ENDBRANCH  11  12
ENDBRANCH   1  11
TORSDOF 14
ENDMDL
MODEL 9
REMARK VINA RESULT:    -3.398     14.593     17.227
REMARK INTER + INTRA:          -7.538
REMARK INTER:                  -5.151
REMARK INTRA:                  -2.387
REMARK UNBOUND:                -1.360
REMARK SMILES CCCCCCCCCCCCCCCC(=O)[O-]
REMARK SMILES IDX 9 1 10 2 11 3 12 4 13 5 14 6 15 7 16 8 17 9 18 10 8 11 7 12
REMARK SMILES IDX 6 13 5 14 4 15 3 16 2 17 1 18
REMARK H PARENT
REMARK Flexibility Score: inf
ROOT
ATOM      1  C   UNL     1       4.142   2.254   8.218  1.00  0.00     0.000 C 
ENDROOT
BRANCH   1   2
ATOM      2  C   UNL     1       4.705   0.925   8.748  1.00  0.00     0.000 C 
BRANCH   2   3
ATOM      3  C   UNL     1       6.191   1.027   9.135  1.00  0.00     0.000 C 
BRANCH   3   4
ATOM      4  C   UNL     1       7.125   0.415   8.077  1.00  0.00     0.000 C 
BRANCH   4   5
ATOM      5  C   UNL     1       8.426   1.201   7.821  1.00  0.00     0.000 C 
BRANCH   5   6
ATOM      6  C   UNL     1       9.052   0.939   6.435  1.00  0.00     0.006 C 
BRANCH   6   7
ATOM      7  C   UNL     1       8.641  -0.423   5.861  1.00  0.00     0.053 C 
BRANCH   7   8
ATOM      8  C   UNL     1       8.753  -0.418   4.370  1.00  0.00     0.041 C 
ATOM      9  O   UNL     1       8.629  -1.491   3.721  1.00  0.00    -0.550 OA
ATOM     10  O   UNL     1       8.944   0.779   3.691  1.00  0.00    -0.550 OA
ENDBRANCH   7   8
ENDBRANCH   6   7
ENDBRANCH   5   6
ENDBRANCH   4   5
ENDBRANCH   3   4
ENDBRANCH   2   3
ENDBRANCH   1   2
BRANCH   1  11
ATOM     11  C   UNL     1       4.235   3.392   9.246  1.00  0.00     0.000 C 
BRANCH  11  12
ATOM     12  C   UNL     1       4.812   4.661   8.609  1.00  0.00    -0.000 C 
BRANCH  12  13
ATOM     13  C   UNL     1       6.313   4.792   8.904  1.00  0.00    -0.000 C 
BRANCH  13  14
ATOM     14  C   UNL     1       7.186   4.522   7.669  1.00  0.00    -0.000 C 
BRANCH  14  15
ATOM     15  C   UNL     1       6.445   4.791   6.347  1.00  0.00    -0.000 C 
BRANCH  15  16
ATOM     16  C   UNL     1       6.934   3.872   5.208  1.00  0.00    -0.000 C 
BRANCH  16  17
ATOM     17  C   UNL     1       6.155   2.548   5.109  1.00  0.00    -0.003 C 
ATOM     18  C   UNL     1       5.677   2.240   3.692  1.00  0.00     0.004 C 
ENDBRANCH  16  17
ENDBRANCH  15  16
ENDBRANCH  14  15
ENDBRANCH  13  14
ENDBRANCH  12  13
ENDBRANCH  11  12
ENDBRANCH   1  11
TORSDOF 14
ENDMDL
