MODEL 1
REMARK VINA RESULT:    -6.707      0.000      0.000
REMARK INTER + INTRA:          -8.328
REMARK INTER:                  -8.079
REMARK INTRA:                  -0.249
REMARK UNBOUND:                -0.249
REMARK SMILES O=c1c(O)c(-c2ccc(O)c(O)c2)oc2cc(O)cc(O)c12
REMARK SMILES IDX 5 1 3 2 2 3 1 4 22 5 20 6 19 7 17 8 16 9 15 10 14 11 6 12
REMARK SMILES IDX 7 13 8 14 9 15 13 16 11 17 10 18 12 20 4 22 21 24 18 26
REMARK H PARENT 10 19 12 21 4 23 21 25 18 27
REMARK Flexibility Score: inf
ROOT
ATOM      1  C   UNL     1     -18.380  46.996  -4.891  1.00  0.00     0.180 A 
ATOM      2  C   UNL     1     -18.319  47.038  -3.488  1.00  0.00     0.208 A 
ATOM      3  C   UNL     1     -19.259  46.308  -2.743  1.00  0.00     0.238 A 
ATOM      4  O   UNL     1     -19.245  46.410  -1.489  1.00  0.00    -0.285 OA
ATOM      5  C   UNL     1     -20.213  45.501  -3.409  1.00  0.00     0.111 A 
ATOM      6  C   UNL     1     -21.185  44.684  -2.754  1.00  0.00     0.134 A 
ATOM      7  C   UNL     1     -22.146  44.010  -3.517  1.00  0.00     0.093 A 
ATOM      8  C   UNL     1     -22.134  44.073  -4.912  1.00  0.00     0.123 A 
ATOM      9  C   UNL     1     -21.157  44.822  -5.563  1.00  0.00     0.094 A 
ATOM     10  C   UNL     1     -20.206  45.537  -4.829  1.00  0.00     0.146 A 
ATOM     11  O   UNL     1     -19.307  46.256  -5.488  1.00  0.00    -0.452 OA
ENDROOT
BRANCH   1  12
ATOM     12  C   UNL     1     -17.433  47.750  -5.744  1.00  0.00     0.025 A 
ATOM     13  C   UNL     1     -17.863  48.926  -6.379  1.00  0.00     0.016 A 
ATOM     14  C   UNL     1     -16.980  49.666  -7.170  1.00  0.00     0.051 A 
ATOM     15  C   UNL     1     -15.654  49.252  -7.327  1.00  0.00     0.157 A 
ATOM     16  C   UNL     1     -16.094  47.348  -5.885  1.00  0.00     0.062 A 
ATOM     17  C   UNL     1     -15.206  48.090  -6.679  1.00  0.00     0.158 A 
BRANCH  15  18
ATOM     18  O   UNL     1     -14.798  50.010  -8.125  1.00  0.00    -0.504 OA
ATOM     19  H   UNL     1     -14.131  49.581  -8.757  1.00  0.00     0.293 HD
ENDBRANCH  15  18
BRANCH  17  20
ATOM     20  O   UNL     1     -13.881  47.680  -6.817  1.00  0.00    -0.504 OA
ATOM     21  H   UNL     1     -13.596  46.726  -6.624  1.00  0.00     0.293 HD
ENDBRANCH  17  20
ENDBRANCH   1  12
BRANCH   2  22
ATOM     22  O   UNL     1     -17.321  47.781  -2.849  1.00  0.00    -0.502 OA
ATOM     23  H   UNL     1     -17.131  47.695  -1.857  1.00  0.00     0.293 HD
ENDBRANCH   2  22
BRANCH   6  24
ATOM     24  O   UNL     1     -21.233  44.480  -1.373  1.00  0.00    -0.507 OA
ATOM     25  H   UNL     1     -21.409  43.594  -0.925  1.00  0.00     0.293 HD
ENDBRANCH   6  24
BRANCH   8  26
ATOM     26  O   UNL     1     -23.085  43.385  -5.664  1.00  0.00    -0.508 OA
ATOM     27  H   UNL     1     -23.952  43.062  -5.252  1.00  0.00     0.293 HD
ENDBRANCH   8  26
TORSDOF 6
ENDMDL
MODEL 2
REMARK VINA RESULT:    -6.612      2.000      3.713
REMARK INTER + INTRA:          -8.214
REMARK INTER:                  -7.953
REMARK INTRA:                  -0.261
REMARK UNBOUND:                -0.249
REMARK SMILES O=c1c(O)c(-c2ccc(O)c(O)c2)oc2cc(O)cc(O)c12
REMARK SMILES IDX 5 1 3 2 2 3 1 4 22 5 20 6 19 7 17 8 16 9 15 10 14 11 6 12
REMARK SMILES IDX 7 13 8 14 9 15 13 16 11 17 10 18 12 20 4 22 21 24 18 26
REMARK H PARENT 10 19 12 21 4 23 21 25 18 27
REMARK Flexibility Score: inf
ROOT
ATOM      1  C   UNL     1     -18.739  48.069  -5.104  1.00  0.00     0.180 A 
ATOM      2  C   UNL     1     -19.657  47.188  -5.700  1.00  0.00     0.208 A 
ATOM      3  C   UNL     1     -20.224  46.165  -4.923  1.00  0.00     0.238 A 
ATOM      4  O   UNL     1     -20.987  45.335  -5.482  1.00  0.00    -0.285 OA
ATOM      5  C   UNL     1     -19.908  46.069  -3.546  1.00  0.00     0.111 A 
ATOM      6  C   UNL     1     -20.458  45.099  -2.653  1.00  0.00     0.134 A 
ATOM      7  C   UNL     1     -19.991  45.034  -1.334  1.00  0.00     0.093 A 
ATOM      8  C   UNL     1     -19.042  45.942  -0.859  1.00  0.00     0.123 A 
ATOM      9  C   UNL     1     -18.541  46.927  -1.707  1.00  0.00     0.094 A 
ATOM     10  C   UNL     1     -18.958  46.994  -3.039  1.00  0.00     0.146 A 
ATOM     11  O   UNL     1     -18.438  47.934  -3.818  1.00  0.00    -0.452 OA
ENDROOT
BRANCH   1  12
ATOM     12  C   UNL     1     -18.090  49.163  -5.862  1.00  0.00     0.025 A 
ATOM     13  C   UNL     1     -17.068  48.857  -6.774  1.00  0.00     0.016 A 
ATOM     14  C   UNL     1     -16.456  49.871  -7.517  1.00  0.00     0.051 A 
ATOM     15  C   UNL     1     -16.866  51.200  -7.372  1.00  0.00     0.157 A 
ATOM     16  C   UNL     1     -18.517  50.496  -5.734  1.00  0.00     0.062 A 
ATOM     17  C   UNL     1     -17.904  51.515  -6.480  1.00  0.00     0.158 A 
BRANCH  15  18
ATOM     18  O   UNL     1     -16.235  52.189  -8.125  1.00  0.00    -0.504 OA
ATOM     19  H   UNL     1     -15.305  52.524  -7.902  1.00  0.00     0.293 HD
ENDBRANCH  15  18
BRANCH  17  20
ATOM     20  O   UNL     1     -18.329  52.835  -6.342  1.00  0.00    -0.504 OA
ATOM     21  H   UNL     1     -17.881  53.474  -5.695  1.00  0.00     0.293 HD
ENDBRANCH  17  20
ENDBRANCH   1  12
BRANCH   2  22
ATOM     22  O   UNL     1     -20.014  47.347  -7.043  1.00  0.00    -0.502 OA
ATOM     23  H   UNL     1     -20.693  48.035  -7.348  1.00  0.00     0.293 HD
ENDBRANCH   2  22
BRANCH   6  24
ATOM     24  O   UNL     1     -21.472  44.203  -2.998  1.00  0.00    -0.507 OA
ATOM     25  H   UNL     1     -22.006  44.235  -3.852  1.00  0.00     0.293 HD
ENDBRANCH   6  24
BRANCH   8  26
ATOM     26  O   UNL     1     -18.596  45.881   0.460  1.00  0.00    -0.508 OA
ATOM     27  H   UNL     1     -18.285  46.709   0.953  1.00  0.00     0.293 HD
ENDBRANCH   8  26
TORSDOF 6
ENDMDL
MODEL 3
REMARK VINA RESULT:    -6.511     10.322     13.023
REMARK INTER + INTRA:          -8.092
REMARK INTER:                  -7.810
REMARK INTRA:                  -0.282
REMARK UNBOUND:                -0.249
REMARK SMILES O=c1c(O)c(-c2ccc(O)c(O)c2)oc2cc(O)cc(O)c12
REMARK SMILES IDX 5 1 3 2 2 3 1 4 22 5 20 6 19 7 17 8 16 9 15 10 14 11 6 12
REMARK SMILES IDX 7 13 8 14 9 15 13 16 11 17 10 18 12 20 4 22 21 24 18 26
REMARK H PARENT 10 19 12 21 4 23 21 25 18 27
REMARK Flexibility Score: inf
ROOT
ATOM      1  C   UNL     1     -29.202  47.775   1.633  1.00  0.00     0.180 A 
ATOM      2  C   UNL     1     -29.854  46.677   1.046  1.00  0.00     0.208 A 
ATOM      3  C   UNL     1     -30.315  45.638   1.870  1.00  0.00     0.238 A 
ATOM      4  O   UNL     1     -30.830  44.624   1.331  1.00  0.00    -0.285 OA
ATOM      5  C   UNL     1     -30.170  45.736   3.275  1.00  0.00     0.111 A 
ATOM      6  C   UNL     1     -30.641  44.763   4.210  1.00  0.00     0.134 A 
ATOM      7  C   UNL     1     -30.347  44.916   5.570  1.00  0.00     0.093 A 
ATOM      8  C   UNL     1     -29.655  46.035   6.038  1.00  0.00     0.123 A 
ATOM      9  C   UNL     1     -29.239  47.017   5.141  1.00  0.00     0.094 A 
ATOM     10  C   UNL     1     -29.484  46.875   3.773  1.00  0.00     0.146 A 
ATOM     11  O   UNL     1     -29.052  47.823   2.951  1.00  0.00    -0.452 OA
ENDROOT
BRANCH   1  12
ATOM     12  C   UNL     1     -28.676  48.901   0.828  1.00  0.00     0.025 A 
ATOM     13  C   UNL     1     -29.559  49.890   0.367  1.00  0.00     0.016 A 
ATOM     14  C   UNL     1     -29.082  50.975  -0.375  1.00  0.00     0.051 A 
ATOM     15  C   UNL     1     -27.717  51.094  -0.655  1.00  0.00     0.157 A 
ATOM     16  C   UNL     1     -27.301  49.035   0.566  1.00  0.00     0.062 A 
ATOM     17  C   UNL     1     -26.821  50.124  -0.179  1.00  0.00     0.158 A 
BRANCH  15  18
ATOM     18  O   UNL     1     -27.271  52.185  -1.399  1.00  0.00    -0.504 OA
ATOM     19  H   UNL     1     -27.522  52.311  -2.373  1.00  0.00     0.293 HD
ENDBRANCH  15  18
BRANCH  17  20
ATOM     20  O   UNL     1     -25.457  50.245  -0.439  1.00  0.00    -0.504 OA
ATOM     21  H   UNL     1     -24.772  50.270   0.308  1.00  0.00     0.293 HD
ENDBRANCH  17  20
ENDBRANCH   1  12
BRANCH   2  22
ATOM     22  O   UNL     1     -30.055  46.636  -0.338  1.00  0.00    -0.502 OA
ATOM     23  H   UNL     1     -30.390  47.435  -0.862  1.00  0.00     0.293 HD
ENDBRANCH   2  22
BRANCH   6  24
ATOM     24  O   UNL     1     -31.416  43.654   3.862  1.00  0.00    -0.507 OA
ATOM     25  H   UNL     1     -31.335  42.739   4.278  1.00  0.00     0.293 HD
ENDBRANCH   6  24
BRANCH   8  26
ATOM     26  O   UNL     1     -29.381  46.187   7.396  1.00  0.00    -0.508 OA
ATOM     27  H   UNL     1     -30.069  46.569   8.035  1.00  0.00     0.293 HD
ENDBRANCH   8  26
TORSDOF 6
ENDMDL
MODEL 4
REMARK VINA RESULT:    -6.332     10.425     12.851
REMARK INTER + INTRA:          -7.877
REMARK INTER:                  -8.174
REMARK INTRA:                   0.297
REMARK UNBOUND:                -0.249
REMARK SMILES O=c1c(O)c(-c2ccc(O)c(O)c2)oc2cc(O)cc(O)c12
REMARK SMILES IDX 5 1 3 2 2 3 1 4 22 5 20 6 19 7 17 8 16 9 15 10 14 11 6 12
REMARK SMILES IDX 7 13 8 14 9 15 13 16 11 17 10 18 12 20 4 22 21 24 18 26
REMARK H PARENT 10 19 12 21 4 23 21 25 18 27
REMARK Flexibility Score: inf
ROOT
ATOM      1  C   UNL     1     -29.526  47.584   1.340  1.00  0.00     0.180 A 
ATOM      2  C   UNL     1     -28.919  47.455   2.600  1.00  0.00     0.208 A 
ATOM      3  C   UNL     1     -29.444  46.531   3.518  1.00  0.00     0.238 A 
ATOM      4  O   UNL     1     -28.942  46.474   4.671  1.00  0.00    -0.285 OA
ATOM      5  C   UNL     1     -30.533  45.708   3.144  1.00  0.00     0.111 A 
ATOM      6  C   UNL     1     -31.117  44.705   3.978  1.00  0.00     0.134 A 
ATOM      7  C   UNL     1     -32.260  44.024   3.540  1.00  0.00     0.093 A 
ATOM      8  C   UNL     1     -32.803  44.264   2.276  1.00  0.00     0.123 A 
ATOM      9  C   UNL     1     -32.208  45.200   1.433  1.00  0.00     0.094 A 
ATOM     10  C   UNL     1     -31.090  45.923   1.855  1.00  0.00     0.146 A 
ATOM     11  O   UNL     1     -30.567  46.821   1.030  1.00  0.00    -0.452 OA
ENDROOT
BRANCH   1  12
ATOM     12  C   UNL     1     -29.039  48.547   0.325  1.00  0.00     0.025 A 
ATOM     13  C   UNL     1     -29.952  49.125  -0.571  1.00  0.00     0.016 A 
ATOM     14  C   UNL     1     -29.518  50.052  -1.522  1.00  0.00     0.051 A 
ATOM     15  C   UNL     1     -28.172  50.426  -1.583  1.00  0.00     0.157 A 
ATOM     16  C   UNL     1     -27.691  48.941   0.278  1.00  0.00     0.062 A 
ATOM     17  C   UNL     1     -27.254  49.873  -0.677  1.00  0.00     0.158 A 
BRANCH  15  18
ATOM     18  O   UNL     1     -27.770  51.352  -2.545  1.00  0.00    -0.504 OA
ATOM     19  H   UNL     1     -28.293  51.501  -3.400  1.00  0.00     0.293 HD
ENDBRANCH  15  18
BRANCH  17  20
ATOM     20  O   UNL     1     -25.914  50.254  -0.721  1.00  0.00    -0.504 OA
ATOM     21  H   UNL     1     -25.184  49.680  -0.314  1.00  0.00     0.293 HD
ENDBRANCH  17  20
ENDBRANCH   1  12
BRANCH   2  22
ATOM     22  O   UNL     1     -27.796  48.224   2.922  1.00  0.00    -0.502 OA
ATOM     23  H   UNL     1     -27.783  48.864   3.707  1.00  0.00     0.293 HD
ENDBRANCH   2  22
BRANCH   6  24
ATOM     24  O   UNL     1     -30.605  44.324   5.221  1.00  0.00    -0.507 OA
ATOM     25  H   UNL     1     -30.258  43.405   5.445  1.00  0.00     0.293 HD
ENDBRANCH   6  24
BRANCH   8  26
ATOM     26  O   UNL     1     -33.931  43.569   1.842  1.00  0.00    -0.508 OA
ATOM     27  H   UNL     1     -34.724  43.414   2.453  1.00  0.00     0.293 HD
ENDBRANCH   8  26
TORSDOF 6
ENDMDL
MODEL 5
REMARK VINA RESULT:    -6.331     10.622     13.894
REMARK INTER + INTRA:          -7.875
REMARK INTER:                  -7.544
REMARK INTRA:                  -0.331
REMARK UNBOUND:                -0.249
REMARK SMILES O=c1c(O)c(-c2ccc(O)c(O)c2)oc2cc(O)cc(O)c12
REMARK SMILES IDX 5 1 3 2 2 3 1 4 22 5 20 6 19 7 17 8 16 9 15 10 14 11 6 12
REMARK SMILES IDX 7 13 8 14 9 15 13 16 11 17 10 18 12 20 4 22 21 24 18 26
REMARK H PARENT 10 19 12 21 4 23 21 25 18 27
REMARK Flexibility Score: inf
ROOT
ATOM      1  C   UNL     1     -29.486  45.955   2.596  1.00  0.00     0.180 A 
ATOM      2  C   UNL     1     -30.339  44.995   3.166  1.00  0.00     0.208 A 
ATOM      3  C   UNL     1     -30.463  44.938   4.564  1.00  0.00     0.238 A 
ATOM      4  O   UNL     1     -31.170  44.028   5.070  1.00  0.00    -0.285 OA
ATOM      5  C   UNL     1     -29.777  45.878   5.370  1.00  0.00     0.111 A 
ATOM      6  C   UNL     1     -29.864  45.942   6.795  1.00  0.00     0.134 A 
ATOM      7  C   UNL     1     -29.057  46.847   7.496  1.00  0.00     0.093 A 
ATOM      8  C   UNL     1     -28.213  47.732   6.821  1.00  0.00     0.123 A 
ATOM      9  C   UNL     1     -28.161  47.715   5.429  1.00  0.00     0.094 A 
ATOM     10  C   UNL     1     -28.926  46.798   4.703  1.00  0.00     0.146 A 
ATOM     11  O   UNL     1     -28.830  46.801   3.380  1.00  0.00    -0.452 OA
ENDROOT
BRANCH   1  12
ATOM     12  C   UNL     1     -29.293  46.067   1.132  1.00  0.00     0.025 A 
ATOM     13  C   UNL     1     -30.081  46.968   0.400  1.00  0.00     0.016 A 
ATOM     14  C   UNL     1     -29.901  47.107  -0.980  1.00  0.00     0.051 A 
ATOM     15  C   UNL     1     -28.924  46.360  -1.644  1.00  0.00     0.157 A 
ATOM     16  C   UNL     1     -28.296  45.333   0.466  1.00  0.00     0.062 A 
ATOM     17  C   UNL     1     -28.113  45.472  -0.919  1.00  0.00     0.158 A 
BRANCH  15  18
ATOM     18  O   UNL     1     -28.770  46.518  -3.021  1.00  0.00    -0.504 OA
ATOM     19  H   UNL     1     -28.689  47.433  -3.451  1.00  0.00     0.293 HD
ENDBRANCH  15  18
BRANCH  17  20
ATOM     20  O   UNL     1     -27.126  44.735  -1.572  1.00  0.00    -0.504 OA
ATOM     21  H   UNL     1     -26.167  45.058  -1.621  1.00  0.00     0.293 HD
ENDBRANCH  17  20
ENDBRANCH   1  12
BRANCH   2  22
ATOM     22  O   UNL     1     -31.068  44.126   2.348  1.00  0.00    -0.502 OA
ATOM     23  H   UNL     1     -30.638  43.344   1.867  1.00  0.00     0.293 HD
ENDBRANCH   2  22
BRANCH   6  24
ATOM     24  O   UNL     1     -30.738  45.166   7.562  1.00  0.00    -0.507 OA
ATOM     25  H   UNL     1     -31.489  45.530   8.127  1.00  0.00     0.293 HD
ENDBRANCH   6  24
BRANCH   8  26
ATOM     26  O   UNL     1     -27.426  48.641   7.526  1.00  0.00    -0.508 OA
ATOM     27  H   UNL     1     -26.445  48.462   7.709  1.00  0.00     0.293 HD
ENDBRANCH   8  26
TORSDOF 6
ENDMDL
MODEL 6
REMARK VINA RESULT:    -6.282      1.765      2.428
REMARK INTER + INTRA:          -7.816
REMARK INTER:                  -7.485
REMARK INTRA:                  -0.331
REMARK UNBOUND:                -0.249
REMARK SMILES O=c1c(O)c(-c2ccc(O)c(O)c2)oc2cc(O)cc(O)c12
REMARK SMILES IDX 5 1 3 2 2 3 1 4 22 5 20 6 19 7 17 8 16 9 15 10 14 11 6 12
REMARK SMILES IDX 7 13 8 14 9 15 13 16 11 17 10 18 12 20 4 22 21 24 18 26
REMARK H PARENT 10 19 12 21 4 23 21 25 18 27
REMARK Flexibility Score: inf
ROOT
ATOM      1  C   UNL     1     -19.387  47.442  -5.639  1.00  0.00     0.180 A 
ATOM      2  C   UNL     1     -19.178  46.905  -4.357  1.00  0.00     0.208 A 
ATOM      3  C   UNL     1     -19.981  45.838  -3.926  1.00  0.00     0.238 A 
ATOM      4  O   UNL     1     -19.838  45.411  -2.750  1.00  0.00    -0.285 OA
ATOM      5  C   UNL     1     -20.946  45.283  -4.802  1.00  0.00     0.111 A 
ATOM      6  C   UNL     1     -21.785  44.171  -4.486  1.00  0.00     0.134 A 
ATOM      7  C   UNL     1     -22.777  43.776  -5.393  1.00  0.00     0.093 A 
ATOM      8  C   UNL     1     -22.919  44.412  -6.628  1.00  0.00     0.123 A 
ATOM      9  C   UNL     1     -22.070  45.462  -6.968  1.00  0.00     0.094 A 
ATOM     10  C   UNL     1     -21.095  45.904  -6.070  1.00  0.00     0.146 A 
ATOM     11  O   UNL     1     -20.321  46.922  -6.425  1.00  0.00    -0.452 OA
ENDROOT
BRANCH   1  12
ATOM     12  C   UNL     1     -18.589  48.576  -6.158  1.00  0.00     0.025 A 
ATOM     13  C   UNL     1     -17.477  48.320  -6.975  1.00  0.00     0.016 A 
ATOM     14  C   UNL     1     -16.722  49.376  -7.495  1.00  0.00     0.051 A 
ATOM     15  C   UNL     1     -17.076  50.700  -7.219  1.00  0.00     0.157 A 
ATOM     16  C   UNL     1     -18.956  49.909  -5.901  1.00  0.00     0.062 A 
ATOM     17  C   UNL     1     -18.200  50.970  -6.422  1.00  0.00     0.158 A 
BRANCH  15  18
ATOM     18  O   UNL     1     -16.302  51.732  -7.749  1.00  0.00    -0.504 OA
ATOM     19  H   UNL     1     -15.291  51.678  -7.793  1.00  0.00     0.293 HD
ENDBRANCH  15  18
BRANCH  17  20
ATOM     20  O   UNL     1     -18.568  52.288  -6.156  1.00  0.00    -0.504 OA
ATOM     21  H   UNL     1     -17.883  53.035  -6.123  1.00  0.00     0.293 HD
ENDBRANCH  17  20
ENDBRANCH   1  12
BRANCH   2  22
ATOM     22  O   UNL     1     -18.168  47.417  -3.536  1.00  0.00    -0.502 OA
ATOM     23  H   UNL     1     -17.815  48.362  -3.633  1.00  0.00     0.293 HD
ENDBRANCH   2  22
BRANCH   6  24
ATOM     24  O   UNL     1     -21.670  43.409  -3.320  1.00  0.00    -0.507 OA
ATOM     25  H   UNL     1     -21.409  42.436  -3.289  1.00  0.00     0.293 HD
ENDBRANCH   6  24
BRANCH   8  26
ATOM     26  O   UNL     1     -23.898  44.001  -7.531  1.00  0.00    -0.508 OA
ATOM     27  H   UNL     1     -23.791  44.143  -8.528  1.00  0.00     0.293 HD
ENDBRANCH   8  26
TORSDOF 6
ENDMDL
MODEL 7
REMARK VINA RESULT:    -6.168     10.736     14.673
REMARK INTER + INTRA:          -7.679
REMARK INTER:                  -7.711
REMARK INTRA:                   0.032
REMARK UNBOUND:                -0.249
REMARK SMILES O=c1c(O)c(-c2ccc(O)c(O)c2)oc2cc(O)cc(O)c12
REMARK SMILES IDX 5 1 3 2 2 3 1 4 22 5 20 6 19 7 17 8 16 9 15 10 14 11 6 12
REMARK SMILES IDX 7 13 8 14 9 15 13 16 11 17 10 18 12 20 4 22 21 24 18 26
REMARK H PARENT 10 19 12 21 4 23 21 25 18 27
REMARK Flexibility Score: inf
ROOT
ATOM      1  C   UNL     1     -30.010  47.793   2.007  1.00  0.00     0.180 A 
ATOM      2  C   UNL     1     -31.087  47.965   1.121  1.00  0.00     0.208 A 
ATOM      3  C   UNL     1     -30.923  48.799   0.003  1.00  0.00     0.238 A 
ATOM      4  O   UNL     1     -31.914  49.007  -0.744  1.00  0.00    -0.285 OA
ATOM      5  C   UNL     1     -29.668  49.406  -0.246  1.00  0.00     0.111 A 
ATOM      6  C   UNL     1     -29.376  50.234  -1.372  1.00  0.00     0.134 A 
ATOM      7  C   UNL     1     -28.129  50.866  -1.458  1.00  0.00     0.093 A 
ATOM      8  C   UNL     1     -27.144  50.651  -0.493  1.00  0.00     0.123 A 
ATOM      9  C   UNL     1     -27.399  49.802   0.581  1.00  0.00     0.094 A 
ATOM     10  C   UNL     1     -28.646  49.186   0.715  1.00  0.00     0.146 A 
ATOM     11  O   UNL     1     -28.855  48.401   1.765  1.00  0.00    -0.452 OA
ENDROOT
BRANCH   1  12
ATOM     12  C   UNL     1     -30.111  46.941   3.214  1.00  0.00     0.025 A 
ATOM     13  C   UNL     1     -29.735  47.465   4.461  1.00  0.00     0.016 A 
ATOM     14  C   UNL     1     -29.842  46.688   5.617  1.00  0.00     0.051 A 
ATOM     15  C   UNL     1     -30.340  45.383   5.547  1.00  0.00     0.157 A 
ATOM     16  C   UNL     1     -30.632  45.637   3.150  1.00  0.00     0.062 A 
ATOM     17  C   UNL     1     -30.742  44.855   4.310  1.00  0.00     0.158 A 
BRANCH  15  18
ATOM     18  O   UNL     1     -30.433  44.630   6.718  1.00  0.00    -0.504 OA
ATOM     19  H   UNL     1     -29.612  44.288   7.204  1.00  0.00     0.293 HD
ENDBRANCH  15  18
BRANCH  17  20
ATOM     20  O   UNL     1     -31.254  43.561   4.235  1.00  0.00    -0.504 OA
ATOM     21  H   UNL     1     -31.537  43.052   5.064  1.00  0.00     0.293 HD
ENDBRANCH  17  20
ENDBRANCH   1  12
BRANCH   2  22
ATOM     22  O   UNL     1     -32.294  47.295   1.343  1.00  0.00    -0.502 OA
ATOM     23  H   UNL     1     -32.739  46.727   0.632  1.00  0.00     0.293 HD
ENDBRANCH   2  22
BRANCH   6  24
ATOM     24  O   UNL     1     -30.255  50.446  -2.437  1.00  0.00    -0.507 OA
ATOM     25  H   UNL     1     -30.018  50.915  -3.298  1.00  0.00     0.293 HD
ENDBRANCH   6  24
BRANCH   8  26
ATOM     26  O   UNL     1     -25.900  51.272  -0.596  1.00  0.00    -0.508 OA
ATOM     27  H   UNL     1     -25.549  51.610  -1.484  1.00  0.00     0.293 HD
ENDBRANCH   8  26
TORSDOF 6
ENDMDL
MODEL 8
REMARK VINA RESULT:    -6.119     10.333     14.459
REMARK INTER + INTRA:          -7.619
REMARK INTER:                  -7.286
REMARK INTRA:                  -0.333
REMARK UNBOUND:                -0.249
REMARK SMILES O=c1c(O)c(-c2ccc(O)c(O)c2)oc2cc(O)cc(O)c12
REMARK SMILES IDX 5 1 3 2 2 3 1 4 22 5 20 6 19 7 17 8 16 9 15 10 14 11 6 12
REMARK SMILES IDX 7 13 8 14 9 15 13 16 11 17 10 18 12 20 4 22 21 24 18 26
REMARK H PARENT 10 19 12 21 4 23 21 25 18 27
REMARK Flexibility Score: inf
ROOT
ATOM      1  C   UNL     1     -29.619  46.735   3.125  1.00  0.00     0.180 A 
ATOM      2  C   UNL     1     -30.373  47.774   2.554  1.00  0.00     0.208 A 
ATOM      3  C   UNL     1     -30.291  47.994   1.169  1.00  0.00     0.238 A 
ATOM      4  O   UNL     1     -30.909  48.972   0.676  1.00  0.00    -0.285 OA
ATOM      5  C   UNL     1     -29.501  47.136   0.366  1.00  0.00     0.111 A 
ATOM      6  C   UNL     1     -29.380  47.237  -1.055  1.00  0.00     0.134 A 
ATOM      7  C   UNL     1     -28.486  46.399  -1.732  1.00  0.00     0.093 A 
ATOM      8  C   UNL     1     -27.756  45.422  -1.051  1.00  0.00     0.123 A 
ATOM      9  C   UNL     1     -27.908  45.278   0.326  1.00  0.00     0.094 A 
ATOM     10  C   UNL     1     -28.764  46.124   1.036  1.00  0.00     0.146 A 
ATOM     11  O   UNL     1     -28.863  45.968   2.350  1.00  0.00    -0.452 OA
ENDROOT
BRANCH   1  12
ATOM     12  C   UNL     1     -29.643  46.452   4.578  1.00  0.00     0.025 A 
ATOM     13  C   UNL     1     -30.518  45.474   5.076  1.00  0.00     0.016 A 
ATOM     14  C   UNL     1     -30.542  45.174   6.441  1.00  0.00     0.051 A 
ATOM     15  C   UNL     1     -29.684  45.834   7.325  1.00  0.00     0.157 A 
ATOM     16  C   UNL     1     -28.764  47.098   5.465  1.00  0.00     0.062 A 
ATOM     17  C   UNL     1     -28.787  46.798   6.836  1.00  0.00     0.158 A 
BRANCH  15  18
ATOM     18  O   UNL     1     -29.732  45.515   8.681  1.00  0.00    -0.504 OA
ATOM     19  H   UNL     1     -30.423  45.918   9.305  1.00  0.00     0.293 HD
ENDBRANCH  15  18
BRANCH  17  20
ATOM     20  O   UNL     1     -27.917  47.448   7.709  1.00  0.00    -0.504 OA
ATOM     21  H   UNL     1     -27.989  48.443   7.890  1.00  0.00     0.293 HD
ENDBRANCH  17  20
ENDBRANCH   1  12
BRANCH   2  22
ATOM     22  O   UNL     1     -31.206  48.562   3.354  1.00  0.00    -0.502 OA
ATOM     23  H   UNL     1     -31.166  48.540   4.366  1.00  0.00     0.293 HD
ENDBRANCH   2  22
BRANCH   6  24
ATOM     24  O   UNL     1     -30.126  48.117  -1.843  1.00  0.00    -0.507 OA
ATOM     25  H   UNL     1     -29.737  48.777  -2.499  1.00  0.00     0.293 HD
ENDBRANCH   6  24
BRANCH   8  26
ATOM     26  O   UNL     1     -26.882  44.580  -1.736  1.00  0.00    -0.508 OA
ATOM     27  H   UNL     1     -26.101  44.948  -2.267  1.00  0.00     0.293 HD
ENDBRANCH   8  26
TORSDOF 6
ENDMDL
MODEL 9
REMARK VINA RESULT:    -6.021     10.547     13.217
REMARK INTER + INTRA:          -7.502
REMARK INTER:                  -7.180
REMARK INTRA:                  -0.322
REMARK UNBOUND:                -0.249
REMARK SMILES O=c1c(O)c(-c2ccc(O)c(O)c2)oc2cc(O)cc(O)c12
REMARK SMILES IDX 5 1 3 2 2 3 1 4 22 5 20 6 19 7 17 8 16 9 15 10 14 11 6 12
REMARK SMILES IDX 7 13 8 14 9 15 13 16 11 17 10 18 12 20 4 22 21 24 18 26
REMARK H PARENT 10 19 12 21 4 23 21 25 18 27
REMARK Flexibility Score: inf
ROOT
ATOM      1  C   UNL     1     -28.552  47.232   2.466  1.00  0.00     0.180 A 
ATOM      2  C   UNL     1     -27.653  48.191   2.962  1.00  0.00     0.208 A 
ATOM      3  C   UNL     1     -27.543  48.368   4.350  1.00  0.00     0.238 A 
ATOM      4  O   UNL     1     -26.792  49.280   4.785  1.00  0.00    -0.285 OA
ATOM      5  C   UNL     1     -28.291  47.545   5.227  1.00  0.00     0.111 A 
ATOM      6  C   UNL     1     -28.224  47.606   6.653  1.00  0.00     0.134 A 
ATOM      7  C   UNL     1     -29.089  46.814   7.418  1.00  0.00     0.093 A 
ATOM      8  C   UNL     1     -29.973  45.919   6.812  1.00  0.00     0.123 A 
ATOM      9  C   UNL     1     -30.007  45.812   5.424  1.00  0.00     0.094 A 
ATOM     10  C   UNL     1     -29.184  46.616   4.631  1.00  0.00     0.146 A 
ATOM     11  O   UNL     1     -29.263  46.497   3.312  1.00  0.00    -0.452 OA
ENDROOT
BRANCH   1  12
ATOM     12  C   UNL     1     -28.733  46.998   1.015  1.00  0.00     0.025 A 
ATOM     13  C   UNL     1     -29.704  47.731   0.315  1.00  0.00     0.016 A 
ATOM     14  C   UNL     1     -29.878  47.544  -1.059  1.00  0.00     0.051 A 
ATOM     15  C   UNL     1     -29.077  46.633  -1.756  1.00  0.00     0.157 A 
ATOM     16  C   UNL     1     -27.913  46.100   0.309  1.00  0.00     0.062 A 
ATOM     17  C   UNL     1     -28.086  45.911  -1.071  1.00  0.00     0.158 A 
BRANCH  15  18
ATOM     18  O   UNL     1     -29.275  46.467  -3.125  1.00  0.00    -0.504 OA
ATOM     19  H   UNL     1     -29.983  45.842  -3.494  1.00  0.00     0.293 HD
ENDBRANCH  15  18
BRANCH  17  20
ATOM     20  O   UNL     1     -27.273  45.014  -1.761  1.00  0.00    -0.504 OA
ATOM     21  H   UNL     1     -26.754  44.288  -1.281  1.00  0.00     0.293 HD
ENDBRANCH  17  20
ENDBRANCH   1  12
BRANCH   2  22
ATOM     22  O   UNL     1     -26.867  48.941   2.081  1.00  0.00    -0.502 OA
ATOM     23  H   UNL     1     -26.188  48.515   1.462  1.00  0.00     0.293 HD
ENDBRANCH   2  22
BRANCH   6  24
ATOM     24  O   UNL     1     -27.318  48.400   7.361  1.00  0.00    -0.507 OA
ATOM     25  H   UNL     1     -26.373  48.133   7.592  1.00  0.00     0.293 HD
ENDBRANCH   6  24
BRANCH   8  26
ATOM     26  O   UNL     1     -30.818  45.122   7.583  1.00  0.00    -0.508 OA
ATOM     27  H   UNL     1     -30.765  44.111   7.553  1.00  0.00     0.293 HD
ENDBRANCH   8  26
TORSDOF 6
ENDMDL
