MODEL 1
REMARK VINA RESULT:    -4.076      0.000      0.000
REMARK INTER + INTRA:          -8.776
REMARK INTER:                  -7.411
REMARK INTRA:                  -1.364
REMARK UNBOUND:                -1.364
REMARK SMILES CCCCCCCCCCCCCCCC(=O)[O-]
REMARK SMILES IDX 9 1 10 2 11 3 12 4 13 5 14 6 15 7 16 8 17 9 18 10 8 11 7 12
REMARK SMILES IDX 6 13 5 14 4 15 3 16 2 17 1 18
REMARK H PARENT
REMARK Flexibility Score: inf
ROOT
ATOM      1  C   UNL     1       3.574  -4.416   7.085  1.00  0.00     0.000 C 
ENDROOT
BRANCH   1   2
ATOM      2  C   UNL     1       3.881  -5.869   6.691  1.00  0.00     0.000 C 
BRANCH   2   3
ATOM      3  C   UNL     1       3.525  -6.174   5.226  1.00  0.00     0.000 C 
BRANCH   3   4
ATOM      4  C   UNL     1       3.848  -7.626   4.830  1.00  0.00     0.000 C 
BRANCH   4   5
ATOM      5  C   UNL     1       2.626  -8.370   4.269  1.00  0.00     0.000 C 
BRANCH   5   6
ATOM      6  C   UNL     1       1.299  -7.674   4.605  1.00  0.00     0.006 C 
BRANCH   6   7
ATOM      7  C   UNL     1       0.119  -8.641   4.459  1.00  0.00     0.053 C 
BRANCH   7   8
ATOM      8  C   UNL     1      -1.173  -7.889   4.412  1.00  0.00     0.041 C 
ATOM      9  O   UNL     1      -1.849  -7.857   3.351  1.00  0.00    -0.550 OA
ATOM     10  O   UNL     1      -1.603  -7.175   5.524  1.00  0.00    -0.550 OA
ENDBRANCH   7   8
ENDBRANCH   6   7
ENDBRANCH   5   6
ENDBRANCH   4   5
ENDBRANCH   3   4
ENDBRANCH   2   3
ENDBRANCH   1   2
BRANCH   1  11
ATOM     11  C   UNL     1       3.120  -3.603   5.861  1.00  0.00     0.000 C 
BRANCH  11  12
ATOM     12  C   UNL     1       3.831  -2.244   5.756  1.00  0.00    -0.000 C 
BRANCH  12  13
ATOM     13  C   UNL     1       4.915  -2.225   4.667  1.00  0.00    -0.000 C 
BRANCH  13  14
ATOM     14  C   UNL     1       6.194  -2.924   5.153  1.00  0.00    -0.000 C 
BRANCH  14  15
ATOM     15  C   UNL     1       6.475  -4.244   4.411  1.00  0.00    -0.000 C 
BRANCH  15  16
ATOM     16  C   UNL     1       7.902  -4.382   3.845  1.00  0.00    -0.000 C 
BRANCH  16  17
ATOM     17  C   UNL     1       8.085  -5.644   2.989  1.00  0.00    -0.003 C 
ATOM     18  C   UNL     1       6.999  -6.675   3.290  1.00  0.00     0.004 C 
ENDBRANCH  16  17
ENDBRANCH  15  16
ENDBRANCH  14  15
ENDBRANCH  13  14
ENDBRANCH  12  13
ENDBRANCH  11  12
ENDBRANCH   1  11
TORSDOF 14
ENDMDL
MODEL 2
REMARK VINA RESULT:    -4.009      1.223      2.783
REMARK INTER + INTRA:          -8.654
REMARK INTER:                  -7.111
REMARK INTRA:                  -1.543
REMARK UNBOUND:                -1.364
REMARK SMILES CCCCCCCCCCCCCCCC(=O)[O-]
REMARK SMILES IDX 9 1 10 2 11 3 12 4 13 5 14 6 15 7 16 8 17 9 18 10 8 11 7 12
REMARK SMILES IDX 6 13 5 14 4 15 3 16 2 17 1 18
REMARK H PARENT
REMARK Flexibility Score: inf
ROOT
ATOM      1  C   UNL     1       3.887  -7.391   5.535  1.00  0.00     0.000 C 
ENDROOT
BRANCH   1   2
ATOM      2  C   UNL     1       4.900  -7.881   4.490  1.00  0.00     0.000 C 
BRANCH   2   3
ATOM      3  C   UNL     1       4.320  -8.964   3.564  1.00  0.00     0.000 C 
BRANCH   3   4
ATOM      4  C   UNL     1       3.289  -9.859   4.274  1.00  0.00     0.000 C 
BRANCH   4   5
ATOM      5  C   UNL     1       1.889  -9.760   3.648  1.00  0.00     0.000 C 
BRANCH   5   6
ATOM      6  C   UNL     1       0.801  -9.415   4.675  1.00  0.00     0.006 C 
BRANCH   6   7
ATOM      7  C   UNL     1       0.183  -8.045   4.382  1.00  0.00     0.053 C 
BRANCH   7   8
ATOM      8  C   UNL     1      -1.310  -8.136   4.359  1.00  0.00     0.041 C 
ATOM      9  O   UNL     1      -1.929  -8.637   5.334  1.00  0.00    -0.550 OA
ATOM     10  O   UNL     1      -2.015  -7.718   3.237  1.00  0.00    -0.550 OA
ENDBRANCH   7   8
ENDBRANCH   6   7
ENDBRANCH   5   6
ENDBRANCH   4   5
ENDBRANCH   3   4
ENDBRANCH   2   3
ENDBRANCH   1   2
BRANCH   1  11
ATOM     11  C   UNL     1       3.716  -5.865   5.455  1.00  0.00     0.000 C 
BRANCH  11  12
ATOM     12  C   UNL     1       2.312  -5.403   5.878  1.00  0.00    -0.000 C 
BRANCH  12  13
ATOM     13  C   UNL     1       2.151  -3.876   5.828  1.00  0.00    -0.000 C 
BRANCH  13  14
ATOM     14  C   UNL     1       3.478  -3.172   6.151  1.00  0.00    -0.000 C 
BRANCH  14  15
ATOM     15  C   UNL     1       3.839  -2.074   5.132  1.00  0.00    -0.000 C 
BRANCH  15  16
ATOM     16  C   UNL     1       5.192  -2.265   4.421  1.00  0.00    -0.000 C 
BRANCH  16  17
ATOM     17  C   UNL     1       6.169  -3.142   5.220  1.00  0.00    -0.003 C 
ATOM     18  C   UNL     1       6.811  -4.200   4.327  1.00  0.00     0.004 C 
ENDBRANCH  16  17
ENDBRANCH  15  16
ENDBRANCH  14  15
ENDBRANCH  13  14
ENDBRANCH  12  13
ENDBRANCH  11  12
ENDBRANCH   1  11
TORSDOF 14
ENDMDL
MODEL 3
REMARK VINA RESULT:    -3.945      1.105      3.310
REMARK INTER + INTRA:          -8.537
REMARK INTER:                  -7.224
REMARK INTRA:                  -1.313
REMARK UNBOUND:                -1.364
REMARK SMILES CCCCCCCCCCCCCCCC(=O)[O-]
REMARK SMILES IDX 9 1 10 2 11 3 12 4 13 5 14 6 15 7 16 8 17 9 18 10 8 11 7 12
REMARK SMILES IDX 6 13 5 14 4 15 3 16 2 17 1 18
REMARK H PARENT
REMARK Flexibility Score: inf
ROOT
ATOM      1  C   UNL     1       6.423  -7.141   4.007  1.00  0.00     0.000 C 
ENDROOT
BRANCH   1   2
ATOM      2  C   UNL     1       5.466  -8.229   4.516  1.00  0.00     0.000 C 
BRANCH   2   3
ATOM      3  C   UNL     1       4.968  -9.154   3.393  1.00  0.00     0.000 C 
BRANCH   3   4
ATOM      4  C   UNL     1       3.445  -9.366   3.432  1.00  0.00     0.000 C 
BRANCH   4   5
ATOM      5  C   UNL     1       2.713  -8.256   4.203  1.00  0.00     0.000 C 
BRANCH   5   6
ATOM      6  C   UNL     1       1.229  -8.573   4.438  1.00  0.00     0.006 C 
BRANCH   6   7
ATOM      7  C   UNL     1       0.465  -7.324   4.889  1.00  0.00     0.053 C 
BRANCH   7   8
ATOM      8  C   UNL     1      -1.010  -7.537   4.764  1.00  0.00     0.041 C 
ATOM      9  O   UNL     1      -1.506  -7.908   3.668  1.00  0.00    -0.550 OA
ATOM     10  O   UNL     1      -1.845  -7.273   5.842  1.00  0.00    -0.550 OA
ENDBRANCH   7   8
ENDBRANCH   6   7
ENDBRANCH   5   6
ENDBRANCH   4   5
ENDBRANCH   3   4
ENDBRANCH   2   3
ENDBRANCH   1   2
BRANCH   1  11
ATOM     11  C   UNL     1       6.130  -5.794   4.688  1.00  0.00     0.000 C 
BRANCH  11  12
ATOM     12  C   UNL     1       6.895  -4.626   4.046  1.00  0.00    -0.000 C 
BRANCH  12  13
ATOM     13  C   UNL     1       7.415  -3.618   5.082  1.00  0.00    -0.000 C 
BRANCH  13  14
ATOM     14  C   UNL     1       6.255  -2.843   5.726  1.00  0.00    -0.000 C 
BRANCH  14  15
ATOM     15  C   UNL     1       5.293  -2.231   4.690  1.00  0.00    -0.000 C 
BRANCH  15  16
ATOM     16  C   UNL     1       3.802  -2.291   5.070  1.00  0.00    -0.000 C 
BRANCH  16  17
ATOM     17  C   UNL     1       3.529  -3.198   6.280  1.00  0.00    -0.003 C 
ATOM     18  C   UNL     1       2.837  -4.490   5.853  1.00  0.00     0.004 C 
ENDBRANCH  16  17
ENDBRANCH  15  16
ENDBRANCH  14  15
ENDBRANCH  13  14
ENDBRANCH  12  13
ENDBRANCH  11  12
ENDBRANCH   1  11
TORSDOF 14
ENDMDL
MODEL 4
REMARK VINA RESULT:    -3.864      8.880     11.903
REMARK INTER + INTRA:          -8.391
REMARK INTER:                  -6.876
REMARK INTRA:                  -1.514
REMARK UNBOUND:                -1.364
REMARK SMILES CCCCCCCCCCCCCCCC(=O)[O-]
REMARK SMILES IDX 9 1 10 2 11 3 12 4 13 5 14 6 15 7 16 8 17 9 18 10 8 11 7 12
REMARK SMILES IDX 6 13 5 14 4 15 3 16 2 17 1 18
REMARK H PARENT
REMARK Flexibility Score: inf
ROOT
ATOM      1  C   UNL     1       3.609   4.347   4.816  1.00  0.00     0.000 C 
ENDROOT
BRANCH   1   2
ATOM      2  C   UNL     1       4.408   5.285   5.732  1.00  0.00     0.000 C 
BRANCH   2   3
ATOM      3  C   UNL     1       3.743   6.662   5.896  1.00  0.00     0.000 C 
BRANCH   3   4
ATOM      4  C   UNL     1       2.694   6.683   7.021  1.00  0.00     0.000 C 
BRANCH   4   5
ATOM      5  C   UNL     1       2.401   8.103   7.531  1.00  0.00     0.000 C 
BRANCH   5   6
ATOM      6  C   UNL     1       1.065   8.657   7.014  1.00  0.00     0.006 C 
BRANCH   6   7
ATOM      7  C   UNL     1      -0.106   7.784   7.476  1.00  0.00     0.053 C 
BRANCH   7   8
ATOM      8  C   UNL     1      -1.394   8.295   6.914  1.00  0.00     0.041 C 
ATOM      9  O   UNL     1      -1.719   9.502   7.069  1.00  0.00    -0.550 OA
ATOM     10  O   UNL     1      -2.264   7.427   6.266  1.00  0.00    -0.550 OA
ENDBRANCH   7   8
ENDBRANCH   6   7
ENDBRANCH   5   6
ENDBRANCH   4   5
ENDBRANCH   3   4
ENDBRANCH   2   3
ENDBRANCH   1   2
BRANCH   1  11
ATOM     11  C   UNL     1       3.300   3.020   5.529  1.00  0.00     0.000 C 
BRANCH  11  12
ATOM     12  C   UNL     1       3.728   3.027   7.005  1.00  0.00    -0.000 C 
BRANCH  12  13
ATOM     13  C   UNL     1       4.139   1.635   7.509  1.00  0.00    -0.000 C 
BRANCH  13  14
ATOM     14  C   UNL     1       3.982   0.581   6.402  1.00  0.00    -0.000 C 
BRANCH  14  15
ATOM     15  C   UNL     1       5.327  -0.016   5.945  1.00  0.00    -0.000 C 
BRANCH  15  16
ATOM     16  C   UNL     1       6.571   0.798   6.349  1.00  0.00    -0.000 C 
BRANCH  16  17
ATOM     17  C   UNL     1       7.046   1.752   5.242  1.00  0.00    -0.003 C 
ATOM     18  C   UNL     1       7.392   3.125   5.813  1.00  0.00     0.004 C 
ENDBRANCH  16  17
ENDBRANCH  15  16
ENDBRANCH  14  15
ENDBRANCH  13  14
ENDBRANCH  12  13
ENDBRANCH  11  12
ENDBRANCH   1  11
TORSDOF 14
ENDMDL
MODEL 5
REMARK VINA RESULT:    -3.818      3.259      5.731
REMARK INTER + INTRA:          -8.308
REMARK INTER:                  -6.567
REMARK INTRA:                  -1.740
REMARK UNBOUND:                -1.364
REMARK SMILES CCCCCCCCCCCCCCCC(=O)[O-]
REMARK SMILES IDX 9 1 10 2 11 3 12 4 13 5 14 6 15 7 16 8 17 9 18 10 8 11 7 12
REMARK SMILES IDX 6 13 5 14 4 15 3 16 2 17 1 18
REMARK H PARENT
REMARK Flexibility Score: inf
ROOT
ATOM      1  C   UNL     1       1.702  -7.469   4.742  1.00  0.00     0.000 C 
ENDROOT
BRANCH   1   2
ATOM      2  C   UNL     1       2.076  -7.556   6.229  1.00  0.00     0.000 C 
BRANCH   2   3
ATOM      3  C   UNL     1       2.700  -6.255   6.761  1.00  0.00     0.000 C 
BRANCH   3   4
ATOM      4  C   UNL     1       2.623  -5.103   5.744  1.00  0.00     0.000 C 
BRANCH   4   5
ATOM      5  C   UNL     1       2.295  -3.754   6.403  1.00  0.00     0.000 C 
BRANCH   5   6
ATOM      6  C   UNL     1       3.476  -2.772   6.368  1.00  0.00     0.006 C 
BRANCH   6   7
ATOM      7  C   UNL     1       4.650  -3.353   5.574  1.00  0.00     0.053 C 
BRANCH   7   8
ATOM      8  C   UNL     1       5.227  -2.320   4.660  1.00  0.00     0.041 C 
ATOM      9  O   UNL     1       6.459  -2.060   4.694  1.00  0.00    -0.550 OA
ATOM     10  O   UNL     1       4.396  -1.603   3.808  1.00  0.00    -0.550 OA
ENDBRANCH   7   8
ENDBRANCH   6   7
ENDBRANCH   5   6
ENDBRANCH   4   5
ENDBRANCH   3   4
ENDBRANCH   2   3
ENDBRANCH   1   2
BRANCH   1  11
ATOM     11  C   UNL     1       1.879  -8.832   4.054  1.00  0.00     0.000 C 
BRANCH  11  12
ATOM     12  C   UNL     1       3.259  -9.456   4.320  1.00  0.00    -0.000 C 
BRANCH  12  13
ATOM     13  C   UNL     1       4.243  -9.232   3.162  1.00  0.00    -0.000 C 
BRANCH  13  14
ATOM     14  C   UNL     1       5.618  -8.789   3.686  1.00  0.00    -0.000 C 
BRANCH  14  15
ATOM     15  C   UNL     1       5.522  -7.741   4.810  1.00  0.00    -0.000 C 
BRANCH  15  16
ATOM     16  C   UNL     1       6.131  -6.366   4.473  1.00  0.00    -0.000 C 
BRANCH  16  17
ATOM     17  C   UNL     1       7.120  -6.422   3.298  1.00  0.00    -0.003 C 
ATOM     18  C   UNL     1       8.010  -5.182   3.271  1.00  0.00     0.004 C 
ENDBRANCH  16  17
ENDBRANCH  15  16
ENDBRANCH  14  15
ENDBRANCH  13  14
ENDBRANCH  12  13
ENDBRANCH  11  12
ENDBRANCH   1  11
TORSDOF 14
ENDMDL
MODEL 6
REMARK VINA RESULT:    -3.812      3.322      6.923
REMARK INTER + INTRA:          -8.296
REMARK INTER:                  -6.501
REMARK INTRA:                  -1.795
REMARK UNBOUND:                -1.364
REMARK SMILES CCCCCCCCCCCCCCCC(=O)[O-]
REMARK SMILES IDX 9 1 10 2 11 3 12 4 13 5 14 6 15 7 16 8 17 9 18 10 8 11 7 12
REMARK SMILES IDX 6 13 5 14 4 15 3 16 2 17 1 18
REMARK H PARENT
REMARK Flexibility Score: inf
ROOT
ATOM      1  C   UNL     1       5.796  -8.691   4.892  1.00  0.00     0.000 C 
ENDROOT
BRANCH   1   2
ATOM      2  C   UNL     1       6.568  -7.366   4.978  1.00  0.00     0.000 C 
BRANCH   2   3
ATOM      3  C   UNL     1       6.819  -6.735   3.599  1.00  0.00     0.000 C 
BRANCH   3   4
ATOM      4  C   UNL     1       7.252  -5.261   3.692  1.00  0.00     0.000 C 
BRANCH   4   5
ATOM      5  C   UNL     1       7.346  -4.763   5.143  1.00  0.00     0.000 C 
BRANCH   5   6
ATOM      6  C   UNL     1       7.108  -3.251   5.269  1.00  0.00     0.006 C 
BRANCH   6   7
ATOM      7  C   UNL     1       5.614  -2.942   5.414  1.00  0.00     0.053 C 
BRANCH   7   8
ATOM      8  C   UNL     1       5.261  -1.699   4.660  1.00  0.00     0.041 C 
ATOM      9  O   UNL     1       6.031  -0.703   4.685  1.00  0.00    -0.550 OA
ATOM     10  O   UNL     1       4.055  -1.620   3.975  1.00  0.00    -0.550 OA
ENDBRANCH   7   8
ENDBRANCH   6   7
ENDBRANCH   5   6
ENDBRANCH   4   5
ENDBRANCH   3   4
ENDBRANCH   2   3
ENDBRANCH   1   2
BRANCH   1  11
ATOM     11  C   UNL     1       5.327  -8.957   3.453  1.00  0.00     0.000 C 
BRANCH  11  12
ATOM     12  C   UNL     1       3.849  -9.374   3.378  1.00  0.00    -0.000 C 
BRANCH  12  13
ATOM     13  C   UNL     1       3.381 -10.125   4.634  1.00  0.00    -0.000 C 
BRANCH  13  14
ATOM     14  C   UNL     1       2.157  -9.440   5.260  1.00  0.00    -0.000 C 
BRANCH  14  15
ATOM     15  C   UNL     1       1.532  -8.372   4.343  1.00  0.00    -0.000 C 
BRANCH  15  16
ATOM     16  C   UNL     1       1.264  -7.012   5.016  1.00  0.00    -0.000 C 
BRANCH  16  17
ATOM     17  C   UNL     1       2.276  -6.683   6.123  1.00  0.00    -0.003 C 
ATOM     18  C   UNL     1       3.429  -5.842   5.580  1.00  0.00     0.004 C 
ENDBRANCH  16  17
ENDBRANCH  15  16
ENDBRANCH  14  15
ENDBRANCH  13  14
ENDBRANCH  12  13
ENDBRANCH  11  12
ENDBRANCH   1  11
TORSDOF 14
ENDMDL
MODEL 7
REMARK VINA RESULT:    -3.800      3.873      6.502
REMARK INTER + INTRA:          -8.274
REMARK INTER:                  -6.192
REMARK INTRA:                  -2.081
REMARK UNBOUND:                -1.364
REMARK SMILES CCCCCCCCCCCCCCCC(=O)[O-]
REMARK SMILES IDX 9 1 10 2 11 3 12 4 13 5 14 6 15 7 16 8 17 9 18 10 8 11 7 12
REMARK SMILES IDX 6 13 5 14 4 15 3 16 2 17 1 18
REMARK H PARENT
REMARK Flexibility Score: inf
ROOT
ATOM      1  C   UNL     1       2.285  -8.565   3.957  1.00  0.00     0.000 C 
ENDROOT
BRANCH   1   2
ATOM      2  C   UNL     1       3.413  -9.439   4.526  1.00  0.00     0.000 C 
BRANCH   2   3
ATOM      3  C   UNL     1       4.789  -9.094   3.931  1.00  0.00     0.000 C 
BRANCH   3   4
ATOM      4  C   UNL     1       5.922  -9.185   4.968  1.00  0.00     0.000 C 
BRANCH   4   5
ATOM      5  C   UNL     1       6.724  -7.879   5.084  1.00  0.00     0.000 C 
BRANCH   5   6
ATOM      6  C   UNL     1       6.521  -6.948   3.880  1.00  0.00     0.006 C 
BRANCH   6   7
ATOM      7  C   UNL     1       7.128  -5.566   4.147  1.00  0.00     0.053 C 
BRANCH   7   8
ATOM      8  C   UNL     1       8.064  -5.183   3.046  1.00  0.00     0.041 C 
ATOM      9  O   UNL     1       8.823  -4.187   3.176  1.00  0.00    -0.550 OA
ATOM     10  O   UNL     1       8.062  -5.895   1.852  1.00  0.00    -0.550 OA
ENDBRANCH   7   8
ENDBRANCH   6   7
ENDBRANCH   5   6
ENDBRANCH   4   5
ENDBRANCH   3   4
ENDBRANCH   2   3
ENDBRANCH   1   2
BRANCH   1  11
ATOM     11  C   UNL     1       1.895  -7.461   4.952  1.00  0.00     0.000 C 
BRANCH  11  12
ATOM     12  C   UNL     1       2.552  -7.646   6.330  1.00  0.00    -0.000 C 
BRANCH  12  13
ATOM     13  C   UNL     1       3.622  -6.584   6.624  1.00  0.00    -0.000 C 
BRANCH  13  14
ATOM     14  C   UNL     1       3.554  -5.437   5.603  1.00  0.00    -0.000 C 
BRANCH  14  15
ATOM     15  C   UNL     1       3.650  -4.046   6.256  1.00  0.00    -0.000 C 
BRANCH  15  16
ATOM     16  C   UNL     1       2.301  -3.332   6.472  1.00  0.00    -0.000 C 
BRANCH  16  17
ATOM     17  C   UNL     1       1.178  -3.898   5.589  1.00  0.00    -0.003 C 
ATOM     18  C   UNL     1      -0.084  -4.160   6.407  1.00  0.00     0.004 C 
ENDBRANCH  16  17
ENDBRANCH  15  16
ENDBRANCH  14  15
ENDBRANCH  13  14
ENDBRANCH  12  13
ENDBRANCH  11  12
ENDBRANCH   1  11
TORSDOF 14
ENDMDL
MODEL 8
REMARK VINA RESULT:    -3.769      3.235      6.423
REMARK INTER + INTRA:          -8.217
REMARK INTER:                  -6.489
REMARK INTRA:                  -1.728
REMARK UNBOUND:                -1.364
REMARK SMILES CCCCCCCCCCCCCCCC(=O)[O-]
REMARK SMILES IDX 9 1 10 2 11 3 12 4 13 5 14 6 15 7 16 8 17 9 18 10 8 11 7 12
REMARK SMILES IDX 6 13 5 14 4 15 3 16 2 17 1 18
REMARK H PARENT
REMARK Flexibility Score: inf
ROOT
ATOM      1  C   UNL     1       7.601  -5.417   3.467  1.00  0.00     0.000 C 
ENDROOT
BRANCH   1   2
ATOM      2  C   UNL     1       8.109  -5.044   4.868  1.00  0.00     0.000 C 
BRANCH   2   3
ATOM      3  C   UNL     1       7.693  -3.625   5.291  1.00  0.00     0.000 C 
BRANCH   3   4
ATOM      4  C   UNL     1       6.910  -3.609   6.616  1.00  0.00     0.000 C 
BRANCH   4   5
ATOM      5  C   UNL     1       5.634  -4.465   6.559  1.00  0.00     0.000 C 
BRANCH   5   6
ATOM      6  C   UNL     1       4.663  -4.012   5.457  1.00  0.00     0.006 C 
BRANCH   6   7
ATOM      7  C   UNL     1       3.932  -2.729   5.864  1.00  0.00     0.053 C 
BRANCH   7   8
ATOM      8  C   UNL     1       4.385  -1.578   5.022  1.00  0.00     0.041 C 
ATOM      9  O   UNL     1       4.993  -1.786   3.939  1.00  0.00    -0.550 OA
ATOM     10  O   UNL     1       4.185  -0.275   5.459  1.00  0.00    -0.550 OA
ENDBRANCH   7   8
ENDBRANCH   6   7
ENDBRANCH   5   6
ENDBRANCH   4   5
ENDBRANCH   3   4
ENDBRANCH   2   3
ENDBRANCH   1   2
BRANCH   1  11
ATOM     11  C   UNL     1       6.817  -6.740   3.506  1.00  0.00     0.000 C 
BRANCH  11  12
ATOM     12  C   UNL     1       6.775  -7.363   4.910  1.00  0.00    -0.000 C 
BRANCH  12  13
ATOM     13  C   UNL     1       5.974  -8.674   4.953  1.00  0.00    -0.000 C 
BRANCH  13  14
ATOM     14  C   UNL     1       5.086  -8.815   3.708  1.00  0.00    -0.000 C 
BRANCH  14  15
ATOM     15  C   UNL     1       3.584  -8.678   4.023  1.00  0.00    -0.000 C 
BRANCH  15  16
ATOM     16  C   UNL     1       3.169  -7.331   4.643  1.00  0.00    -0.000 C 
BRANCH  16  17
ATOM     17  C   UNL     1       1.734  -7.342   5.192  1.00  0.00    -0.003 C 
ATOM     18  C   UNL     1       0.849  -8.295   4.394  1.00  0.00     0.004 C 
ENDBRANCH  16  17
ENDBRANCH  15  16
ENDBRANCH  14  15
ENDBRANCH  13  14
ENDBRANCH  12  13
ENDBRANCH  11  12
ENDBRANCH   1  11
TORSDOF 14
ENDMDL
MODEL 9
REMARK VINA RESULT:    -3.756      3.603      5.851
REMARK INTER + INTRA:          -8.194
REMARK INTER:                  -6.121
REMARK INTRA:                  -2.074
REMARK UNBOUND:                -1.364
REMARK SMILES CCCCCCCCCCCCCCCC(=O)[O-]
REMARK SMILES IDX 9 1 10 2 11 3 12 4 13 5 14 6 15 7 16 8 17 9 18 10 8 11 7 12
REMARK SMILES IDX 6 13 5 14 4 15 3 16 2 17 1 18
REMARK H PARENT
REMARK Flexibility Score: inf
ROOT
ATOM      1  C   UNL     1       0.408  -7.043   5.109  1.00  0.00     0.000 C 
ENDROOT
BRANCH   1   2
ATOM      2  C   UNL     1       0.037  -5.942   6.113  1.00  0.00     0.000 C 
BRANCH   2   3
ATOM      3  C   UNL     1       0.855  -4.655   5.912  1.00  0.00     0.000 C 
BRANCH   3   4
ATOM      4  C   UNL     1       1.549  -4.188   7.204  1.00  0.00     0.000 C 
BRANCH   4   5
ATOM      5  C   UNL     1       2.554  -3.052   6.957  1.00  0.00     0.000 C 
BRANCH   5   6
ATOM      6  C   UNL     1       3.171  -3.098   5.551  1.00  0.00     0.006 C 
BRANCH   6   7
ATOM      7  C   UNL     1       4.671  -2.791   5.599  1.00  0.00     0.053 C 
BRANCH   7   8
ATOM      8  C   UNL     1       4.937  -1.401   5.115  1.00  0.00     0.041 C 
ATOM      9  O   UNL     1       5.923  -1.169   4.367  1.00  0.00    -0.550 OA
ATOM     10  O   UNL     1       4.128  -0.352   5.533  1.00  0.00    -0.550 OA
ENDBRANCH   7   8
ENDBRANCH   6   7
ENDBRANCH   5   6
ENDBRANCH   4   5
ENDBRANCH   3   4
ENDBRANCH   2   3
ENDBRANCH   1   2
BRANCH   1  11
ATOM     11  C   UNL     1       1.932  -7.116   4.917  1.00  0.00     0.000 C 
BRANCH  11  12
ATOM     12  C   UNL     1       2.656  -7.705   6.138  1.00  0.00    -0.000 C 
BRANCH  12  13
ATOM     13  C   UNL     1       3.982  -6.991   6.442  1.00  0.00    -0.000 C 
BRANCH  13  14
ATOM     14  C   UNL     1       4.637  -6.475   5.152  1.00  0.00    -0.000 C 
BRANCH  14  15
ATOM     15  C   UNL     1       5.849  -7.320   4.715  1.00  0.00    -0.000 C 
BRANCH  15  16
ATOM     16  C   UNL     1       5.601  -8.236   3.501  1.00  0.00    -0.000 C 
BRANCH  16  17
ATOM     17  C   UNL     1       4.998  -9.594   3.891  1.00  0.00    -0.003 C 
ATOM     18  C   UNL     1       3.687  -9.846   3.150  1.00  0.00     0.004 C 
ENDBRANCH  16  17
ENDBRANCH  15  16
ENDBRANCH  14  15
ENDBRANCH  13  14
ENDBRANCH  12  13
ENDBRANCH  11  12
ENDBRANCH   1  11
TORSDOF 14
ENDMDL
