MODEL 1
REMARK VINA RESULT:     9.924      0.000      0.000
REMARK INTER + INTRA:          25.704
REMARK INTER:                  25.007
REMARK INTRA:                   0.697
REMARK UNBOUND:                 0.697
REMARK SMILES CCCCCCCCCCCCCCCCCCCCCCCCCCCC(=O)[O-]
REMARK SMILES IDX 15 1 16 2 17 3 18 4 19 5 20 6 21 7 22 8 23 9 24 10 25 11
REMARK SMILES IDX 26 12 27 13 28 14 29 15 30 16 14 17 13 18 12 19 11 20 10 21
REMARK SMILES IDX 9 22 8 23 7 24 6 25 5 26 4 27 3 28 2 29 1 30
REMARK H PARENT
REMARK Flexibility Score: inf
ROOT
ATOM      1  C   UNL     1      -8.550  14.245 -14.496  1.00  0.00     0.000 C 
ENDROOT
BRANCH   1   2
ATOM      2  C   UNL     1      -8.104  12.791 -14.265  1.00  0.00     0.000 C 
BRANCH   2   3
ATOM      3  C   UNL     1      -6.795  12.453 -14.998  1.00  0.00     0.000 C 
BRANCH   3   4
ATOM      4  C   UNL     1      -5.600  12.325 -14.041  1.00  0.00     0.000 C 
BRANCH   4   5
ATOM      5  C   UNL     1      -6.027  12.344 -12.562  1.00  0.00     0.000 C 
BRANCH   5   6
ATOM      6  C   UNL     1      -5.950  13.758 -11.948  1.00  0.00     0.000 C 
BRANCH   6   7
ATOM      7  C   UNL     1      -6.989  14.009 -10.840  1.00  0.00     0.000 C 
BRANCH   7   8
ATOM      8  C   UNL     1      -7.936  12.815 -10.627  1.00  0.00     0.000 C 
BRANCH   8   9
ATOM      9  C   UNL     1      -9.066  13.142  -9.626  1.00  0.00     0.000 C 
BRANCH   9  10
ATOM     10  C   UNL     1      -9.292  12.044  -8.572  1.00  0.00     0.000 C 
BRANCH  10  11
ATOM     11  C   UNL     1      -8.735  12.423  -7.190  1.00  0.00     0.000 C 
BRANCH  11  12
ATOM     12  C   UNL     1      -8.299  11.202  -6.360  1.00  0.00     0.006 C 
BRANCH  12  13
ATOM     13  C   UNL     1      -8.714  11.264  -4.879  1.00  0.00     0.053 C 
BRANCH  13  14
ATOM     14  C   UNL     1      -7.609  11.749  -3.991  1.00  0.00     0.041 C 
ATOM     15  O   UNL     1      -7.042  10.958  -3.192  1.00  0.00    -0.550 OA
ATOM     16  O   UNL     1      -7.183  13.070  -4.067  1.00  0.00    -0.550 OA
ENDBRANCH  13  14
ENDBRANCH  12  13
ENDBRANCH  11  12
ENDBRANCH  10  11
ENDBRANCH   9  10
ENDBRANCH   8   9
ENDBRANCH   7   8
ENDBRANCH   6   7
ENDBRANCH   5   6
ENDBRANCH   4   5
ENDBRANCH   3   4
ENDBRANCH   2   3
ENDBRANCH   1   2
BRANCH   1  17
ATOM     17  C   UNL     1      -7.440  15.105 -15.125  1.00  0.00     0.000 C 
BRANCH  17  18
ATOM     18  C   UNL     1      -6.489  15.699 -14.064  1.00  0.00     0.000 C 
BRANCH  18  19
ATOM     19  C   UNL     1      -5.089  16.039 -14.605  1.00  0.00     0.000 C 
BRANCH  19  20
ATOM     20  C   UNL     1      -4.962  17.511 -15.031  1.00  0.00     0.000 C 
BRANCH  20  21
ATOM     21  C   UNL     1      -4.878  18.488 -13.842  1.00  0.00     0.000 C 
BRANCH  21  22
ATOM     22  C   UNL     1      -4.883  19.983 -14.215  1.00  0.00    -0.000 C 
BRANCH  22  23
ATOM     23  C   UNL     1      -6.253  20.476 -14.714  1.00  0.00    -0.000 C 
BRANCH  23  24
ATOM     24  C   UNL     1      -7.197  19.326 -15.113  1.00  0.00    -0.000 C 
BRANCH  24  25
ATOM     25  C   UNL     1      -8.385  19.103 -14.157  1.00  0.00    -0.000 C 
BRANCH  25  26
ATOM     26  C   UNL     1      -8.159  19.722 -12.766  1.00  0.00    -0.000 C 
BRANCH  26  27
ATOM     27  C   UNL     1      -7.628  18.705 -11.739  1.00  0.00    -0.000 C 
BRANCH  27  28
ATOM     28  C   UNL     1      -8.179  17.275 -11.901  1.00  0.00    -0.000 C 
BRANCH  28  29
ATOM     29  C   UNL     1      -9.040  17.102 -13.163  1.00  0.00    -0.003 C 
ATOM     30  C   UNL     1     -10.396  16.489 -12.826  1.00  0.00     0.004 C 
ENDBRANCH  28  29
ENDBRANCH  27  28
ENDBRANCH  26  27
ENDBRANCH  25  26
ENDBRANCH  24  25
ENDBRANCH  23  24
ENDBRANCH  22  23
ENDBRANCH  21  22
ENDBRANCH  20  21
ENDBRANCH  19  20
ENDBRANCH  18  19
ENDBRANCH  17  18
ENDBRANCH   1  17
TORSDOF 26
ENDMDL
MODEL 2
REMARK VINA RESULT:    10.157      2.150      3.621
REMARK INTER + INTRA:          26.292
REMARK INTER:                  25.435
REMARK INTRA:                   0.857
REMARK UNBOUND:                 0.697
REMARK SMILES CCCCCCCCCCCCCCCCCCCCCCCCCCCC(=O)[O-]
REMARK SMILES IDX 15 1 16 2 17 3 18 4 19 5 20 6 21 7 22 8 23 9 24 10 25 11
REMARK SMILES IDX 26 12 27 13 28 14 29 15 30 16 14 17 13 18 12 19 11 20 10 21
REMARK SMILES IDX 9 22 8 23 7 24 6 25 5 26 4 27 3 28 2 29 1 30
REMARK H PARENT
REMARK Flexibility Score: inf
ROOT
ATOM      1  C   UNL     1      -7.465  12.968 -12.855  1.00  0.00     0.000 C 
ENDROOT
BRANCH   1   2
ATOM      2  C   UNL     1      -7.055  14.009 -11.799  1.00  0.00     0.000 C 
BRANCH   2   3
ATOM      3  C   UNL     1      -7.367  13.546 -10.366  1.00  0.00     0.000 C 
BRANCH   3   4
ATOM      4  C   UNL     1      -6.318  14.027  -9.350  1.00  0.00     0.000 C 
BRANCH   4   5
ATOM      5  C   UNL     1      -6.847  14.006  -7.904  1.00  0.00     0.000 C 
BRANCH   5   6
ATOM      6  C   UNL     1      -5.849  13.351  -6.926  1.00  0.00     0.000 C 
BRANCH   6   7
ATOM      7  C   UNL     1      -6.503  12.357  -5.950  1.00  0.00     0.000 C 
BRANCH   7   8
ATOM      8  C   UNL     1      -7.629  11.533  -6.600  1.00  0.00     0.000 C 
BRANCH   8   9
ATOM      9  C   UNL     1      -8.094  10.370  -5.695  1.00  0.00     0.000 C 
BRANCH   9  10
ATOM     10  C   UNL     1      -8.757  10.836  -4.387  1.00  0.00     0.000 C 
BRANCH  10  11
ATOM     11  C   UNL     1      -9.909  11.826  -4.623  1.00  0.00     0.000 C 
BRANCH  11  12
ATOM     12  C   UNL     1     -10.053  12.245  -6.097  1.00  0.00     0.006 C 
BRANCH  12  13
ATOM     13  C   UNL     1     -11.259  13.158  -6.380  1.00  0.00     0.053 C 
BRANCH  13  14
ATOM     14  C   UNL     1     -11.197  13.789  -7.738  1.00  0.00     0.041 C 
ATOM     15  O   UNL     1     -10.366  13.380  -8.591  1.00  0.00    -0.550 OA
ATOM     16  O   UNL     1     -12.079  14.810  -8.073  1.00  0.00    -0.550 OA
ENDBRANCH  13  14
ENDBRANCH  12  13
ENDBRANCH  11  12
ENDBRANCH  10  11
ENDBRANCH   9  10
ENDBRANCH   8   9
ENDBRANCH   7   8
ENDBRANCH   6   7
ENDBRANCH   5   6
ENDBRANCH   4   5
ENDBRANCH   3   4
ENDBRANCH   2   3
ENDBRANCH   1   2
BRANCH   1  17
ATOM     17  C   UNL     1      -7.383  13.523 -14.288  1.00  0.00     0.000 C 
BRANCH  17  18
ATOM     18  C   UNL     1      -5.971  13.368 -14.894  1.00  0.00     0.000 C 
BRANCH  18  19
ATOM     19  C   UNL     1      -5.047  14.570 -14.630  1.00  0.00     0.000 C 
BRANCH  19  20
ATOM     20  C   UNL     1      -5.826  15.858 -14.317  1.00  0.00     0.000 C 
BRANCH  20  21
ATOM     21  C   UNL     1      -4.924  17.026 -13.873  1.00  0.00     0.000 C 
BRANCH  21  22
ATOM     22  C   UNL     1      -5.130  18.346 -14.639  1.00  0.00    -0.000 C 
BRANCH  22  23
ATOM     23  C   UNL     1      -6.584  18.562 -15.092  1.00  0.00    -0.000 C 
BRANCH  23  24
ATOM     24  C   UNL     1      -6.990  20.048 -15.121  1.00  0.00    -0.000 C 
BRANCH  24  25
ATOM     25  C   UNL     1      -6.180  20.959 -14.179  1.00  0.00    -0.000 C 
BRANCH  25  26
ATOM     26  C   UNL     1      -6.450  20.672 -12.691  1.00  0.00    -0.000 C 
BRANCH  26  27
ATOM     27  C   UNL     1      -7.902  20.238 -12.420  1.00  0.00    -0.000 C 
BRANCH  27  28
ATOM     28  C   UNL     1      -8.326  18.929 -13.116  1.00  0.00    -0.000 C 
BRANCH  28  29
ATOM     29  C   UNL     1      -8.765  17.838 -12.127  1.00  0.00    -0.003 C 
ATOM     30  C   UNL     1      -9.514  16.716 -12.840  1.00  0.00     0.004 C 
ENDBRANCH  28  29
ENDBRANCH  27  28
ENDBRANCH  26  27
ENDBRANCH  25  26
ENDBRANCH  24  25
ENDBRANCH  23  24
ENDBRANCH  22  23
ENDBRANCH  21  22
ENDBRANCH  20  21
ENDBRANCH  19  20
ENDBRANCH  18  19
ENDBRANCH  17  18
ENDBRANCH   1  17
TORSDOF 26
ENDMDL
MODEL 3
REMARK VINA RESULT:    11.133      3.357      8.998
REMARK INTER + INTRA:          28.751
REMARK INTER:                  27.279
REMARK INTRA:                   1.472
REMARK UNBOUND:                 0.697
REMARK SMILES CCCCCCCCCCCCCCCCCCCCCCCCCCCC(=O)[O-]
REMARK SMILES IDX 15 1 16 2 17 3 18 4 19 5 20 6 21 7 22 8 23 9 24 10 25 11
REMARK SMILES IDX 26 12 27 13 28 14 29 15 30 16 14 17 13 18 12 19 11 20 10 21
REMARK SMILES IDX 9 22 8 23 7 24 6 25 5 26 4 27 3 28 2 29 1 30
REMARK H PARENT
REMARK Flexibility Score: inf
ROOT
ATOM      1  C   UNL     1      -8.858  14.006 -12.587  1.00  0.00     0.000 C 
ENDROOT
BRANCH   1   2
ATOM      2  C   UNL     1      -8.848  13.898 -14.122  1.00  0.00     0.000 C 
BRANCH   2   3
ATOM      3  C   UNL     1      -7.802  12.893 -14.633  1.00  0.00     0.000 C 
BRANCH   3   4
ATOM      4  C   UNL     1      -7.136  12.105 -13.494  1.00  0.00     0.000 C 
BRANCH   4   5
ATOM      5  C   UNL     1      -5.655  11.795 -13.782  1.00  0.00     0.000 C 
BRANCH   5   6
ATOM      6  C   UNL     1      -4.875  13.044 -14.245  1.00  0.00     0.000 C 
BRANCH   6   7
ATOM      7  C   UNL     1      -5.718  14.024 -15.081  1.00  0.00     0.000 C 
BRANCH   7   8
ATOM      8  C   UNL     1      -5.120  15.441 -15.124  1.00  0.00     0.000 C 
BRANCH   8   9
ATOM      9  C   UNL     1      -5.887  16.423 -14.212  1.00  0.00     0.000 C 
BRANCH   9  10
ATOM     10  C   UNL     1      -6.370  17.690 -14.941  1.00  0.00     0.000 C 
BRANCH  10  11
ATOM     11  C   UNL     1      -7.825  18.055 -14.600  1.00  0.00     0.000 C 
BRANCH  11  12
ATOM     12  C   UNL     1      -8.233  19.448 -15.111  1.00  0.00     0.006 C 
BRANCH  12  13
ATOM     13  C   UNL     1      -7.311  20.588 -14.642  1.00  0.00     0.053 C 
BRANCH  13  14
ATOM     14  C   UNL     1      -6.587  20.256 -13.372  1.00  0.00     0.041 C 
ATOM     15  O   UNL     1      -5.332  20.344 -13.316  1.00  0.00    -0.550 OA
ATOM     16  O   UNL     1      -7.300  19.880 -12.240  1.00  0.00    -0.550 OA
ENDBRANCH  13  14
ENDBRANCH  12  13
ENDBRANCH  11  12
ENDBRANCH  10  11
ENDBRANCH   9  10
ENDBRANCH   8   9
ENDBRANCH   7   8
ENDBRANCH   6   7
ENDBRANCH   5   6
ENDBRANCH   4   5
ENDBRANCH   3   4
ENDBRANCH   2   3
ENDBRANCH   1   2
BRANCH   1  17
ATOM     17  C   UNL     1      -7.575  14.652 -12.036  1.00  0.00     0.000 C 
BRANCH  17  18
ATOM     18  C   UNL     1      -7.539  14.655 -10.493  1.00  0.00     0.000 C 
BRANCH  18  19
ATOM     19  C   UNL     1      -8.091  13.367  -9.856  1.00  0.00     0.000 C 
BRANCH  19  20
ATOM     20  C   UNL     1      -9.191  13.645  -8.818  1.00  0.00     0.000 C 
BRANCH  20  21
ATOM     21  C   UNL     1      -9.342  12.525  -7.771  1.00  0.00     0.000 C 
BRANCH  21  22
ATOM     22  C   UNL     1     -10.279  12.847  -6.591  1.00  0.00    -0.000 C 
BRANCH  22  23
ATOM     23  C   UNL     1     -10.565  11.628  -5.697  1.00  0.00    -0.000 C 
BRANCH  23  24
ATOM     24  C   UNL     1      -9.597  10.456  -5.950  1.00  0.00    -0.000 C 
BRANCH  24  25
ATOM     25  C   UNL     1      -8.114  10.771  -5.670  1.00  0.00    -0.000 C 
BRANCH  25  26
ATOM     26  C   UNL     1      -7.758  10.696  -4.175  1.00  0.00    -0.000 C 
BRANCH  26  27
ATOM     27  C   UNL     1      -6.441  11.418  -3.838  1.00  0.00    -0.000 C 
BRANCH  27  28
ATOM     28  C   UNL     1      -5.742  12.081  -5.041  1.00  0.00    -0.000 C 
BRANCH  28  29
ATOM     29  C   UNL     1      -6.642  13.082  -5.783  1.00  0.00    -0.003 C 
ATOM     30  C   UNL     1      -5.812  14.143  -6.500  1.00  0.00     0.004 C 
ENDBRANCH  28  29
ENDBRANCH  27  28
ENDBRANCH  26  27
ENDBRANCH  25  26
ENDBRANCH  24  25
ENDBRANCH  23  24
ENDBRANCH  22  23
ENDBRANCH  21  22
ENDBRANCH  20  21
ENDBRANCH  19  20
ENDBRANCH  18  19
ENDBRANCH  17  18
ENDBRANCH   1  17
TORSDOF 26
ENDMDL
MODEL 4
REMARK VINA RESULT:    11.403      2.336      4.870
REMARK INTER + INTRA:          29.433
REMARK INTER:                  29.426
REMARK INTRA:                   0.006
REMARK UNBOUND:                 0.697
REMARK SMILES CCCCCCCCCCCCCCCCCCCCCCCCCCCC(=O)[O-]
REMARK SMILES IDX 15 1 16 2 17 3 18 4 19 5 20 6 21 7 22 8 23 9 24 10 25 11
REMARK SMILES IDX 26 12 27 13 28 14 29 15 30 16 14 17 13 18 12 19 11 20 10 21
REMARK SMILES IDX 9 22 8 23 7 24 6 25 5 26 4 27 3 28 2 29 1 30
REMARK H PARENT
REMARK Flexibility Score: inf
ROOT
ATOM      1  C   UNL     1      -7.031  13.863  -9.710  1.00  0.00     0.000 C 
ENDROOT
BRANCH   1   2
ATOM      2  C   UNL     1      -6.117  14.477  -8.637  1.00  0.00     0.000 C 
BRANCH   2   3
ATOM      3  C   UNL     1      -6.367  13.883  -7.241  1.00  0.00     0.000 C 
BRANCH   3   4
ATOM      4  C   UNL     1      -6.219  12.353  -7.217  1.00  0.00     0.000 C 
BRANCH   4   5
ATOM      5  C   UNL     1      -5.815  11.824  -5.828  1.00  0.00     0.000 C 
BRANCH   5   6
ATOM      6  C   UNL     1      -6.668  12.436  -4.697  1.00  0.00     0.000 C 
BRANCH   6   7
ATOM      7  C   UNL     1      -8.182  12.385  -4.969  1.00  0.00     0.000 C 
BRANCH   7   8
ATOM      8  C   UNL     1      -8.796  11.005  -4.677  1.00  0.00     0.000 C 
BRANCH   8   9
ATOM      9  C   UNL     1      -9.305  10.313  -5.961  1.00  0.00     0.000 C 
BRANCH   9  10
ATOM     10  C   UNL     1      -9.150  11.175  -7.228  1.00  0.00     0.000 C 
BRANCH  10  11
ATOM     11  C   UNL     1      -9.451  12.661  -6.977  1.00  0.00     0.000 C 
BRANCH  11  12
ATOM     12  C   UNL     1     -10.348  13.287  -8.060  1.00  0.00     0.006 C 
BRANCH  12  13
ATOM     13  C   UNL     1     -11.793  13.559  -7.604  1.00  0.00     0.053 C 
BRANCH  13  14
ATOM     14  C   UNL     1     -12.041  15.008  -7.314  1.00  0.00     0.041 C 
ATOM     15  O   UNL     1     -12.016  15.856  -8.245  1.00  0.00    -0.550 OA
ATOM     16  O   UNL     1     -12.332  15.421  -6.019  1.00  0.00    -0.550 OA
ENDBRANCH  13  14
ENDBRANCH  12  13
ENDBRANCH  11  12
ENDBRANCH  10  11
ENDBRANCH   9  10
ENDBRANCH   8   9
ENDBRANCH   7   8
ENDBRANCH   6   7
ENDBRANCH   5   6
ENDBRANCH   4   5
ENDBRANCH   3   4
ENDBRANCH   2   3
ENDBRANCH   1   2
BRANCH   1  17
ATOM     17  C   UNL     1      -7.155  14.757 -10.957  1.00  0.00     0.000 C 
BRANCH  17  18
ATOM     18  C   UNL     1      -7.614  13.964 -12.200  1.00  0.00     0.000 C 
BRANCH  18  19
ATOM     19  C   UNL     1      -6.455  13.364 -13.016  1.00  0.00     0.000 C 
BRANCH  19  20
ATOM     20  C   UNL     1      -6.707  13.423 -14.532  1.00  0.00     0.000 C 
BRANCH  20  21
ATOM     21  C   UNL     1      -6.574  14.841 -15.120  1.00  0.00     0.000 C 
BRANCH  21  22
ATOM     22  C   UNL     1      -5.330  15.628 -14.667  1.00  0.00    -0.000 C 
BRANCH  22  23
ATOM     23  C   UNL     1      -5.344  17.097 -15.125  1.00  0.00    -0.000 C 
BRANCH  23  24
ATOM     24  C   UNL     1      -4.876  18.073 -14.028  1.00  0.00    -0.000 C 
BRANCH  24  25
ATOM     25  C   UNL     1      -5.383  19.519 -14.188  1.00  0.00    -0.000 C 
BRANCH  25  26
ATOM     26  C   UNL     1      -6.588  19.835 -13.285  1.00  0.00    -0.000 C 
BRANCH  26  27
ATOM     27  C   UNL     1      -7.914  19.916 -14.065  1.00  0.00    -0.000 C 
BRANCH  27  28
ATOM     28  C   UNL     1      -8.234  18.677 -14.925  1.00  0.00    -0.000 C 
BRANCH  28  29
ATOM     29  C   UNL     1      -8.466  17.409 -14.089  1.00  0.00    -0.003 C 
ATOM     30  C   UNL     1      -8.784  17.756 -12.637  1.00  0.00     0.004 C 
ENDBRANCH  28  29
ENDBRANCH  27  28
ENDBRANCH  26  27
ENDBRANCH  25  26
ENDBRANCH  24  25
ENDBRANCH  23  24
ENDBRANCH  22  23
ENDBRANCH  21  22
ENDBRANCH  20  21
ENDBRANCH  19  20
ENDBRANCH  18  19
ENDBRANCH  17  18
ENDBRANCH   1  17
TORSDOF 26
ENDMDL
MODEL 5
REMARK VINA RESULT:    11.500      2.459      4.811
REMARK INTER + INTRA:          29.677
REMARK INTER:                  28.840
REMARK INTRA:                   0.837
REMARK UNBOUND:                 0.697
REMARK SMILES CCCCCCCCCCCCCCCCCCCCCCCCCCCC(=O)[O-]
REMARK SMILES IDX 15 1 16 2 17 3 18 4 19 5 20 6 21 7 22 8 23 9 24 10 25 11
REMARK SMILES IDX 26 12 27 13 28 14 29 15 30 16 14 17 13 18 12 19 11 20 10 21
REMARK SMILES IDX 9 22 8 23 7 24 6 25 5 26 4 27 3 28 2 29 1 30
REMARK H PARENT
REMARK Flexibility Score: inf
ROOT
ATOM      1  C   UNL     1      -7.832  14.378 -11.256  1.00  0.00     0.000 C 
ENDROOT
BRANCH   1   2
ATOM      2  C   UNL     1      -7.297  14.880  -9.904  1.00  0.00     0.000 C 
BRANCH   2   3
ATOM      3  C   UNL     1      -6.686  13.751  -9.058  1.00  0.00     0.000 C 
BRANCH   3   4
ATOM      4  C   UNL     1      -5.687  14.274  -8.013  1.00  0.00     0.000 C 
BRANCH   4   5
ATOM      5  C   UNL     1      -6.104  13.921  -6.573  1.00  0.00     0.000 C 
BRANCH   5   6
ATOM      6  C   UNL     1      -5.967  12.413  -6.276  1.00  0.00     0.000 C 
BRANCH   6   7
ATOM      7  C   UNL     1      -5.818  12.089  -4.779  1.00  0.00     0.000 C 
BRANCH   7   8
ATOM      8  C   UNL     1      -7.151  11.701  -4.115  1.00  0.00     0.000 C 
BRANCH   8   9
ATOM      9  C   UNL     1      -8.368  12.098  -4.980  1.00  0.00     0.000 C 
BRANCH   9  10
ATOM     10  C   UNL     1      -8.884  10.958  -5.876  1.00  0.00     0.000 C 
BRANCH  10  11
ATOM     11  C   UNL     1      -9.673  11.468  -7.093  1.00  0.00     0.000 C 
BRANCH  11  12
ATOM     12  C   UNL     1     -10.596  12.654  -6.760  1.00  0.00     0.006 C 
BRANCH  12  13
ATOM     13  C   UNL     1     -10.639  13.745  -7.844  1.00  0.00     0.053 C 
BRANCH  13  14
ATOM     14  C   UNL     1     -11.935  14.497  -7.854  1.00  0.00     0.041 C 
ATOM     15  O   UNL     1     -13.015  13.898  -8.100  1.00  0.00    -0.550 OA
ATOM     16  O   UNL     1     -11.955  15.856  -7.560  1.00  0.00    -0.550 OA
ENDBRANCH  13  14
ENDBRANCH  12  13
ENDBRANCH  11  12
ENDBRANCH  10  11
ENDBRANCH   9  10
ENDBRANCH   8   9
ENDBRANCH   7   8
ENDBRANCH   6   7
ENDBRANCH   5   6
ENDBRANCH   4   5
ENDBRANCH   3   4
ENDBRANCH   2   3
ENDBRANCH   1   2
BRANCH   1  17
ATOM     17  C   UNL     1      -6.800  13.527 -12.017  1.00  0.00     0.000 C 
BRANCH  17  18
ATOM     18  C   UNL     1      -7.465  12.423 -12.866  1.00  0.00     0.000 C 
BRANCH  18  19
ATOM     19  C   UNL     1      -7.666  12.810 -14.341  1.00  0.00     0.000 C 
BRANCH  19  20
ATOM     20  C   UNL     1      -7.073  14.188 -14.678  1.00  0.00     0.000 C 
BRANCH  20  21
ATOM     21  C   UNL     1      -5.532  14.212 -14.656  1.00  0.00     0.000 C 
BRANCH  21  22
ATOM     22  C   UNL     1      -4.900  15.550 -14.226  1.00  0.00    -0.000 C 
BRANCH  22  23
ATOM     23  C   UNL     1      -5.312  16.729 -15.125  1.00  0.00    -0.000 C 
BRANCH  23  24
ATOM     24  C   UNL     1      -6.007  17.863 -14.347  1.00  0.00    -0.000 C 
BRANCH  24  25
ATOM     25  C   UNL     1      -7.347  17.472 -13.693  1.00  0.00    -0.000 C 
BRANCH  25  26
ATOM     26  C   UNL     1      -8.083  18.672 -13.072  1.00  0.00    -0.000 C 
BRANCH  26  27
ATOM     27  C   UNL     1      -7.743  20.005 -13.764  1.00  0.00    -0.000 C 
BRANCH  27  28
ATOM     28  C   UNL     1      -6.282  20.131 -14.241  1.00  0.00    -0.000 C 
BRANCH  28  29
ATOM     29  C   UNL     1      -5.296  20.393 -13.092  1.00  0.00    -0.003 C 
ATOM     30  C   UNL     1      -5.975  21.125 -11.938  1.00  0.00     0.004 C 
ENDBRANCH  28  29
ENDBRANCH  27  28
ENDBRANCH  26  27
ENDBRANCH  25  26
ENDBRANCH  24  25
ENDBRANCH  23  24
ENDBRANCH  22  23
ENDBRANCH  21  22
ENDBRANCH  20  21
ENDBRANCH  19  20
ENDBRANCH  18  19
ENDBRANCH  17  18
ENDBRANCH   1  17
TORSDOF 26
ENDMDL
MODEL 6
REMARK VINA RESULT:    11.588      3.310     10.039
REMARK INTER + INTRA:          29.899
REMARK INTER:                  30.354
REMARK INTRA:                  -0.456
REMARK UNBOUND:                 0.697
REMARK SMILES CCCCCCCCCCCCCCCCCCCCCCCCCCCC(=O)[O-]
REMARK SMILES IDX 15 1 16 2 17 3 18 4 19 5 20 6 21 7 22 8 23 9 24 10 25 11
REMARK SMILES IDX 26 12 27 13 28 14 29 15 30 16 14 17 13 18 12 19 11 20 10 21
REMARK SMILES IDX 9 22 8 23 7 24 6 25 5 26 4 27 3 28 2 29 1 30
REMARK H PARENT
REMARK Flexibility Score: inf
ROOT
ATOM      1  C   UNL     1      -9.424  14.390 -10.416  1.00  0.00     0.000 C 
ENDROOT
BRANCH   1   2
ATOM      2  C   UNL     1      -8.801  15.313 -11.477  1.00  0.00     0.000 C 
BRANCH   2   3
ATOM      3  C   UNL     1      -7.451  14.786 -11.995  1.00  0.00     0.000 C 
BRANCH   3   4
ATOM      4  C   UNL     1      -7.584  13.433 -12.711  1.00  0.00     0.000 C 
BRANCH   4   5
ATOM      5  C   UNL     1      -7.404  13.555 -14.236  1.00  0.00     0.000 C 
BRANCH   5   6
ATOM      6  C   UNL     1      -7.168  15.013 -14.683  1.00  0.00     0.000 C 
BRANCH   6   7
ATOM      7  C   UNL     1      -5.860  15.620 -14.143  1.00  0.00     0.000 C 
BRANCH   7   8
ATOM      8  C   UNL     1      -5.313  16.750 -15.032  1.00  0.00     0.000 C 
BRANCH   8   9
ATOM      9  C   UNL     1      -4.975  18.018 -14.216  1.00  0.00     0.000 C 
BRANCH   9  10
ATOM     10  C   UNL     1      -4.875  19.293 -15.073  1.00  0.00     0.000 C 
BRANCH  10  11
ATOM     11  C   UNL     1      -5.407  20.540 -14.348  1.00  0.00     0.000 C 
BRANCH  11  12
ATOM     12  C   UNL     1      -6.896  20.813 -14.632  1.00  0.00     0.006 C 
BRANCH  12  13
ATOM     13  C   UNL     1      -7.721  19.553 -14.945  1.00  0.00     0.053 C 
BRANCH  13  14
ATOM     14  C   UNL     1      -8.177  18.841 -13.707  1.00  0.00     0.041 C 
ATOM     15  O   UNL     1      -8.764  17.731 -13.794  1.00  0.00    -0.550 OA
ATOM     16  O   UNL     1      -7.926  19.390 -12.455  1.00  0.00    -0.550 OA
ENDBRANCH  13  14
ENDBRANCH  12  13
ENDBRANCH  11  12
ENDBRANCH  10  11
ENDBRANCH   9  10
ENDBRANCH   8   9
ENDBRANCH   7   8
ENDBRANCH   6   7
ENDBRANCH   5   6
ENDBRANCH   4   5
ENDBRANCH   3   4
ENDBRANCH   2   3
ENDBRANCH   1   2
BRANCH   1  17
ATOM     17  C   UNL     1     -10.382  15.141  -9.475  1.00  0.00     0.000 C 
BRANCH  17  18
ATOM     18  C   UNL     1     -11.664  14.334  -9.180  1.00  0.00     0.000 C 
BRANCH  18  19
ATOM     19  C   UNL     1     -11.882  14.038  -7.686  1.00  0.00     0.000 C 
BRANCH  19  20
ATOM     20  C   UNL     1     -10.571  13.717  -6.949  1.00  0.00     0.000 C 
BRANCH  20  21
ATOM     21  C   UNL     1     -10.347  12.208  -6.729  1.00  0.00     0.000 C 
BRANCH  21  22
ATOM     22  C   UNL     1     -10.610  11.704  -5.298  1.00  0.00    -0.000 C 
BRANCH  22  23
ATOM     23  C   UNL     1      -9.342  11.185  -4.597  1.00  0.00    -0.000 C 
BRANCH  23  24
ATOM     24  C   UNL     1      -8.196  10.878  -5.579  1.00  0.00    -0.000 C 
BRANCH  24  25
ATOM     25  C   UNL     1      -6.995  11.840  -5.493  1.00  0.00    -0.000 C 
BRANCH  25  26
ATOM     26  C   UNL     1      -6.648  12.237  -4.047  1.00  0.00    -0.000 C 
BRANCH  26  27
ATOM     27  C   UNL     1      -5.561  11.340  -3.426  1.00  0.00    -0.000 C 
BRANCH  27  28
ATOM     28  C   UNL     1      -6.036  10.472  -2.244  1.00  0.00    -0.000 C 
BRANCH  28  29
ATOM     29  C   UNL     1      -6.891  11.251  -1.233  1.00  0.00    -0.003 C 
ATOM     30  C   UNL     1      -8.378  11.117  -1.549  1.00  0.00     0.004 C 
ENDBRANCH  28  29
ENDBRANCH  27  28
ENDBRANCH  26  27
ENDBRANCH  25  26
ENDBRANCH  24  25
ENDBRANCH  23  24
ENDBRANCH  22  23
ENDBRANCH  21  22
ENDBRANCH  20  21
ENDBRANCH  19  20
ENDBRANCH  18  19
ENDBRANCH  17  18
ENDBRANCH   1  17
TORSDOF 26
ENDMDL
