MODEL 1
REMARK VINA RESULT:    -5.495      0.000      0.000
REMARK INTER + INTRA:         -18.066
REMARK INTER:                 -14.490
REMARK INTRA:                  -3.576
REMARK UNBOUND:                -3.576
REMARK SMILES CCCCCCCCCCCCCCCCCCCCCCCCCCCCCC(=O)[O-]
REMARK SMILES IDX 16 1 17 2 18 3 19 4 20 5 21 6 22 7 23 8 24 9 25 10 26 11
REMARK SMILES IDX 27 12 28 13 29 14 30 15 31 16 32 17 15 18 14 19 13 20 12 21
REMARK SMILES IDX 11 22 10 23 9 24 8 25 7 26 6 27 5 28 4 29 3 30 2 31 1 32
REMARK H PARENT
REMARK Flexibility Score: inf
ROOT
ATOM      1  C   UNL     1      -1.989 -27.154   9.509  1.00  0.00     0.000 C 
ENDROOT
BRANCH   1   2
ATOM      2  C   UNL     1      -0.587 -26.574   9.228  1.00  0.00     0.000 C 
BRANCH   2   3
ATOM      3  C   UNL     1      -0.122 -26.832   7.779  1.00  0.00     0.000 C 
BRANCH   3   4
ATOM      4  C   UNL     1       1.249 -27.534   7.697  1.00  0.00     0.000 C 
BRANCH   4   5
ATOM      5  C   UNL     1       1.232 -28.885   6.959  1.00  0.00     0.000 C 
BRANCH   5   6
ATOM      6  C   UNL     1      -0.140 -29.233   6.365  1.00  0.00     0.000 C 
BRANCH   6   7
ATOM      7  C   UNL     1      -0.049 -29.522   4.858  1.00  0.00     0.000 C 
BRANCH   7   8
ATOM      8  C   UNL     1       1.410 -29.535   4.358  1.00  0.00     0.000 C 
BRANCH   8   9
ATOM      9  C   UNL     1       1.554 -29.488   2.822  1.00  0.00     0.000 C 
BRANCH   9  10
ATOM     10  C   UNL     1       0.233 -29.520   2.026  1.00  0.00     0.000 C 
BRANCH  10  11
ATOM     11  C   UNL     1      -0.235 -28.149   1.493  1.00  0.00     0.000 C 
BRANCH  11  12
ATOM     12  C   UNL     1      -1.685 -27.788   1.863  1.00  0.00     0.000 C 
BRANCH  12  13
ATOM     13  C   UNL     1      -2.117 -26.383   1.400  1.00  0.00     0.006 C 
BRANCH  13  14
ATOM     14  C   UNL     1      -1.077 -25.730   0.480  1.00  0.00     0.053 C 
BRANCH  14  15
ATOM     15  C   UNL     1      -0.490 -24.517   1.127  1.00  0.00     0.041 C 
ATOM     16  O   UNL     1      -0.835 -23.365   0.748  1.00  0.00    -0.550 OA
ATOM     17  O   UNL     1       0.465 -24.654   2.127  1.00  0.00    -0.550 OA
ENDBRANCH  14  15
ENDBRANCH  13  14
ENDBRANCH  12  13
ENDBRANCH  11  12
ENDBRANCH  10  11
ENDBRANCH   9  10
ENDBRANCH   8   9
ENDBRANCH   7   8
ENDBRANCH   6   7
ENDBRANCH   5   6
ENDBRANCH   4   5
ENDBRANCH   3   4
ENDBRANCH   2   3
ENDBRANCH   1   2
BRANCH   1  18
ATOM     18  C   UNL     1      -2.746 -26.441  10.646  1.00  0.00     0.000 C 
BRANCH  18  19
ATOM     19  C   UNL     1      -3.965 -25.619  10.178  1.00  0.00     0.000 C 
BRANCH  19  20
ATOM     20  C   UNL     1      -4.158 -24.331  10.994  1.00  0.00     0.000 C 
BRANCH  20  21
ATOM     21  C   UNL     1      -2.903 -23.933  11.788  1.00  0.00     0.000 C 
BRANCH  21  22
ATOM     22  C   UNL     1      -3.208 -23.391  13.201  1.00  0.00     0.000 C 
BRANCH  22  23
ATOM     23  C   UNL     1      -2.131 -23.780  14.228  1.00  0.00     0.000 C 
BRANCH  23  24
ATOM     24  C   UNL     1      -0.976 -24.587  13.594  1.00  0.00    -0.000 C 
BRANCH  24  25
ATOM     25  C   UNL     1       0.337 -24.518  14.396  1.00  0.00    -0.000 C 
BRANCH  25  26
ATOM     26  C   UNL     1       1.518 -25.280  13.766  1.00  0.00    -0.000 C 
BRANCH  26  27
ATOM     27  C   UNL     1       1.401 -25.518  12.246  1.00  0.00    -0.000 C 
BRANCH  27  28
ATOM     28  C   UNL     1       1.499 -26.992  11.803  1.00  0.00    -0.000 C 
BRANCH  28  29
ATOM     29  C   UNL     1       1.289 -28.022  12.927  1.00  0.00    -0.000 C 
BRANCH  29  30
ATOM     30  C   UNL     1       0.988 -29.432  12.392  1.00  0.00    -0.000 C 
BRANCH  30  31
ATOM     31  C   UNL     1       1.133 -29.525  10.865  1.00  0.00    -0.003 C 
ATOM     32  C   UNL     1      -0.065 -30.205  10.201  1.00  0.00     0.004 C 
ENDBRANCH  30  31
ENDBRANCH  29  30
ENDBRANCH  28  29
ENDBRANCH  27  28
ENDBRANCH  26  27
ENDBRANCH  25  26
ENDBRANCH  24  25
ENDBRANCH  23  24
ENDBRANCH  22  23
ENDBRANCH  21  22
ENDBRANCH  20  21
ENDBRANCH  19  20
ENDBRANCH  18  19
ENDBRANCH   1  18
TORSDOF 28
ENDMDL
MODEL 2
REMARK VINA RESULT:    -5.435      1.629      3.817
REMARK INTER + INTRA:         -17.907
REMARK INTER:                 -14.728
REMARK INTRA:                  -3.179
REMARK UNBOUND:                -3.576
REMARK SMILES CCCCCCCCCCCCCCCCCCCCCCCCCCCCCC(=O)[O-]
REMARK SMILES IDX 16 1 17 2 18 3 19 4 20 5 21 6 22 7 23 8 24 9 25 10 26 11
REMARK SMILES IDX 27 12 28 13 29 14 30 15 31 16 32 17 15 18 14 19 13 20 12 21
REMARK SMILES IDX 11 22 10 23 9 24 8 25 7 26 6 27 5 28 4 29 3 30 2 31 1 32
REMARK H PARENT
REMARK Flexibility Score: inf
ROOT
ATOM      1  C   UNL     1       0.100 -26.791   9.605  1.00  0.00     0.000 C 
ENDROOT
BRANCH   1   2
ATOM      2  C   UNL     1      -0.495 -26.964   8.192  1.00  0.00     0.000 C 
BRANCH   2   3
ATOM      3  C   UNL     1      -0.812 -28.438   7.862  1.00  0.00     0.000 C 
BRANCH   3   4
ATOM      4  C   UNL     1      -0.413 -28.839   6.427  1.00  0.00     0.000 C 
BRANCH   4   5
ATOM      5  C   UNL     1       0.096 -27.676   5.556  1.00  0.00     0.000 C 
BRANCH   5   6
ATOM      6  C   UNL     1       1.393 -28.007   4.805  1.00  0.00     0.000 C 
BRANCH   6   7
ATOM      7  C   UNL     1       1.403 -29.461   4.305  1.00  0.00     0.000 C 
BRANCH   7   8
ATOM      8  C   UNL     1       1.500 -29.544   2.767  1.00  0.00     0.000 C 
BRANCH   8   9
ATOM      9  C   UNL     1       0.138 -29.493   2.043  1.00  0.00     0.000 C 
BRANCH   9  10
ATOM     10  C   UNL     1      -0.295 -28.104   1.529  1.00  0.00     0.000 C 
BRANCH  10  11
ATOM     11  C   UNL     1      -1.525 -27.504   2.245  1.00  0.00     0.000 C 
BRANCH  11  12
ATOM     12  C   UNL     1      -1.394 -26.008   2.580  1.00  0.00     0.000 C 
BRANCH  12  13
ATOM     13  C   UNL     1      -0.787 -25.163   1.443  1.00  0.00     0.006 C 
BRANCH  13  14
ATOM     14  C   UNL     1      -1.786 -24.144   0.880  1.00  0.00     0.053 C 
BRANCH  14  15
ATOM     15  C   UNL     1      -2.179 -24.507  -0.516  1.00  0.00     0.041 C 
ATOM     16  O   UNL     1      -2.052 -23.669  -1.449  1.00  0.00    -0.550 OA
ATOM     17  O   UNL     1      -2.719 -25.759  -0.785  1.00  0.00    -0.550 OA
ENDBRANCH  14  15
ENDBRANCH  13  14
ENDBRANCH  12  13
ENDBRANCH  11  12
ENDBRANCH  10  11
ENDBRANCH   9  10
ENDBRANCH   8   9
ENDBRANCH   7   8
ENDBRANCH   6   7
ENDBRANCH   5   6
ENDBRANCH   4   5
ENDBRANCH   3   4
ENDBRANCH   2   3
ENDBRANCH   1   2
BRANCH   1  18
ATOM     18  C   UNL     1       1.617 -26.520   9.618  1.00  0.00     0.000 C 
BRANCH  18  19
ATOM     19  C   UNL     1       2.107 -25.715  10.838  1.00  0.00     0.000 C 
BRANCH  19  20
ATOM     20  C   UNL     1       1.054 -25.634  11.955  1.00  0.00     0.000 C 
BRANCH  20  21
ATOM     21  C   UNL     1       1.552 -26.215  13.289  1.00  0.00     0.000 C 
BRANCH  21  22
ATOM     22  C   UNL     1       0.561 -27.200  13.945  1.00  0.00     0.000 C 
BRANCH  22  23
ATOM     23  C   UNL     1      -0.473 -26.490  14.837  1.00  0.00     0.000 C 
BRANCH  23  24
ATOM     24  C   UNL     1       0.113 -25.250  15.547  1.00  0.00    -0.000 C 
BRANCH  24  25
ATOM     25  C   UNL     1      -0.546 -23.925  15.119  1.00  0.00    -0.000 C 
BRANCH  25  26
ATOM     26  C   UNL     1      -1.983 -24.064  14.583  1.00  0.00    -0.000 C 
BRANCH  26  27
ATOM     27  C   UNL     1      -2.113 -24.003  13.047  1.00  0.00    -0.000 C 
BRANCH  27  28
ATOM     28  C   UNL     1      -3.512 -23.626  12.521  1.00  0.00    -0.000 C 
BRANCH  28  29
ATOM     29  C   UNL     1      -3.815 -24.098  11.088  1.00  0.00    -0.000 C 
BRANCH  29  30
ATOM     30  C   UNL     1      -2.956 -25.301  10.664  1.00  0.00    -0.000 C 
BRANCH  30  31
ATOM     31  C   UNL     1      -3.803 -26.504  10.223  1.00  0.00    -0.003 C 
ATOM     32  C   UNL     1      -5.304 -26.229  10.308  1.00  0.00     0.004 C 
ENDBRANCH  30  31
ENDBRANCH  29  30
ENDBRANCH  28  29
ENDBRANCH  27  28
ENDBRANCH  26  27
ENDBRANCH  25  26
ENDBRANCH  24  25
ENDBRANCH  23  24
ENDBRANCH  22  23
ENDBRANCH  21  22
ENDBRANCH  20  21
ENDBRANCH  19  20
ENDBRANCH  18  19
ENDBRANCH   1  18
TORSDOF 28
ENDMDL
MODEL 3
REMARK VINA RESULT:    -5.379      1.553      4.457
REMARK INTER + INTRA:         -17.759
REMARK INTER:                 -13.905
REMARK INTRA:                  -3.854
REMARK UNBOUND:                -3.576
REMARK SMILES CCCCCCCCCCCCCCCCCCCCCCCCCCCCCC(=O)[O-]
REMARK SMILES IDX 16 1 17 2 18 3 19 4 20 5 21 6 22 7 23 8 24 9 25 10 26 11
REMARK SMILES IDX 27 12 28 13 29 14 30 15 31 16 32 17 15 18 14 19 13 20 12 21
REMARK SMILES IDX 11 22 10 23 9 24 8 25 7 26 6 27 5 28 4 29 3 30 2 31 1 32
REMARK H PARENT
REMARK Flexibility Score: inf
ROOT
ATOM      1  C   UNL     1       0.778 -29.234   8.684  1.00  0.00     0.000 C 
ENDROOT
BRANCH   1   2
ATOM      2  C   UNL     1       1.900 -28.177   8.615  1.00  0.00     0.000 C 
BRANCH   2   3
ATOM      3  C   UNL     1       1.430 -26.859   7.963  1.00  0.00     0.000 C 
BRANCH   3   4
ATOM      4  C   UNL     1       0.022 -26.959   7.340  1.00  0.00     0.000 C 
BRANCH   4   5
ATOM      5  C   UNL     1       0.008 -27.071   5.805  1.00  0.00     0.000 C 
BRANCH   5   6
ATOM      6  C   UNL     1      -0.687 -28.342   5.298  1.00  0.00     0.000 C 
BRANCH   6   7
ATOM      7  C   UNL     1       0.319 -29.476   5.045  1.00  0.00     0.000 C 
BRANCH   7   8
ATOM      8  C   UNL     1       1.559 -28.988   4.267  1.00  0.00     0.000 C 
BRANCH   8   9
ATOM      9  C   UNL     1       1.706 -29.603   2.860  1.00  0.00     0.000 C 
BRANCH   9  10
ATOM     10  C   UNL     1       0.422 -29.632   2.005  1.00  0.00     0.000 C 
BRANCH  10  11
ATOM     11  C   UNL     1      -0.129 -28.242   1.618  1.00  0.00     0.000 C 
BRANCH  11  12
ATOM     12  C   UNL     1      -1.661 -28.121   1.714  1.00  0.00     0.000 C 
BRANCH  12  13
ATOM     13  C   UNL     1      -2.170 -26.668   1.784  1.00  0.00     0.006 C 
BRANCH  13  14
ATOM     14  C   UNL     1      -1.029 -25.663   1.993  1.00  0.00     0.053 C 
BRANCH  14  15
ATOM     15  C   UNL     1      -1.088 -24.577   0.967  1.00  0.00     0.041 C 
ATOM     16  O   UNL     1      -1.452 -23.415   1.293  1.00  0.00    -0.550 OA
ATOM     17  O   UNL     1      -0.772 -24.853  -0.357  1.00  0.00    -0.550 OA
ENDBRANCH  14  15
ENDBRANCH  13  14
ENDBRANCH  12  13
ENDBRANCH  11  12
ENDBRANCH  10  11
ENDBRANCH   9  10
ENDBRANCH   8   9
ENDBRANCH   7   8
ENDBRANCH   6   7
ENDBRANCH   5   6
ENDBRANCH   4   5
ENDBRANCH   3   4
ENDBRANCH   2   3
ENDBRANCH   1   2
BRANCH   1  18
ATOM     18  C   UNL     1       1.127 -30.463   9.546  1.00  0.00     0.000 C 
BRANCH  18  19
ATOM     19  C   UNL     1       0.021 -30.877  10.538  1.00  0.00     0.000 C 
BRANCH  19  20
ATOM     20  C   UNL     1       0.200 -32.312  11.059  1.00  0.00     0.000 C 
BRANCH  20  21
ATOM     21  C   UNL     1       0.706 -32.361  12.510  1.00  0.00     0.000 C 
BRANCH  21  22
ATOM     22  C   UNL     1       1.471 -31.093  12.944  1.00  0.00     0.000 C 
BRANCH  22  23
ATOM     23  C   UNL     1       0.884 -30.457  14.217  1.00  0.00     0.000 C 
BRANCH  23  24
ATOM     24  C   UNL     1       0.915 -28.913  14.173  1.00  0.00    -0.000 C 
BRANCH  24  25
ATOM     25  C   UNL     1       0.815 -28.335  12.749  1.00  0.00    -0.000 C 
BRANCH  25  26
ATOM     26  C   UNL     1       1.076 -26.821  12.649  1.00  0.00    -0.000 C 
BRANCH  26  27
ATOM     27  C   UNL     1       0.417 -26.127  11.439  1.00  0.00    -0.000 C 
BRANCH  27  28
ATOM     28  C   UNL     1      -0.915 -26.747  10.971  1.00  0.00    -0.000 C 
BRANCH  28  29
ATOM     29  C   UNL     1      -2.084 -25.754  10.844  1.00  0.00    -0.000 C 
BRANCH  29  30
ATOM     30  C   UNL     1      -3.392 -26.430  10.398  1.00  0.00    -0.000 C 
BRANCH  30  31
ATOM     31  C   UNL     1      -4.538 -25.426  10.206  1.00  0.00    -0.003 C 
ATOM     32  C   UNL     1      -4.328 -24.135  10.998  1.00  0.00     0.004 C 
ENDBRANCH  30  31
ENDBRANCH  29  30
ENDBRANCH  28  29
ENDBRANCH  27  28
ENDBRANCH  26  27
ENDBRANCH  25  26
ENDBRANCH  24  25
ENDBRANCH  23  24
ENDBRANCH  22  23
ENDBRANCH  21  22
ENDBRANCH  20  21
ENDBRANCH  19  20
ENDBRANCH  18  19
ENDBRANCH   1  18
TORSDOF 28
ENDMDL
MODEL 4
REMARK VINA RESULT:    -5.306      1.461      2.727
REMARK INTER + INTRA:         -17.567
REMARK INTER:                 -14.592
REMARK INTRA:                  -2.976
REMARK UNBOUND:                -3.576
REMARK SMILES CCCCCCCCCCCCCCCCCCCCCCCCCCCCCC(=O)[O-]
REMARK SMILES IDX 16 1 17 2 18 3 19 4 20 5 21 6 22 7 23 8 24 9 25 10 26 11
REMARK SMILES IDX 27 12 28 13 29 14 30 15 31 16 32 17 15 18 14 19 13 20 12 21
REMARK SMILES IDX 11 22 10 23 9 24 8 25 7 26 6 27 5 28 4 29 3 30 2 31 1 32
REMARK H PARENT
REMARK Flexibility Score: inf
ROOT
ATOM      1  C   UNL     1      -0.734 -26.646  10.364  1.00  0.00     0.000 C 
ENDROOT
BRANCH   1   2
ATOM      2  C   UNL     1       0.574 -26.499   9.559  1.00  0.00     0.000 C 
BRANCH   2   3
ATOM      3  C   UNL     1       0.400 -26.888   8.075  1.00  0.00     0.000 C 
BRANCH   3   4
ATOM      4  C   UNL     1       0.607 -28.394   7.814  1.00  0.00     0.000 C 
BRANCH   4   5
ATOM      5  C   UNL     1      -0.485 -29.050   6.950  1.00  0.00     0.000 C 
BRANCH   5   6
ATOM      6  C   UNL     1      -0.102 -29.152   5.468  1.00  0.00     0.000 C 
BRANCH   6   7
ATOM      7  C   UNL     1       1.417 -29.298   5.283  1.00  0.00     0.000 C 
BRANCH   7   8
ATOM      8  C   UNL     1       1.809 -29.430   3.796  1.00  0.00     0.000 C 
BRANCH   8   9
ATOM      9  C   UNL     1       0.932 -30.413   2.994  1.00  0.00     0.000 C 
BRANCH   9  10
ATOM     10  C   UNL     1       0.292 -29.844   1.711  1.00  0.00     0.000 C 
BRANCH  10  11
ATOM     11  C   UNL     1      -0.060 -28.341   1.774  1.00  0.00     0.000 C 
BRANCH  11  12
ATOM     12  C   UNL     1      -1.568 -28.041   1.701  1.00  0.00     0.000 C 
BRANCH  12  13
ATOM     13  C   UNL     1      -1.923 -26.837   0.808  1.00  0.00     0.006 C 
BRANCH  13  14
ATOM     14  C   UNL     1      -2.361 -25.615   1.627  1.00  0.00     0.053 C 
BRANCH  14  15
ATOM     15  C   UNL     1      -1.299 -24.564   1.615  1.00  0.00     0.041 C 
ATOM     16  O   UNL     1      -0.122 -24.847   1.968  1.00  0.00    -0.550 OA
ATOM     17  O   UNL     1      -1.612 -23.262   1.246  1.00  0.00    -0.550 OA
ENDBRANCH  14  15
ENDBRANCH  13  14
ENDBRANCH  12  13
ENDBRANCH  11  12
ENDBRANCH  10  11
ENDBRANCH   9  10
ENDBRANCH   8   9
ENDBRANCH   7   8
ENDBRANCH   6   7
ENDBRANCH   5   6
ENDBRANCH   4   5
ENDBRANCH   3   4
ENDBRANCH   2   3
ENDBRANCH   1   2
BRANCH   1  18
ATOM     18  C   UNL     1      -2.012 -26.502   9.514  1.00  0.00     0.000 C 
BRANCH  18  19
ATOM     19  C   UNL     1      -3.318 -26.476  10.334  1.00  0.00     0.000 C 
BRANCH  19  20
ATOM     20  C   UNL     1      -4.201 -25.263  10.002  1.00  0.00     0.000 C 
BRANCH  20  21
ATOM     21  C   UNL     1      -4.240 -24.225  11.135  1.00  0.00     0.000 C 
BRANCH  21  22
ATOM     22  C   UNL     1      -2.884 -24.031  11.846  1.00  0.00     0.000 C 
BRANCH  22  23
ATOM     23  C   UNL     1      -3.031 -23.363  13.225  1.00  0.00     0.000 C 
BRANCH  23  24
ATOM     24  C   UNL     1      -1.956 -23.837  14.227  1.00  0.00    -0.000 C 
BRANCH  24  25
ATOM     25  C   UNL     1      -1.015 -24.915  13.658  1.00  0.00    -0.000 C 
BRANCH  25  26
ATOM     26  C   UNL     1       0.479 -24.538  13.668  1.00  0.00    -0.000 C 
BRANCH  26  27
ATOM     27  C   UNL     1       1.393 -25.525  14.421  1.00  0.00    -0.000 C 
BRANCH  27  28
ATOM     28  C   UNL     1       1.742 -25.124  15.868  1.00  0.00    -0.000 C 
BRANCH  28  29
ATOM     29  C   UNL     1       1.129 -26.023  16.957  1.00  0.00    -0.000 C 
BRANCH  29  30
ATOM     30  C   UNL     1       0.203 -27.107  16.380  1.00  0.00    -0.000 C 
BRANCH  30  31
ATOM     31  C   UNL     1      -1.199 -27.078  17.007  1.00  0.00    -0.003 C 
ATOM     32  C   UNL     1      -1.650 -25.665  17.376  1.00  0.00     0.004 C 
ENDBRANCH  30  31
ENDBRANCH  29  30
ENDBRANCH  28  29
ENDBRANCH  27  28
ENDBRANCH  26  27
ENDBRANCH  25  26
ENDBRANCH  24  25
ENDBRANCH  23  24
ENDBRANCH  22  23
ENDBRANCH  21  22
ENDBRANCH  20  21
ENDBRANCH  19  20
ENDBRANCH  18  19
ENDBRANCH   1  18
TORSDOF 28
ENDMDL
MODEL 5
REMARK VINA RESULT:    -5.305      1.376      3.279
REMARK INTER + INTRA:         -17.565
REMARK INTER:                 -13.880
REMARK INTRA:                  -3.685
REMARK UNBOUND:                -3.576
REMARK SMILES CCCCCCCCCCCCCCCCCCCCCCCCCCCCCC(=O)[O-]
REMARK SMILES IDX 16 1 17 2 18 3 19 4 20 5 21 6 22 7 23 8 24 9 25 10 26 11
REMARK SMILES IDX 27 12 28 13 29 14 30 15 31 16 32 17 15 18 14 19 13 20 12 21
REMARK SMILES IDX 11 22 10 23 9 24 8 25 7 26 6 27 5 28 4 29 3 30 2 31 1 32
REMARK H PARENT
REMARK Flexibility Score: inf
ROOT
ATOM      1  C   UNL     1      -4.030 -24.637  10.988  1.00  0.00     0.000 C 
ENDROOT
BRANCH   1   2
ATOM      2  C   UNL     1      -3.725 -25.954  10.245  1.00  0.00     0.000 C 
BRANCH   2   3
ATOM      3  C   UNL     1      -2.310 -26.489  10.551  1.00  0.00     0.000 C 
BRANCH   3   4
ATOM      4  C   UNL     1      -1.667 -27.221   9.355  1.00  0.00     0.000 C 
BRANCH   4   5
ATOM      5  C   UNL     1      -0.369 -26.578   8.833  1.00  0.00     0.000 C 
BRANCH   5   6
ATOM      6  C   UNL     1       0.157 -27.235   7.550  1.00  0.00     0.000 C 
BRANCH   6   7
ATOM      7  C   UNL     1      -0.491 -28.608   7.309  1.00  0.00     0.000 C 
BRANCH   7   8
ATOM      8  C   UNL     1      -0.176 -29.159   5.902  1.00  0.00     0.000 C 
BRANCH   8   9
ATOM      9  C   UNL     1       1.296 -28.988   5.470  1.00  0.00     0.000 C 
BRANCH   9  10
ATOM     10  C   UNL     1       1.764 -29.899   4.317  1.00  0.00     0.000 C 
BRANCH  10  11
ATOM     11  C   UNL     1       1.659 -29.270   2.911  1.00  0.00     0.000 C 
BRANCH  11  12
ATOM     12  C   UNL     1       0.350 -29.594   2.169  1.00  0.00     0.000 C 
BRANCH  12  13
ATOM     13  C   UNL     1      -0.350 -28.360   1.567  1.00  0.00     0.006 C 
BRANCH  13  14
ATOM     14  C   UNL     1      -1.316 -27.698   2.559  1.00  0.00     0.053 C 
BRANCH  14  15
ATOM     15  C   UNL     1      -0.665 -26.533   3.231  1.00  0.00     0.041 C 
ATOM     16  O   UNL     1      -1.094 -26.121   4.343  1.00  0.00    -0.550 OA
ATOM     17  O   UNL     1       0.396 -25.879   2.618  1.00  0.00    -0.550 OA
ENDBRANCH  14  15
ENDBRANCH  13  14
ENDBRANCH  12  13
ENDBRANCH  11  12
ENDBRANCH  10  11
ENDBRANCH   9  10
ENDBRANCH   8   9
ENDBRANCH   7   8
ENDBRANCH   6   7
ENDBRANCH   5   6
ENDBRANCH   4   5
ENDBRANCH   3   4
ENDBRANCH   2   3
ENDBRANCH   1   2
BRANCH   1  18
ATOM     18  C   UNL     1      -2.810 -24.024  11.705  1.00  0.00     0.000 C 
BRANCH  18  19
ATOM     19  C   UNL     1      -3.122 -23.436  13.096  1.00  0.00     0.000 C 
BRANCH  19  20
ATOM     20  C   UNL     1      -2.060 -23.803  14.145  1.00  0.00     0.000 C 
BRANCH  20  21
ATOM     21  C   UNL     1      -1.018 -24.803  13.615  1.00  0.00     0.000 C 
BRANCH  21  22
ATOM     22  C   UNL     1       0.377 -24.641  14.255  1.00  0.00     0.000 C 
BRANCH  22  23
ATOM     23  C   UNL     1       1.490 -24.470  13.205  1.00  0.00     0.000 C 
BRANCH  23  24
ATOM     24  C   UNL     1       1.390 -25.507  12.066  1.00  0.00    -0.000 C 
BRANCH  24  25
ATOM     25  C   UNL     1       1.880 -26.911  12.465  1.00  0.00    -0.000 C 
BRANCH  25  26
ATOM     26  C   UNL     1       0.995 -28.069  11.967  1.00  0.00    -0.000 C 
BRANCH  26  27
ATOM     27  C   UNL     1       1.566 -28.856  10.770  1.00  0.00    -0.000 C 
BRANCH  27  28
ATOM     28  C   UNL     1       0.836 -30.173  10.441  1.00  0.00    -0.000 C 
BRANCH  28  29
ATOM     29  C   UNL     1       1.757 -31.368  10.137  1.00  0.00    -0.000 C 
BRANCH  29  30
ATOM     30  C   UNL     1       1.208 -32.696  10.684  1.00  0.00    -0.000 C 
BRANCH  30  31
ATOM     31  C   UNL     1      -0.249 -32.582  11.154  1.00  0.00    -0.003 C 
ATOM     32  C   UNL     1      -0.786 -33.891  11.731  1.00  0.00     0.004 C 
ENDBRANCH  30  31
ENDBRANCH  29  30
ENDBRANCH  28  29
ENDBRANCH  27  28
ENDBRANCH  26  27
ENDBRANCH  25  26
ENDBRANCH  24  25
ENDBRANCH  23  24
ENDBRANCH  22  23
ENDBRANCH  21  22
ENDBRANCH  20  21
ENDBRANCH  19  20
ENDBRANCH  18  19
ENDBRANCH   1  18
TORSDOF 28
ENDMDL
MODEL 6
REMARK VINA RESULT:    -5.301      1.342      1.773
REMARK INTER + INTRA:         -17.555
REMARK INTER:                 -14.197
REMARK INTRA:                  -3.358
REMARK UNBOUND:                -3.576
REMARK SMILES CCCCCCCCCCCCCCCCCCCCCCCCCCCCCC(=O)[O-]
REMARK SMILES IDX 16 1 17 2 18 3 19 4 20 5 21 6 22 7 23 8 24 9 25 10 26 11
REMARK SMILES IDX 27 12 28 13 29 14 30 15 31 16 32 17 15 18 14 19 13 20 12 21
REMARK SMILES IDX 11 22 10 23 9 24 8 25 7 26 6 27 5 28 4 29 3 30 2 31 1 32
REMARK H PARENT
REMARK Flexibility Score: inf
ROOT
ATOM      1  C   UNL     1      -0.727 -27.057  10.354  1.00  0.00     0.000 C 
ENDROOT
BRANCH   1   2
ATOM      2  C   UNL     1       0.580 -26.293  10.059  1.00  0.00     0.000 C 
BRANCH   2   3
ATOM      3  C   UNL     1       1.269 -26.781   8.767  1.00  0.00     0.000 C 
BRANCH   3   4
ATOM      4  C   UNL     1       1.770 -28.237   8.858  1.00  0.00     0.000 C 
BRANCH   4   5
ATOM      5  C   UNL     1       1.378 -29.125   7.664  1.00  0.00     0.000 C 
BRANCH   5   6
ATOM      6  C   UNL     1      -0.108 -29.019   7.294  1.00  0.00     0.000 C 
BRANCH   6   7
ATOM      7  C   UNL     1      -0.298 -28.640   5.816  1.00  0.00     0.000 C 
BRANCH   7   8
ATOM      8  C   UNL     1      -0.444 -27.116   5.623  1.00  0.00     0.000 C 
BRANCH   8   9
ATOM      9  C   UNL     1      -0.721 -26.686   4.167  1.00  0.00     0.000 C 
BRANCH   9  10
ATOM     10  C   UNL     1       0.224 -27.281   3.103  1.00  0.00     0.000 C 
BRANCH  10  11
ATOM     11  C   UNL     1      -0.379 -27.379   1.684  1.00  0.00     0.000 C 
BRANCH  11  12
ATOM     12  C   UNL     1      -1.916 -27.298   1.644  1.00  0.00     0.000 C 
BRANCH  12  13
ATOM     13  C   UNL     1      -2.457 -25.931   1.183  1.00  0.00     0.006 C 
BRANCH  13  14
ATOM     14  C   UNL     1      -2.182 -25.668  -0.304  1.00  0.00     0.053 C 
BRANCH  14  15
ATOM     15  C   UNL     1      -1.650 -24.286  -0.506  1.00  0.00     0.041 C 
ATOM     16  O   UNL     1      -2.039 -23.594  -1.485  1.00  0.00    -0.550 OA
ATOM     17  O   UNL     1      -0.700 -23.771   0.367  1.00  0.00    -0.550 OA
ENDBRANCH  14  15
ENDBRANCH  13  14
ENDBRANCH  12  13
ENDBRANCH  11  12
ENDBRANCH  10  11
ENDBRANCH   9  10
ENDBRANCH   8   9
ENDBRANCH   7   8
ENDBRANCH   6   7
ENDBRANCH   5   6
ENDBRANCH   4   5
ENDBRANCH   3   4
ENDBRANCH   2   3
ENDBRANCH   1   2
BRANCH   1  18
ATOM     18  C   UNL     1      -1.966 -26.477   9.643  1.00  0.00     0.000 C 
BRANCH  18  19
ATOM     19  C   UNL     1      -3.251 -26.492  10.495  1.00  0.00     0.000 C 
BRANCH  19  20
ATOM     20  C   UNL     1      -4.238 -25.384  10.095  1.00  0.00     0.000 C 
BRANCH  20  21
ATOM     21  C   UNL     1      -4.315 -24.249  11.130  1.00  0.00     0.000 C 
BRANCH  21  22
ATOM     22  C   UNL     1      -2.950 -23.884  11.752  1.00  0.00     0.000 C 
BRANCH  22  23
ATOM     23  C   UNL     1      -3.077 -23.392  13.205  1.00  0.00     0.000 C 
BRANCH  23  24
ATOM     24  C   UNL     1      -1.965 -23.954  14.118  1.00  0.00    -0.000 C 
BRANCH  24  25
ATOM     25  C   UNL     1      -1.113 -25.049  13.448  1.00  0.00    -0.000 C 
BRANCH  25  26
ATOM     26  C   UNL     1      -0.264 -25.889  14.420  1.00  0.00    -0.000 C 
BRANCH  26  27
ATOM     27  C   UNL     1       1.131 -26.281  13.892  1.00  0.00    -0.000 C 
BRANCH  27  28
ATOM     28  C   UNL     1       1.646 -27.658  14.358  1.00  0.00    -0.000 C 
BRANCH  28  29
ATOM     29  C   UNL     1       0.839 -28.862  13.841  1.00  0.00    -0.000 C 
BRANCH  29  30
ATOM     30  C   UNL     1       1.013 -29.090  12.330  1.00  0.00    -0.000 C 
BRANCH  30  31
ATOM     31  C   UNL     1       1.325 -30.554  11.988  1.00  0.00    -0.003 C 
ATOM     32  C   UNL     1       0.420 -31.107  10.887  1.00  0.00     0.004 C 
ENDBRANCH  30  31
ENDBRANCH  29  30
ENDBRANCH  28  29
ENDBRANCH  27  28
ENDBRANCH  26  27
ENDBRANCH  25  26
ENDBRANCH  24  25
ENDBRANCH  23  24
ENDBRANCH  22  23
ENDBRANCH  21  22
ENDBRANCH  20  21
ENDBRANCH  19  20
ENDBRANCH  18  19
ENDBRANCH   1  18
TORSDOF 28
ENDMDL
MODEL 7
REMARK VINA RESULT:    -5.188      2.836     10.335
REMARK INTER + INTRA:         -17.258
REMARK INTER:                 -14.544
REMARK INTRA:                  -2.714
REMARK UNBOUND:                -3.576
REMARK SMILES CCCCCCCCCCCCCCCCCCCCCCCCCCCCCC(=O)[O-]
REMARK SMILES IDX 16 1 17 2 18 3 19 4 20 5 21 6 22 7 23 8 24 9 25 10 26 11
REMARK SMILES IDX 27 12 28 13 29 14 30 15 31 16 32 17 15 18 14 19 13 20 12 21
REMARK SMILES IDX 11 22 10 23 9 24 8 25 7 26 6 27 5 28 4 29 3 30 2 31 1 32
REMARK H PARENT
REMARK Flexibility Score: inf
ROOT
ATOM      1  C   UNL     1      -0.753 -26.878   8.536  1.00  0.00     0.000 C 
ENDROOT
BRANCH   1   2
ATOM      2  C   UNL     1      -0.213 -26.479   9.925  1.00  0.00     0.000 C 
BRANCH   2   3
ATOM      3  C   UNL     1       1.302 -26.739  10.066  1.00  0.00     0.000 C 
BRANCH   3   4
ATOM      4  C   UNL     1       1.627 -28.015  10.870  1.00  0.00     0.000 C 
BRANCH   4   5
ATOM      5  C   UNL     1       1.205 -27.964  12.349  1.00  0.00     0.000 C 
BRANCH   5   6
ATOM      6  C   UNL     1       1.672 -26.691  13.068  1.00  0.00     0.000 C 
BRANCH   6   7
ATOM      7  C   UNL     1       1.045 -26.567  14.466  1.00  0.00     0.000 C 
BRANCH   7   8
ATOM      8  C   UNL     1      -0.479 -26.335  14.399  1.00  0.00     0.000 C 
BRANCH   8   9
ATOM      9  C   UNL     1      -0.984 -25.183  15.292  1.00  0.00     0.000 C 
BRANCH   9  10
ATOM     10  C   UNL     1      -1.418 -23.902  14.549  1.00  0.00     0.000 C 
BRANCH  10  11
ATOM     11  C   UNL     1      -1.945 -24.132  13.116  1.00  0.00     0.000 C 
BRANCH  11  12
ATOM     12  C   UNL     1      -3.325 -23.507  12.842  1.00  0.00     0.000 C 
BRANCH  12  13
ATOM     13  C   UNL     1      -3.900 -23.847  11.453  1.00  0.00     0.006 C 
BRANCH  13  14
ATOM     14  C   UNL     1      -3.603 -25.295  11.040  1.00  0.00     0.053 C 
BRANCH  14  15
ATOM     15  C   UNL     1      -4.779 -25.895  10.338  1.00  0.00     0.041 C 
ATOM     16  O   UNL     1      -5.163 -25.428   9.232  1.00  0.00    -0.550 OA
ATOM     17  O   UNL     1      -5.473 -26.949  10.918  1.00  0.00    -0.550 OA
ENDBRANCH  14  15
ENDBRANCH  13  14
ENDBRANCH  12  13
ENDBRANCH  11  12
ENDBRANCH  10  11
ENDBRANCH   9  10
ENDBRANCH   8   9
ENDBRANCH   7   8
ENDBRANCH   6   7
ENDBRANCH   5   6
ENDBRANCH   4   5
ENDBRANCH   3   4
ENDBRANCH   2   3
ENDBRANCH   1   2
BRANCH   1  18
ATOM     18  C   UNL     1      -1.093 -28.375   8.403  1.00  0.00     0.000 C 
BRANCH  18  19
ATOM     19  C   UNL     1      -0.088 -29.181   7.554  1.00  0.00     0.000 C 
BRANCH  19  20
ATOM     20  C   UNL     1       0.291 -28.464   6.248  1.00  0.00     0.000 C 
BRANCH  20  21
ATOM     21  C   UNL     1      -0.017 -29.302   4.996  1.00  0.00     0.000 C 
BRANCH  21  22
ATOM     22  C   UNL     1       1.169 -29.407   4.013  1.00  0.00     0.000 C 
BRANCH  22  23
ATOM     23  C   UNL     1       0.718 -29.728   2.577  1.00  0.00     0.000 C 
BRANCH  23  24
ATOM     24  C   UNL     1      -0.466 -28.848   2.120  1.00  0.00    -0.000 C 
BRANCH  24  25
ATOM     25  C   UNL     1      -0.141 -27.343   2.094  1.00  0.00    -0.000 C 
BRANCH  25  26
ATOM     26  C   UNL     1      -1.121 -26.457   2.886  1.00  0.00    -0.000 C 
BRANCH  26  27
ATOM     27  C   UNL     1      -0.851 -24.942   2.790  1.00  0.00    -0.000 C 
BRANCH  27  28
ATOM     28  C   UNL     1      -1.528 -24.228   1.602  1.00  0.00    -0.000 C 
BRANCH  28  29
ATOM     29  C   UNL     1      -0.644 -24.068   0.352  1.00  0.00    -0.000 C 
BRANCH  29  30
ATOM     30  C   UNL     1      -1.286 -24.669  -0.910  1.00  0.00    -0.000 C 
BRANCH  30  31
ATOM     31  C   UNL     1      -2.571 -25.452  -0.601  1.00  0.00    -0.003 C 
ATOM     32  C   UNL     1      -3.532 -25.496  -1.789  1.00  0.00     0.004 C 
ENDBRANCH  30  31
ENDBRANCH  29  30
ENDBRANCH  28  29
ENDBRANCH  27  28
ENDBRANCH  26  27
ENDBRANCH  25  26
ENDBRANCH  24  25
ENDBRANCH  23  24
ENDBRANCH  22  23
ENDBRANCH  21  22
ENDBRANCH  20  21
ENDBRANCH  19  20
ENDBRANCH  18  19
ENDBRANCH   1  18
TORSDOF 28
ENDMDL
MODEL 8
REMARK VINA RESULT:    -5.133      1.246      1.833
REMARK INTER + INTRA:         -17.111
REMARK INTER:                 -13.829
REMARK INTRA:                  -3.282
REMARK UNBOUND:                -3.576
REMARK SMILES CCCCCCCCCCCCCCCCCCCCCCCCCCCCCC(=O)[O-]
REMARK SMILES IDX 16 1 17 2 18 3 19 4 20 5 21 6 22 7 23 8 24 9 25 10 26 11
REMARK SMILES IDX 27 12 28 13 29 14 30 15 31 16 32 17 15 18 14 19 13 20 12 21
REMARK SMILES IDX 11 22 10 23 9 24 8 25 7 26 6 27 5 28 4 29 3 30 2 31 1 32
REMARK H PARENT
REMARK Flexibility Score: inf
ROOT
ATOM      1  C   UNL     1      -1.955 -26.162   9.905  1.00  0.00     0.000 C 
ENDROOT
BRANCH   1   2
ATOM      2  C   UNL     1      -1.206 -27.267   9.133  1.00  0.00     0.000 C 
BRANCH   2   3
ATOM      3  C   UNL     1       0.251 -26.874   8.805  1.00  0.00     0.000 C 
BRANCH   3   4
ATOM      4  C   UNL     1       0.593 -27.006   7.307  1.00  0.00     0.000 C 
BRANCH   4   5
ATOM      5  C   UNL     1      -0.501 -27.678   6.457  1.00  0.00     0.000 C 
BRANCH   5   6
ATOM      6  C   UNL     1      -0.147 -29.111   6.038  1.00  0.00     0.000 C 
BRANCH   6   7
ATOM      7  C   UNL     1       1.363 -29.377   6.150  1.00  0.00     0.000 C 
BRANCH   7   8
ATOM      8  C   UNL     1       2.060 -29.345   4.774  1.00  0.00     0.000 C 
BRANCH   8   9
ATOM      9  C   UNL     1       1.212 -29.920   3.620  1.00  0.00     0.000 C 
BRANCH   9  10
ATOM     10  C   UNL     1       0.983 -28.975   2.422  1.00  0.00     0.000 C 
BRANCH  10  11
ATOM     11  C   UNL     1      -0.386 -29.133   1.725  1.00  0.00     0.000 C 
BRANCH  11  12
ATOM     12  C   UNL     1      -1.423 -28.065   2.118  1.00  0.00     0.000 C 
BRANCH  12  13
ATOM     13  C   UNL     1      -0.886 -27.003   3.096  1.00  0.00     0.006 C 
BRANCH  13  14
ATOM     14  C   UNL     1      -1.655 -25.679   2.996  1.00  0.00     0.053 C 
BRANCH  14  15
ATOM     15  C   UNL     1      -0.930 -24.712   2.116  1.00  0.00     0.041 C 
ATOM     16  O   UNL     1       0.329 -24.733   2.054  1.00  0.00    -0.550 OA
ATOM     17  O   UNL     1      -1.639 -23.765   1.388  1.00  0.00    -0.550 OA
ENDBRANCH  14  15
ENDBRANCH  13  14
ENDBRANCH  12  13
ENDBRANCH  11  12
ENDBRANCH  10  11
ENDBRANCH   9  10
ENDBRANCH   8   9
ENDBRANCH   7   8
ENDBRANCH   6   7
ENDBRANCH   5   6
ENDBRANCH   4   5
ENDBRANCH   3   4
ENDBRANCH   2   3
ENDBRANCH   1   2
BRANCH   1  18
ATOM     18  C   UNL     1      -3.404 -26.532  10.280  1.00  0.00     0.000 C 
BRANCH  18  19
ATOM     19  C   UNL     1      -4.384 -25.341  10.273  1.00  0.00     0.000 C 
BRANCH  19  20
ATOM     20  C   UNL     1      -3.717 -24.024  10.701  1.00  0.00     0.000 C 
BRANCH  20  21
ATOM     21  C   UNL     1      -4.242 -23.499  12.048  1.00  0.00     0.000 C 
BRANCH  21  22
ATOM     22  C   UNL     1      -3.125 -23.160  13.058  1.00  0.00     0.000 C 
BRANCH  22  23
ATOM     23  C   UNL     1      -2.047 -24.256  13.136  1.00  0.00     0.000 C 
BRANCH  23  24
ATOM     24  C   UNL     1      -1.104 -24.070  14.344  1.00  0.00    -0.000 C 
BRANCH  24  25
ATOM     25  C   UNL     1      -1.718 -24.524  15.681  1.00  0.00    -0.000 C 
BRANCH  25  26
ATOM     26  C   UNL     1      -0.949 -25.653  16.394  1.00  0.00    -0.000 C 
BRANCH  26  27
ATOM     27  C   UNL     1      -0.498 -26.810  15.479  1.00  0.00    -0.000 C 
BRANCH  27  28
ATOM     28  C   UNL     1       1.028 -26.955  15.308  1.00  0.00    -0.000 C 
BRANCH  28  29
ATOM     29  C   UNL     1       1.576 -26.491  13.947  1.00  0.00    -0.000 C 
BRANCH  29  30
ATOM     30  C   UNL     1       1.874 -27.662  12.996  1.00  0.00    -0.000 C 
BRANCH  30  31
ATOM     31  C   UNL     1       0.622 -28.148  12.249  1.00  0.00    -0.003 C 
ATOM     32  C   UNL     1       0.879 -29.415  11.433  1.00  0.00     0.004 C 
ENDBRANCH  30  31
ENDBRANCH  29  30
ENDBRANCH  28  29
ENDBRANCH  27  28
ENDBRANCH  26  27
ENDBRANCH  25  26
ENDBRANCH  24  25
ENDBRANCH  23  24
ENDBRANCH  22  23
ENDBRANCH  21  22
ENDBRANCH  20  21
ENDBRANCH  19  20
ENDBRANCH  18  19
ENDBRANCH   1  18
TORSDOF 28
ENDMDL
MODEL 9
REMARK VINA RESULT:    -5.077      1.812      3.607
REMARK INTER + INTRA:         -16.965
REMARK INTER:                 -13.950
REMARK INTRA:                  -3.015
REMARK UNBOUND:                -3.576
REMARK SMILES CCCCCCCCCCCCCCCCCCCCCCCCCCCCCC(=O)[O-]
REMARK SMILES IDX 16 1 17 2 18 3 19 4 20 5 21 6 22 7 23 8 24 9 25 10 26 11
REMARK SMILES IDX 27 12 28 13 29 14 30 15 31 16 32 17 15 18 14 19 13 20 12 21
REMARK SMILES IDX 11 22 10 23 9 24 8 25 7 26 6 27 5 28 4 29 3 30 2 31 1 32
REMARK H PARENT
REMARK Flexibility Score: inf
ROOT
ATOM      1  C   UNL     1      -4.184 -24.502  11.089  1.00  0.00     0.000 C 
ENDROOT
BRANCH   1   2
ATOM      2  C   UNL     1      -3.921 -25.802  10.302  1.00  0.00     0.000 C 
BRANCH   2   3
ATOM      3  C   UNL     1      -2.537 -26.410  10.612  1.00  0.00     0.000 C 
BRANCH   3   4
ATOM      4  C   UNL     1      -1.877 -27.075   9.386  1.00  0.00     0.000 C 
BRANCH   4   5
ATOM      5  C   UNL     1      -0.467 -26.553   9.056  1.00  0.00     0.000 C 
BRANCH   5   6
ATOM      6  C   UNL     1       0.087 -27.104   7.735  1.00  0.00     0.000 C 
BRANCH   6   7
ATOM      7  C   UNL     1      -0.654 -28.376   7.295  1.00  0.00     0.000 C 
BRANCH   7   8
ATOM      8  C   UNL     1      -0.192 -28.866   5.907  1.00  0.00     0.000 C 
BRANCH   8   9
ATOM      9  C   UNL     1      -0.450 -27.863   4.763  1.00  0.00     0.000 C 
BRANCH   9  10
ATOM     10  C   UNL     1       0.470 -28.000   3.533  1.00  0.00     0.000 C 
BRANCH  10  11
ATOM     11  C   UNL     1      -0.204 -27.681   2.181  1.00  0.00     0.000 C 
BRANCH  11  12
ATOM     12  C   UNL     1      -1.740 -27.597   2.245  1.00  0.00     0.000 C 
BRANCH  12  13
ATOM     13  C   UNL     1      -2.335 -26.416   1.454  1.00  0.00     0.006 C 
BRANCH  13  14
ATOM     14  C   UNL     1      -1.463 -26.023   0.254  1.00  0.00     0.053 C 
BRANCH  14  15
ATOM     15  C   UNL     1      -2.172 -25.032  -0.612  1.00  0.00     0.041 C 
ATOM     16  O   UNL     1      -1.742 -23.852  -0.710  1.00  0.00    -0.550 OA
ATOM     17  O   UNL     1      -3.330 -25.400  -1.287  1.00  0.00    -0.550 OA
ENDBRANCH  14  15
ENDBRANCH  13  14
ENDBRANCH  12  13
ENDBRANCH  11  12
ENDBRANCH  10  11
ENDBRANCH   9  10
ENDBRANCH   8   9
ENDBRANCH   7   8
ENDBRANCH   6   7
ENDBRANCH   5   6
ENDBRANCH   4   5
ENDBRANCH   3   4
ENDBRANCH   2   3
ENDBRANCH   1   2
BRANCH   1  18
ATOM     18  C   UNL     1      -2.921 -23.892  11.731  1.00  0.00     0.000 C 
BRANCH  18  19
ATOM     19  C   UNL     1      -3.101 -23.465  13.202  1.00  0.00     0.000 C 
BRANCH  19  20
ATOM     20  C   UNL     1      -1.900 -23.850  14.080  1.00  0.00     0.000 C 
BRANCH  20  21
ATOM     21  C   UNL     1      -1.139 -25.076  13.548  1.00  0.00     0.000 C 
BRANCH  21  22
ATOM     22  C   UNL     1       0.387 -24.866  13.453  1.00  0.00     0.000 C 
BRANCH  22  23
ATOM     23  C   UNL     1       1.036 -25.743  12.368  1.00  0.00     0.000 C 
BRANCH  23  24
ATOM     24  C   UNL     1       0.829 -27.252  12.628  1.00  0.00    -0.000 C 
BRANCH  24  25
ATOM     25  C   UNL     1       1.404 -28.153  11.519  1.00  0.00    -0.000 C 
BRANCH  25  26
ATOM     26  C   UNL     1       0.623 -29.459  11.281  1.00  0.00    -0.000 C 
BRANCH  26  27
ATOM     27  C   UNL     1       0.994 -30.211   9.986  1.00  0.00    -0.000 C 
BRANCH  27  28
ATOM     28  C   UNL     1       1.581 -31.622  10.192  1.00  0.00    -0.000 C 
BRANCH  28  29
ATOM     29  C   UNL     1       1.109 -32.341  11.468  1.00  0.00    -0.000 C 
BRANCH  29  30
ATOM     30  C   UNL     1       0.343 -33.641  11.170  1.00  0.00    -0.000 C 
BRANCH  30  31
ATOM     31  C   UNL     1      -1.097 -33.611  11.704  1.00  0.00    -0.003 C 
ATOM     32  C   UNL     1      -1.353 -34.682  12.764  1.00  0.00     0.004 C 
ENDBRANCH  30  31
ENDBRANCH  29  30
ENDBRANCH  28  29
ENDBRANCH  27  28
ENDBRANCH  26  27
ENDBRANCH  25  26
ENDBRANCH  24  25
ENDBRANCH  23  24
ENDBRANCH  22  23
ENDBRANCH  21  22
ENDBRANCH  20  21
ENDBRANCH  19  20
ENDBRANCH  18  19
ENDBRANCH   1  18
TORSDOF 28
ENDMDL
