MODEL 1
REMARK VINA RESULT:    -5.995      0.000      0.000
REMARK INTER + INTRA:          -7.198
REMARK INTER:                  -7.047
REMARK INTRA:                  -0.151
REMARK UNBOUND:                -0.151
REMARK SMILES O=C([O-])C=Cc1ccc(O)c(O)c1
REMARK SMILES IDX 6 1 13 2 7 3 11 4 8 5 9 6 5 7 4 8 2 9 1 10 3 11 12 12 10 14
REMARK H PARENT 12 13 10 15
REMARK Flexibility Score: inf
ROOT
ATOM      1  C   UNL     1      -9.040 -65.654 -32.702  1.00  0.00    -0.022 A 
ATOM      2  C   UNL     1      -8.253 -66.258 -31.701  1.00  0.00     0.058 A 
ATOM      3  C   UNL     1     -10.378 -66.054 -32.845  1.00  0.00     0.012 A 
ATOM      4  C   UNL     1      -8.804 -67.225 -30.848  1.00  0.00     0.157 A 
ATOM      5  C   UNL     1     -10.928 -67.016 -31.994  1.00  0.00     0.051 A 
ATOM      6  C   UNL     1     -10.149 -67.602 -30.992  1.00  0.00     0.157 A 
ENDROOT
BRANCH   1   7
ATOM      7  C   UNL     1      -8.500 -64.635 -33.636  1.00  0.00     0.010 C 
ATOM      8  C   UNL     1      -9.151 -64.206 -34.727  1.00  0.00     0.025 C 
BRANCH   8   9
ATOM      9  C   UNL     1      -8.579 -63.201 -35.639  1.00  0.00     0.064 C 
ATOM     10  O   UNL     1      -8.625 -63.353 -36.889  1.00  0.00    -0.545 OA
ATOM     11  O   UNL     1      -7.977 -62.066 -35.112  1.00  0.00    -0.545 OA
ENDBRANCH   8   9
ENDBRANCH   1   7
BRANCH   4  12
ATOM     12  O   UNL     1      -8.018 -67.815 -29.858  1.00  0.00    -0.504 OA
ATOM     13  H   UNL     1      -7.962 -67.428 -28.923  1.00  0.00     0.293 HD
ENDBRANCH   4  12
BRANCH   6  14
ATOM     14  O   UNL     1     -10.725 -68.557 -30.156  1.00  0.00    -0.504 OA
ATOM     15  H   UNL     1     -11.694 -68.839 -30.247  1.00  0.00     0.293 HD
ENDBRANCH   6  14
TORSDOF 4
ENDMDL
MODEL 2
REMARK VINA RESULT:    -5.924      7.197      9.398
REMARK INTER + INTRA:          -7.114
REMARK INTER:                  -6.977
REMARK INTRA:                  -0.137
REMARK UNBOUND:                -0.151
REMARK SMILES O=C([O-])C=Cc1ccc(O)c(O)c1
REMARK SMILES IDX 6 1 13 2 7 3 11 4 8 5 9 6 5 7 4 8 2 9 1 10 3 11 12 12 10 14
REMARK H PARENT 12 13 10 15
REMARK Flexibility Score: inf
ROOT
ATOM      1  C   UNL     1     -11.531 -66.277 -24.384  1.00  0.00    -0.022 A 
ATOM      2  C   UNL     1     -12.826 -66.075 -24.904  1.00  0.00     0.058 A 
ATOM      3  C   UNL     1     -11.336 -66.181 -22.997  1.00  0.00     0.012 A 
ATOM      4  C   UNL     1     -13.905 -65.808 -24.048  1.00  0.00     0.157 A 
ATOM      5  C   UNL     1     -12.410 -65.917 -22.144  1.00  0.00     0.051 A 
ATOM      6  C   UNL     1     -13.696 -65.734 -22.661  1.00  0.00     0.157 A 
ENDROOT
BRANCH   1   7
ATOM      7  C   UNL     1     -10.357 -66.550 -25.249  1.00  0.00     0.010 C 
ATOM      8  C   UNL     1      -9.300 -65.731 -25.350  1.00  0.00     0.025 C 
BRANCH   8   9
ATOM      9  C   UNL     1      -8.156 -66.029 -26.228  1.00  0.00     0.064 C 
ATOM     10  O   UNL     1      -7.634 -67.176 -26.252  1.00  0.00    -0.545 OA
ATOM     11  O   UNL     1      -7.643 -65.029 -27.044  1.00  0.00    -0.545 OA
ENDBRANCH   8   9
ENDBRANCH   1   7
BRANCH   4  12
ATOM     12  O   UNL     1     -15.182 -65.615 -24.571  1.00  0.00    -0.504 OA
ATOM     13  H   UNL     1     -16.003 -65.594 -23.977  1.00  0.00     0.293 HD
ENDBRANCH   4  12
BRANCH   6  14
ATOM     14  O   UNL     1     -14.749 -65.474 -21.785  1.00  0.00    -0.504 OA
ATOM     15  H   UNL     1     -14.683 -65.664 -20.793  1.00  0.00     0.293 HD
ENDBRANCH   6  14
TORSDOF 4
ENDMDL
MODEL 3
REMARK VINA RESULT:    -5.875      2.990      4.373
REMARK INTER + INTRA:          -7.056
REMARK INTER:                  -6.927
REMARK INTRA:                  -0.129
REMARK UNBOUND:                -0.151
REMARK SMILES O=C([O-])C=Cc1ccc(O)c(O)c1
REMARK SMILES IDX 6 1 13 2 7 3 11 4 8 5 9 6 5 7 4 8 2 9 1 10 3 11 12 12 10 14
REMARK H PARENT 12 13 10 15
REMARK Flexibility Score: inf
ROOT
ATOM      1  C   UNL     1     -10.346 -66.371 -32.917  1.00  0.00    -0.022 A 
ATOM      2  C   UNL     1      -9.410 -65.368 -33.240  1.00  0.00     0.058 A 
ATOM      3  C   UNL     1     -10.049 -67.264 -31.876  1.00  0.00     0.012 A 
ATOM      4  C   UNL     1      -8.214 -65.249 -32.518  1.00  0.00     0.157 A 
ATOM      5  C   UNL     1      -8.858 -67.146 -31.154  1.00  0.00     0.051 A 
ATOM      6  C   UNL     1      -7.939 -66.140 -31.467  1.00  0.00     0.157 A 
ENDROOT
BRANCH   1   7
ATOM      7  C   UNL     1     -11.619 -66.545 -33.659  1.00  0.00     0.010 C 
ATOM      8  C   UNL     1     -11.732 -67.256 -34.789  1.00  0.00     0.025 C 
BRANCH   8   9
ATOM      9  C   UNL     1     -13.011 -67.397 -35.505  1.00  0.00     0.064 C 
ATOM     10  O   UNL     1     -14.110 -67.351 -34.891  1.00  0.00    -0.545 OA
ATOM     11  O   UNL     1     -13.005 -67.585 -36.881  1.00  0.00    -0.545 OA
ENDBRANCH   8   9
ENDBRANCH   1   7
BRANCH   4  12
ATOM     12  O   UNL     1      -7.296 -64.251 -32.842  1.00  0.00    -0.504 OA
ATOM     13  H   UNL     1      -6.360 -64.242 -32.452  1.00  0.00     0.293 HD
ENDBRANCH   4  12
BRANCH   6  14
ATOM     14  O   UNL     1      -6.760 -66.044 -30.728  1.00  0.00    -0.504 OA
ATOM     15  H   UNL     1      -6.516 -65.209 -30.210  1.00  0.00     0.293 HD
ENDBRANCH   6  14
TORSDOF 4
ENDMDL
MODEL 4
REMARK VINA RESULT:    -5.851      2.891      4.804
REMARK INTER + INTRA:          -7.029
REMARK INTER:                  -6.900
REMARK INTRA:                  -0.129
REMARK UNBOUND:                -0.151
REMARK SMILES O=C([O-])C=Cc1ccc(O)c(O)c1
REMARK SMILES IDX 6 1 13 2 7 3 11 4 8 5 9 6 5 7 4 8 2 9 1 10 3 11 12 12 10 14
REMARK H PARENT 12 13 10 15
REMARK Flexibility Score: inf
ROOT
ATOM      1  C   UNL     1     -10.902 -66.363 -32.582  1.00  0.00    -0.022 A 
ATOM      2  C   UNL     1     -10.262 -67.242 -31.685  1.00  0.00     0.058 A 
ATOM      3  C   UNL     1     -10.156 -65.326 -33.163  1.00  0.00     0.012 A 
ATOM      4  C   UNL     1      -8.896 -67.097 -31.397  1.00  0.00     0.157 A 
ATOM      5  C   UNL     1      -8.796 -65.182 -32.878  1.00  0.00     0.051 A 
ATOM      6  C   UNL     1      -8.160 -66.065 -32.001  1.00  0.00     0.157 A 
ENDROOT
BRANCH   1   7
ATOM      7  C   UNL     1     -12.346 -66.468 -32.909  1.00  0.00     0.010 C 
ATOM      8  C   UNL     1     -13.316 -65.879 -32.195  1.00  0.00     0.025 C 
BRANCH   8   9
ATOM      9  C   UNL     1     -14.740 -66.015 -32.543  1.00  0.00     0.064 C 
ATOM     10  O   UNL     1     -15.117 -66.060 -33.745  1.00  0.00    -0.545 OA
ATOM     11  O   UNL     1     -15.686 -66.094 -31.529  1.00  0.00    -0.545 OA
ENDBRANCH   8   9
ENDBRANCH   1   7
BRANCH   4  12
ATOM     12  O   UNL     1      -8.270 -67.973 -30.512  1.00  0.00    -0.504 OA
ATOM     13  H   UNL     1      -7.386 -68.415 -30.737  1.00  0.00     0.293 HD
ENDBRANCH   4  12
BRANCH   6  14
ATOM     14  O   UNL     1      -6.801 -65.898 -31.738  1.00  0.00    -0.504 OA
ATOM     15  H   UNL     1      -6.096 -66.006 -32.457  1.00  0.00     0.293 HD
ENDBRANCH   6  14
TORSDOF 4
ENDMDL
MODEL 5
REMARK VINA RESULT:    -5.831      2.975      5.153
REMARK INTER + INTRA:          -7.004
REMARK INTER:                  -6.880
REMARK INTRA:                  -0.125
REMARK UNBOUND:                -0.151
REMARK SMILES O=C([O-])C=Cc1ccc(O)c(O)c1
REMARK SMILES IDX 6 1 13 2 7 3 11 4 8 5 9 6 5 7 4 8 2 9 1 10 3 11 12 12 10 14
REMARK H PARENT 12 13 10 15
REMARK Flexibility Score: inf
ROOT
ATOM      1  C   UNL     1     -10.862 -66.212 -32.705  1.00  0.00    -0.022 A 
ATOM      2  C   UNL     1     -10.138 -65.180 -33.335  1.00  0.00     0.058 A 
ATOM      3  C   UNL     1     -10.193 -67.060 -31.810  1.00  0.00     0.012 A 
ATOM      4  C   UNL     1      -8.777 -64.989 -33.053  1.00  0.00     0.157 A 
ATOM      5  C   UNL     1      -8.838 -66.870 -31.528  1.00  0.00     0.051 A 
ATOM      6  C   UNL     1      -8.126 -65.835 -32.141  1.00  0.00     0.157 A 
ENDROOT
BRANCH   1   7
ATOM      7  C   UNL     1     -12.300 -66.461 -32.979  1.00  0.00     0.010 C 
ATOM      8  C   UNL     1     -13.299 -65.840 -32.337  1.00  0.00     0.025 C 
BRANCH   8   9
ATOM      9  C   UNL     1     -14.715 -66.121 -32.627  1.00  0.00     0.064 C 
ATOM     10  O   UNL     1     -15.584 -66.103 -31.715  1.00  0.00    -0.545 OA
ATOM     11  O   UNL     1     -15.099 -66.413 -33.930  1.00  0.00    -0.545 OA
ENDBRANCH   8   9
ENDBRANCH   1   7
BRANCH   4  12
ATOM     12  O   UNL     1      -8.070 -63.963 -33.679  1.00  0.00    -0.504 OA
ATOM     13  H   UNL     1      -8.216 -62.990 -33.434  1.00  0.00     0.293 HD
ENDBRANCH   4  12
BRANCH   6  14
ATOM     14  O   UNL     1      -6.775 -65.668 -31.839  1.00  0.00    -0.504 OA
ATOM     15  H   UNL     1      -6.268 -64.828 -32.089  1.00  0.00     0.293 HD
ENDBRANCH   6  14
TORSDOF 4
ENDMDL
MODEL 6
REMARK VINA RESULT:    -5.750      8.145      9.390
REMARK INTER + INTRA:          -6.910
REMARK INTER:                  -6.780
REMARK INTRA:                  -0.130
REMARK UNBOUND:                -0.151
REMARK SMILES O=C([O-])C=Cc1ccc(O)c(O)c1
REMARK SMILES IDX 6 1 13 2 7 3 11 4 8 5 9 6 5 7 4 8 2 9 1 10 3 11 12 12 10 14
REMARK H PARENT 12 13 10 15
REMARK Flexibility Score: inf
ROOT
ATOM      1  C   UNL     1     -11.653 -65.858 -24.517  1.00  0.00    -0.022 A 
ATOM      2  C   UNL     1     -12.231 -64.685 -25.043  1.00  0.00     0.058 A 
ATOM      3  C   UNL     1     -12.491 -66.928 -24.166  1.00  0.00     0.012 A 
ATOM      4  C   UNL     1     -13.618 -64.598 -25.236  1.00  0.00     0.157 A 
ATOM      5  C   UNL     1     -13.872 -66.843 -24.360  1.00  0.00     0.051 A 
ATOM      6  C   UNL     1     -14.441 -65.685 -24.897  1.00  0.00     0.157 A 
ENDROOT
BRANCH   1   7
ATOM      7  C   UNL     1     -10.194 -65.994 -24.284  1.00  0.00     0.010 C 
ATOM      8  C   UNL     1      -9.338 -66.493 -25.187  1.00  0.00     0.025 C 
BRANCH   8   9
ATOM      9  C   UNL     1      -7.897 -66.624 -24.916  1.00  0.00     0.064 C 
ATOM     10  O   UNL     1      -7.449 -66.592 -23.739  1.00  0.00    -0.545 OA
ATOM     11  O   UNL     1      -7.015 -66.785 -25.977  1.00  0.00    -0.545 OA
ENDBRANCH   8   9
ENDBRANCH   1   7
BRANCH   4  12
ATOM     12  O   UNL     1     -14.180 -63.435 -25.760  1.00  0.00    -0.504 OA
ATOM     13  H   UNL     1     -15.101 -63.434 -26.185  1.00  0.00     0.293 HD
ENDBRANCH   4  12
BRANCH   6  14
ATOM     14  O   UNL     1     -15.822 -65.629 -25.080  1.00  0.00    -0.504 OA
ATOM     15  H   UNL     1     -16.437 -65.187 -24.408  1.00  0.00     0.293 HD
ENDBRANCH   6  14
TORSDOF 4
ENDMDL
MODEL 7
REMARK VINA RESULT:    -5.660      3.921      5.166
REMARK INTER + INTRA:          -6.804
REMARK INTER:                  -6.673
REMARK INTRA:                  -0.131
REMARK UNBOUND:                -0.151
REMARK SMILES O=C([O-])C=Cc1ccc(O)c(O)c1
REMARK SMILES IDX 6 1 13 2 7 3 11 4 8 5 9 6 5 7 4 8 2 9 1 10 3 11 12 12 10 14
REMARK H PARENT 12 13 10 15
REMARK Flexibility Score: inf
ROOT
ATOM      1  C   UNL     1     -12.462 -66.495 -33.317  1.00  0.00    -0.022 A 
ATOM      2  C   UNL     1     -12.944 -67.160 -34.462  1.00  0.00     0.058 A 
ATOM      3  C   UNL     1     -13.381 -65.881 -32.452  1.00  0.00     0.012 A 
ATOM      4  C   UNL     1     -14.322 -67.227 -34.720  1.00  0.00     0.157 A 
ATOM      5  C   UNL     1     -14.753 -65.949 -32.708  1.00  0.00     0.051 A 
ATOM      6  C   UNL     1     -15.230 -66.622 -33.836  1.00  0.00     0.157 A 
ENDROOT
BRANCH   1   7
ATOM      7  C   UNL     1     -11.014 -66.387 -33.007  1.00  0.00     0.010 C 
ATOM      8  C   UNL     1     -10.256 -65.336 -33.348  1.00  0.00     0.025 C 
BRANCH   8   9
ATOM      9  C   UNL     1      -8.819 -65.268 -33.033  1.00  0.00     0.064 C 
ATOM     10  O   UNL     1      -8.035 -64.558 -33.717  1.00  0.00    -0.545 OA
ATOM     11  O   UNL     1      -8.320 -65.999 -31.963  1.00  0.00    -0.545 OA
ENDBRANCH   8   9
ENDBRANCH   1   7
BRANCH   4  12
ATOM     12  O   UNL     1     -14.790 -67.889 -35.854  1.00  0.00    -0.504 OA
ATOM     13  H   UNL     1     -14.514 -67.607 -36.787  1.00  0.00     0.293 HD
ENDBRANCH   4  12
BRANCH   6  14
ATOM     14  O   UNL     1     -16.604 -66.676 -34.064  1.00  0.00    -0.504 OA
ATOM     15  H   UNL     1     -17.227 -67.219 -33.478  1.00  0.00     0.293 HD
ENDBRANCH   6  14
TORSDOF 4
ENDMDL
MODEL 8
REMARK VINA RESULT:    -5.602      3.794      5.758
REMARK INTER + INTRA:          -6.736
REMARK INTER:                  -6.601
REMARK INTRA:                  -0.135
REMARK UNBOUND:                -0.151
REMARK SMILES O=C([O-])C=Cc1ccc(O)c(O)c1
REMARK SMILES IDX 6 1 13 2 7 3 11 4 8 5 9 6 5 7 4 8 2 9 1 10 3 11 12 12 10 14
REMARK H PARENT 12 13 10 15
REMARK Flexibility Score: inf
ROOT
ATOM      1  C   UNL     1     -12.195 -66.608 -33.542  1.00  0.00    -0.022 A 
ATOM      2  C   UNL     1     -13.492 -66.248 -33.127  1.00  0.00     0.058 A 
ATOM      3  C   UNL     1     -12.039 -67.311 -34.747  1.00  0.00     0.012 A 
ATOM      4  C   UNL     1     -14.607 -66.564 -33.918  1.00  0.00     0.157 A 
ATOM      5  C   UNL     1     -13.149 -67.625 -35.535  1.00  0.00     0.051 A 
ATOM      6  C   UNL     1     -14.433 -67.252 -35.130  1.00  0.00     0.157 A 
ENDROOT
BRANCH   1   7
ATOM      7  C   UNL     1     -10.986 -66.307 -32.735  1.00  0.00     0.010 C 
ATOM      8  C   UNL     1     -10.259 -67.240 -32.104  1.00  0.00     0.025 C 
BRANCH   8   9
ATOM      9  C   UNL     1      -9.071 -66.903 -31.303  1.00  0.00     0.064 C 
ATOM     10  O   UNL     1      -8.166 -66.157 -31.761  1.00  0.00    -0.545 OA
ATOM     11  O   UNL     1      -8.947 -67.416 -30.018  1.00  0.00    -0.545 OA
ENDBRANCH   8   9
ENDBRANCH   1   7
BRANCH   4  12
ATOM     12  O   UNL     1     -15.887 -66.200 -33.502  1.00  0.00    -0.504 OA
ATOM     13  H   UNL     1     -16.198 -66.346 -32.548  1.00  0.00     0.293 HD
ENDBRANCH   4  12
BRANCH   6  14
ATOM     14  O   UNL     1     -15.522 -67.577 -35.939  1.00  0.00    -0.504 OA
ATOM     15  H   UNL     1     -16.451 -67.714 -35.561  1.00  0.00     0.293 HD
ENDBRANCH   6  14
TORSDOF 4
ENDMDL
