MODEL 1
REMARK VINA RESULT:    -5.725      0.000      0.000
REMARK INTER + INTRA:          -7.231
REMARK INTER:                  -6.896
REMARK INTRA:                  -0.335
REMARK UNBOUND:                -0.335
REMARK SMILES Oc1cc(O)c2cc(O)c(-c3ccc(O)c(O)c3)[o+]c2c1
REMARK SMILES IDX 10 1 19 2 20 3 21 4 2 5 3 6 4 7 6 8 7 9 8 10 11 11 12 12
REMARK SMILES IDX 13 13 14 14 18 15 16 16 15 17 17 19 9 21 1 23 5 25
REMARK H PARENT 15 18 17 20 9 22 1 24 5 26
REMARK Flexibility Score: inf
ROOT
ATOM      1  C   UNL     1      -4.913  -9.486   8.346  1.00  0.00     0.402 A 
ATOM      2  O   UNL     1      -4.097 -10.065   7.467  1.00  0.00    -0.202 OA
ATOM      3  C   UNL     1      -2.774  -9.945   7.513  1.00  0.00     0.368 A 
ATOM      4  C   UNL     1      -1.987 -10.582   6.549  1.00  0.00     0.162 A 
ATOM      5  C   UNL     1      -0.595 -10.461   6.584  1.00  0.00     0.128 A 
ATOM      6  C   UNL     1       0.016  -9.699   7.589  1.00  0.00     0.093 A 
ATOM      7  C   UNL     1      -0.760  -9.057   8.565  1.00  0.00     0.136 A 
ATOM      8  C   UNL     1      -2.162  -9.178   8.528  1.00  0.00     0.125 A 
ATOM      9  C   UNL     1      -2.986  -8.565   9.479  1.00  0.00     0.078 A 
ATOM     10  C   UNL     1      -4.372  -8.723   9.403  1.00  0.00     0.223 A 
ENDROOT
BRANCH   1  11
ATOM     11  C   UNL     1      -6.372  -9.685   8.185  1.00  0.00     0.087 A 
ATOM     12  C   UNL     1      -6.947 -10.907   8.565  1.00  0.00     0.022 A 
ATOM     13  C   UNL     1      -8.318 -11.125   8.405  1.00  0.00     0.051 A 
ATOM     14  C   UNL     1      -9.131 -10.133   7.849  1.00  0.00     0.157 A 
ATOM     15  C   UNL     1      -7.187  -8.695   7.607  1.00  0.00     0.068 A 
ATOM     16  C   UNL     1      -8.563  -8.913   7.444  1.00  0.00     0.158 A 
BRANCH  14  17
ATOM     17  O   UNL     1     -10.495 -10.378   7.703  1.00  0.00    -0.504 OA
ATOM     18  H   UNL     1     -10.871 -11.318   7.656  1.00  0.00     0.293 HD
ENDBRANCH  14  17
BRANCH  16  19
ATOM     19  O   UNL     1      -9.367  -7.925   6.876  1.00  0.00    -0.504 OA
ATOM     20  H   UNL     1      -9.794  -7.199   7.441  1.00  0.00     0.293 HD
ENDBRANCH  16  19
ENDBRANCH   1  11
BRANCH  10  21
ATOM     21  O   UNL     1      -5.197  -8.157  10.376  1.00  0.00    -0.500 OA
ATOM     22  H   UNL     1      -4.867  -7.992  11.319  1.00  0.00     0.294 HD
ENDBRANCH  10  21
BRANCH   5  23
ATOM     23  O   UNL     1       0.173 -11.102   5.614  1.00  0.00    -0.507 OA
ATOM     24  H   UNL     1       0.482 -10.619   4.778  1.00  0.00     0.293 HD
ENDBRANCH   5  23
BRANCH   7  25
ATOM     25  O   UNL     1      -0.141  -8.302   9.562  1.00  0.00    -0.507 OA
ATOM     26  H   UNL     1      -0.349  -8.445  10.542  1.00  0.00     0.293 HD
ENDBRANCH   7  25
TORSDOF 6
ENDMDL
MODEL 2
REMARK VINA RESULT:    -5.600      1.134      2.692
REMARK INTER + INTRA:          -7.081
REMARK INTER:                  -6.737
REMARK INTRA:                  -0.344
REMARK UNBOUND:                -0.335
REMARK SMILES Oc1cc(O)c2cc(O)c(-c3ccc(O)c(O)c3)[o+]c2c1
REMARK SMILES IDX 10 1 19 2 20 3 21 4 2 5 3 6 4 7 6 8 7 9 8 10 11 11 12 12
REMARK SMILES IDX 13 13 14 14 18 15 16 16 15 17 17 19 9 21 1 23 5 25
REMARK H PARENT 15 18 17 20 9 22 1 24 5 26
REMARK Flexibility Score: inf
ROOT
ATOM      1  C   UNL     1      -5.072  -9.582   8.125  1.00  0.00     0.402 A 
ATOM      2  O   UNL     1      -4.448  -8.804   9.007  1.00  0.00    -0.202 OA
ATOM      3  C   UNL     1      -3.124  -8.722   9.098  1.00  0.00     0.368 A 
ATOM      4  C   UNL     1      -2.547  -7.884  10.056  1.00  0.00     0.162 A 
ATOM      5  C   UNL     1      -1.156  -7.790  10.164  1.00  0.00     0.128 A 
ATOM      6  C   UNL     1      -0.336  -8.541   9.310  1.00  0.00     0.093 A 
ATOM      7  C   UNL     1      -0.901  -9.385   8.343  1.00  0.00     0.136 A 
ATOM      8  C   UNL     1      -2.302  -9.478   8.235  1.00  0.00     0.125 A 
ATOM      9  C   UNL     1      -2.921 -10.298   7.284  1.00  0.00     0.078 A 
ATOM     10  C   UNL     1      -4.316 -10.348   7.213  1.00  0.00     0.223 A 
ENDROOT
BRANCH   1  11
ATOM     11  C   UNL     1      -6.553  -9.596   8.126  1.00  0.00     0.087 A 
ATOM     12  C   UNL     1      -7.232 -10.612   8.818  1.00  0.00     0.022 A 
ATOM     13  C   UNL     1      -8.628 -10.657   8.817  1.00  0.00     0.051 A 
ATOM     14  C   UNL     1      -9.366  -9.699   8.114  1.00  0.00     0.157 A 
ATOM     15  C   UNL     1      -7.296  -8.646   7.403  1.00  0.00     0.068 A 
ATOM     16  C   UNL     1      -8.698  -8.692   7.400  1.00  0.00     0.158 A 
BRANCH  14  17
ATOM     17  O   UNL     1     -10.758  -9.769   8.134  1.00  0.00    -0.504 OA
ATOM     18  H   UNL     1     -11.273 -10.413   7.545  1.00  0.00     0.293 HD
ENDBRANCH  14  17
BRANCH  16  19
ATOM     19  O   UNL     1      -9.428  -7.743   6.685  1.00  0.00    -0.504 OA
ATOM     20  H   UNL     1     -10.366  -7.474   6.964  1.00  0.00     0.293 HD
ENDBRANCH  16  19
ENDBRANCH   1  11
BRANCH  10  21
ATOM     21  O   UNL     1      -4.939 -11.125   6.235  1.00  0.00    -0.500 OA
ATOM     22  H   UNL     1      -4.998 -10.818   5.272  1.00  0.00     0.294 HD
ENDBRANCH  10  21
BRANCH   5  23
ATOM     23  O   UNL     1      -0.598  -6.951  11.125  1.00  0.00    -0.507 OA
ATOM     24  H   UNL     1      -0.423  -5.971  10.935  1.00  0.00     0.293 HD
ENDBRANCH   5  23
BRANCH   7  25
ATOM     25  O   UNL     1      -0.076 -10.125   7.496  1.00  0.00    -0.507 OA
ATOM     26  H   UNL     1       0.078  -9.854   6.533  1.00  0.00     0.293 HD
ENDBRANCH   7  25
TORSDOF 6
ENDMDL
MODEL 3
REMARK VINA RESULT:    -5.537      2.841      7.662
REMARK INTER + INTRA:          -7.006
REMARK INTER:                  -6.684
REMARK INTRA:                  -0.322
REMARK UNBOUND:                -0.335
REMARK SMILES Oc1cc(O)c2cc(O)c(-c3ccc(O)c(O)c3)[o+]c2c1
REMARK SMILES IDX 10 1 19 2 20 3 21 4 2 5 3 6 4 7 6 8 7 9 8 10 11 11 12 12
REMARK SMILES IDX 13 13 14 14 18 15 16 16 15 17 17 19 9 21 1 23 5 25
REMARK H PARENT 15 18 17 20 9 22 1 24 5 26
REMARK Flexibility Score: inf
ROOT
ATOM      1  C   UNL     1      -6.273  -8.464   9.259  1.00  0.00     0.402 A 
ATOM      2  O   UNL     1      -7.317  -8.064   9.982  1.00  0.00    -0.202 OA
ATOM      3  C   UNL     1      -8.563  -8.466   9.747  1.00  0.00     0.368 A 
ATOM      4  C   UNL     1      -9.605  -7.994  10.551  1.00  0.00     0.162 A 
ATOM      5  C   UNL     1     -10.920  -8.406  10.313  1.00  0.00     0.128 A 
ATOM      6  C   UNL     1     -11.195  -9.295   9.265  1.00  0.00     0.093 A 
ATOM      7  C   UNL     1     -10.159  -9.778   8.452  1.00  0.00     0.136 A 
ATOM      8  C   UNL     1      -8.836  -9.362   8.692  1.00  0.00     0.125 A 
ATOM      9  C   UNL     1      -7.762  -9.817   7.918  1.00  0.00     0.078 A 
ATOM     10  C   UNL     1      -6.466  -9.379   8.202  1.00  0.00     0.223 A 
ENDROOT
BRANCH   1  11
ATOM     11  C   UNL     1      -4.934  -7.939   9.611  1.00  0.00     0.087 A 
ATOM     12  C   UNL     1      -4.078  -8.714  10.410  1.00  0.00     0.022 A 
ATOM     13  C   UNL     1      -2.818  -8.231  10.771  1.00  0.00     0.051 A 
ATOM     14  C   UNL     1      -2.399  -6.964  10.353  1.00  0.00     0.157 A 
ATOM     15  C   UNL     1      -4.520  -6.657   9.208  1.00  0.00     0.068 A 
ATOM     16  C   UNL     1      -3.256  -6.171   9.572  1.00  0.00     0.158 A 
BRANCH  14  17
ATOM     17  O   UNL     1      -1.136  -6.510  10.728  1.00  0.00    -0.504 OA
ATOM     18  H   UNL     1      -0.595  -6.962  11.456  1.00  0.00     0.293 HD
ENDBRANCH  14  17
BRANCH  16  19
ATOM     19  O   UNL     1      -2.850  -4.901   9.164  1.00  0.00    -0.504 OA
ATOM     20  H   UNL     1      -2.045  -4.442   9.578  1.00  0.00     0.293 HD
ENDBRANCH  16  19
ENDBRANCH   1  11
BRANCH  10  21
ATOM     21  O   UNL     1      -5.385  -9.867   7.467  1.00  0.00    -0.500 OA
ATOM     22  H   UNL     1      -5.079 -10.829   7.548  1.00  0.00     0.294 HD
ENDBRANCH  10  21
BRANCH   5  23
ATOM     23  O   UNL     1     -11.946  -7.926  11.123  1.00  0.00    -0.507 OA
ATOM     24  H   UNL     1     -12.665  -8.540  11.487  1.00  0.00     0.293 HD
ENDBRANCH   5  23
BRANCH   7  25
ATOM     25  O   UNL     1     -10.445 -10.664   7.412  1.00  0.00    -0.507 OA
ATOM     26  H   UNL     1      -9.735 -10.955   6.752  1.00  0.00     0.293 HD
ENDBRANCH   7  25
TORSDOF 6
ENDMDL
MODEL 4
REMARK VINA RESULT:    -5.234      2.661      3.330
REMARK INTER + INTRA:          -6.641
REMARK INTER:                  -6.310
REMARK INTRA:                  -0.330
REMARK UNBOUND:                -0.335
REMARK SMILES Oc1cc(O)c2cc(O)c(-c3ccc(O)c(O)c3)[o+]c2c1
REMARK SMILES IDX 10 1 19 2 20 3 21 4 2 5 3 6 4 7 6 8 7 9 8 10 11 11 12 12
REMARK SMILES IDX 13 13 14 14 18 15 16 16 15 17 17 19 9 21 1 23 5 25
REMARK H PARENT 15 18 17 20 9 22 1 24 5 26
REMARK Flexibility Score: inf
ROOT
ATOM      1  C   UNL     1      -6.345  -8.748   9.547  1.00  0.00     0.402 A 
ATOM      2  O   UNL     1      -5.614  -7.646   9.384  1.00  0.00    -0.202 OA
ATOM      3  C   UNL     1      -4.309  -7.595   9.633  1.00  0.00     0.368 A 
ATOM      4  C   UNL     1      -3.615  -6.396   9.440  1.00  0.00     0.162 A 
ATOM      5  C   UNL     1      -2.243  -6.327   9.701  1.00  0.00     0.128 A 
ATOM      6  C   UNL     1      -1.560  -7.463  10.158  1.00  0.00     0.093 A 
ATOM      7  C   UNL     1      -2.243  -8.672  10.353  1.00  0.00     0.136 A 
ATOM      8  C   UNL     1      -3.625  -8.741  10.091  1.00  0.00     0.125 A 
ATOM      9  C   UNL     1      -4.356  -9.922  10.261  1.00  0.00     0.078 A 
ATOM     10  C   UNL     1      -5.724  -9.939   9.979  1.00  0.00     0.223 A 
ENDROOT
BRANCH   1  11
ATOM     11  C   UNL     1      -7.793  -8.679   9.246  1.00  0.00     0.087 A 
ATOM     12  C   UNL     1      -8.710  -8.543  10.300  1.00  0.00     0.022 A 
ATOM     13  C   UNL     1     -10.083  -8.496  10.042  1.00  0.00     0.051 A 
ATOM     14  C   UNL     1     -10.560  -8.599   8.732  1.00  0.00     0.157 A 
ATOM     15  C   UNL     1      -8.275  -8.803   7.931  1.00  0.00     0.068 A 
ATOM     16  C   UNL     1      -9.653  -8.758   7.671  1.00  0.00     0.158 A 
BRANCH  14  17
ATOM     17  O   UNL     1     -11.934  -8.546   8.506  1.00  0.00    -0.504 OA
ATOM     18  H   UNL     1     -12.324  -8.199   7.637  1.00  0.00     0.293 HD
ENDBRANCH  14  17
BRANCH  16  19
ATOM     19  O   UNL     1     -10.124  -8.875   6.364  1.00  0.00    -0.504 OA
ATOM     20  H   UNL     1     -11.031  -8.511   6.091  1.00  0.00     0.293 HD
ENDBRANCH  16  19
ENDBRANCH   1  11
BRANCH  10  21
ATOM     21  O   UNL     1      -6.449 -11.125  10.099  1.00  0.00    -0.500 OA
ATOM     22  H   UNL     1      -7.303 -11.280   9.576  1.00  0.00     0.294 HD
ENDBRANCH  10  21
BRANCH   5  23
ATOM     23  O   UNL     1      -1.567  -5.125   9.505  1.00  0.00    -0.507 OA
ATOM     24  H   UNL     1      -2.021  -4.326   9.078  1.00  0.00     0.293 HD
ENDBRANCH   5  23
BRANCH   7  25
ATOM     25  O   UNL     1      -1.553  -9.797  10.807  1.00  0.00    -0.507 OA
ATOM     26  H   UNL     1      -0.587  -9.966  10.551  1.00  0.00     0.293 HD
ENDBRANCH   7  25
TORSDOF 6
ENDMDL
MODEL 5
REMARK VINA RESULT:    -4.989      2.083      2.513
REMARK INTER + INTRA:          -6.345
REMARK INTER:                  -6.081
REMARK INTRA:                  -0.264
REMARK UNBOUND:                -0.335
REMARK SMILES Oc1cc(O)c2cc(O)c(-c3ccc(O)c(O)c3)[o+]c2c1
REMARK SMILES IDX 10 1 19 2 20 3 21 4 2 5 3 6 4 7 6 8 7 9 8 10 11 11 12 12
REMARK SMILES IDX 13 13 14 14 18 15 16 16 15 17 17 19 9 21 1 23 5 25
REMARK H PARENT 15 18 17 20 9 22 1 24 5 26
REMARK Flexibility Score: inf
ROOT
ATOM      1  C   UNL     1      -3.951  -7.643   9.269  1.00  0.00     0.402 A 
ATOM      2  O   UNL     1      -3.028  -8.585   9.083  1.00  0.00    -0.202 OA
ATOM      3  C   UNL     1      -1.725  -8.328   9.033  1.00  0.00     0.368 A 
ATOM      4  C   UNL     1      -0.821  -9.375   8.830  1.00  0.00     0.162 A 
ATOM      5  C   UNL     1       0.553  -9.118   8.773  1.00  0.00     0.128 A 
ATOM      6  C   UNL     1       1.026  -7.807   8.919  1.00  0.00     0.093 A 
ATOM      7  C   UNL     1       0.130  -6.747   9.126  1.00  0.00     0.136 A 
ATOM      8  C   UNL     1      -1.252  -7.007   9.183  1.00  0.00     0.125 A 
ATOM      9  C   UNL     1      -2.191  -5.990   9.394  1.00  0.00     0.078 A 
ATOM     10  C   UNL     1      -3.552  -6.302   9.451  1.00  0.00     0.223 A 
ENDROOT
BRANCH   1  11
ATOM     11  C   UNL     1      -5.374  -8.051   9.296  1.00  0.00     0.087 A 
ATOM     12  C   UNL     1      -5.835  -8.876  10.334  1.00  0.00     0.022 A 
ATOM     13  C   UNL     1      -7.169  -9.290  10.370  1.00  0.00     0.051 A 
ATOM     14  C   UNL     1      -8.058  -8.899   9.364  1.00  0.00     0.157 A 
ATOM     15  C   UNL     1      -6.264  -7.676   8.274  1.00  0.00     0.068 A 
ATOM     16  C   UNL     1      -7.603  -8.093   8.308  1.00  0.00     0.158 A 
BRANCH  14  17
ATOM     17  O   UNL     1      -9.383  -9.327   9.428  1.00  0.00    -0.504 OA
ATOM     18  H   UNL     1     -10.149  -8.756   9.089  1.00  0.00     0.293 HD
ENDBRANCH  14  17
BRANCH  16  19
ATOM     19  O   UNL     1      -8.481  -7.712   7.294  1.00  0.00    -0.504 OA
ATOM     20  H   UNL     1      -8.484  -8.177   6.392  1.00  0.00     0.293 HD
ENDBRANCH  16  19
ENDBRANCH   1  11
BRANCH  10  21
ATOM     21  O   UNL     1      -4.489  -5.302   9.711  1.00  0.00    -0.500 OA
ATOM     22  H   UNL     1      -4.972  -5.245  10.599  1.00  0.00     0.294 HD
ENDBRANCH  10  21
BRANCH   5  23
ATOM     23  O   UNL     1       1.439 -10.173   8.568  1.00  0.00    -0.507 OA
ATOM     24  H   UNL     1       1.589 -10.884   9.275  1.00  0.00     0.293 HD
ENDBRANCH   5  23
BRANCH   7  25
ATOM     25  O   UNL     1       0.613  -5.446   9.272  1.00  0.00    -0.507 OA
ATOM     26  H   UNL     1       0.905  -4.896   8.474  1.00  0.00     0.293 HD
ENDBRANCH   7  25
TORSDOF 6
ENDMDL
MODEL 6
REMARK VINA RESULT:    -4.975      3.456      6.121
REMARK INTER + INTRA:          -6.328
REMARK INTER:                  -5.979
REMARK INTRA:                  -0.350
REMARK UNBOUND:                -0.335
REMARK SMILES Oc1cc(O)c2cc(O)c(-c3ccc(O)c(O)c3)[o+]c2c1
REMARK SMILES IDX 10 1 19 2 20 3 21 4 2 5 3 6 4 7 6 8 7 9 8 10 11 11 12 12
REMARK SMILES IDX 13 13 14 14 18 15 16 16 15 17 17 19 9 21 1 23 5 25
REMARK H PARENT 15 18 17 20 9 22 1 24 5 26
REMARK Flexibility Score: inf
ROOT
ATOM      1  C   UNL     1      -0.014  -8.167   8.855  1.00  0.00     0.402 A 
ATOM      2  O   UNL     1       0.128  -6.888   8.515  1.00  0.00    -0.202 OA
ATOM      3  C   UNL     1       1.127  -6.125   8.950  1.00  0.00     0.368 A 
ATOM      4  C   UNL     1       1.202  -4.788   8.548  1.00  0.00     0.162 A 
ATOM      5  C   UNL     1       2.245  -3.974   9.000  1.00  0.00     0.128 A 
ATOM      6  C   UNL     1       3.219  -4.499   9.860  1.00  0.00     0.093 A 
ATOM      7  C   UNL     1       3.157  -5.839  10.270  1.00  0.00     0.136 A 
ATOM      8  C   UNL     1       2.107  -6.658   9.814  1.00  0.00     0.125 A 
ATOM      9  C   UNL     1       1.998  -8.004  10.184  1.00  0.00     0.078 A 
ATOM     10  C   UNL     1       0.940  -8.775   9.697  1.00  0.00     0.223 A 
ENDROOT
BRANCH   1  11
ATOM     11  C   UNL     1      -1.174  -8.912   8.314  1.00  0.00     0.087 A 
ATOM     12  C   UNL     1      -2.373  -8.945   9.044  1.00  0.00     0.022 A 
ATOM     13  C   UNL     1      -3.475  -9.658   8.563  1.00  0.00     0.051 A 
ATOM     14  C   UNL     1      -3.391 -10.358   7.356  1.00  0.00     0.157 A 
ATOM     15  C   UNL     1      -1.085  -9.633   7.111  1.00  0.00     0.068 A 
ATOM     16  C   UNL     1      -2.190 -10.351   6.628  1.00  0.00     0.158 A 
BRANCH  14  17
ATOM     17  O   UNL     1      -4.508 -11.058   6.900  1.00  0.00    -0.504 OA
ATOM     18  H   UNL     1      -5.451 -10.717   7.041  1.00  0.00     0.293 HD
ENDBRANCH  14  17
BRANCH  16  19
ATOM     19  O   UNL     1      -2.096 -11.059   5.430  1.00  0.00    -0.504 OA
ATOM     20  H   UNL     1      -2.923 -11.384   4.940  1.00  0.00     0.293 HD
ENDBRANCH  16  19
ENDBRANCH   1  11
BRANCH  10  21
ATOM     21  O   UNL     1       0.854 -10.130  10.022  1.00  0.00    -0.500 OA
ATOM     22  H   UNL     1       1.357 -10.519  10.810  1.00  0.00     0.294 HD
ENDBRANCH  10  21
BRANCH   5  23
ATOM     23  O   UNL     1       2.304  -2.644   8.591  1.00  0.00    -0.507 OA
ATOM     24  H   UNL     1       1.463  -2.108   8.410  1.00  0.00     0.293 HD
ENDBRANCH   5  23
BRANCH   7  25
ATOM     25  O   UNL     1       4.134  -6.352  11.125  1.00  0.00    -0.507 OA
ATOM     26  H   UNL     1       4.771  -7.081  10.828  1.00  0.00     0.293 HD
ENDBRANCH   7  25
TORSDOF 6
ENDMDL
MODEL 7
REMARK VINA RESULT:    -4.937      2.371      3.420
REMARK INTER + INTRA:          -6.282
REMARK INTER:                  -5.941
REMARK INTRA:                  -0.342
REMARK UNBOUND:                -0.335
REMARK SMILES Oc1cc(O)c2cc(O)c(-c3ccc(O)c(O)c3)[o+]c2c1
REMARK SMILES IDX 10 1 19 2 20 3 21 4 2 5 3 6 4 7 6 8 7 9 8 10 11 11 12 12
REMARK SMILES IDX 13 13 14 14 18 15 16 16 15 17 17 19 9 21 1 23 5 25
REMARK H PARENT 15 18 17 20 9 22 1 24 5 26
REMARK Flexibility Score: inf
ROOT
ATOM      1  C   UNL     1      -3.103  -8.880   9.228  1.00  0.00     0.402 A 
ATOM      2  O   UNL     1      -2.520  -7.781   8.753  1.00  0.00    -0.202 OA
ATOM      3  C   UNL     1      -1.276  -7.426   9.061  1.00  0.00     0.368 A 
ATOM      4  C   UNL     1      -0.739  -6.253   8.522  1.00  0.00     0.162 A 
ATOM      5  C   UNL     1       0.566  -5.865   8.839  1.00  0.00     0.128 A 
ATOM      6  C   UNL     1       1.340  -6.655   9.701  1.00  0.00     0.093 A 
ATOM      7  C   UNL     1       0.815  -7.835  10.247  1.00  0.00     0.136 A 
ATOM      8  C   UNL     1      -0.500  -8.224   9.927  1.00  0.00     0.125 A 
ATOM      9  C   UNL     1      -1.074  -9.395  10.436  1.00  0.00     0.078 A 
ATOM     10  C   UNL     1      -2.380  -9.740  10.081  1.00  0.00     0.223 A 
ENDROOT
BRANCH   1  11
ATOM     11  C   UNL     1      -4.498  -9.166   8.821  1.00  0.00     0.087 A 
ATOM     12  C   UNL     1      -5.558  -8.625   9.565  1.00  0.00     0.022 A 
ATOM     13  C   UNL     1      -6.882  -8.897   9.212  1.00  0.00     0.051 A 
ATOM     14  C   UNL     1      -7.167  -9.723   8.121  1.00  0.00     0.157 A 
ATOM     15  C   UNL     1      -4.786 -10.013   7.736  1.00  0.00     0.068 A 
ATOM     16  C   UNL     1      -6.115 -10.288   7.382  1.00  0.00     0.158 A 
BRANCH  14  17
ATOM     17  O   UNL     1      -8.498  -9.974   7.791  1.00  0.00    -0.504 OA
ATOM     18  H   UNL     1      -9.267  -9.616   8.346  1.00  0.00     0.293 HD
ENDBRANCH  14  17
BRANCH  16  19
ATOM     19  O   UNL     1      -6.393 -11.125   6.301  1.00  0.00    -0.504 OA
ATOM     20  H   UNL     1      -6.819 -10.770   5.451  1.00  0.00     0.293 HD
ENDBRANCH  16  19
ENDBRANCH   1  11
BRANCH  10  21
ATOM     21  O   UNL     1      -2.940 -10.931  10.545  1.00  0.00    -0.500 OA
ATOM     22  H   UNL     1      -3.875 -11.217  10.279  1.00  0.00     0.294 HD
ENDBRANCH  10  21
BRANCH   5  23
ATOM     23  O   UNL     1       1.085  -4.693   8.295  1.00  0.00    -0.507 OA
ATOM     24  H   UNL     1       1.469  -4.669   7.358  1.00  0.00     0.293 HD
ENDBRANCH   5  23
BRANCH   7  25
ATOM     25  O   UNL     1       1.595  -8.615  11.102  1.00  0.00    -0.507 OA
ATOM     26  H   UNL     1       1.697  -9.613  10.966  1.00  0.00     0.293 HD
ENDBRANCH   7  25
TORSDOF 6
ENDMDL
MODEL 8
REMARK VINA RESULT:    -4.868      3.737      5.942
REMARK INTER + INTRA:          -6.199
REMARK INTER:                  -5.995
REMARK INTRA:                  -0.204
REMARK UNBOUND:                -0.335
REMARK SMILES Oc1cc(O)c2cc(O)c(-c3ccc(O)c(O)c3)[o+]c2c1
REMARK SMILES IDX 10 1 19 2 20 3 21 4 2 5 3 6 4 7 6 8 7 9 8 10 11 11 12 12
REMARK SMILES IDX 13 13 14 14 18 15 16 16 15 17 17 19 9 21 1 23 5 25
REMARK H PARENT 15 18 17 20 9 22 1 24 5 26
REMARK Flexibility Score: inf
ROOT
ATOM      1  C   UNL     1      -0.523  -7.054   8.564  1.00  0.00     0.402 A 
ATOM      2  O   UNL     1       0.724  -7.412   8.863  1.00  0.00    -0.202 OA
ATOM      3  C   UNL     1       1.728  -6.544   8.952  1.00  0.00     0.368 A 
ATOM      4  C   UNL     1       3.011  -7.002   9.266  1.00  0.00     0.162 A 
ATOM      5  C   UNL     1       4.077  -6.102   9.360  1.00  0.00     0.128 A 
ATOM      6  C   UNL     1       3.859  -4.735   9.137  1.00  0.00     0.093 A 
ATOM      7  C   UNL     1       2.577  -4.262   8.823  1.00  0.00     0.136 A 
ATOM      8  C   UNL     1       1.505  -5.169   8.728  1.00  0.00     0.125 A 
ATOM      9  C   UNL     1       0.203  -4.753   8.425  1.00  0.00     0.078 A 
ATOM     10  C   UNL     1      -0.827  -5.693   8.351  1.00  0.00     0.223 A 
ENDROOT
BRANCH   1  11
ATOM     11  C   UNL     1      -1.556  -8.113   8.484  1.00  0.00     0.087 A 
ATOM     12  C   UNL     1      -2.577  -8.153   9.447  1.00  0.00     0.022 A 
ATOM     13  C   UNL     1      -3.551  -9.154   9.403  1.00  0.00     0.051 A 
ATOM     14  C   UNL     1      -3.511 -10.137   8.409  1.00  0.00     0.157 A 
ATOM     15  C   UNL     1      -1.505  -9.114   7.498  1.00  0.00     0.068 A 
ATOM     16  C   UNL     1      -2.481 -10.120   7.455  1.00  0.00     0.158 A 
BRANCH  14  17
ATOM     17  O   UNL     1      -4.498 -11.122   8.391  1.00  0.00    -0.504 OA
ATOM     18  H   UNL     1      -4.713 -11.684   9.206  1.00  0.00     0.293 HD
ENDBRANCH  14  17
BRANCH  16  19
ATOM     19  O   UNL     1      -2.428 -11.106   6.470  1.00  0.00    -0.504 OA
ATOM     20  H   UNL     1      -1.875 -10.986   5.627  1.00  0.00     0.293 HD
ENDBRANCH  16  19
ENDBRANCH   1  11
BRANCH  10  21
ATOM     21  O   UNL     1      -2.136  -5.279   8.099  1.00  0.00    -0.500 OA
ATOM     22  H   UNL     1      -2.336  -4.384   7.669  1.00  0.00     0.294 HD
ENDBRANCH  10  21
BRANCH   5  23
ATOM     23  O   UNL     1       5.349  -6.575   9.673  1.00  0.00    -0.507 OA
ATOM     24  H   UNL     1       6.117  -5.943   9.864  1.00  0.00     0.293 HD
ENDBRANCH   5  23
BRANCH   7  25
ATOM     25  O   UNL     1       2.372  -2.899   8.605  1.00  0.00    -0.507 OA
ATOM     26  H   UNL     1       3.060  -2.327   8.130  1.00  0.00     0.293 HD
ENDBRANCH   7  25
TORSDOF 6
ENDMDL
MODEL 9
REMARK VINA RESULT:    -4.746     11.431     13.498
REMARK INTER + INTRA:          -6.052
REMARK INTER:                  -6.094
REMARK INTRA:                   0.042
REMARK UNBOUND:                -0.335
REMARK SMILES Oc1cc(O)c2cc(O)c(-c3ccc(O)c(O)c3)[o+]c2c1
REMARK SMILES IDX 10 1 19 2 20 3 21 4 2 5 3 6 4 7 6 8 7 9 8 10 11 11 12 12
REMARK SMILES IDX 13 13 14 14 18 15 16 16 15 17 17 19 9 21 1 23 5 25
REMARK H PARENT 15 18 17 20 9 22 1 24 5 26
REMARK Flexibility Score: inf
ROOT
ATOM      1  C   UNL     1       5.027  -2.275   6.154  1.00  0.00     0.402 A 
ATOM      2  O   UNL     1       5.565  -1.109   5.803  1.00  0.00    -0.202 OA
ATOM      3  C   UNL     1       5.702  -0.088   6.644  1.00  0.00     0.368 A 
ATOM      4  C   UNL     1       6.274   1.106   6.195  1.00  0.00     0.162 A 
ATOM      5  C   UNL     1       6.422   2.188   7.068  1.00  0.00     0.128 A 
ATOM      6  C   UNL     1       5.996   2.077   8.399  1.00  0.00     0.093 A 
ATOM      7  C   UNL     1       5.423   0.884   8.864  1.00  0.00     0.136 A 
ATOM      8  C   UNL     1       5.274  -0.205   7.984  1.00  0.00     0.125 A 
ATOM      9  C   UNL     1       4.716  -1.421   8.394  1.00  0.00     0.078 A 
ATOM     10  C   UNL     1       4.598  -2.474   7.483  1.00  0.00     0.223 A 
ENDROOT
BRANCH   1  11
ATOM     11  C   UNL     1       4.918  -3.335   5.125  1.00  0.00     0.087 A 
ATOM     12  C   UNL     1       4.379  -3.021   3.867  1.00  0.00     0.022 A 
ATOM     13  C   UNL     1       4.249  -4.009   2.887  1.00  0.00     0.051 A 
ATOM     14  C   UNL     1       4.640  -5.324   3.153  1.00  0.00     0.157 A 
ATOM     15  C   UNL     1       5.292  -4.663   5.398  1.00  0.00     0.068 A 
ATOM     16  C   UNL     1       5.160  -5.655   4.415  1.00  0.00     0.158 A 
BRANCH  14  17
ATOM     17  O   UNL     1       4.499  -6.288   2.155  1.00  0.00    -0.504 OA
ATOM     18  H   UNL     1       4.970  -6.209   1.262  1.00  0.00     0.293 HD
ENDBRANCH  14  17
BRANCH  16  19
ATOM     19  O   UNL     1       5.538  -6.969   4.691  1.00  0.00    -0.504 OA
ATOM     20  H   UNL     1       6.513  -7.249   4.705  1.00  0.00     0.293 HD
ENDBRANCH  16  19
ENDBRANCH   1  11
BRANCH  10  21
ATOM     21  O   UNL     1       4.088  -3.705   7.898  1.00  0.00    -0.500 OA
ATOM     22  H   UNL     1       4.595  -4.568   7.742  1.00  0.00     0.294 HD
ENDBRANCH  10  21
BRANCH   5  23
ATOM     23  O   UNL     1       6.993   3.371   6.604  1.00  0.00    -0.507 OA
ATOM     24  H   UNL     1       6.884   3.669   5.641  1.00  0.00     0.293 HD
ENDBRANCH   5  23
BRANCH   7  25
ATOM     25  O   UNL     1       5.003   0.784  10.191  1.00  0.00    -0.507 OA
ATOM     26  H   UNL     1       5.626   0.993  10.961  1.00  0.00     0.293 HD
ENDBRANCH   7  25
TORSDOF 6
ENDMDL
