MODEL 1
REMARK VINA RESULT:    -8.782      0.000      0.000
REMARK INTER + INTRA:         -10.516
REMARK INTER:                 -10.322
REMARK INTRA:                  -0.194
REMARK UNBOUND:                -0.194
REMARK SMILES O=c1c(O)c(-c2ccc(O)cc2)oc2cc(O)cc(O)c12
REMARK SMILES IDX 5 1 3 2 2 3 1 4 21 5 19 6 18 7 16 8 15 9 14 10 13 11 6 12
REMARK SMILES IDX 7 13 8 14 9 15 12 16 11 17 10 18 4 20 20 22 17 24
REMARK H PARENT 10 19 4 21 20 23 17 25
REMARK Flexibility Score: inf
ROOT
ATOM      1  C   UNL     1     111.148 111.642 109.518  1.00  0.00     0.180 A 
ATOM      2  C   UNL     1     112.301 112.146 108.892  1.00  0.00     0.208 A 
ATOM      3  C   UNL     1     112.480 111.929 107.517  1.00  0.00     0.238 A 
ATOM      4  O   UNL     1     113.541 112.336 106.974  1.00  0.00    -0.285 OA
ATOM      5  C   UNL     1     111.498 111.225 106.781  1.00  0.00     0.111 A 
ATOM      6  C   UNL     1     111.556 110.982 105.375  1.00  0.00     0.134 A 
ATOM      7  C   UNL     1     110.593 110.162 104.776  1.00  0.00     0.093 A 
ATOM      8  C   UNL     1     109.538 109.629 105.515  1.00  0.00     0.123 A 
ATOM      9  C   UNL     1     109.437 109.910 106.879  1.00  0.00     0.094 A 
ATOM     10  C   UNL     1     110.403 110.695 107.513  1.00  0.00     0.146 A 
ATOM     11  O   UNL     1     110.277 110.929 108.814  1.00  0.00    -0.452 OA
ENDROOT
BRANCH   1  12
ATOM     12  C   UNL     1     110.877 111.851 110.958  1.00  0.00     0.021 A 
ATOM     13  C   UNL     1     111.624 111.141 111.914  1.00  0.00     0.016 A 
ATOM     14  C   UNL     1     111.370 111.308 113.278  1.00  0.00     0.047 A 
ATOM     15  C   UNL     1     110.355 112.174 113.704  1.00  0.00     0.115 A 
ATOM     16  C   UNL     1     109.846 112.704 111.393  1.00  0.00     0.016 A 
ATOM     17  C   UNL     1     109.594 112.868 112.760  1.00  0.00     0.047 A 
BRANCH  15  18
ATOM     18  O   UNL     1     110.092 112.349 115.061  1.00  0.00    -0.508 OA
ATOM     19  H   UNL     1     109.783 113.241 115.430  1.00  0.00     0.293 HD
ENDBRANCH  15  18
ENDBRANCH   1  12
BRANCH   2  20
ATOM     20  O   UNL     1     113.271 112.820 109.642  1.00  0.00    -0.502 OA
ATOM     21  H   UNL     1     113.051 113.623 110.218  1.00  0.00     0.293 HD
ENDBRANCH   2  20
BRANCH   6  22
ATOM     22  O   UNL     1     112.516 111.541 104.526  1.00  0.00    -0.507 OA
ATOM     23  H   UNL     1     113.035 111.028 103.829  1.00  0.00     0.293 HD
ENDBRANCH   6  22
BRANCH   8  24
ATOM     24  O   UNL     1     108.588 108.831 104.883  1.00  0.00    -0.508 OA
ATOM     25  H   UNL     1     107.860 109.232 104.304  1.00  0.00     0.293 HD
ENDBRANCH   8  24
TORSDOF 5
ENDMDL
MODEL 2
REMARK VINA RESULT:    -8.743      1.674      3.386
REMARK INTER + INTRA:         -10.471
REMARK INTER:                 -10.267
REMARK INTRA:                  -0.204
REMARK UNBOUND:                -0.194
REMARK SMILES O=c1c(O)c(-c2ccc(O)cc2)oc2cc(O)cc(O)c12
REMARK SMILES IDX 5 1 3 2 2 3 1 4 21 5 19 6 18 7 16 8 15 9 14 10 13 11 6 12
REMARK SMILES IDX 7 13 8 14 9 15 12 16 11 17 10 18 4 20 20 22 17 24
REMARK H PARENT 10 19 4 21 20 23 17 25
REMARK Flexibility Score: inf
ROOT
ATOM      1  C   UNL     1     111.162 110.650 109.607  1.00  0.00     0.180 A 
ATOM      2  C   UNL     1     110.004 110.135 108.999  1.00  0.00     0.208 A 
ATOM      3  C   UNL     1     109.810 110.337 107.624  1.00  0.00     0.238 A 
ATOM      4  O   UNL     1     108.745 109.921 107.097  1.00  0.00    -0.285 OA
ATOM      5  C   UNL     1     110.782 111.035 106.870  1.00  0.00     0.111 A 
ATOM      6  C   UNL     1     110.708 111.263 105.462  1.00  0.00     0.134 A 
ATOM      7  C   UNL     1     111.662 112.079 104.843  1.00  0.00     0.093 A 
ATOM      8  C   UNL     1     112.723 112.624 105.565  1.00  0.00     0.123 A 
ATOM      9  C   UNL     1     112.839 112.358 106.931  1.00  0.00     0.094 A 
ATOM     10  C   UNL     1     111.883 111.578 107.584  1.00  0.00     0.146 A 
ATOM     11  O   UNL     1     112.023 111.358 108.886  1.00  0.00    -0.452 OA
ENDROOT
BRANCH   1  12
ATOM     12  C   UNL     1     111.450 110.457 111.047  1.00  0.00     0.021 A 
ATOM     13  C   UNL     1     110.729 111.195 112.001  1.00  0.00     0.016 A 
ATOM     14  C   UNL     1     110.999 111.043 113.365  1.00  0.00     0.047 A 
ATOM     15  C   UNL     1     112.004 110.166 113.790  1.00  0.00     0.115 A 
ATOM     16  C   UNL     1     112.471 109.593 111.480  1.00  0.00     0.016 A 
ATOM     17  C   UNL     1     112.740 109.445 112.846  1.00  0.00     0.047 A 
BRANCH  15  18
ATOM     18  O   UNL     1     112.283 110.007 115.145  1.00  0.00    -0.508 OA
ATOM     19  H   UNL     1     113.187 109.677 115.465  1.00  0.00     0.293 HD
ENDBRANCH  15  18
ENDBRANCH   1  12
BRANCH   2  20
ATOM     20  O   UNL     1     109.045 109.467 109.767  1.00  0.00    -0.502 OA
ATOM     21  H   UNL     1     108.743 108.524 109.558  1.00  0.00     0.293 HD
ENDBRANCH   2  20
BRANCH   6  22
ATOM     22  O   UNL     1     109.741 110.692 104.629  1.00  0.00    -0.507 OA
ATOM     23  H   UNL     1     109.934 110.026 103.897  1.00  0.00     0.293 HD
ENDBRANCH   6  22
BRANCH   8  24
ATOM     24  O   UNL     1     113.663 113.418 104.914  1.00  0.00    -0.508 OA
ATOM     25  H   UNL     1     113.384 114.167 104.292  1.00  0.00     0.293 HD
ENDBRANCH   8  24
TORSDOF 5
ENDMDL
MODEL 3
REMARK VINA RESULT:    -8.713      3.080      5.909
REMARK INTER + INTRA:         -10.436
REMARK INTER:                 -10.179
REMARK INTRA:                  -0.257
REMARK UNBOUND:                -0.194
REMARK SMILES O=c1c(O)c(-c2ccc(O)cc2)oc2cc(O)cc(O)c12
REMARK SMILES IDX 5 1 3 2 2 3 1 4 21 5 19 6 18 7 16 8 15 9 14 10 13 11 6 12
REMARK SMILES IDX 7 13 8 14 9 15 12 16 11 17 10 18 4 20 20 22 17 24
REMARK H PARENT 10 19 4 21 20 23 17 25
REMARK Flexibility Score: inf
ROOT
ATOM      1  C   UNL     1     110.759 110.931 114.487  1.00  0.00     0.180 A 
ATOM      2  C   UNL     1     109.742 110.252 113.794  1.00  0.00     0.208 A 
ATOM      3  C   UNL     1     109.743 110.273 112.390  1.00  0.00     0.238 A 
ATOM      4  O   UNL     1     108.799 109.710 111.777  1.00  0.00    -0.285 OA
ATOM      5  C   UNL     1     110.769 110.958 111.697  1.00  0.00     0.111 A 
ATOM      6  C   UNL     1     110.891 111.011 110.275  1.00  0.00     0.134 A 
ATOM      7  C   UNL     1     111.871 111.827 109.697  1.00  0.00     0.093 A 
ATOM      8  C   UNL     1     112.773 112.540 110.485  1.00  0.00     0.123 A 
ATOM      9  C   UNL     1     112.701 112.448 111.876  1.00  0.00     0.094 A 
ATOM     10  C   UNL     1     111.711 111.671 112.483  1.00  0.00     0.146 A 
ATOM     11  O   UNL     1     111.669 111.619 113.809  1.00  0.00    -0.452 OA
ENDROOT
BRANCH   1  12
ATOM     12  C   UNL     1     110.839 110.933 115.965  1.00  0.00     0.021 A 
ATOM     13  C   UNL     1     110.031 111.817 116.701  1.00  0.00     0.016 A 
ATOM     14  C   UNL     1     110.107 111.851 118.096  1.00  0.00     0.047 A 
ATOM     15  C   UNL     1     111.002 111.014 118.773  1.00  0.00     0.115 A 
ATOM     16  C   UNL     1     111.750 110.110 116.651  1.00  0.00     0.016 A 
ATOM     17  C   UNL     1     111.824 110.147 118.048  1.00  0.00     0.047 A 
BRANCH  15  18
ATOM     18  O   UNL     1     111.087 111.039 120.163  1.00  0.00    -0.508 OA
ATOM     19  H   UNL     1     111.920 111.371 120.637  1.00  0.00     0.293 HD
ENDBRANCH  15  18
ENDBRANCH   1  12
BRANCH   2  20
ATOM     20  O   UNL     1     108.725 109.600 114.498  1.00  0.00    -0.502 OA
ATOM     21  H   UNL     1     108.481 108.631 114.329  1.00  0.00     0.293 HD
ENDBRANCH   2  20
BRANCH   6  22
ATOM     22  O   UNL     1     110.100 110.266 109.395  1.00  0.00    -0.507 OA
ATOM     23  H   UNL     1     109.689 109.370 109.610  1.00  0.00     0.293 HD
ENDBRANCH   6  22
BRANCH   8  24
ATOM     24  O   UNL     1     113.746 113.329 109.875  1.00  0.00    -0.508 OA
ATOM     25  H   UNL     1     113.808 113.409 108.867  1.00  0.00     0.293 HD
ENDBRANCH   8  24
TORSDOF 5
ENDMDL
MODEL 4
REMARK VINA RESULT:    -8.696      3.014      5.066
REMARK INTER + INTRA:         -10.416
REMARK INTER:                 -10.182
REMARK INTRA:                  -0.233
REMARK UNBOUND:                -0.194
REMARK SMILES O=c1c(O)c(-c2ccc(O)cc2)oc2cc(O)cc(O)c12
REMARK SMILES IDX 5 1 3 2 2 3 1 4 21 5 19 6 18 7 16 8 15 9 14 10 13 11 6 12
REMARK SMILES IDX 7 13 8 14 9 15 12 16 11 17 10 18 4 20 20 22 17 24
REMARK H PARENT 10 19 4 21 20 23 17 25
REMARK Flexibility Score: inf
ROOT
ATOM      1  C   UNL     1     111.557 111.300 114.514  1.00  0.00     0.180 A 
ATOM      2  C   UNL     1     112.544 112.001 113.800  1.00  0.00     0.208 A 
ATOM      3  C   UNL     1     112.496 112.006 112.397  1.00  0.00     0.238 A 
ATOM      4  O   UNL     1     113.414 112.589 111.764  1.00  0.00    -0.285 OA
ATOM      5  C   UNL     1     111.453 111.325 111.726  1.00  0.00     0.111 A 
ATOM      6  C   UNL     1     111.283 111.298 110.309  1.00  0.00     0.134 A 
ATOM      7  C   UNL     1     110.291 110.485 109.748  1.00  0.00     0.093 A 
ATOM      8  C   UNL     1     109.422 109.749 110.553  1.00  0.00     0.123 A 
ATOM      9  C   UNL     1     109.540 109.816 111.942  1.00  0.00     0.094 A 
ATOM     10  C   UNL     1     110.544 110.589 112.530  1.00  0.00     0.146 A 
ATOM     11  O   UNL     1     110.630 110.617 113.855  1.00  0.00    -0.452 OA
ENDROOT
BRANCH   1  12
ATOM     12  C   UNL     1     111.527 111.269 115.994  1.00  0.00     0.021 A 
ATOM     13  C   UNL     1     112.414 110.428 116.687  1.00  0.00     0.016 A 
ATOM     14  C   UNL     1     112.388 110.368 118.084  1.00  0.00     0.047 A 
ATOM     15  C   UNL     1     111.464 111.135 118.804  1.00  0.00     0.115 A 
ATOM     16  C   UNL     1     110.588 112.021 116.724  1.00  0.00     0.016 A 
ATOM     17  C   UNL     1     110.564 111.958 118.121  1.00  0.00     0.047 A 
BRANCH  15  18
ATOM     18  O   UNL     1     111.427 111.082 120.196  1.00  0.00    -0.508 OA
ATOM     19  H   UNL     1     111.186 110.229 120.687  1.00  0.00     0.293 HD
ENDBRANCH  15  18
ENDBRANCH   1  12
BRANCH   2  20
ATOM     20  O   UNL     1     113.579 112.649 114.483  1.00  0.00    -0.502 OA
ATOM     21  H   UNL     1     114.075 112.218 115.253  1.00  0.00     0.293 HD
ENDBRANCH   2  20
BRANCH   6  22
ATOM     22  O   UNL     1     112.038 112.066 109.417  1.00  0.00    -0.507 OA
ATOM     23  H   UNL     1     112.960 111.824 109.089  1.00  0.00     0.293 HD
ENDBRANCH   6  22
BRANCH   8  24
ATOM     24  O   UNL     1     108.435 108.963 109.961  1.00  0.00    -0.508 OA
ATOM     25  H   UNL     1     108.666 108.121 109.446  1.00  0.00     0.293 HD
ENDBRANCH   8  24
TORSDOF 5
ENDMDL
MODEL 5
REMARK VINA RESULT:    -8.682      2.332      4.589
REMARK INTER + INTRA:         -10.400
REMARK INTER:                 -10.213
REMARK INTRA:                  -0.186
REMARK UNBOUND:                -0.194
REMARK SMILES O=c1c(O)c(-c2ccc(O)cc2)oc2cc(O)cc(O)c12
REMARK SMILES IDX 5 1 3 2 2 3 1 4 21 5 19 6 18 7 16 8 15 9 14 10 13 11 6 12
REMARK SMILES IDX 7 13 8 14 9 15 12 16 11 17 10 18 4 20 20 22 17 24
REMARK H PARENT 10 19 4 21 20 23 17 25
REMARK Flexibility Score: inf
ROOT
ATOM      1  C   UNL     1     111.278 110.816 112.836  1.00  0.00     0.180 A 
ATOM      2  C   UNL     1     110.043 110.220 112.527  1.00  0.00     0.208 A 
ATOM      3  C   UNL     1     109.649 110.127 111.182  1.00  0.00     0.238 A 
ATOM      4  O   UNL     1     108.518 109.642 110.917  1.00  0.00    -0.285 OA
ATOM      5  C   UNL     1     110.502 110.613 110.164  1.00  0.00     0.111 A 
ATOM      6  C   UNL     1     110.223 110.533 108.766  1.00  0.00     0.134 A 
ATOM      7  C   UNL     1     111.077 111.165 107.854  1.00  0.00     0.093 A 
ATOM      8  C   UNL     1     112.233 111.817 108.281  1.00  0.00     0.123 A 
ATOM      9  C   UNL     1     112.548 111.849 109.641  1.00  0.00     0.094 A 
ATOM     10  C   UNL     1     111.696 111.260 110.578  1.00  0.00     0.146 A 
ATOM     11  O   UNL     1     112.025 111.322 111.863  1.00  0.00    -0.452 OA
ENDROOT
BRANCH   1  12
ATOM     12  C   UNL     1     111.772 110.929 114.227  1.00  0.00     0.021 A 
ATOM     13  C   UNL     1     111.945 112.201 114.799  1.00  0.00     0.016 A 
ATOM     14  C   UNL     1     112.431 112.331 116.103  1.00  0.00     0.047 A 
ATOM     15  C   UNL     1     112.766 111.192 116.846  1.00  0.00     0.115 A 
ATOM     16  C   UNL     1     112.130 109.791 114.972  1.00  0.00     0.016 A 
ATOM     17  C   UNL     1     112.617 109.924 116.277  1.00  0.00     0.047 A 
BRANCH  15  18
ATOM     18  O   UNL     1     113.252 111.309 118.147  1.00  0.00    -0.508 OA
ATOM     19  H   UNL     1     113.829 110.586 118.563  1.00  0.00     0.293 HD
ENDBRANCH  15  18
ENDBRANCH   1  12
BRANCH   2  20
ATOM     20  O   UNL     1     109.205 109.766 113.551  1.00  0.00    -0.502 OA
ATOM     21  H   UNL     1     108.209 109.948 113.559  1.00  0.00     0.293 HD
ENDBRANCH   2  20
BRANCH   6  22
ATOM     22  O   UNL     1     109.143 109.828 108.224  1.00  0.00    -0.507 OA
ATOM     23  H   UNL     1     108.623 110.113 107.409  1.00  0.00     0.293 HD
ENDBRANCH   6  22
BRANCH   8  24
ATOM     24  O   UNL     1     113.069 112.420 107.344  1.00  0.00    -0.508 OA
ATOM     25  H   UNL     1     113.007 113.410 107.138  1.00  0.00     0.293 HD
ENDBRANCH   8  24
TORSDOF 5
ENDMDL
MODEL 6
REMARK VINA RESULT:    -8.681      2.134      3.532
REMARK INTER + INTRA:         -10.398
REMARK INTER:                 -10.251
REMARK INTRA:                  -0.147
REMARK UNBOUND:                -0.194
REMARK SMILES O=c1c(O)c(-c2ccc(O)cc2)oc2cc(O)cc(O)c12
REMARK SMILES IDX 5 1 3 2 2 3 1 4 21 5 19 6 18 7 16 8 15 9 14 10 13 11 6 12
REMARK SMILES IDX 7 13 8 14 9 15 12 16 11 17 10 18 4 20 20 22 17 24
REMARK H PARENT 10 19 4 21 20 23 17 25
REMARK Flexibility Score: inf
ROOT
ATOM      1  C   UNL     1     110.852 111.387 112.931  1.00  0.00     0.180 A 
ATOM      2  C   UNL     1     112.112 111.938 112.640  1.00  0.00     0.208 A 
ATOM      3  C   UNL     1     112.522 112.029 111.300  1.00  0.00     0.238 A 
ATOM      4  O   UNL     1     113.673 112.472 111.050  1.00  0.00    -0.285 OA
ATOM      5  C   UNL     1     111.661 111.584 110.269  1.00  0.00     0.111 A 
ATOM      6  C   UNL     1     111.958 111.666 108.874  1.00  0.00     0.134 A 
ATOM      7  C   UNL     1     111.089 111.076 107.948  1.00  0.00     0.093 A 
ATOM      8  C   UNL     1     109.905 110.465 108.358  1.00  0.00     0.123 A 
ATOM      9  C   UNL     1     109.576 110.433 109.715  1.00  0.00     0.094 A 
ATOM     10  C   UNL     1     110.440 110.980 110.665  1.00  0.00     0.146 A 
ATOM     11  O   UNL     1     110.096 110.919 111.946  1.00  0.00    -0.452 OA
ENDROOT
BRANCH   1  12
ATOM     12  C   UNL     1     110.339 111.280 114.317  1.00  0.00     0.021 A 
ATOM     13  C   UNL     1     110.030 110.015 114.844  1.00  0.00     0.016 A 
ATOM     14  C   UNL     1     109.524 109.894 116.142  1.00  0.00     0.047 A 
ATOM     15  C   UNL     1     109.307 111.036 116.923  1.00  0.00     0.115 A 
ATOM     16  C   UNL     1     110.099 112.424 115.099  1.00  0.00     0.016 A 
ATOM     17  C   UNL     1     109.592 112.299 116.397  1.00  0.00     0.047 A 
BRANCH  15  18
ATOM     18  O   UNL     1     108.803 110.928 118.217  1.00  0.00    -0.508 OA
ATOM     19  H   UNL     1     108.961 111.652 118.909  1.00  0.00     0.293 HD
ENDBRANCH  15  18
ENDBRANCH   1  12
BRANCH   2  20
ATOM     20  O   UNL     1     112.955 112.350 113.676  1.00  0.00    -0.502 OA
ATOM     21  H   UNL     1     112.678 112.315 114.650  1.00  0.00     0.293 HD
ENDBRANCH   2  20
BRANCH   6  22
ATOM     22  O   UNL     1     113.068 112.334 108.350  1.00  0.00    -0.507 OA
ATOM     23  H   UNL     1     113.253 112.457 107.366  1.00  0.00     0.293 HD
ENDBRANCH   6  22
BRANCH   8  24
ATOM     24  O   UNL     1     109.056 109.902 107.408  1.00  0.00    -0.508 OA
ATOM     25  H   UNL     1     108.521 109.065 107.604  1.00  0.00     0.293 HD
ENDBRANCH   8  24
TORSDOF 5
ENDMDL
MODEL 7
REMARK VINA RESULT:    -8.594      3.103      8.486
REMARK INTER + INTRA:         -10.295
REMARK INTER:                 -10.007
REMARK INTRA:                  -0.289
REMARK UNBOUND:                -0.194
REMARK SMILES O=c1c(O)c(-c2ccc(O)cc2)oc2cc(O)cc(O)c12
REMARK SMILES IDX 5 1 3 2 2 3 1 4 21 5 19 6 18 7 16 8 15 9 14 10 13 11 6 12
REMARK SMILES IDX 7 13 8 14 9 15 12 16 11 17 10 18 4 20 20 22 17 24
REMARK H PARENT 10 19 4 21 20 23 17 25
REMARK Flexibility Score: inf
ROOT
ATOM      1  C   UNL     1     111.186 111.300 113.803  1.00  0.00     0.180 A 
ATOM      2  C   UNL     1     112.390 111.888 114.226  1.00  0.00     0.208 A 
ATOM      3  C   UNL     1     112.699 111.899 115.596  1.00  0.00     0.238 A 
ATOM      4  O   UNL     1     113.753 112.476 115.972  1.00  0.00    -0.285 OA
ATOM      5  C   UNL     1     111.809 111.308 116.523  1.00  0.00     0.111 A 
ATOM      6  C   UNL     1     112.040 111.227 117.930  1.00  0.00     0.134 A 
ATOM      7  C   UNL     1     111.031 110.737 118.768  1.00  0.00     0.093 A 
ATOM      8  C   UNL     1     109.826 110.267 118.247  1.00  0.00     0.123 A 
ATOM      9  C   UNL     1     109.614 110.286 116.867  1.00  0.00     0.094 A 
ATOM     10  C   UNL     1     110.587 110.802 116.009  1.00  0.00     0.146 A 
ATOM     11  O   UNL     1     110.341 110.813 114.704  1.00  0.00    -0.452 OA
ENDROOT
BRANCH   1  12
ATOM     12  C   UNL     1     110.802 111.227 112.375  1.00  0.00     0.021 A 
ATOM     13  C   UNL     1     111.246 110.146 111.594  1.00  0.00     0.016 A 
ATOM     14  C   UNL     1     110.914 110.069 110.238  1.00  0.00     0.047 A 
ATOM     15  C   UNL     1     110.148 111.079 109.642  1.00  0.00     0.115 A 
ATOM     16  C   UNL     1     110.051 112.248 111.765  1.00  0.00     0.016 A 
ATOM     17  C   UNL     1     109.721 112.168 110.408  1.00  0.00     0.047 A 
BRANCH  15  18
ATOM     18  O   UNL     1     109.811 111.014 108.292  1.00  0.00    -0.508 OA
ATOM     19  H   UNL     1     110.404 110.537 107.621  1.00  0.00     0.293 HD
ENDBRANCH  15  18
ENDBRANCH   1  12
BRANCH   2  20
ATOM     20  O   UNL     1     113.245 112.486 113.295  1.00  0.00    -0.502 OA
ATOM     21  H   UNL     1     113.797 111.947 112.639  1.00  0.00     0.293 HD
ENDBRANCH   2  20
BRANCH   6  22
ATOM     22  O   UNL     1     113.243 111.585 118.545  1.00  0.00    -0.507 OA
ATOM     23  H   UNL     1     113.424 112.479 118.976  1.00  0.00     0.293 HD
ENDBRANCH   6  22
BRANCH   8  24
ATOM     24  O   UNL     1     108.851 109.771 119.109  1.00  0.00    -0.508 OA
ATOM     25  H   UNL     1     109.080 109.123 119.853  1.00  0.00     0.293 HD
ENDBRANCH   8  24
TORSDOF 5
ENDMDL
MODEL 8
REMARK VINA RESULT:    -8.531      1.718      6.432
REMARK INTER + INTRA:         -10.222
REMARK INTER:                  -9.935
REMARK INTRA:                  -0.286
REMARK UNBOUND:                -0.194
REMARK SMILES O=c1c(O)c(-c2ccc(O)cc2)oc2cc(O)cc(O)c12
REMARK SMILES IDX 5 1 3 2 2 3 1 4 21 5 19 6 18 7 16 8 15 9 14 10 13 11 6 12
REMARK SMILES IDX 7 13 8 14 9 15 12 16 11 17 10 18 4 20 20 22 17 24
REMARK H PARENT 10 19 4 21 20 23 17 25
REMARK Flexibility Score: inf
ROOT
ATOM      1  C   UNL     1     111.181 111.278 108.985  1.00  0.00     0.180 A 
ATOM      2  C   UNL     1     112.370 111.885 109.426  1.00  0.00     0.208 A 
ATOM      3  C   UNL     1     112.670 111.880 110.797  1.00  0.00     0.238 A 
ATOM      4  O   UNL     1     113.709 112.472 111.190  1.00  0.00    -0.285 OA
ATOM      5  C   UNL     1     111.788 111.253 111.708  1.00  0.00     0.111 A 
ATOM      6  C   UNL     1     112.012 111.153 113.115  1.00  0.00     0.134 A 
ATOM      7  C   UNL     1     111.009 110.627 113.938  1.00  0.00     0.093 A 
ATOM      8  C   UNL     1     109.818 110.139 113.401  1.00  0.00     0.123 A 
ATOM      9  C   UNL     1     109.613 110.177 112.021  1.00  0.00     0.094 A 
ATOM     10  C   UNL     1     110.580 110.730 111.178  1.00  0.00     0.146 A 
ATOM     11  O   UNL     1     110.342 110.757 109.872  1.00  0.00    -0.452 OA
ENDROOT
BRANCH   1  12
ATOM     12  C   UNL     1     110.809 111.222 107.553  1.00  0.00     0.021 A 
ATOM     13  C   UNL     1     111.300 110.178 106.751  1.00  0.00     0.016 A 
ATOM     14  C   UNL     1     110.978 110.117 105.392  1.00  0.00     0.047 A 
ATOM     15  C   UNL     1     110.175 111.108 104.814  1.00  0.00     0.115 A 
ATOM     16  C   UNL     1     110.019 112.224 106.961  1.00  0.00     0.016 A 
ATOM     17  C   UNL     1     109.700 112.161 105.601  1.00  0.00     0.047 A 
BRANCH  15  18
ATOM     18  O   UNL     1     109.848 111.060 103.461  1.00  0.00    -0.508 OA
ATOM     19  H   UNL     1     109.674 111.904 102.927  1.00  0.00     0.293 HD
ENDBRANCH  15  18
ENDBRANCH   1  12
BRANCH   2  20
ATOM     20  O   UNL     1     113.218 112.518 108.510  1.00  0.00    -0.502 OA
ATOM     21  H   UNL     1     113.222 113.522 108.378  1.00  0.00     0.293 HD
ENDBRANCH   2  20
BRANCH   6  22
ATOM     22  O   UNL     1     113.203 111.526 113.744  1.00  0.00    -0.507 OA
ATOM     23  H   UNL     1     114.122 111.423 113.342  1.00  0.00     0.293 HD
ENDBRANCH   6  22
BRANCH   8  24
ATOM     24  O   UNL     1     108.848 109.607 114.248  1.00  0.00    -0.508 OA
ATOM     25  H   UNL     1     108.918 109.695 115.255  1.00  0.00     0.293 HD
ENDBRANCH   8  24
TORSDOF 5
ENDMDL
MODEL 9
REMARK VINA RESULT:    -8.501      2.894      8.739
REMARK INTER + INTRA:         -10.186
REMARK INTER:                  -9.936
REMARK INTRA:                  -0.250
REMARK UNBOUND:                -0.194
REMARK SMILES O=c1c(O)c(-c2ccc(O)cc2)oc2cc(O)cc(O)c12
REMARK SMILES IDX 5 1 3 2 2 3 1 4 21 5 19 6 18 7 16 8 15 9 14 10 13 11 6 12
REMARK SMILES IDX 7 13 8 14 9 15 12 16 11 17 10 18 4 20 20 22 17 24
REMARK H PARENT 10 19 4 21 20 23 17 25
REMARK Flexibility Score: inf
ROOT
ATOM      1  C   UNL     1     111.018 111.128 113.457  1.00  0.00     0.180 A 
ATOM      2  C   UNL     1     109.889 110.393 113.860  1.00  0.00     0.208 A 
ATOM      3  C   UNL     1     109.633 110.235 115.231  1.00  0.00     0.238 A 
ATOM      4  O   UNL     1     108.652 109.531 115.585  1.00  0.00    -0.285 OA
ATOM      5  C   UNL     1     110.498 110.827 116.182  1.00  0.00     0.111 A 
ATOM      6  C   UNL     1     110.312 110.765 117.596  1.00  0.00     0.134 A 
ATOM      7  C   UNL     1     111.302 111.275 118.446  1.00  0.00     0.093 A 
ATOM      8  C   UNL     1     112.438 111.901 117.935  1.00  0.00     0.123 A 
ATOM      9  C   UNL     1     112.601 112.021 116.553  1.00  0.00     0.094 A 
ATOM     10  C   UNL     1     111.649 111.489 115.681  1.00  0.00     0.146 A 
ATOM     11  O   UNL     1     111.847 111.614 114.373  1.00  0.00    -0.452 OA
ENDROOT
BRANCH   1  12
ATOM     12  C   UNL     1     111.340 111.359 112.031  1.00  0.00     0.021 A 
ATOM     13  C   UNL     1     112.418 110.673 111.445  1.00  0.00     0.016 A 
ATOM     14  C   UNL     1     112.753 110.893 110.105  1.00  0.00     0.047 A 
ATOM     15  C   UNL     1     112.026 111.812 109.339  1.00  0.00     0.115 A 
ATOM     16  C   UNL     1     110.627 112.295 111.261  1.00  0.00     0.016 A 
ATOM     17  C   UNL     1     110.966 112.513 109.921  1.00  0.00     0.047 A 
BRANCH  15  18
ATOM     18  O   UNL     1     112.350 112.039 108.004  1.00  0.00    -0.508 OA
ATOM     19  H   UNL     1     111.680 112.439 107.357  1.00  0.00     0.293 HD
ENDBRANCH  15  18
ENDBRANCH   1  12
BRANCH   2  20
ATOM     20  O   UNL     1     109.060 109.798 112.904  1.00  0.00    -0.502 OA
ATOM     21  H   UNL     1     109.403 109.125 112.230  1.00  0.00     0.293 HD
ENDBRANCH   2  20
BRANCH   6  22
ATOM     22  O   UNL     1     109.171 110.243 118.212  1.00  0.00    -0.507 OA
ATOM     23  H   UNL     1     108.683 110.677 118.980  1.00  0.00     0.293 HD
ENDBRANCH   6  22
BRANCH   8  24
ATOM     24  O   UNL     1     113.394 112.412 118.809  1.00  0.00    -0.508 OA
ATOM     25  H   UNL     1     113.763 113.349 118.702  1.00  0.00     0.293 HD
ENDBRANCH   8  24
TORSDOF 5
ENDMDL
