MODEL 1
REMARK VINA RESULT:    -3.747      0.000      0.000
REMARK INTER + INTRA:          -4.697
REMARK INTER:                  -4.404
REMARK INTRA:                  -0.293
REMARK UNBOUND:                -0.293
REMARK SMILES O=c1cc(-c2ccc(O)c(O)c2)oc2cc(O)cc(O)c12
REMARK SMILES IDX 4 1 3 2 2 3 1 4 21 5 19 6 18 7 16 8 15 9 14 10 13 11 5 12
REMARK SMILES IDX 6 13 7 14 8 15 12 16 10 17 9 18 11 20 20 22 17 24
REMARK H PARENT 9 19 11 21 20 23 17 25
REMARK Flexibility Score: inf
ROOT
ATOM      1  C   UNL     1      13.124  45.437   9.020  1.00  0.00     0.138 A 
ATOM      2  C   UNL     1      13.370  45.665   7.659  1.00  0.00     0.100 A 
ATOM      3  C   UNL     1      14.373  46.557   7.279  1.00  0.00     0.197 A 
ATOM      4  O   UNL     1      14.530  46.787   6.052  1.00  0.00    -0.289 OA
ATOM      5  C   UNL     1      15.155  47.200   8.269  1.00  0.00     0.107 A 
ATOM      6  C   UNL     1      16.231  48.097   7.997  1.00  0.00     0.134 A 
ATOM      7  C   UNL     1      16.857  48.763   9.059  1.00  0.00     0.093 A 
ATOM      8  C   UNL     1      16.485  48.519  10.383  1.00  0.00     0.123 A 
ATOM      9  C   UNL     1      15.472  47.605  10.660  1.00  0.00     0.094 A 
ATOM     10  C   UNL     1      14.805  46.950   9.622  1.00  0.00     0.146 A 
ATOM     11  O   UNL     1      13.835  46.095   9.929  1.00  0.00    -0.456 OA
ENDROOT
BRANCH   1  12
ATOM     12  C   UNL     1      12.069  44.498   9.480  1.00  0.00     0.021 A 
ATOM     13  C   UNL     1      11.929  43.213   8.923  1.00  0.00     0.016 A 
ATOM     14  C   UNL     1      10.935  42.346   9.382  1.00  0.00     0.051 A 
ATOM     15  C   UNL     1      10.068  42.742  10.409  1.00  0.00     0.157 A 
ATOM     16  C   UNL     1      11.203  44.884  10.519  1.00  0.00     0.062 A 
ATOM     17  C   UNL     1      10.206  44.018  10.980  1.00  0.00     0.158 A 
BRANCH  15  18
ATOM     18  O   UNL     1       9.076  41.875  10.863  1.00  0.00    -0.504 OA
ATOM     19  H   UNL     1       9.300  41.046  11.400  1.00  0.00     0.293 HD
ENDBRANCH  15  18
BRANCH  17  20
ATOM     20  O   UNL     1       9.362  44.441  12.006  1.00  0.00    -0.504 OA
ATOM     21  H   UNL     1       8.368  44.246  12.001  1.00  0.00     0.293 HD
ENDBRANCH  17  20
ENDBRANCH   1  12
BRANCH   6  22
ATOM     22  O   UNL     1      16.736  48.347   6.718  1.00  0.00    -0.507 OA
ATOM     23  H   UNL     1      17.557  47.911   6.327  1.00  0.00     0.293 HD
ENDBRANCH   6  22
BRANCH   8  24
ATOM     24  O   UNL     1      17.124  49.176  11.432  1.00  0.00    -0.508 OA
ATOM     25  H   UNL     1      17.420  50.141  11.352  1.00  0.00     0.293 HD
ENDBRANCH   8  24
TORSDOF 5
ENDMDL
MODEL 2
REMARK VINA RESULT:    -3.437      1.747      6.838
REMARK INTER + INTRA:          -4.332
REMARK INTER:                  -4.033
REMARK INTRA:                  -0.299
REMARK UNBOUND:                -0.293
REMARK SMILES O=c1cc(-c2ccc(O)c(O)c2)oc2cc(O)cc(O)c12
REMARK SMILES IDX 4 1 3 2 2 3 1 4 21 5 19 6 18 7 16 8 15 9 14 10 13 11 5 12
REMARK SMILES IDX 6 13 7 14 8 15 12 16 10 17 9 18 11 20 20 22 17 24
REMARK H PARENT 9 19 11 21 20 23 17 25
REMARK Flexibility Score: inf
ROOT
ATOM      1  C   UNL     1      13.104  45.311   8.619  1.00  0.00     0.138 A 
ATOM      2  C   UNL     1      12.988  44.660   7.383  1.00  0.00     0.100 A 
ATOM      3  C   UNL     1      11.983  43.710   7.196  1.00  0.00     0.197 A 
ATOM      4  O   UNL     1      11.942  43.098   6.099  1.00  0.00    -0.289 OA
ATOM      5  C   UNL     1      11.071  43.436   8.243  1.00  0.00     0.107 A 
ATOM      6  C   UNL     1       9.982  42.518   8.151  1.00  0.00     0.134 A 
ATOM      7  C   UNL     1       9.215  42.242   9.290  1.00  0.00     0.093 A 
ATOM      8  C   UNL     1       9.461  42.896  10.500  1.00  0.00     0.123 A 
ATOM      9  C   UNL     1      10.487  43.833  10.585  1.00  0.00     0.094 A 
ATOM     10  C   UNL     1      11.291  44.105   9.476  1.00  0.00     0.146 A 
ATOM     11  O   UNL     1      12.268  44.996   9.603  1.00  0.00    -0.456 OA
ENDROOT
BRANCH   1  12
ATOM     12  C   UNL     1      14.154  46.331   8.873  1.00  0.00     0.021 A 
ATOM     13  C   UNL     1      14.514  47.281   7.897  1.00  0.00     0.016 A 
ATOM     14  C   UNL     1      15.498  48.235   8.166  1.00  0.00     0.051 A 
ATOM     15  C   UNL     1      16.134  48.264   9.414  1.00  0.00     0.157 A 
ATOM     16  C   UNL     1      14.789  46.375  10.127  1.00  0.00     0.062 A 
ATOM     17  C   UNL     1      15.775  47.329  10.398  1.00  0.00     0.158 A 
BRANCH  15  18
ATOM     18  O   UNL     1      17.118  49.216   9.677  1.00  0.00    -0.504 OA
ATOM     19  H   UNL     1      16.956  50.204   9.517  1.00  0.00     0.293 HD
ENDBRANCH  15  18
BRANCH  17  20
ATOM     20  O   UNL     1      16.387  47.333  11.651  1.00  0.00    -0.504 OA
ATOM     21  H   UNL     1      16.329  48.128  12.276  1.00  0.00     0.293 HD
ENDBRANCH  17  20
ENDBRANCH   1  12
BRANCH   6  22
ATOM     22  O   UNL     1       9.599  41.875   6.970  1.00  0.00    -0.507 OA
ATOM     23  H   UNL     1      10.106  41.121   6.533  1.00  0.00     0.293 HD
ENDBRANCH   6  22
BRANCH   8  24
ATOM     24  O   UNL     1       8.682  42.625  11.624  1.00  0.00    -0.508 OA
ATOM     25  H   UNL     1       9.081  42.616  12.555  1.00  0.00     0.293 HD
ENDBRANCH   8  24
TORSDOF 5
ENDMDL
MODEL 3
REMARK VINA RESULT:    -3.389      2.020      6.203
REMARK INTER + INTRA:          -4.276
REMARK INTER:                  -3.987
REMARK INTRA:                  -0.289
REMARK UNBOUND:                -0.293
REMARK SMILES O=c1cc(-c2ccc(O)c(O)c2)oc2cc(O)cc(O)c12
REMARK SMILES IDX 4 1 3 2 2 3 1 4 21 5 19 6 18 7 16 8 15 9 14 10 13 11 5 12
REMARK SMILES IDX 6 13 7 14 8 15 12 16 10 17 9 18 11 20 20 22 17 24
REMARK H PARENT 9 19 11 21 20 23 17 25
REMARK Flexibility Score: inf
ROOT
ATOM      1  C   UNL     1      14.496  46.648   9.374  1.00  0.00     0.138 A 
ATOM      2  C   UNL     1      14.715  47.139   8.080  1.00  0.00     0.100 A 
ATOM      3  C   UNL     1      14.045  46.562   7.001  1.00  0.00     0.197 A 
ATOM      4  O   UNL     1      14.308  46.981   5.845  1.00  0.00    -0.289 OA
ATOM      5  C   UNL     1      13.127  45.508   7.225  1.00  0.00     0.107 A 
ATOM      6  C   UNL     1      12.357  44.872   6.206  1.00  0.00     0.134 A 
ATOM      7  C   UNL     1      11.566  43.762   6.532  1.00  0.00     0.093 A 
ATOM      8  C   UNL     1      11.473  43.304   7.848  1.00  0.00     0.123 A 
ATOM      9  C   UNL     1      12.179  43.952   8.858  1.00  0.00     0.094 A 
ATOM     10  C   UNL     1      13.002  45.041   8.560  1.00  0.00     0.146 A 
ATOM     11  O   UNL     1      13.670  45.622   9.551  1.00  0.00    -0.456 OA
ENDROOT
BRANCH   1  12
ATOM     12  C   UNL     1      15.182  47.226  10.559  1.00  0.00     0.021 A 
ATOM     13  C   UNL     1      15.189  48.612  10.806  1.00  0.00     0.016 A 
ATOM     14  C   UNL     1      15.833  49.127  11.933  1.00  0.00     0.051 A 
ATOM     15  C   UNL     1      16.474  48.269  12.837  1.00  0.00     0.157 A 
ATOM     16  C   UNL     1      15.816  46.371  11.477  1.00  0.00     0.062 A 
ATOM     17  C   UNL     1      16.463  46.884  12.607  1.00  0.00     0.158 A 
BRANCH  15  18
ATOM     18  O   UNL     1      17.118  48.788  13.960  1.00  0.00    -0.504 OA
ATOM     19  H   UNL     1      17.161  49.785  14.133  1.00  0.00     0.293 HD
ENDBRANCH  15  18
BRANCH  17  20
ATOM     20  O   UNL     1      17.089  46.004  13.488  1.00  0.00    -0.504 OA
ATOM     21  H   UNL     1      16.784  45.895  14.448  1.00  0.00     0.293 HD
ENDBRANCH  17  20
ENDBRANCH   1  12
BRANCH   6  22
ATOM     22  O   UNL     1      12.312  45.301   4.877  1.00  0.00    -0.507 OA
ATOM     23  H   UNL     1      11.533  45.163   4.252  1.00  0.00     0.293 HD
ENDBRANCH   6  22
BRANCH   8  24
ATOM     24  O   UNL     1      10.672  42.209   8.164  1.00  0.00    -0.508 OA
ATOM     25  H   UNL     1      10.834  41.297   7.752  1.00  0.00     0.293 HD
ENDBRANCH   8  24
TORSDOF 5
ENDMDL
MODEL 4
REMARK VINA RESULT:    -3.361      1.445      7.013
REMARK INTER + INTRA:          -4.244
REMARK INTER:                  -3.969
REMARK INTRA:                  -0.275
REMARK UNBOUND:                -0.293
REMARK SMILES O=c1cc(-c2ccc(O)c(O)c2)oc2cc(O)cc(O)c12
REMARK SMILES IDX 4 1 3 2 2 3 1 4 21 5 19 6 18 7 16 8 15 9 14 10 13 11 5 12
REMARK SMILES IDX 6 13 7 14 8 15 12 16 10 17 9 18 11 20 20 22 17 24
REMARK H PARENT 9 19 11 21 20 23 17 25
REMARK Flexibility Score: inf
ROOT
ATOM      1  C   UNL     1      12.465  45.157   9.445  1.00  0.00     0.138 A 
ATOM      2  C   UNL     1      12.249  43.848   8.992  1.00  0.00     0.100 A 
ATOM      3  C   UNL     1      11.147  43.130   9.456  1.00  0.00     0.197 A 
ATOM      4  O   UNL     1      11.013  41.937   9.081  1.00  0.00    -0.289 OA
ATOM      5  C   UNL     1      10.238  43.740  10.355  1.00  0.00     0.107 A 
ATOM      6  C   UNL     1       9.057  43.118  10.862  1.00  0.00     0.134 A 
ATOM      7  C   UNL     1       8.296  43.777  11.835  1.00  0.00     0.093 A 
ATOM      8  C   UNL     1       8.640  45.058  12.275  1.00  0.00     0.123 A 
ATOM      9  C   UNL     1       9.760  45.694  11.746  1.00  0.00     0.094 A 
ATOM     10  C   UNL     1      10.559  45.050  10.799  1.00  0.00     0.146 A 
ATOM     11  O   UNL     1      11.627  45.686  10.330  1.00  0.00    -0.456 OA
ENDROOT
BRANCH   1  12
ATOM     12  C   UNL     1      13.622  45.966   8.983  1.00  0.00     0.021 A 
ATOM     13  C   UNL     1      13.753  46.369   7.641  1.00  0.00     0.016 A 
ATOM     14  C   UNL     1      14.846  47.139   7.235  1.00  0.00     0.051 A 
ATOM     15  C   UNL     1      15.822  47.526   8.163  1.00  0.00     0.157 A 
ATOM     16  C   UNL     1      14.599  46.369   9.910  1.00  0.00     0.062 A 
ATOM     17  C   UNL     1      15.695  47.139   9.507  1.00  0.00     0.158 A 
BRANCH  15  18
ATOM     18  O   UNL     1      16.913  48.292   7.754  1.00  0.00    -0.504 OA
ATOM     19  H   UNL     1      17.680  48.500   8.382  1.00  0.00     0.293 HD
ENDBRANCH  15  18
BRANCH  17  20
ATOM     20  O   UNL     1      16.648  47.511  10.455  1.00  0.00    -0.504 OA
ATOM     21  H   UNL     1      16.419  47.615  11.436  1.00  0.00     0.293 HD
ENDBRANCH  17  20
ENDBRANCH   1  12
BRANCH   6  22
ATOM     22  O   UNL     1       8.579  41.879  10.428  1.00  0.00    -0.507 OA
ATOM     23  H   UNL     1       8.282  41.672   9.487  1.00  0.00     0.293 HD
ENDBRANCH   6  22
BRANCH   8  24
ATOM     24  O   UNL     1       7.867  45.711  13.233  1.00  0.00    -0.508 OA
ATOM     25  H   UNL     1       7.895  45.442  14.210  1.00  0.00     0.293 HD
ENDBRANCH   8  24
TORSDOF 5
ENDMDL
MODEL 5
REMARK VINA RESULT:    -3.355      9.939     12.293
REMARK INTER + INTRA:          -4.236
REMARK INTER:                  -3.965
REMARK INTRA:                  -0.271
REMARK UNBOUND:                -0.293
REMARK SMILES O=c1cc(-c2ccc(O)c(O)c2)oc2cc(O)cc(O)c12
REMARK SMILES IDX 4 1 3 2 2 3 1 4 21 5 19 6 18 7 16 8 15 9 14 10 13 11 5 12
REMARK SMILES IDX 6 13 7 14 8 15 12 16 10 17 9 18 11 20 20 22 17 24
REMARK H PARENT 9 19 11 21 20 23 17 25
REMARK Flexibility Score: inf
ROOT
ATOM      1  C   UNL     1      11.252  43.049  20.206  1.00  0.00     0.138 A 
ATOM      2  C   UNL     1      10.960  42.824  21.558  1.00  0.00     0.100 A 
ATOM      3  C   UNL     1      11.986  42.469  22.435  1.00  0.00     0.197 A 
ATOM      4  O   UNL     1      11.685  42.214  23.629  1.00  0.00    -0.289 OA
ATOM      5  C   UNL     1      13.316  42.372  21.960  1.00  0.00     0.107 A 
ATOM      6  C   UNL     1      14.448  42.058  22.771  1.00  0.00     0.134 A 
ATOM      7  C   UNL     1      15.699  41.875  22.168  1.00  0.00     0.093 A 
ATOM      8  C   UNL     1      15.869  42.053  20.793  1.00  0.00     0.123 A 
ATOM      9  C   UNL     1      14.781  42.412  20.001  1.00  0.00     0.094 A 
ATOM     10  C   UNL     1      13.514  42.568  20.567  1.00  0.00     0.146 A 
ATOM     11  O   UNL     1      12.500  42.897  19.774  1.00  0.00    -0.456 OA
ENDROOT
BRANCH   1  12
ATOM     12  C   UNL     1      10.199  43.428  19.229  1.00  0.00     0.021 A 
ATOM     13  C   UNL     1      10.357  44.526  18.362  1.00  0.00     0.016 A 
ATOM     14  C   UNL     1       9.355  44.855  17.445  1.00  0.00     0.051 A 
ATOM     15  C   UNL     1       8.183  44.091  17.373  1.00  0.00     0.157 A 
ATOM     16  C   UNL     1       9.025  42.659  19.142  1.00  0.00     0.062 A 
ATOM     17  C   UNL     1       8.020  42.987  18.225  1.00  0.00     0.158 A 
BRANCH  15  18
ATOM     18  O   UNL     1       7.185  44.424  16.459  1.00  0.00    -0.504 OA
ATOM     19  H   UNL     1       7.350  45.087  15.711  1.00  0.00     0.293 HD
ENDBRANCH  15  18
BRANCH  17  20
ATOM     20  O   UNL     1       6.867  42.204  18.176  1.00  0.00    -0.504 OA
ATOM     21  H   UNL     1       5.995  42.504  18.594  1.00  0.00     0.293 HD
ENDBRANCH  17  20
ENDBRANCH   1  12
BRANCH   6  22
ATOM     22  O   UNL     1      14.403  41.942  24.163  1.00  0.00    -0.507 OA
ATOM     23  H   UNL     1      15.212  41.888  24.764  1.00  0.00     0.293 HD
ENDBRANCH   6  22
BRANCH   8  24
ATOM     24  O   UNL     1      17.121  41.883  20.204  1.00  0.00    -0.508 OA
ATOM     25  H   UNL     1      17.976  41.988  20.737  1.00  0.00     0.293 HD
ENDBRANCH   8  24
TORSDOF 5
ENDMDL
MODEL 6
REMARK VINA RESULT:    -3.194      1.275      2.012
REMARK INTER + INTRA:          -4.048
REMARK INTER:                  -3.780
REMARK INTRA:                  -0.267
REMARK UNBOUND:                -0.293
REMARK SMILES O=c1cc(-c2ccc(O)c(O)c2)oc2cc(O)cc(O)c12
REMARK SMILES IDX 4 1 3 2 2 3 1 4 21 5 19 6 18 7 16 8 15 9 14 10 13 11 5 12
REMARK SMILES IDX 6 13 7 14 8 15 12 16 10 17 9 18 11 20 20 22 17 24
REMARK H PARENT 9 19 11 21 20 23 17 25
REMARK Flexibility Score: inf
ROOT
ATOM      1  C   UNL     1      12.361  45.762  10.278  1.00  0.00     0.138 A 
ATOM      2  C   UNL     1      12.683  45.775   8.914  1.00  0.00     0.100 A 
ATOM      3  C   UNL     1      13.886  46.345   8.495  1.00  0.00     0.197 A 
ATOM      4  O   UNL     1      14.120  46.397   7.261  1.00  0.00    -0.289 OA
ATOM      5  C   UNL     1      14.784  46.876   9.452  1.00  0.00     0.107 A 
ATOM      6  C   UNL     1      16.056  47.444   9.144  1.00  0.00     0.134 A 
ATOM      7  C   UNL     1      16.808  48.043  10.163  1.00  0.00     0.093 A 
ATOM      8  C   UNL     1      16.361  48.041  11.486  1.00  0.00     0.123 A 
ATOM      9  C   UNL     1      15.145  47.441  11.805  1.00  0.00     0.094 A 
ATOM     10  C   UNL     1      14.356  46.866  10.806  1.00  0.00     0.146 A 
ATOM     11  O   UNL     1      13.197  46.316  11.151  1.00  0.00    -0.456 OA
ENDROOT
BRANCH   1  12
ATOM     12  C   UNL     1      11.095  45.168  10.779  1.00  0.00     0.021 A 
ATOM     13  C   UNL     1      10.157  45.928  11.504  1.00  0.00     0.016 A 
ATOM     14  C   UNL     1       8.970  45.347  11.955  1.00  0.00     0.051 A 
ATOM     15  C   UNL     1       8.694  44.000  11.684  1.00  0.00     0.157 A 
ATOM     16  C   UNL     1      10.804  43.820  10.502  1.00  0.00     0.062 A 
ATOM     17  C   UNL     1       9.616  43.235  10.953  1.00  0.00     0.158 A 
BRANCH  15  18
ATOM     18  O   UNL     1       7.509  43.423  12.139  1.00  0.00    -0.504 OA
ATOM     19  H   UNL     1       7.060  43.735  12.992  1.00  0.00     0.293 HD
ENDBRANCH  15  18
BRANCH  17  20
ATOM     20  O   UNL     1       9.369  41.893  10.664  1.00  0.00    -0.504 OA
ATOM     21  H   UNL     1      10.035  41.319  10.162  1.00  0.00     0.293 HD
ENDBRANCH  17  20
ENDBRANCH   1  12
BRANCH   6  22
ATOM     22  O   UNL     1      16.634  47.424   7.871  1.00  0.00    -0.507 OA
ATOM     23  H   UNL     1      16.680  46.615   7.272  1.00  0.00     0.293 HD
ENDBRANCH   6  22
BRANCH   8  24
ATOM     24  O   UNL     1      17.123  48.627  12.494  1.00  0.00    -0.508 OA
ATOM     25  H   UNL     1      17.482  49.571  12.408  1.00  0.00     0.293 HD
ENDBRANCH   8  24
TORSDOF 5
ENDMDL
MODEL 7
REMARK VINA RESULT:    -3.111      2.873      5.163
REMARK INTER + INTRA:          -3.950
REMARK INTER:                  -3.669
REMARK INTRA:                  -0.281
REMARK UNBOUND:                -0.293
REMARK SMILES O=c1cc(-c2ccc(O)c(O)c2)oc2cc(O)cc(O)c12
REMARK SMILES IDX 4 1 3 2 2 3 1 4 21 5 19 6 18 7 16 8 15 9 14 10 13 11 5 12
REMARK SMILES IDX 6 13 7 14 8 15 12 16 10 17 9 18 11 20 20 22 17 24
REMARK H PARENT 9 19 11 21 20 23 17 25
REMARK Flexibility Score: inf
ROOT
ATOM      1  C   UNL     1      14.198  46.389  10.149  1.00  0.00     0.138 A 
ATOM      2  C   UNL     1      15.551  46.445  10.510  1.00  0.00     0.100 A 
ATOM      3  C   UNL     1      15.903  46.786  11.816  1.00  0.00     0.197 A 
ATOM      4  O   UNL     1      17.125  46.888  12.095  1.00  0.00    -0.289 OA
ATOM      5  C   UNL     1      14.891  47.040  12.774  1.00  0.00     0.107 A 
ATOM      6  C   UNL     1      15.132  47.356  14.145  1.00  0.00     0.134 A 
ATOM      7  C   UNL     1      14.055  47.702  14.971  1.00  0.00     0.093 A 
ATOM      8  C   UNL     1      12.743  47.686  14.491  1.00  0.00     0.123 A 
ATOM      9  C   UNL     1      12.494  47.327  13.169  1.00  0.00     0.094 A 
ATOM     10  C   UNL     1      13.549  47.009  12.310  1.00  0.00     0.146 A 
ATOM     11  O   UNL     1      13.270  46.685  11.052  1.00  0.00    -0.456 OA
ENDROOT
BRANCH   1  12
ATOM     12  C   UNL     1      13.768  46.031   8.773  1.00  0.00     0.021 A 
ATOM     13  C   UNL     1      14.231  46.737   7.646  1.00  0.00     0.016 A 
ATOM     14  C   UNL     1      13.818  46.374   6.362  1.00  0.00     0.051 A 
ATOM     15  C   UNL     1      12.943  45.294   6.179  1.00  0.00     0.157 A 
ATOM     16  C   UNL     1      12.900  44.942   8.579  1.00  0.00     0.062 A 
ATOM     17  C   UNL     1      12.484  44.576   7.295  1.00  0.00     0.158 A 
BRANCH  15  18
ATOM     18  O   UNL     1      12.531  44.936   4.897  1.00  0.00    -0.504 OA
ATOM     19  H   UNL     1      12.408  43.966   4.631  1.00  0.00     0.293 HD
ENDBRANCH  15  18
BRANCH  17  20
ATOM     20  O   UNL     1      11.615  43.495   7.146  1.00  0.00    -0.504 OA
ATOM     21  H   UNL     1      11.244  42.989   7.941  1.00  0.00     0.293 HD
ENDBRANCH  17  20
ENDBRANCH   1  12
BRANCH   6  22
ATOM     22  O   UNL     1      16.393  47.319  14.746  1.00  0.00    -0.507 OA
ATOM     23  H   UNL     1      16.890  46.478  14.993  1.00  0.00     0.293 HD
ENDBRANCH   6  22
BRANCH   8  24
ATOM     24  O   UNL     1      11.678  48.018  15.325  1.00  0.00    -0.508 OA
ATOM     25  H   UNL     1      10.815  47.486  15.320  1.00  0.00     0.293 HD
ENDBRANCH   8  24
TORSDOF 5
ENDMDL
MODEL 8
REMARK VINA RESULT:    -3.055      1.600      3.429
REMARK INTER + INTRA:          -3.883
REMARK INTER:                  -3.610
REMARK INTRA:                  -0.273
REMARK UNBOUND:                -0.293
REMARK SMILES O=c1cc(-c2ccc(O)c(O)c2)oc2cc(O)cc(O)c12
REMARK SMILES IDX 4 1 3 2 2 3 1 4 21 5 19 6 18 7 16 8 15 9 14 10 13 11 5 12
REMARK SMILES IDX 6 13 7 14 8 15 12 16 10 17 9 18 11 20 20 22 17 24
REMARK H PARENT 9 19 11 21 20 23 17 25
REMARK Flexibility Score: inf
ROOT
ATOM      1  C   UNL     1      12.543  46.005  11.239  1.00  0.00     0.138 A 
ATOM      2  C   UNL     1      13.174  46.419  12.420  1.00  0.00     0.100 A 
ATOM      3  C   UNL     1      14.428  47.028  12.355  1.00  0.00     0.197 A 
ATOM      4  O   UNL     1      14.996  47.333  13.435  1.00  0.00    -0.289 OA
ATOM      5  C   UNL     1      15.037  47.253  11.098  1.00  0.00     0.107 A 
ATOM      6  C   UNL     1      16.294  47.903  10.909  1.00  0.00     0.134 A 
ATOM      7  C   UNL     1      16.851  47.965   9.625  1.00  0.00     0.093 A 
ATOM      8  C   UNL     1      16.169  47.455   8.517  1.00  0.00     0.123 A 
ATOM      9  C   UNL     1      14.918  46.867   8.685  1.00  0.00     0.094 A 
ATOM     10  C   UNL     1      14.351  46.759   9.957  1.00  0.00     0.146 A 
ATOM     11  O   UNL     1      13.161  46.179  10.075  1.00  0.00    -0.456 OA
ENDROOT
BRANCH   1  12
ATOM     12  C   UNL     1      11.209  45.352  11.249  1.00  0.00     0.021 A 
ATOM     13  C   UNL     1      10.040  46.065  11.576  1.00  0.00     0.016 A 
ATOM     14  C   UNL     1       8.796  45.429  11.568  1.00  0.00     0.051 A 
ATOM     15  C   UNL     1       8.697  44.073  11.226  1.00  0.00     0.157 A 
ATOM     16  C   UNL     1      11.099  43.996  10.895  1.00  0.00     0.062 A 
ATOM     17  C   UNL     1       9.855  43.356  10.887  1.00  0.00     0.158 A 
BRANCH  15  18
ATOM     18  O   UNL     1       7.454  43.441  11.222  1.00  0.00    -0.504 OA
ATOM     19  H   UNL     1       6.603  43.943  11.444  1.00  0.00     0.293 HD
ENDBRANCH  15  18
BRANCH  17  20
ATOM     20  O   UNL     1       9.790  42.007  10.540  1.00  0.00    -0.504 OA
ATOM     21  H   UNL     1      10.495  41.341  10.830  1.00  0.00     0.293 HD
ENDBRANCH  17  20
ENDBRANCH   1  12
BRANCH   6  22
ATOM     22  O   UNL     1      17.017  48.520  11.933  1.00  0.00    -0.507 OA
ATOM     23  H   UNL     1      17.709  48.063  12.507  1.00  0.00     0.293 HD
ENDBRANCH   6  22
BRANCH   8  24
ATOM     24  O   UNL     1      16.726  47.535   7.242  1.00  0.00    -0.508 OA
ATOM     25  H   UNL     1      16.157  47.443   6.409  1.00  0.00     0.293 HD
ENDBRANCH   8  24
TORSDOF 5
ENDMDL
MODEL 9
REMARK VINA RESULT:    -2.956      1.973      2.678
REMARK INTER + INTRA:          -3.767
REMARK INTER:                  -3.468
REMARK INTRA:                  -0.299
REMARK UNBOUND:                -0.293
REMARK SMILES O=c1cc(-c2ccc(O)c(O)c2)oc2cc(O)cc(O)c12
REMARK SMILES IDX 4 1 3 2 2 3 1 4 21 5 19 6 18 7 16 8 15 9 14 10 13 11 5 12
REMARK SMILES IDX 6 13 7 14 8 15 12 16 10 17 9 18 11 20 20 22 17 24
REMARK H PARENT 9 19 11 21 20 23 17 25
REMARK Flexibility Score: inf
ROOT
ATOM      1  C   UNL     1      12.732  45.605   9.976  1.00  0.00     0.138 A 
ATOM      2  C   UNL     1      13.732  46.005   9.079  1.00  0.00     0.100 A 
ATOM      3  C   UNL     1      14.791  46.792   9.532  1.00  0.00     0.197 A 
ATOM      4  O   UNL     1      15.640  47.187   8.692  1.00  0.00    -0.289 OA
ATOM      5  C   UNL     1      14.864  47.154  10.899  1.00  0.00     0.107 A 
ATOM      6  C   UNL     1      15.918  47.920  11.481  1.00  0.00     0.134 A 
ATOM      7  C   UNL     1      15.823  48.315  12.822  1.00  0.00     0.093 A 
ATOM      8  C   UNL     1      14.742  47.922  13.615  1.00  0.00     0.123 A 
ATOM      9  C   UNL     1      13.735  47.130  13.069  1.00  0.00     0.094 A 
ATOM     10  C   UNL     1      13.784  46.748  11.727  1.00  0.00     0.146 A 
ATOM     11  O   UNL     1      12.796  46.003  11.242  1.00  0.00    -0.456 OA
ENDROOT
BRANCH   1  12
ATOM     12  C   UNL     1      11.584  44.766   9.547  1.00  0.00     0.021 A 
ATOM     13  C   UNL     1      10.985  44.922   8.282  1.00  0.00     0.016 A 
ATOM     14  C   UNL     1       9.913  44.113   7.901  1.00  0.00     0.051 A 
ATOM     15  C   UNL     1       9.425  43.128   8.770  1.00  0.00     0.157 A 
ATOM     16  C   UNL     1      11.096  43.767  10.408  1.00  0.00     0.062 A 
ATOM     17  C   UNL     1      10.022  42.955  10.029  1.00  0.00     0.158 A 
BRANCH  15  18
ATOM     18  O   UNL     1       8.353  42.324   8.386  1.00  0.00    -0.504 OA
ATOM     19  H   UNL     1       8.146  41.453   8.861  1.00  0.00     0.293 HD
ENDBRANCH  15  18
BRANCH  17  20
ATOM     20  O   UNL     1       9.562  41.982  10.915  1.00  0.00    -0.504 OA
ATOM     21  H   UNL     1      10.028  41.090  11.026  1.00  0.00     0.293 HD
ENDBRANCH  17  20
ENDBRANCH   1  12
BRANCH   6  22
ATOM     22  O   UNL     1      17.081  48.292  10.802  1.00  0.00    -0.507 OA
ATOM     23  H   UNL     1      17.119  48.961  10.047  1.00  0.00     0.293 HD
ENDBRANCH   6  22
BRANCH   8  24
ATOM     24  O   UNL     1      14.665  48.308  14.951  1.00  0.00    -0.508 OA
ATOM     25  H   UNL     1      14.105  47.792  15.621  1.00  0.00     0.293 HD
ENDBRANCH   8  24
TORSDOF 5
ENDMDL
