MODEL 1
REMARK VINA RESULT:    -3.685      0.000      0.000
REMARK INTER + INTRA:          -9.006
REMARK INTER:                  -6.702
REMARK INTRA:                  -2.304
REMARK UNBOUND:                -2.304
REMARK SMILES CCCCCCCCCCCCCCCC(=O)[O-]
REMARK SMILES IDX 9 1 10 2 11 3 12 4 13 5 14 6 15 7 16 8 17 9 18 10 8 11 7 12
REMARK SMILES IDX 6 13 5 14 4 15 3 16 2 17 1 18
REMARK H PARENT
REMARK Flexibility Score: inf
ROOT
ATOM      1  C   UNL     1      26.758  33.550   3.567  1.00  0.00     0.000 C 
ENDROOT
BRANCH   1   2
ATOM      2  C   UNL     1      28.179  33.804   4.094  1.00  0.00     0.000 C 
BRANCH   2   3
ATOM      3  C   UNL     1      29.207  32.818   3.513  1.00  0.00     0.000 C 
BRANCH   3   4
ATOM      4  C   UNL     1      30.660  33.193   3.856  1.00  0.00     0.000 C 
BRANCH   4   5
ATOM      5  C   UNL     1      31.562  33.496   2.645  1.00  0.00     0.000 C 
BRANCH   5   6
ATOM      6  C   UNL     1      31.048  32.869   1.341  1.00  0.00     0.006 C 
BRANCH   6   7
ATOM      7  C   UNL     1      31.521  33.668   0.124  1.00  0.00     0.053 C 
BRANCH   7   8
ATOM      8  C   UNL     1      32.576  32.914  -0.621  1.00  0.00     0.041 C 
ATOM      9  O   UNL     1      33.766  32.915  -0.209  1.00  0.00    -0.550 OA
ATOM     10  O   UNL     1      32.238  32.171  -1.746  1.00  0.00    -0.550 OA
ENDBRANCH   7   8
ENDBRANCH   6   7
ENDBRANCH   5   6
ENDBRANCH   4   5
ENDBRANCH   3   4
ENDBRANCH   2   3
ENDBRANCH   1   2
BRANCH   1  11
ATOM     11  C   UNL     1      26.747  32.921   2.162  1.00  0.00     0.000 C 
BRANCH  11  12
ATOM     12  C   UNL     1      25.650  33.505   1.255  1.00  0.00    -0.000 C 
BRANCH  12  13
ATOM     13  C   UNL     1      26.104  34.662   0.346  1.00  0.00    -0.000 C 
BRANCH  13  14
ATOM     14  C   UNL     1      25.835  36.048   0.960  1.00  0.00    -0.000 C 
BRANCH  14  15
ATOM     15  C   UNL     1      27.072  36.632   1.662  1.00  0.00    -0.000 C 
BRANCH  15  16
ATOM     16  C   UNL     1      28.391  36.119   1.065  1.00  0.00    -0.000 C 
BRANCH  16  17
ATOM     17  C   UNL     1      29.579  36.487   1.963  1.00  0.00    -0.003 C 
ATOM     18  C   UNL     1      29.121  37.271   3.189  1.00  0.00     0.004 C 
ENDBRANCH  16  17
ENDBRANCH  15  16
ENDBRANCH  14  15
ENDBRANCH  13  14
ENDBRANCH  12  13
ENDBRANCH  11  12
ENDBRANCH   1  11
TORSDOF 14
ENDMDL
MODEL 2
REMARK VINA RESULT:    -3.633      1.721      2.296
REMARK INTER + INTRA:          -8.910
REMARK INTER:                  -6.586
REMARK INTRA:                  -2.324
REMARK UNBOUND:                -2.304
REMARK SMILES CCCCCCCCCCCCCCCC(=O)[O-]
REMARK SMILES IDX 9 1 10 2 11 3 12 4 13 5 14 6 15 7 16 8 17 9 18 10 8 11 7 12
REMARK SMILES IDX 6 13 5 14 4 15 3 16 2 17 1 18
REMARK H PARENT
REMARK Flexibility Score: inf
ROOT
ATOM      1  C   UNL     1      27.110  33.067   3.131  1.00  0.00     0.000 C 
ENDROOT
BRANCH   1   2
ATOM      2  C   UNL     1      28.110  33.826   4.018  1.00  0.00     0.000 C 
BRANCH   2   3
ATOM      3  C   UNL     1      29.555  33.333   3.830  1.00  0.00     0.000 C 
BRANCH   3   4
ATOM      4  C   UNL     1      29.901  33.033   2.360  1.00  0.00     0.000 C 
BRANCH   4   5
ATOM      5  C   UNL     1      31.041  33.883   1.770  1.00  0.00     0.000 C 
BRANCH   5   6
ATOM      6  C   UNL     1      32.139  33.039   1.106  1.00  0.00     0.006 C 
BRANCH   6   7
ATOM      7  C   UNL     1      33.147  32.535   2.143  1.00  0.00     0.053 C 
BRANCH   7   8
ATOM      8  C   UNL     1      33.766  33.683   2.874  1.00  0.00     0.041 C 
ATOM      9  O   UNL     1      33.678  33.758   4.128  1.00  0.00    -0.550 OA
ATOM     10  O   UNL     1      34.482  34.649   2.176  1.00  0.00    -0.550 OA
ENDBRANCH   7   8
ENDBRANCH   6   7
ENDBRANCH   5   6
ENDBRANCH   4   5
ENDBRANCH   3   4
ENDBRANCH   2   3
ENDBRANCH   1   2
BRANCH   1  11
ATOM     11  C   UNL     1      26.176  34.007   2.348  1.00  0.00     0.000 C 
BRANCH  11  12
ATOM     12  C   UNL     1      26.085  33.652   0.854  1.00  0.00    -0.000 C 
BRANCH  12  13
ATOM     13  C   UNL     1      26.476  34.787  -0.111  1.00  0.00    -0.000 C 
BRANCH  13  14
ATOM     14  C   UNL     1      27.993  34.865  -0.362  1.00  0.00    -0.000 C 
BRANCH  14  15
ATOM     15  C   UNL     1      28.652  36.046   0.369  1.00  0.00    -0.000 C 
BRANCH  15  16
ATOM     16  C   UNL     1      27.629  37.066   0.892  1.00  0.00    -0.000 C 
BRANCH  16  17
ATOM     17  C   UNL     1      27.840  37.335   2.387  1.00  0.00    -0.003 C 
ATOM     18  C   UNL     1      29.281  37.054   2.800  1.00  0.00     0.004 C 
ENDBRANCH  16  17
ENDBRANCH  15  16
ENDBRANCH  14  15
ENDBRANCH  13  14
ENDBRANCH  12  13
ENDBRANCH  11  12
ENDBRANCH   1  11
TORSDOF 14
ENDMDL
MODEL 3
REMARK VINA RESULT:    -3.629      3.396      5.981
REMARK INTER + INTRA:          -8.902
REMARK INTER:                  -6.932
REMARK INTRA:                  -1.970
REMARK UNBOUND:                -2.304
REMARK SMILES CCCCCCCCCCCCCCCC(=O)[O-]
REMARK SMILES IDX 9 1 10 2 11 3 12 4 13 5 14 6 15 7 16 8 17 9 18 10 8 11 7 12
REMARK SMILES IDX 6 13 5 14 4 15 3 16 2 17 1 18
REMARK H PARENT
REMARK Flexibility Score: inf
ROOT
ATOM      1  C   UNL     1      30.012  35.759   2.124  1.00  0.00     0.000 C 
ENDROOT
BRANCH   1   2
ATOM      2  C   UNL     1      29.046  35.177   3.169  1.00  0.00     0.000 C 
BRANCH   2   3
ATOM      3  C   UNL     1      29.313  33.689   3.453  1.00  0.00     0.000 C 
BRANCH   3   4
ATOM      4  C   UNL     1      28.290  32.756   2.781  1.00  0.00     0.000 C 
BRANCH   4   5
ATOM      5  C   UNL     1      26.846  33.288   2.741  1.00  0.00     0.000 C 
BRANCH   5   6
ATOM      6  C   UNL     1      26.340  33.551   1.315  1.00  0.00     0.006 C 
BRANCH   6   7
ATOM      7  C   UNL     1      24.891  34.045   1.329  1.00  0.00     0.053 C 
BRANCH   7   8
ATOM      8  C   UNL     1      24.081  33.321   0.300  1.00  0.00     0.041 C 
ATOM      9  O   UNL     1      23.547  32.214   0.578  1.00  0.00    -0.550 OA
ATOM     10  O   UNL     1      23.876  33.888  -0.952  1.00  0.00    -0.550 OA
ENDBRANCH   7   8
ENDBRANCH   6   7
ENDBRANCH   5   6
ENDBRANCH   4   5
ENDBRANCH   3   4
ENDBRANCH   2   3
ENDBRANCH   1   2
BRANCH   1  11
ATOM     11  C   UNL     1      29.722  35.254   0.699  1.00  0.00     0.000 C 
BRANCH  11  12
ATOM     12  C   UNL     1      30.990  34.795  -0.042  1.00  0.00    -0.000 C 
BRANCH  12  13
ATOM     13  C   UNL     1      31.197  33.269  -0.095  1.00  0.00    -0.000 C 
BRANCH  13  14
ATOM     14  C   UNL     1      32.661  32.872  -0.356  1.00  0.00    -0.000 C 
BRANCH  14  15
ATOM     15  C   UNL     1      33.570  33.139   0.854  1.00  0.00    -0.000 C 
BRANCH  15  16
ATOM     16  C   UNL     1      33.017  32.541   2.156  1.00  0.00    -0.000 C 
BRANCH  16  17
ATOM     17  C   UNL     1      33.005  33.587   3.278  1.00  0.00    -0.003 C 
ATOM     18  C   UNL     1      33.556  34.924   2.791  1.00  0.00     0.004 C 
ENDBRANCH  16  17
ENDBRANCH  15  16
ENDBRANCH  14  15
ENDBRANCH  13  14
ENDBRANCH  12  13
ENDBRANCH  11  12
ENDBRANCH   1  11
TORSDOF 14
ENDMDL
MODEL 4
REMARK VINA RESULT:    -3.609      1.191      2.311
REMARK INTER + INTRA:          -8.866
REMARK INTER:                  -6.526
REMARK INTRA:                  -2.339
REMARK UNBOUND:                -2.304
REMARK SMILES CCCCCCCCCCCCCCCC(=O)[O-]
REMARK SMILES IDX 9 1 10 2 11 3 12 4 13 5 14 6 15 7 16 8 17 9 18 10 8 11 7 12
REMARK SMILES IDX 6 13 5 14 4 15 3 16 2 17 1 18
REMARK H PARENT
REMARK Flexibility Score: inf
ROOT
ATOM      1  C   UNL     1      25.834  33.115   1.649  1.00  0.00     0.000 C 
ENDROOT
BRANCH   1   2
ATOM      2  C   UNL     1      27.228  32.959   2.277  1.00  0.00     0.000 C 
BRANCH   2   3
ATOM      3  C   UNL     1      27.341  33.663   3.640  1.00  0.00     0.000 C 
BRANCH   3   4
ATOM      4  C   UNL     1      28.776  34.122   3.962  1.00  0.00     0.000 C 
BRANCH   4   5
ATOM      5  C   UNL     1      29.818  32.992   4.058  1.00  0.00     0.000 C 
BRANCH   5   6
ATOM      6  C   UNL     1      31.134  33.324   3.339  1.00  0.00     0.006 C 
BRANCH   6   7
ATOM      7  C   UNL     1      31.079  32.897   1.870  1.00  0.00     0.053 C 
BRANCH   7   8
ATOM      8  C   UNL     1      32.460  32.752   1.315  1.00  0.00     0.041 C 
ATOM      9  O   UNL     1      33.425  32.483   2.078  1.00  0.00    -0.550 OA
ATOM     10  O   UNL     1      32.677  32.868  -0.053  1.00  0.00    -0.550 OA
ENDBRANCH   7   8
ENDBRANCH   6   7
ENDBRANCH   5   6
ENDBRANCH   4   5
ENDBRANCH   3   4
ENDBRANCH   2   3
ENDBRANCH   1   2
BRANCH   1  11
ATOM     11  C   UNL     1      25.759  34.282   0.649  1.00  0.00     0.000 C 
BRANCH  11  12
ATOM     12  C   UNL     1      24.930  35.468   1.175  1.00  0.00    -0.000 C 
BRANCH  12  13
ATOM     13  C   UNL     1      25.637  36.835   1.113  1.00  0.00    -0.000 C 
BRANCH  13  14
ATOM     14  C   UNL     1      26.987  36.846   1.853  1.00  0.00    -0.000 C 
BRANCH  14  15
ATOM     15  C   UNL     1      28.172  37.121   0.913  1.00  0.00    -0.000 C 
BRANCH  15  16
ATOM     16  C   UNL     1      29.232  36.011   0.954  1.00  0.00    -0.000 C 
BRANCH  16  17
ATOM     17  C   UNL     1      29.124  35.104  -0.279  1.00  0.00    -0.003 C 
ATOM     18  C   UNL     1      28.460  35.833  -1.443  1.00  0.00     0.004 C 
ENDBRANCH  16  17
ENDBRANCH  15  16
ENDBRANCH  14  15
ENDBRANCH  13  14
ENDBRANCH  12  13
ENDBRANCH  11  12
ENDBRANCH   1  11
TORSDOF 14
ENDMDL
MODEL 5
REMARK VINA RESULT:    -3.590      3.430      5.913
REMARK INTER + INTRA:          -8.833
REMARK INTER:                  -6.480
REMARK INTRA:                  -2.352
REMARK UNBOUND:                -2.304
REMARK SMILES CCCCCCCCCCCCCCCC(=O)[O-]
REMARK SMILES IDX 9 1 10 2 11 3 12 4 13 5 14 6 15 7 16 8 17 9 18 10 8 11 7 12
REMARK SMILES IDX 6 13 5 14 4 15 3 16 2 17 1 18
REMARK H PARENT
REMARK Flexibility Score: inf
ROOT
ATOM      1  C   UNL     1      27.146  33.916   3.530  1.00  0.00     0.000 C 
ENDROOT
BRANCH   1   2
ATOM      2  C   UNL     1      27.158  33.117   2.217  1.00  0.00     0.000 C 
BRANCH   2   3
ATOM      3  C   UNL     1      26.882  34.001   0.988  1.00  0.00     0.000 C 
BRANCH   3   4
ATOM      4  C   UNL     1      25.993  35.217   1.310  1.00  0.00     0.000 C 
BRANCH   4   5
ATOM      5  C   UNL     1      24.989  35.604   0.209  1.00  0.00     0.000 C 
BRANCH   5   6
ATOM      6  C   UNL     1      24.717  34.465  -0.785  1.00  0.00     0.006 C 
BRANCH   6   7
ATOM      7  C   UNL     1      23.246  34.043  -0.747  1.00  0.00     0.053 C 
BRANCH   7   8
ATOM      8  C   UNL     1      23.112  32.658  -0.197  1.00  0.00     0.041 C 
ATOM      9  O   UNL     1      23.828  32.288   0.771  1.00  0.00    -0.550 OA
ATOM     10  O   UNL     1      22.164  31.788  -0.723  1.00  0.00    -0.550 OA
ENDBRANCH   7   8
ENDBRANCH   6   7
ENDBRANCH   5   6
ENDBRANCH   4   5
ENDBRANCH   3   4
ENDBRANCH   2   3
ENDBRANCH   1   2
BRANCH   1  11
ATOM     11  C   UNL     1      28.510  33.911   4.242  1.00  0.00     0.000 C 
BRANCH  11  12
ATOM     12  C   UNL     1      29.469  32.842   3.689  1.00  0.00    -0.000 C 
BRANCH  12  13
ATOM     13  C   UNL     1      30.785  33.387   3.103  1.00  0.00    -0.000 C 
BRANCH  13  14
ATOM     14  C   UNL     1      30.829  33.320   1.566  1.00  0.00    -0.000 C 
BRANCH  14  15
ATOM     15  C   UNL     1      30.544  34.681   0.909  1.00  0.00    -0.000 C 
BRANCH  15  16
ATOM     16  C   UNL     1      30.656  35.852   1.895  1.00  0.00    -0.000 C 
BRANCH  16  17
ATOM     17  C   UNL     1      29.407  36.741   1.834  1.00  0.00    -0.003 C 
ATOM     18  C   UNL     1      29.056  37.294   3.211  1.00  0.00     0.004 C 
ENDBRANCH  16  17
ENDBRANCH  15  16
ENDBRANCH  14  15
ENDBRANCH  13  14
ENDBRANCH  12  13
ENDBRANCH  11  12
ENDBRANCH   1  11
TORSDOF 14
ENDMDL
MODEL 6
REMARK VINA RESULT:    -3.590      3.648      5.849
REMARK INTER + INTRA:          -8.833
REMARK INTER:                  -6.739
REMARK INTRA:                  -2.094
REMARK UNBOUND:                -2.304
REMARK SMILES CCCCCCCCCCCCCCCC(=O)[O-]
REMARK SMILES IDX 9 1 10 2 11 3 12 4 13 5 14 6 15 7 16 8 17 9 18 10 8 11 7 12
REMARK SMILES IDX 6 13 5 14 4 15 3 16 2 17 1 18
REMARK H PARENT
REMARK Flexibility Score: inf
ROOT
ATOM      1  C   UNL     1      29.717  33.234   3.816  1.00  0.00     0.000 C 
ENDROOT
BRANCH   1   2
ATOM      2  C   UNL     1      28.414  32.840   3.101  1.00  0.00     0.000 C 
BRANCH   2   3
ATOM      3  C   UNL     1      27.196  33.617   3.627  1.00  0.00     0.000 C 
BRANCH   3   4
ATOM      4  C   UNL     1      26.378  34.284   2.506  1.00  0.00     0.000 C 
BRANCH   4   5
ATOM      5  C   UNL     1      25.960  33.349   1.356  1.00  0.00     0.000 C 
BRANCH   5   6
ATOM      6  C   UNL     1      24.629  33.753   0.706  1.00  0.00     0.006 C 
BRANCH   6   7
ATOM      7  C   UNL     1      23.755  32.525   0.433  1.00  0.00     0.053 C 
BRANCH   7   8
ATOM      8  C   UNL     1      22.719  32.837  -0.599  1.00  0.00     0.041 C 
ATOM      9  O   UNL     1      22.706  33.963  -1.163  1.00  0.00    -0.550 OA
ATOM     10  O   UNL     1      21.795  31.869  -0.974  1.00  0.00    -0.550 OA
ENDBRANCH   7   8
ENDBRANCH   6   7
ENDBRANCH   5   6
ENDBRANCH   4   5
ENDBRANCH   3   4
ENDBRANCH   2   3
ENDBRANCH   1   2
BRANCH   1  11
ATOM     11  C   UNL     1      30.877  33.493   2.838  1.00  0.00     0.000 C 
BRANCH  11  12
ATOM     12  C   UNL     1      30.758  32.677   1.539  1.00  0.00    -0.000 C 
BRANCH  12  13
ATOM     13  C   UNL     1      31.242  33.400   0.269  1.00  0.00    -0.000 C 
BRANCH  13  14
ATOM     14  C   UNL     1      30.780  34.867   0.201  1.00  0.00    -0.000 C 
BRANCH  14  15
ATOM     15  C   UNL     1      29.283  34.999  -0.122  1.00  0.00    -0.000 C 
BRANCH  15  16
ATOM     16  C   UNL     1      28.603  36.128   0.667  1.00  0.00    -0.000 C 
BRANCH  16  17
ATOM     17  C   UNL     1      29.582  36.772   1.656  1.00  0.00    -0.003 C 
ATOM     18  C   UNL     1      29.000  36.804   3.066  1.00  0.00     0.004 C 
ENDBRANCH  16  17
ENDBRANCH  15  16
ENDBRANCH  14  15
ENDBRANCH  13  14
ENDBRANCH  12  13
ENDBRANCH  11  12
ENDBRANCH   1  11
TORSDOF 14
ENDMDL
MODEL 7
REMARK VINA RESULT:    -3.586      3.559      5.970
REMARK INTER + INTRA:          -8.824
REMARK INTER:                  -6.742
REMARK INTRA:                  -2.082
REMARK UNBOUND:                -2.304
REMARK SMILES CCCCCCCCCCCCCCCC(=O)[O-]
REMARK SMILES IDX 9 1 10 2 11 3 12 4 13 5 14 6 15 7 16 8 17 9 18 10 8 11 7 12
REMARK SMILES IDX 6 13 5 14 4 15 3 16 2 17 1 18
REMARK H PARENT
REMARK Flexibility Score: inf
ROOT
ATOM      1  C   UNL     1      29.412  32.881   2.005  1.00  0.00     0.000 C 
ENDROOT
BRANCH   1   2
ATOM      2  C   UNL     1      29.660  33.479   3.398  1.00  0.00     0.000 C 
BRANCH   2   3
ATOM      3  C   UNL     1      28.352  33.786   4.148  1.00  0.00     0.000 C 
BRANCH   3   4
ATOM      4  C   UNL     1      27.099  33.598   3.273  1.00  0.00     0.000 C 
BRANCH   4   5
ATOM      5  C   UNL     1      26.665  34.842   2.477  1.00  0.00     0.000 C 
BRANCH   5   6
ATOM      6  C   UNL     1      26.248  34.519   1.035  1.00  0.00     0.006 C 
BRANCH   6   7
ATOM      7  C   UNL     1      25.556  33.155   0.956  1.00  0.00     0.053 C 
BRANCH   7   8
ATOM      8  C   UNL     1      24.115  33.320   0.590  1.00  0.00     0.041 C 
ATOM      9  O   UNL     1      23.398  32.308   0.367  1.00  0.00    -0.550 OA
ATOM     10  O   UNL     1      23.549  34.588   0.539  1.00  0.00    -0.550 OA
ENDBRANCH   7   8
ENDBRANCH   6   7
ENDBRANCH   5   6
ENDBRANCH   4   5
ENDBRANCH   3   4
ENDBRANCH   2   3
ENDBRANCH   1   2
BRANCH   1  11
ATOM     11  C   UNL     1      29.973  33.758   0.871  1.00  0.00     0.000 C 
BRANCH  11  12
ATOM     12  C   UNL     1      30.128  35.234   1.278  1.00  0.00    -0.000 C 
BRANCH  12  13
ATOM     13  C   UNL     1      31.506  35.851   0.978  1.00  0.00    -0.000 C 
BRANCH  13  14
ATOM     14  C   UNL     1      32.342  35.006  -0.001  1.00  0.00    -0.000 C 
BRANCH  14  15
ATOM     15  C   UNL     1      33.628  34.461   0.640  1.00  0.00    -0.000 C 
BRANCH  15  16
ATOM     16  C   UNL     1      33.589  32.940   0.850  1.00  0.00    -0.000 C 
BRANCH  16  17
ATOM     17  C   UNL     1      33.146  32.595   2.277  1.00  0.00    -0.003 C 
ATOM     18  C   UNL     1      33.541  33.694   3.258  1.00  0.00     0.004 C 
ENDBRANCH  16  17
ENDBRANCH  15  16
ENDBRANCH  14  15
ENDBRANCH  13  14
ENDBRANCH  12  13
ENDBRANCH  11  12
ENDBRANCH   1  11
TORSDOF 14
ENDMDL
MODEL 8
REMARK VINA RESULT:    -3.548      2.789      5.532
REMARK INTER + INTRA:          -8.755
REMARK INTER:                  -6.288
REMARK INTRA:                  -2.467
REMARK UNBOUND:                -2.304
REMARK SMILES CCCCCCCCCCCCCCCC(=O)[O-]
REMARK SMILES IDX 9 1 10 2 11 3 12 4 13 5 14 6 15 7 16 8 17 9 18 10 8 11 7 12
REMARK SMILES IDX 6 13 5 14 4 15 3 16 2 17 1 18
REMARK H PARENT
REMARK Flexibility Score: inf
ROOT
ATOM      1  C   UNL     1      29.956  35.342   2.138  1.00  0.00     0.000 C 
ENDROOT
BRANCH   1   2
ATOM      2  C   UNL     1      29.766  33.851   2.456  1.00  0.00     0.000 C 
BRANCH   2   3
ATOM      3  C   UNL     1      29.179  33.618   3.859  1.00  0.00     0.000 C 
BRANCH   3   4
ATOM      4  C   UNL     1      27.639  33.631   3.875  1.00  0.00     0.000 C 
BRANCH   4   5
ATOM      5  C   UNL     1      26.966  32.885   2.709  1.00  0.00     0.000 C 
BRANCH   5   6
ATOM      6  C   UNL     1      25.955  33.751   1.944  1.00  0.00     0.006 C 
BRANCH   6   7
ATOM      7  C   UNL     1      26.540  34.233   0.614  1.00  0.00     0.053 C 
BRANCH   7   8
ATOM      8  C   UNL     1      26.714  35.719   0.626  1.00  0.00     0.041 C 
ATOM      9  O   UNL     1      27.077  36.323  -0.418  1.00  0.00    -0.550 OA
ATOM     10  O   UNL     1      26.432  36.444   1.778  1.00  0.00    -0.550 OA
ENDBRANCH   7   8
ENDBRANCH   6   7
ENDBRANCH   5   6
ENDBRANCH   4   5
ENDBRANCH   3   4
ENDBRANCH   2   3
ENDBRANCH   1   2
BRANCH   1  11
ATOM     11  C   UNL     1      30.497  35.584   0.717  1.00  0.00     0.000 C 
BRANCH  11  12
ATOM     12  C   UNL     1      30.482  34.314  -0.152  1.00  0.00    -0.000 C 
BRANCH  12  13
ATOM     13  C   UNL     1      31.762  34.073  -0.974  1.00  0.00    -0.000 C 
BRANCH  13  14
ATOM     14  C   UNL     1      32.585  32.876  -0.466  1.00  0.00    -0.000 C 
BRANCH  14  15
ATOM     15  C   UNL     1      33.516  33.252   0.699  1.00  0.00    -0.000 C 
BRANCH  15  16
ATOM     16  C   UNL     1      33.138  32.552   2.012  1.00  0.00    -0.000 C 
BRANCH  16  17
ATOM     17  C   UNL     1      33.349  33.485   3.211  1.00  0.00    -0.003 C 
ATOM     18  C   UNL     1      33.598  34.920   2.756  1.00  0.00     0.004 C 
ENDBRANCH  16  17
ENDBRANCH  15  16
ENDBRANCH  14  15
ENDBRANCH  13  14
ENDBRANCH  12  13
ENDBRANCH  11  12
ENDBRANCH   1  11
TORSDOF 14
ENDMDL
MODEL 9
REMARK VINA RESULT:    -3.539      3.303      5.161
REMARK INTER + INTRA:          -8.739
REMARK INTER:                  -6.163
REMARK INTRA:                  -2.577
REMARK UNBOUND:                -2.304
REMARK SMILES CCCCCCCCCCCCCCCC(=O)[O-]
REMARK SMILES IDX 9 1 10 2 11 3 12 4 13 5 14 6 15 7 16 8 17 9 18 10 8 11 7 12
REMARK SMILES IDX 6 13 5 14 4 15 3 16 2 17 1 18
REMARK H PARENT
REMARK Flexibility Score: inf
ROOT
ATOM      1  C   UNL     1      31.613  32.978   2.530  1.00  0.00     0.000 C 
ENDROOT
BRANCH   1   2
ATOM      2  C   UNL     1      30.865  33.240   3.847  1.00  0.00     0.000 C 
BRANCH   2   3
ATOM      3  C   UNL     1      29.385  32.826   3.775  1.00  0.00     0.000 C 
BRANCH   3   4
ATOM      4  C   UNL     1      28.422  33.984   4.095  1.00  0.00     0.000 C 
BRANCH   4   5
ATOM      5  C   UNL     1      27.488  34.396   2.943  1.00  0.00     0.000 C 
BRANCH   5   6
ATOM      6  C   UNL     1      26.887  33.196   2.197  1.00  0.00     0.006 C 
BRANCH   6   7
ATOM      7  C   UNL     1      26.266  33.631   0.867  1.00  0.00     0.053 C 
BRANCH   7   8
ATOM      8  C   UNL     1      24.773  33.614   0.955  1.00  0.00     0.041 C 
ATOM      9  O   UNL     1      24.142  32.533   0.813  1.00  0.00    -0.550 OA
ATOM     10  O   UNL     1      24.079  34.783   1.242  1.00  0.00    -0.550 OA
ENDBRANCH   7   8
ENDBRANCH   6   7
ENDBRANCH   5   6
ENDBRANCH   4   5
ENDBRANCH   3   4
ENDBRANCH   2   3
ENDBRANCH   1   2
BRANCH   1  11
ATOM     11  C   UNL     1      30.663  32.724   1.346  1.00  0.00     0.000 C 
BRANCH  11  12
ATOM     12  C   UNL     1      30.815  33.765   0.223  1.00  0.00    -0.000 C 
BRANCH  12  13
ATOM     13  C   UNL     1      29.649  34.765   0.100  1.00  0.00    -0.000 C 
BRANCH  13  14
ATOM     14  C   UNL     1      30.065  36.213   0.415  1.00  0.00    -0.000 C 
BRANCH  14  15
ATOM     15  C   UNL     1      30.432  36.413   1.894  1.00  0.00    -0.000 C 
BRANCH  15  16
ATOM     16  C   UNL     1      31.704  37.252   2.083  1.00  0.00    -0.000 C 
BRANCH  16  17
ATOM     17  C   UNL     1      32.901  36.361   2.440  1.00  0.00    -0.003 C 
ATOM     18  C   UNL     1      33.690  35.971   1.194  1.00  0.00     0.004 C 
ENDBRANCH  16  17
ENDBRANCH  15  16
ENDBRANCH  14  15
ENDBRANCH  13  14
ENDBRANCH  12  13
ENDBRANCH  11  12
ENDBRANCH   1  11
TORSDOF 14
ENDMDL
