MODEL 1
REMARK VINA RESULT:    -4.291      0.000      0.000
REMARK INTER + INTRA:         -10.206
REMARK INTER:                  -8.304
REMARK INTRA:                  -1.901
REMARK UNBOUND:                -1.901
REMARK SMILES CCCCCCCCCCCCCCCCCC(=O)[O-]
REMARK SMILES IDX 10 1 11 2 12 3 13 4 14 5 15 6 16 7 17 8 18 9 19 10 20 11
REMARK SMILES IDX 9 12 8 13 7 14 6 15 5 16 4 17 3 18 2 19 1 20
REMARK H PARENT
REMARK Flexibility Score: inf
ROOT
ATOM      1  C   UNL     1       4.973  11.375   6.117  1.00  0.00     0.000 C 
ENDROOT
BRANCH   1   2
ATOM      2  C   UNL     1       5.055  10.184   7.080  1.00  0.00     0.000 C 
BRANCH   2   3
ATOM      3  C   UNL     1       4.543  10.566   8.474  1.00  0.00     0.000 C 
BRANCH   3   4
ATOM      4  C   UNL     1       3.860   9.375   9.155  1.00  0.00     0.000 C 
BRANCH   4   5
ATOM      5  C   UNL     1       4.839   8.208   9.339  1.00  0.00     0.000 C 
BRANCH   5   6
ATOM      6  C   UNL     1       4.093   6.916   9.702  1.00  0.00     0.000 C 
BRANCH   6   7
ATOM      7  C   UNL     1       4.024   5.921   8.533  1.00  0.00     0.006 C 
BRANCH   7   8
ATOM      8  C   UNL     1       2.846   4.944   8.656  1.00  0.00     0.053 C 
BRANCH   8   9
ATOM      9  C   UNL     1       2.899   3.923   7.563  1.00  0.00     0.041 C 
ATOM     10  O   UNL     1       2.929   2.695   7.845  1.00  0.00    -0.550 OA
ATOM     11  O   UNL     1       2.965   4.325   6.236  1.00  0.00    -0.550 OA
ENDBRANCH   8   9
ENDBRANCH   7   8
ENDBRANCH   6   7
ENDBRANCH   5   6
ENDBRANCH   4   5
ENDBRANCH   3   4
ENDBRANCH   2   3
ENDBRANCH   1   2
BRANCH   1  12
ATOM     12  C   UNL     1       4.127  12.506   6.712  1.00  0.00     0.000 C 
BRANCH  12  13
ATOM     13  C   UNL     1       4.788  13.870   6.478  1.00  0.00    -0.000 C 
BRANCH  13  14
ATOM     14  C   UNL     1       5.269  14.482   7.803  1.00  0.00    -0.000 C 
BRANCH  14  15
ATOM     15  C   UNL     1       6.579  13.854   8.306  1.00  0.00    -0.000 C 
BRANCH  15  16
ATOM     16  C   UNL     1       7.757  14.098   7.350  1.00  0.00    -0.000 C 
BRANCH  16  17
ATOM     17  C   UNL     1       8.868  13.066   7.573  1.00  0.00    -0.000 C 
BRANCH  17  18
ATOM     18  C   UNL     1       8.290  11.738   8.084  1.00  0.00    -0.000 C 
BRANCH  18  19
ATOM     19  C   UNL     1       8.593  10.561   7.144  1.00  0.00    -0.003 C 
ATOM     20  C   UNL     1       9.306  10.997   5.864  1.00  0.00     0.004 C 
ENDBRANCH  18  19
ENDBRANCH  17  18
ENDBRANCH  16  17
ENDBRANCH  15  16
ENDBRANCH  14  15
ENDBRANCH  13  14
ENDBRANCH  12  13
ENDBRANCH   1  12
TORSDOF 16
ENDMDL
MODEL 2
REMARK VINA RESULT:    -3.939      2.935      7.775
REMARK INTER + INTRA:          -9.525
REMARK INTER:                  -8.035
REMARK INTRA:                  -1.490
REMARK UNBOUND:                -1.901
REMARK SMILES CCCCCCCCCCCCCCCCCC(=O)[O-]
REMARK SMILES IDX 10 1 11 2 12 3 13 4 14 5 15 6 16 7 17 8 18 9 19 10 20 11
REMARK SMILES IDX 9 12 8 13 7 14 6 15 5 16 4 17 3 18 2 19 1 20
REMARK H PARENT
REMARK Flexibility Score: inf
ROOT
ATOM      1  C   UNL     1       5.203  10.215   7.193  1.00  0.00     0.000 C 
ENDROOT
BRANCH   1   2
ATOM      2  C   UNL     1       4.960  11.324   6.163  1.00  0.00     0.000 C 
BRANCH   2   3
ATOM      3  C   UNL     1       4.046  12.415   6.732  1.00  0.00     0.000 C 
BRANCH   3   4
ATOM      4  C   UNL     1       4.705  13.795   6.627  1.00  0.00     0.000 C 
BRANCH   4   5
ATOM      5  C   UNL     1       5.629  14.058   7.823  1.00  0.00     0.000 C 
BRANCH   5   6
ATOM      6  C   UNL     1       7.101  14.069   7.389  1.00  0.00     0.000 C 
BRANCH   6   7
ATOM      7  C   UNL     1       7.839  12.772   7.758  1.00  0.00     0.006 C 
BRANCH   7   8
ATOM      8  C   UNL     1       9.060  12.511   6.865  1.00  0.00     0.053 C 
BRANCH   8   9
ATOM      9  C   UNL     1       9.073  11.088   6.402  1.00  0.00     0.041 C 
ATOM     10  O   UNL     1       8.778  10.160   7.200  1.00  0.00    -0.550 OA
ATOM     11  O   UNL     1       9.458  10.782   5.103  1.00  0.00    -0.550 OA
ENDBRANCH   8   9
ENDBRANCH   7   8
ENDBRANCH   6   7
ENDBRANCH   5   6
ENDBRANCH   4   5
ENDBRANCH   3   4
ENDBRANCH   2   3
ENDBRANCH   1   2
BRANCH   1  12
ATOM     12  C   UNL     1       4.423  10.484   8.485  1.00  0.00     0.000 C 
BRANCH  12  13
ATOM     13  C   UNL     1       4.442   9.258   9.407  1.00  0.00    -0.000 C 
BRANCH  13  14
ATOM     14  C   UNL     1       4.192   7.969   8.611  1.00  0.00    -0.000 C 
BRANCH  14  15
ATOM     15  C   UNL     1       3.819   6.779   9.510  1.00  0.00    -0.000 C 
BRANCH  15  16
ATOM     16  C   UNL     1       4.776   5.587   9.340  1.00  0.00    -0.000 C 
BRANCH  16  17
ATOM     17  C   UNL     1       4.155   4.509   8.444  1.00  0.00    -0.000 C 
BRANCH  17  18
ATOM     18  C   UNL     1       2.628   4.652   8.389  1.00  0.00    -0.000 C 
BRANCH  18  19
ATOM     19  C   UNL     1       1.906   3.621   9.271  1.00  0.00    -0.003 C 
ATOM     20  C   UNL     1       0.577   4.140   9.820  1.00  0.00     0.004 C 
ENDBRANCH  18  19
ENDBRANCH  17  18
ENDBRANCH  16  17
ENDBRANCH  15  16
ENDBRANCH  14  15
ENDBRANCH  13  14
ENDBRANCH  12  13
ENDBRANCH   1  12
TORSDOF 16
ENDMDL
MODEL 3
REMARK VINA RESULT:    -3.928      3.096      7.187
REMARK INTER + INTRA:          -9.503
REMARK INTER:                  -7.815
REMARK INTRA:                  -1.688
REMARK UNBOUND:                -1.901
REMARK SMILES CCCCCCCCCCCCCCCCCC(=O)[O-]
REMARK SMILES IDX 10 1 11 2 12 3 13 4 14 5 15 6 16 7 17 8 18 9 19 10 20 11
REMARK SMILES IDX 9 12 8 13 7 14 6 15 5 16 4 17 3 18 2 19 1 20
REMARK H PARENT
REMARK Flexibility Score: inf
ROOT
ATOM      1  C   UNL     1       4.706  12.436   5.983  1.00  0.00     0.000 C 
ENDROOT
BRANCH   1   2
ATOM      2  C   UNL     1       4.611  13.914   6.381  1.00  0.00     0.000 C 
BRANCH   2   3
ATOM      3  C   UNL     1       5.424  14.195   7.650  1.00  0.00     0.000 C 
BRANCH   3   4
ATOM      4  C   UNL     1       6.740  14.906   7.314  1.00  0.00     0.000 C 
BRANCH   4   5
ATOM      5  C   UNL     1       7.927  14.227   8.007  1.00  0.00     0.000 C 
BRANCH   5   6
ATOM      6  C   UNL     1       7.537  12.836   8.529  1.00  0.00     0.000 C 
BRANCH   6   7
ATOM      7  C   UNL     1       8.460  11.724   8.004  1.00  0.00     0.006 C 
BRANCH   7   8
ATOM      8  C   UNL     1       9.013  12.027   6.605  1.00  0.00     0.053 C 
BRANCH   8   9
ATOM      9  C   UNL     1       9.550  10.780   5.974  1.00  0.00     0.041 C 
ATOM     10  O   UNL     1       9.605  10.677   4.720  1.00  0.00    -0.550 OA
ATOM     11  O   UNL     1       9.943   9.711   6.769  1.00  0.00    -0.550 OA
ENDBRANCH   8   9
ENDBRANCH   7   8
ENDBRANCH   6   7
ENDBRANCH   5   6
ENDBRANCH   4   5
ENDBRANCH   3   4
ENDBRANCH   2   3
ENDBRANCH   1   2
BRANCH   1  12
ATOM     12  C   UNL     1       4.241  11.526   7.126  1.00  0.00     0.000 C 
BRANCH  12  13
ATOM     13  C   UNL     1       5.120  10.274   7.226  1.00  0.00    -0.000 C 
BRANCH  13  14
ATOM     14  C   UNL     1       5.063   9.674   8.639  1.00  0.00    -0.000 C 
BRANCH  14  15
ATOM     15  C   UNL     1       4.062   8.512   8.752  1.00  0.00    -0.000 C 
BRANCH  15  16
ATOM     16  C   UNL     1       4.268   7.676  10.025  1.00  0.00    -0.000 C 
BRANCH  16  17
ATOM     17  C   UNL     1       3.609   6.298   9.889  1.00  0.00    -0.000 C 
BRANCH  17  18
ATOM     18  C   UNL     1       4.061   5.597   8.599  1.00  0.00    -0.000 C 
BRANCH  18  19
ATOM     19  C   UNL     1       3.273   4.307   8.322  1.00  0.00    -0.003 C 
ATOM     20  C   UNL     1       2.580   4.320   6.960  1.00  0.00     0.004 C 
ENDBRANCH  18  19
ENDBRANCH  17  18
ENDBRANCH  16  17
ENDBRANCH  15  16
ENDBRANCH  14  15
ENDBRANCH  13  14
ENDBRANCH  12  13
ENDBRANCH   1  12
TORSDOF 16
ENDMDL
MODEL 4
REMARK VINA RESULT:    -3.852      3.032      5.253
REMARK INTER + INTRA:          -9.356
REMARK INTER:                  -8.342
REMARK INTRA:                  -1.014
REMARK UNBOUND:                -1.901
REMARK SMILES CCCCCCCCCCCCCCCCCC(=O)[O-]
REMARK SMILES IDX 10 1 11 2 12 3 13 4 14 5 15 6 16 7 17 8 18 9 19 10 20 11
REMARK SMILES IDX 9 12 8 13 7 14 6 15 5 16 4 17 3 18 2 19 1 20
REMARK H PARENT
REMARK Flexibility Score: inf
ROOT
ATOM      1  C   UNL     1       4.468   6.720   8.960  1.00  0.00     0.000 C 
ENDROOT
BRANCH   1   2
ATOM      2  C   UNL     1       3.421   5.665   9.337  1.00  0.00     0.000 C 
BRANCH   2   3
ATOM      3  C   UNL     1       2.975   4.866   8.107  1.00  0.00     0.000 C 
BRANCH   3   4
ATOM      4  C   UNL     1       4.182   4.289   7.359  1.00  0.00     0.000 C 
BRANCH   4   5
ATOM      5  C   UNL     1       4.808   3.124   8.136  1.00  0.00     0.000 C 
BRANCH   5   6
ATOM      6  C   UNL     1       6.329   3.296   8.254  1.00  0.00     0.000 C 
BRANCH   6   7
ATOM      7  C   UNL     1       7.101   2.505   7.185  1.00  0.00     0.006 C 
BRANCH   7   8
ATOM      8  C   UNL     1       7.365   3.328   5.917  1.00  0.00     0.053 C 
BRANCH   8   9
ATOM      9  C   UNL     1       8.181   2.537   4.942  1.00  0.00     0.041 C 
ATOM     10  O   UNL     1       8.411   1.317   5.152  1.00  0.00    -0.550 OA
ATOM     11  O   UNL     1       8.727   3.158   3.826  1.00  0.00    -0.550 OA
ENDBRANCH   8   9
ENDBRANCH   7   8
ENDBRANCH   6   7
ENDBRANCH   5   6
ENDBRANCH   4   5
ENDBRANCH   3   4
ENDBRANCH   2   3
ENDBRANCH   1   2
BRANCH   1  12
ATOM     12  C   UNL     1       4.446   7.894   9.945  1.00  0.00     0.000 C 
BRANCH  12  13
ATOM     13  C   UNL     1       3.715   9.102   9.347  1.00  0.00    -0.000 C 
BRANCH  13  14
ATOM     14  C   UNL     1       4.712  10.185   8.907  1.00  0.00    -0.000 C 
BRANCH  14  15
ATOM     15  C   UNL     1       5.081  10.083   7.419  1.00  0.00    -0.000 C 
BRANCH  15  16
ATOM     16  C   UNL     1       5.370  11.454   6.786  1.00  0.00    -0.000 C 
BRANCH  16  17
ATOM     17  C   UNL     1       4.127  12.351   6.828  1.00  0.00    -0.000 C 
BRANCH  17  18
ATOM     18  C   UNL     1       4.505  13.824   6.619  1.00  0.00    -0.000 C 
BRANCH  18  19
ATOM     19  C   UNL     1       5.916  14.151   7.133  1.00  0.00    -0.003 C 
ATOM     20  C   UNL     1       5.901  14.861   8.487  1.00  0.00     0.004 C 
ENDBRANCH  18  19
ENDBRANCH  17  18
ENDBRANCH  16  17
ENDBRANCH  15  16
ENDBRANCH  14  15
ENDBRANCH  13  14
ENDBRANCH  12  13
ENDBRANCH   1  12
TORSDOF 16
ENDMDL
MODEL 5
REMARK VINA RESULT:    -3.736     14.324     15.738
REMARK INTER + INTRA:          -9.132
REMARK INTER:                  -7.280
REMARK INTRA:                  -1.852
REMARK UNBOUND:                -1.901
REMARK SMILES CCCCCCCCCCCCCCCCCC(=O)[O-]
REMARK SMILES IDX 10 1 11 2 12 3 13 4 14 5 15 6 16 7 17 8 18 9 19 10 20 11
REMARK SMILES IDX 9 12 8 13 7 14 6 15 5 16 4 17 3 18 2 19 1 20
REMARK H PARENT
REMARK Flexibility Score: inf
ROOT
ATOM      1  C   UNL     1       4.213   8.639  -7.910  1.00  0.00     0.000 C 
ENDROOT
BRANCH   1   2
ATOM      2  C   UNL     1       2.998   8.018  -8.609  1.00  0.00     0.000 C 
BRANCH   2   3
ATOM      3  C   UNL     1       3.360   6.676  -9.254  1.00  0.00     0.000 C 
BRANCH   3   4
ATOM      4  C   UNL     1       2.124   5.780  -9.391  1.00  0.00     0.000 C 
BRANCH   4   5
ATOM      5  C   UNL     1       2.513   4.296  -9.371  1.00  0.00     0.000 C 
BRANCH   5   6
ATOM      6  C   UNL     1       4.005   4.115  -9.685  1.00  0.00     0.000 C 
BRANCH   6   7
ATOM      7  C   UNL     1       4.730   3.245  -8.645  1.00  0.00     0.006 C 
BRANCH   7   8
ATOM      8  C   UNL     1       5.930   3.958  -8.010  1.00  0.00     0.053 C 
BRANCH   8   9
ATOM      9  C   UNL     1       6.429   3.188  -6.827  1.00  0.00     0.041 C 
ATOM     10  O   UNL     1       5.759   2.225  -6.370  1.00  0.00    -0.550 OA
ATOM     11  O   UNL     1       7.610   3.563  -6.199  1.00  0.00    -0.550 OA
ENDBRANCH   8   9
ENDBRANCH   7   8
ENDBRANCH   6   7
ENDBRANCH   5   6
ENDBRANCH   4   5
ENDBRANCH   3   4
ENDBRANCH   2   3
ENDBRANCH   1   2
BRANCH   1  12
ATOM     12  C   UNL     1       5.179   7.555  -7.418  1.00  0.00     0.000 C 
BRANCH  12  13
ATOM     13  C   UNL     1       6.617   8.083  -7.360  1.00  0.00    -0.000 C 
BRANCH  13  14
ATOM     14  C   UNL     1       6.855   9.150  -8.440  1.00  0.00    -0.000 C 
BRANCH  14  15
ATOM     15  C   UNL     1       7.588  10.389  -7.900  1.00  0.00    -0.000 C 
BRANCH  15  16
ATOM     16  C   UNL     1       6.669  11.310  -7.081  1.00  0.00    -0.000 C 
BRANCH  16  17
ATOM     17  C   UNL     1       7.384  11.824  -5.826  1.00  0.00    -0.000 C 
BRANCH  17  18
ATOM     18  C   UNL     1       8.692  11.055  -5.585  1.00  0.00    -0.000 C 
BRANCH  18  19
ATOM     19  C   UNL     1       8.717  10.348  -4.221  1.00  0.00    -0.003 C 
ATOM     20  C   UNL     1       8.293   8.883  -4.307  1.00  0.00     0.004 C 
ENDBRANCH  18  19
ENDBRANCH  17  18
ENDBRANCH  16  17
ENDBRANCH  15  16
ENDBRANCH  14  15
ENDBRANCH  13  14
ENDBRANCH  12  13
ENDBRANCH   1  12
TORSDOF 16
ENDMDL
MODEL 6
REMARK VINA RESULT:    -3.707     14.561     17.004
REMARK INTER + INTRA:          -9.076
REMARK INTER:                  -7.197
REMARK INTRA:                  -1.879
REMARK UNBOUND:                -1.901
REMARK SMILES CCCCCCCCCCCCCCCCCC(=O)[O-]
REMARK SMILES IDX 10 1 11 2 12 3 13 4 14 5 15 6 16 7 17 8 18 9 19 10 20 11
REMARK SMILES IDX 9 12 8 13 7 14 6 15 5 16 4 17 3 18 2 19 1 20
REMARK H PARENT
REMARK Flexibility Score: inf
ROOT
ATOM      1  C   UNL     1       3.480   8.281  -8.242  1.00  0.00     0.000 C 
ENDROOT
BRANCH   1   2
ATOM      2  C   UNL     1       4.950   8.466  -7.846  1.00  0.00     0.000 C 
BRANCH   2   3
ATOM      3  C   UNL     1       5.593   7.125  -7.473  1.00  0.00     0.000 C 
BRANCH   3   4
ATOM      4  C   UNL     1       6.815   6.837  -8.352  1.00  0.00     0.000 C 
BRANCH   4   5
ATOM      5  C   UNL     1       7.886   6.063  -7.573  1.00  0.00     0.000 C 
BRANCH   5   6
ATOM      6  C   UNL     1       9.206   6.845  -7.526  1.00  0.00     0.000 C 
BRANCH   6   7
ATOM      7  C   UNL     1       9.470   7.481  -6.151  1.00  0.00     0.006 C 
BRANCH   7   8
ATOM      8  C   UNL     1       8.902   8.903  -6.038  1.00  0.00     0.053 C 
BRANCH   8   9
ATOM      9  C   UNL     1       8.144   9.061  -4.757  1.00  0.00     0.041 C 
ATOM     10  O   UNL     1       6.971   8.615  -4.656  1.00  0.00    -0.550 OA
ATOM     11  O   UNL     1       8.714   9.744  -3.690  1.00  0.00    -0.550 OA
ENDBRANCH   8   9
ENDBRANCH   7   8
ENDBRANCH   6   7
ENDBRANCH   5   6
ENDBRANCH   4   5
ENDBRANCH   3   4
ENDBRANCH   2   3
ENDBRANCH   1   2
BRANCH   1  12
ATOM     12  C   UNL     1       3.341   7.260  -9.378  1.00  0.00     0.000 C 
BRANCH  12  13
ATOM     13  C   UNL     1       2.043   6.455  -9.239  1.00  0.00    -0.000 C 
BRANCH  13  14
ATOM     14  C   UNL     1       2.318   4.948  -9.343  1.00  0.00    -0.000 C 
BRANCH  14  15
ATOM     15  C   UNL     1       3.818   4.622  -9.432  1.00  0.00    -0.000 C 
BRANCH  15  16
ATOM     16  C   UNL     1       4.158   3.242  -8.847  1.00  0.00    -0.000 C 
BRANCH  16  17
ATOM     17  C   UNL     1       5.463   3.293  -8.043  1.00  0.00    -0.000 C 
BRANCH  17  18
ATOM     18  C   UNL     1       5.503   2.178  -6.988  1.00  0.00    -0.000 C 
BRANCH  18  19
ATOM     19  C   UNL     1       4.104   1.654  -6.630  1.00  0.00    -0.003 C 
ATOM     20  C   UNL     1       4.144   0.301  -5.919  1.00  0.00     0.004 C 
ENDBRANCH  18  19
ENDBRANCH  17  18
ENDBRANCH  16  17
ENDBRANCH  15  16
ENDBRANCH  14  15
ENDBRANCH  13  14
ENDBRANCH  12  13
ENDBRANCH   1  12
TORSDOF 16
ENDMDL
MODEL 7
REMARK VINA RESULT:    -3.692      1.803      3.569
REMARK INTER + INTRA:          -9.046
REMARK INTER:                  -7.416
REMARK INTRA:                  -1.630
REMARK UNBOUND:                -1.901
REMARK SMILES CCCCCCCCCCCCCCCCCC(=O)[O-]
REMARK SMILES IDX 10 1 11 2 12 3 13 4 14 5 15 6 16 7 17 8 18 9 19 10 20 11
REMARK SMILES IDX 9 12 8 13 7 14 6 15 5 16 4 17 3 18 2 19 1 20
REMARK H PARENT
REMARK Flexibility Score: inf
ROOT
ATOM      1  C   UNL     1       4.206   9.174   9.737  1.00  0.00     0.000 C 
ENDROOT
BRANCH   1   2
ATOM      2  C   UNL     1       4.815   7.897   9.145  1.00  0.00     0.000 C 
BRANCH   2   3
ATOM      3  C   UNL     1       3.727   6.868   8.818  1.00  0.00     0.000 C 
BRANCH   3   4
ATOM      4  C   UNL     1       3.624   5.806   9.918  1.00  0.00     0.000 C 
BRANCH   4   5
ATOM      5  C   UNL     1       2.645   4.694   9.523  1.00  0.00     0.000 C 
BRANCH   5   6
ATOM      6  C   UNL     1       2.459   4.641   7.999  1.00  0.00     0.000 C 
BRANCH   6   7
ATOM      7  C   UNL     1       3.323   3.558   7.333  1.00  0.00     0.006 C 
BRANCH   7   8
ATOM      8  C   UNL     1       3.911   2.565   8.344  1.00  0.00     0.053 C 
BRANCH   8   9
ATOM      9  C   UNL     1       5.406   2.564   8.266  1.00  0.00     0.041 C 
ATOM     10  O   UNL     1       6.028   1.491   8.047  1.00  0.00    -0.550 OA
ATOM     11  O   UNL     1       6.116   3.738   8.484  1.00  0.00    -0.550 OA
ENDBRANCH   8   9
ENDBRANCH   7   8
ENDBRANCH   6   7
ENDBRANCH   5   6
ENDBRANCH   4   5
ENDBRANCH   3   4
ENDBRANCH   2   3
ENDBRANCH   1   2
BRANCH   1  12
ATOM     12  C   UNL     1       4.296  10.338   8.743  1.00  0.00     0.000 C 
BRANCH  12  13
ATOM     13  C   UNL     1       5.132   9.952   7.517  1.00  0.00    -0.000 C 
BRANCH  13  14
ATOM     14  C   UNL     1       4.943  10.969   6.381  1.00  0.00    -0.000 C 
BRANCH  14  15
ATOM     15  C   UNL     1       4.035  12.144   6.780  1.00  0.00    -0.000 C 
BRANCH  15  16
ATOM     16  C   UNL     1       4.596  13.503   6.333  1.00  0.00    -0.000 C 
BRANCH  16  17
ATOM     17  C   UNL     1       5.140  14.293   7.529  1.00  0.00    -0.000 C 
BRANCH  17  18
ATOM     18  C   UNL     1       6.613  14.671   7.314  1.00  0.00    -0.000 C 
BRANCH  18  19
ATOM     19  C   UNL     1       7.581  13.660   7.947  1.00  0.00    -0.003 C 
ATOM     20  C   UNL     1       6.957  12.896   9.114  1.00  0.00     0.004 C 
ENDBRANCH  18  19
ENDBRANCH  17  18
ENDBRANCH  16  17
ENDBRANCH  15  16
ENDBRANCH  14  15
ENDBRANCH  13  14
ENDBRANCH  12  13
ENDBRANCH   1  12
TORSDOF 16
ENDMDL
MODEL 8
REMARK VINA RESULT:    -3.690     14.176     15.617
REMARK INTER + INTRA:          -9.042
REMARK INTER:                  -7.786
REMARK INTRA:                  -1.256
REMARK UNBOUND:                -1.901
REMARK SMILES CCCCCCCCCCCCCCCCCC(=O)[O-]
REMARK SMILES IDX 10 1 11 2 12 3 13 4 14 5 15 6 16 7 17 8 18 9 19 10 20 11
REMARK SMILES IDX 9 12 8 13 7 14 6 15 5 16 4 17 3 18 2 19 1 20
REMARK H PARENT
REMARK Flexibility Score: inf
ROOT
ATOM      1  C   UNL     1       4.138   8.652  -7.854  1.00  0.00     0.000 C 
ENDROOT
BRANCH   1   2
ATOM      2  C   UNL     1       3.067   7.880  -8.635  1.00  0.00     0.000 C 
BRANCH   2   3
ATOM      3  C   UNL     1       3.661   6.630  -9.295  1.00  0.00     0.000 C 
BRANCH   3   4
ATOM      4  C   UNL     1       2.609   5.522  -9.419  1.00  0.00     0.000 C 
BRANCH   4   5
ATOM      5  C   UNL     1       3.216   4.148  -9.108  1.00  0.00     0.000 C 
BRANCH   5   6
ATOM      6  C   UNL     1       4.751   4.212  -9.107  1.00  0.00     0.000 C 
BRANCH   6   7
ATOM      7  C   UNL     1       5.378   3.399  -7.963  1.00  0.00     0.006 C 
BRANCH   7   8
ATOM      8  C   UNL     1       4.771   1.995  -7.832  1.00  0.00     0.053 C 
BRANCH   8   9
ATOM      9  C   UNL     1       4.725   1.578  -6.396  1.00  0.00     0.041 C 
ATOM     10  O   UNL     1       5.571   2.027  -5.578  1.00  0.00    -0.550 OA
ATOM     11  O   UNL     1       3.779   0.656  -5.968  1.00  0.00    -0.550 OA
ENDBRANCH   8   9
ENDBRANCH   7   8
ENDBRANCH   6   7
ENDBRANCH   5   6
ENDBRANCH   4   5
ENDBRANCH   3   4
ENDBRANCH   2   3
ENDBRANCH   1   2
BRANCH   1  12
ATOM     12  C   UNL     1       5.350   7.762  -7.555  1.00  0.00     0.000 C 
BRANCH  12  13
ATOM     13  C   UNL     1       6.654   8.566  -7.623  1.00  0.00    -0.000 C 
BRANCH  13  14
ATOM     14  C   UNL     1       7.164   8.906  -6.214  1.00  0.00    -0.000 C 
BRANCH  14  15
ATOM     15  C   UNL     1       7.481  10.400  -6.041  1.00  0.00    -0.000 C 
BRANCH  15  16
ATOM     16  C   UNL     1       6.638  11.294  -6.964  1.00  0.00    -0.000 C 
BRANCH  16  17
ATOM     17  C   UNL     1       6.504  12.708  -6.385  1.00  0.00    -0.000 C 
BRANCH  17  18
ATOM     18  C   UNL     1       5.137  13.316  -6.732  1.00  0.00    -0.000 C 
BRANCH  18  19
ATOM     19  C   UNL     1       4.662  14.335  -5.685  1.00  0.00    -0.003 C 
ATOM     20  C   UNL     1       5.738  14.664  -4.650  1.00  0.00     0.004 C 
ENDBRANCH  18  19
ENDBRANCH  17  18
ENDBRANCH  16  17
ENDBRANCH  15  16
ENDBRANCH  14  15
ENDBRANCH  13  14
ENDBRANCH  12  13
ENDBRANCH   1  12
TORSDOF 16
ENDMDL
MODEL 9
REMARK VINA RESULT:    -3.679      7.002     12.020
REMARK INTER + INTRA:          -9.021
REMARK INTER:                  -6.872
REMARK INTRA:                  -2.149
REMARK UNBOUND:                -1.901
REMARK SMILES CCCCCCCCCCCCCCCCCC(=O)[O-]
REMARK SMILES IDX 10 1 11 2 12 3 13 4 14 5 15 6 16 7 17 8 18 9 19 10 20 11
REMARK SMILES IDX 9 12 8 13 7 14 6 15 5 16 4 17 3 18 2 19 1 20
REMARK H PARENT
REMARK Flexibility Score: inf
ROOT
ATOM      1  C   UNL     1       7.493  -0.414   4.543  1.00  0.00     0.000 C 
ENDROOT
BRANCH   1   2
ATOM      2  C   UNL     1       7.812   0.369   5.823  1.00  0.00     0.000 C 
BRANCH   2   3
ATOM      3  C   UNL     1       8.191   1.819   5.502  1.00  0.00     0.000 C 
BRANCH   3   4
ATOM      4  C   UNL     1       7.484   2.796   6.449  1.00  0.00     0.000 C 
BRANCH   4   5
ATOM      5  C   UNL     1       6.662   2.044   7.503  1.00  0.00     0.000 C 
BRANCH   5   6
ATOM      6  C   UNL     1       5.670   2.987   8.201  1.00  0.00     0.000 C 
BRANCH   6   7
ATOM      7  C   UNL     1       4.253   2.397   8.290  1.00  0.00     0.006 C 
BRANCH   7   8
ATOM      8  C   UNL     1       3.203   3.439   8.699  1.00  0.00     0.053 C 
BRANCH   8   9
ATOM      9  C   UNL     1       3.144   4.543   7.690  1.00  0.00     0.041 C 
ATOM     10  O   UNL     1       3.347   5.735   8.043  1.00  0.00    -0.550 OA
ATOM     11  O   UNL     1       2.817   4.263   6.369  1.00  0.00    -0.550 OA
ENDBRANCH   8   9
ENDBRANCH   7   8
ENDBRANCH   6   7
ENDBRANCH   5   6
ENDBRANCH   4   5
ENDBRANCH   3   4
ENDBRANCH   2   3
ENDBRANCH   1   2
BRANCH   1  12
ATOM     12  C   UNL     1       6.773  -1.728   4.867  1.00  0.00     0.000 C 
BRANCH  12  13
ATOM     13  C   UNL     1       7.398  -2.411   6.090  1.00  0.00    -0.000 C 
BRANCH  13  14
ATOM     14  C   UNL     1       7.117  -3.922   6.078  1.00  0.00    -0.000 C 
BRANCH  14  15
ATOM     15  C   UNL     1       6.747  -4.468   7.466  1.00  0.00    -0.000 C 
BRANCH  15  16
ATOM     16  C   UNL     1       5.239  -4.727   7.617  1.00  0.00    -0.000 C 
BRANCH  16  17
ATOM     17  C   UNL     1       4.601  -3.710   8.570  1.00  0.00    -0.000 C 
BRANCH  17  18
ATOM     18  C   UNL     1       3.794  -2.659   7.793  1.00  0.00    -0.000 C 
BRANCH  18  19
ATOM     19  C   UNL     1       4.452  -1.271   7.822  1.00  0.00    -0.003 C 
ATOM     20  C   UNL     1       5.455  -1.115   8.965  1.00  0.00     0.004 C 
ENDBRANCH  18  19
ENDBRANCH  17  18
ENDBRANCH  16  17
ENDBRANCH  15  16
ENDBRANCH  14  15
ENDBRANCH  13  14
ENDBRANCH  12  13
ENDBRANCH   1  12
TORSDOF 16
ENDMDL
