MODEL 1
REMARK VINA RESULT:    -4.786      0.000      0.000
REMARK INTER + INTRA:          -7.901
REMARK INTER:                  -7.584
REMARK INTRA:                  -0.317
REMARK UNBOUND:                -0.317
REMARK SMILES CCCCCCCCCCCC(=O)[O-]
REMARK SMILES IDX 7 1 8 2 9 3 10 4 11 5 12 6 13 7 14 8 6 9 5 10 4 11 3 12 2 13
REMARK SMILES IDX 1 14
REMARK H PARENT
REMARK Flexibility Score: inf
ROOT
ATOM      1  C   UNL     1      15.837   1.495  41.000  1.00  0.00     0.000 C 
ENDROOT
BRANCH   1   2
ATOM      2  C   UNL     1      15.479  -0.002  40.967  1.00  0.00     0.000 C 
BRANCH   2   3
ATOM      3  C   UNL     1      13.998  -0.249  40.639  1.00  0.00     0.000 C 
BRANCH   3   4
ATOM      4  C   UNL     1      13.794  -1.453  39.702  1.00  0.00     0.006 C 
BRANCH   4   5
ATOM      5  C   UNL     1      13.949  -2.790  40.437  1.00  0.00     0.053 C 
BRANCH   5   6
ATOM      6  C   UNL     1      13.547  -3.949  39.577  1.00  0.00     0.041 C 
ATOM      7  O   UNL     1      14.423  -4.641  38.996  1.00  0.00    -0.550 OA
ATOM      8  O   UNL     1      12.202  -4.246  39.392  1.00  0.00    -0.550 OA
ENDBRANCH   5   6
ENDBRANCH   4   5
ENDBRANCH   3   4
ENDBRANCH   2   3
ENDBRANCH   1   2
BRANCH   1   9
ATOM      9  C   UNL     1      17.297   1.764  40.601  1.00  0.00     0.000 C 
BRANCH   9  10
ATOM     10  C   UNL     1      17.549   3.240  40.246  1.00  0.00    -0.000 C 
BRANCH  10  11
ATOM     11  C   UNL     1      16.500   4.182  40.861  1.00  0.00    -0.000 C 
BRANCH  11  12
ATOM     12  C   UNL     1      16.939   4.745  42.224  1.00  0.00    -0.000 C 
BRANCH  12  13
ATOM     13  C   UNL     1      17.393   6.211  42.136  1.00  0.00    -0.003 C 
ATOM     14  C   UNL     1      16.934   7.047  43.330  1.00  0.00     0.004 C 
ENDBRANCH  12  13
ENDBRANCH  11  12
ENDBRANCH  10  11
ENDBRANCH   9  10
ENDBRANCH   1   9
TORSDOF 10
ENDMDL
MODEL 2
REMARK VINA RESULT:    -4.680      2.743      3.757
REMARK INTER + INTRA:          -7.733
REMARK INTER:                  -7.264
REMARK INTRA:                  -0.469
REMARK UNBOUND:                -0.317
REMARK SMILES CCCCCCCCCCCC(=O)[O-]
REMARK SMILES IDX 7 1 8 2 9 3 10 4 11 5 12 6 13 7 14 8 6 9 5 10 4 11 3 12 2 13
REMARK SMILES IDX 1 14
REMARK H PARENT
REMARK Flexibility Score: inf
ROOT
ATOM      1  C   UNL     1      15.134   0.694  40.609  1.00  0.00     0.000 C 
ENDROOT
BRANCH   1   2
ATOM      2  C   UNL     1      15.135  -0.785  41.035  1.00  0.00     0.000 C 
BRANCH   2   3
ATOM      3  C   UNL     1      13.738  -1.284  41.442  1.00  0.00     0.000 C 
BRANCH   3   4
ATOM      4  C   UNL     1      12.608  -0.503  40.750  1.00  0.00     0.006 C 
BRANCH   4   5
ATOM      5  C   UNL     1      11.641   0.131  41.759  1.00  0.00     0.053 C 
BRANCH   5   6
ATOM      6  C   UNL     1      10.230  -0.324  41.541  1.00  0.00     0.041 C 
ATOM      7  O   UNL     1       9.290   0.188  42.203  1.00  0.00    -0.550 OA
ATOM      8  O   UNL     1       9.957  -1.336  40.628  1.00  0.00    -0.550 OA
ENDBRANCH   5   6
ENDBRANCH   4   5
ENDBRANCH   3   4
ENDBRANCH   2   3
ENDBRANCH   1   2
BRANCH   1   9
ATOM      9  C   UNL     1      16.530   1.334  40.691  1.00  0.00     0.000 C 
BRANCH   9  10
ATOM     10  C   UNL     1      16.495   2.747  41.299  1.00  0.00    -0.000 C 
BRANCH  10  11
ATOM     11  C   UNL     1      17.868   3.439  41.263  1.00  0.00    -0.000 C 
BRANCH  11  12
ATOM     12  C   UNL     1      18.849   2.755  40.294  1.00  0.00    -0.000 C 
BRANCH  12  13
ATOM     13  C   UNL     1      20.174   2.370  40.973  1.00  0.00    -0.003 C 
ATOM     14  C   UNL     1      20.890   3.568  41.596  1.00  0.00     0.004 C 
ENDBRANCH  12  13
ENDBRANCH  11  12
ENDBRANCH  10  11
ENDBRANCH   9  10
ENDBRANCH   1   9
TORSDOF 10
ENDMDL
MODEL 3
REMARK VINA RESULT:    -4.637      2.396      3.153
REMARK INTER + INTRA:          -7.665
REMARK INTER:                  -6.859
REMARK INTRA:                  -0.806
REMARK UNBOUND:                -0.317
REMARK SMILES CCCCCCCCCCCC(=O)[O-]
REMARK SMILES IDX 7 1 8 2 9 3 10 4 11 5 12 6 13 7 14 8 6 9 5 10 4 11 3 12 2 13
REMARK SMILES IDX 1 14
REMARK H PARENT
REMARK Flexibility Score: inf
ROOT
ATOM      1  C   UNL     1      16.740   1.421  40.631  1.00  0.00     0.000 C 
ENDROOT
BRANCH   1   2
ATOM      2  C   UNL     1      15.303   1.005  40.994  1.00  0.00     0.000 C 
BRANCH   2   3
ATOM      3  C   UNL     1      15.094  -0.517  40.931  1.00  0.00     0.000 C 
BRANCH   3   4
ATOM      4  C   UNL     1      13.721  -0.947  41.476  1.00  0.00     0.006 C 
BRANCH   4   5
ATOM      5  C   UNL     1      12.650   0.130  41.260  1.00  0.00     0.053 C 
BRANCH   5   6
ATOM      6  C   UNL     1      11.272  -0.455  41.214  1.00  0.00     0.041 C 
ATOM      7  O   UNL     1      10.516  -0.376  42.217  1.00  0.00    -0.550 OA
ATOM      8  O   UNL     1      10.833  -1.114  40.072  1.00  0.00    -0.550 OA
ENDBRANCH   5   6
ENDBRANCH   4   5
ENDBRANCH   3   4
ENDBRANCH   2   3
ENDBRANCH   1   2
BRANCH   1   9
ATOM      9  C   UNL     1      17.301   2.497  41.575  1.00  0.00     0.000 C 
BRANCH   9  10
ATOM     10  C   UNL     1      17.528   3.844  40.866  1.00  0.00    -0.000 C 
BRANCH  10  11
ATOM     11  C   UNL     1      16.223   4.635  40.670  1.00  0.00    -0.000 C 
BRANCH  11  12
ATOM     12  C   UNL     1      15.428   4.795  41.977  1.00  0.00    -0.000 C 
BRANCH  12  13
ATOM     13  C   UNL     1      13.972   5.222  41.730  1.00  0.00    -0.003 C 
ATOM     14  C   UNL     1      13.052   4.041  41.418  1.00  0.00     0.004 C 
ENDBRANCH  12  13
ENDBRANCH  11  12
ENDBRANCH  10  11
ENDBRANCH   9  10
ENDBRANCH   1   9
TORSDOF 10
ENDMDL
MODEL 4
REMARK VINA RESULT:    -4.568      4.278      8.501
REMARK INTER + INTRA:          -7.556
REMARK INTER:                  -7.148
REMARK INTRA:                  -0.408
REMARK UNBOUND:                -0.317
REMARK SMILES CCCCCCCCCCCC(=O)[O-]
REMARK SMILES IDX 7 1 8 2 9 3 10 4 11 5 12 6 13 7 14 8 6 9 5 10 4 11 3 12 2 13
REMARK SMILES IDX 1 14
REMARK H PARENT
REMARK Flexibility Score: inf
ROOT
ATOM      1  C   UNL     1      15.131  -0.254  40.813  1.00  0.00     0.000 C 
ENDROOT
BRANCH   1   2
ATOM      2  C   UNL     1      15.556   1.208  41.037  1.00  0.00     0.000 C 
BRANCH   2   3
ATOM      3  C   UNL     1      17.009   1.474  40.609  1.00  0.00     0.000 C 
BRANCH   3   4
ATOM      4  C   UNL     1      17.424   2.942  40.812  1.00  0.00     0.006 C 
BRANCH   4   5
ATOM      5  C   UNL     1      16.225   3.896  40.751  1.00  0.00     0.053 C 
BRANCH   5   6
ATOM      6  C   UNL     1      16.484   5.167  41.501  1.00  0.00     0.041 C 
ATOM      7  O   UNL     1      15.544   5.972  41.727  1.00  0.00    -0.550 OA
ATOM      8  O   UNL     1      17.771   5.477  41.922  1.00  0.00    -0.550 OA
ENDBRANCH   5   6
ENDBRANCH   4   5
ENDBRANCH   3   4
ENDBRANCH   2   3
ENDBRANCH   1   2
BRANCH   1   9
ATOM      9  C   UNL     1      13.837  -0.376  39.992  1.00  0.00     0.000 C 
BRANCH   9  10
ATOM     10  C   UNL     1      13.136  -1.731  40.193  1.00  0.00    -0.000 C 
BRANCH  10  11
ATOM     11  C   UNL     1      14.121  -2.912  40.184  1.00  0.00    -0.000 C 
BRANCH  11  12
ATOM     12  C   UNL     1      13.559  -4.144  39.454  1.00  0.00    -0.000 C 
BRANCH  12  13
ATOM     13  C   UNL     1      12.023  -4.140  39.391  1.00  0.00    -0.003 C 
ATOM     14  C   UNL     1      11.468  -5.146  38.382  1.00  0.00     0.004 C 
ENDBRANCH  12  13
ENDBRANCH  11  12
ENDBRANCH  10  11
ENDBRANCH   9  10
ENDBRANCH   1   9
TORSDOF 10
ENDMDL
MODEL 5
REMARK VINA RESULT:    -4.558      6.337      7.908
REMARK INTER + INTRA:          -7.539
REMARK INTER:                  -6.676
REMARK INTRA:                  -0.863
REMARK UNBOUND:                -0.317
REMARK SMILES CCCCCCCCCCCC(=O)[O-]
REMARK SMILES IDX 7 1 8 2 9 3 10 4 11 5 12 6 13 7 14 8 6 9 5 10 4 11 3 12 2 13
REMARK SMILES IDX 1 14
REMARK H PARENT
REMARK Flexibility Score: inf
ROOT
ATOM      1  C   UNL     1      17.060   3.251  40.387  1.00  0.00     0.000 C 
ENDROOT
BRANCH   1   2
ATOM      2  C   UNL     1      16.359   4.538  40.856  1.00  0.00     0.000 C 
BRANCH   2   3
ATOM      3  C   UNL     1      16.544   4.797  42.360  1.00  0.00     0.000 C 
BRANCH   3   4
ATOM      4  C   UNL     1      16.797   6.282  42.677  1.00  0.00     0.006 C 
BRANCH   4   5
ATOM      5  C   UNL     1      17.792   6.920  41.699  1.00  0.00     0.053 C 
BRANCH   5   6
ATOM      6  C   UNL     1      17.198   8.096  40.987  1.00  0.00     0.041 C 
ATOM      7  O   UNL     1      17.726   8.529  39.930  1.00  0.00    -0.550 OA
ATOM      8  O   UNL     1      16.079   8.734  41.508  1.00  0.00    -0.550 OA
ENDBRANCH   5   6
ENDBRANCH   4   5
ENDBRANCH   3   4
ENDBRANCH   2   3
ENDBRANCH   1   2
BRANCH   1   9
ATOM      9  C   UNL     1      18.207   2.827  41.319  1.00  0.00     0.000 C 
BRANCH   9  10
ATOM     10  C   UNL     1      19.535   2.629  40.569  1.00  0.00    -0.000 C 
BRANCH  10  11
ATOM     11  C   UNL     1      20.759   2.976  41.432  1.00  0.00    -0.000 C 
BRANCH  11  12
ATOM     12  C   UNL     1      20.819   4.470  41.798  1.00  0.00    -0.000 C 
BRANCH  12  13
ATOM     13  C   UNL     1      21.982   4.796  42.749  1.00  0.00    -0.003 C 
ATOM     14  C   UNL     1      22.049   6.278  43.117  1.00  0.00     0.004 C 
ENDBRANCH  12  13
ENDBRANCH  11  12
ENDBRANCH  10  11
ENDBRANCH   9  10
ENDBRANCH   1   9
TORSDOF 10
ENDMDL
MODEL 6
REMARK VINA RESULT:    -4.544      4.561      7.356
REMARK INTER + INTRA:          -7.518
REMARK INTER:                  -6.859
REMARK INTRA:                  -0.659
REMARK UNBOUND:                -0.317
REMARK SMILES CCCCCCCCCCCC(=O)[O-]
REMARK SMILES IDX 7 1 8 2 9 3 10 4 11 5 12 6 13 7 14 8 6 9 5 10 4 11 3 12 2 13
REMARK SMILES IDX 1 14
REMARK H PARENT
REMARK Flexibility Score: inf
ROOT
ATOM      1  C   UNL     1      15.900   1.548  40.585  1.00  0.00     0.000 C 
ENDROOT
BRANCH   1   2
ATOM      2  C   UNL     1      17.423   1.763  40.651  1.00  0.00     0.000 C 
BRANCH   2   3
ATOM      3  C   UNL     1      17.805   3.245  40.802  1.00  0.00     0.000 C 
BRANCH   3   4
ATOM      4  C   UNL     1      16.856   4.006  41.746  1.00  0.00     0.006 C 
BRANCH   4   5
ATOM      5  C   UNL     1      17.149   5.511  41.769  1.00  0.00     0.053 C 
BRANCH   5   6
ATOM      6  C   UNL     1      16.228   6.273  40.865  1.00  0.00     0.041 C 
ATOM      7  O   UNL     1      16.685   7.155  40.092  1.00  0.00    -0.550 OA
ATOM      8  O   UNL     1      14.860   6.030  40.899  1.00  0.00    -0.550 OA
ENDBRANCH   5   6
ENDBRANCH   4   5
ENDBRANCH   3   4
ENDBRANCH   2   3
ENDBRANCH   1   2
BRANCH   1   9
ATOM      9  C   UNL     1      15.487   0.118  40.971  1.00  0.00     0.000 C 
BRANCH   9  10
ATOM     10  C   UNL     1      14.186  -0.326  40.280  1.00  0.00    -0.000 C 
BRANCH  10  11
ATOM     11  C   UNL     1      13.215  -1.028  41.244  1.00  0.00    -0.000 C 
BRANCH  11  12
ATOM     12  C   UNL     1      12.081  -0.102  41.719  1.00  0.00    -0.000 C 
BRANCH  12  13
ATOM     13  C   UNL     1      11.860   1.090  40.774  1.00  0.00    -0.003 C 
ATOM     14  C   UNL     1      11.776   2.425  41.513  1.00  0.00     0.004 C 
ENDBRANCH  12  13
ENDBRANCH  11  12
ENDBRANCH  10  11
ENDBRANCH   9  10
ENDBRANCH   1   9
TORSDOF 10
ENDMDL
MODEL 7
REMARK VINA RESULT:    -4.515      6.353      9.020
REMARK INTER + INTRA:          -7.472
REMARK INTER:                  -6.497
REMARK INTRA:                  -0.975
REMARK UNBOUND:                -0.317
REMARK SMILES CCCCCCCCCCCC(=O)[O-]
REMARK SMILES IDX 7 1 8 2 9 3 10 4 11 5 12 6 13 7 14 8 6 9 5 10 4 11 3 12 2 13
REMARK SMILES IDX 1 14
REMARK H PARENT
REMARK Flexibility Score: inf
ROOT
ATOM      1  C   UNL     1      16.878   5.909  42.236  1.00  0.00     0.000 C 
ENDROOT
BRANCH   1   2
ATOM      2  C   UNL     1      18.330   6.371  42.454  1.00  0.00     0.000 C 
BRANCH   2   3
ATOM      3  C   UNL     1      18.450   7.448  43.544  1.00  0.00     0.000 C 
BRANCH   3   4
ATOM      4  C   UNL     1      17.171   8.293  43.683  1.00  0.00     0.006 C 
BRANCH   4   5
ATOM      5  C   UNL     1      17.258   9.607  42.896  1.00  0.00     0.053 C 
BRANCH   5   6
ATOM      6  C   UNL     1      16.468   9.550  41.625  1.00  0.00     0.041 C 
ATOM      7  O   UNL     1      17.027   9.225  40.545  1.00  0.00    -0.550 OA
ATOM      8  O   UNL     1      15.119   9.886  41.627  1.00  0.00    -0.550 OA
ENDBRANCH   5   6
ENDBRANCH   4   5
ENDBRANCH   3   4
ENDBRANCH   2   3
ENDBRANCH   1   2
BRANCH   1   9
ATOM      9  C   UNL     1      16.661   5.272  40.853  1.00  0.00     0.000 C 
BRANCH   9  10
ATOM     10  C   UNL     1      15.932   3.919  40.935  1.00  0.00    -0.000 C 
BRANCH  10  11
ATOM     11  C   UNL     1      16.804   2.748  40.451  1.00  0.00    -0.000 C 
BRANCH  11  12
ATOM     12  C   UNL     1      18.055   2.543  41.323  1.00  0.00    -0.000 C 
BRANCH  12  13
ATOM     13  C   UNL     1      19.360   2.692  40.525  1.00  0.00    -0.003 C 
ATOM     14  C   UNL     1      20.520   3.206  41.377  1.00  0.00     0.004 C 
ENDBRANCH  12  13
ENDBRANCH  11  12
ENDBRANCH  10  11
ENDBRANCH   9  10
ENDBRANCH   1   9
TORSDOF 10
ENDMDL
MODEL 8
REMARK VINA RESULT:    -4.452      4.677      6.897
REMARK INTER + INTRA:          -7.372
REMARK INTER:                  -6.416
REMARK INTRA:                  -0.956
REMARK UNBOUND:                -0.317
REMARK SMILES CCCCCCCCCCCC(=O)[O-]
REMARK SMILES IDX 7 1 8 2 9 3 10 4 11 5 12 6 13 7 14 8 6 9 5 10 4 11 3 12 2 13
REMARK SMILES IDX 1 14
REMARK H PARENT
REMARK Flexibility Score: inf
ROOT
ATOM      1  C   UNL     1      11.016   0.919  41.326  1.00  0.00     0.000 C 
ENDROOT
BRANCH   1   2
ATOM      2  C   UNL     1      10.145   0.936  40.058  1.00  0.00     0.000 C 
BRANCH   2   3
ATOM      3  C   UNL     1      10.156  -0.409  39.313  1.00  0.00     0.000 C 
BRANCH   3   4
ATOM      4  C   UNL     1       8.837  -1.185  39.477  1.00  0.00     0.006 C 
BRANCH   4   5
ATOM      5  C   UNL     1       8.891  -2.177  40.647  1.00  0.00     0.053 C 
BRANCH   5   6
ATOM      6  C   UNL     1       8.224  -1.631  41.872  1.00  0.00     0.041 C 
ATOM      7  O   UNL     1       7.268  -0.820  41.765  1.00  0.00    -0.550 OA
ATOM      8  O   UNL     1       8.678  -1.996  43.133  1.00  0.00    -0.550 OA
ENDBRANCH   5   6
ENDBRANCH   4   5
ENDBRANCH   3   4
ENDBRANCH   2   3
ENDBRANCH   1   2
BRANCH   1   9
ATOM      9  C   UNL     1      12.047  -0.223  41.320  1.00  0.00     0.000 C 
BRANCH   9  10
ATOM     10  C   UNL     1      13.497   0.292  41.316  1.00  0.00    -0.000 C 
BRANCH  10  11
ATOM     11  C   UNL     1      14.466  -0.679  40.621  1.00  0.00    -0.000 C 
BRANCH  11  12
ATOM     12  C   UNL     1      13.737  -1.815  39.884  1.00  0.00    -0.000 C 
BRANCH  12  13
ATOM     13  C   UNL     1      14.190  -3.207  40.353  1.00  0.00    -0.003 C 
ATOM     14  C   UNL     1      13.904  -4.302  39.324  1.00  0.00     0.004 C 
ENDBRANCH  12  13
ENDBRANCH  11  12
ENDBRANCH  10  11
ENDBRANCH   9  10
ENDBRANCH   1   9
TORSDOF 10
ENDMDL
MODEL 9
REMARK VINA RESULT:    -4.447      2.467      3.006
REMARK INTER + INTRA:          -7.364
REMARK INTER:                  -6.881
REMARK INTRA:                  -0.482
REMARK UNBOUND:                -0.317
REMARK SMILES CCCCCCCCCCCC(=O)[O-]
REMARK SMILES IDX 7 1 8 2 9 3 10 4 11 5 12 6 13 7 14 8 6 9 5 10 4 11 3 12 2 13
REMARK SMILES IDX 1 14
REMARK H PARENT
REMARK Flexibility Score: inf
ROOT
ATOM      1  C   UNL     1      15.179   0.817  40.930  1.00  0.00     0.000 C 
ENDROOT
BRANCH   1   2
ATOM      2  C   UNL     1      15.107  -0.720  40.962  1.00  0.00     0.000 C 
BRANCH   2   3
ATOM      3  C   UNL     1      13.699  -1.239  41.298  1.00  0.00     0.000 C 
BRANCH   3   4
ATOM      4  C   UNL     1      12.685  -0.100  41.510  1.00  0.00     0.006 C 
BRANCH   4   5
ATOM      5  C   UNL     1      11.486  -0.208  40.559  1.00  0.00     0.053 C 
BRANCH   5   6
ATOM      6  C   UNL     1      10.229  -0.578  41.286  1.00  0.00     0.041 C 
ATOM      7  O   UNL     1      10.102  -0.307  42.508  1.00  0.00    -0.550 OA
ATOM      8  O   UNL     1       9.211  -1.249  40.619  1.00  0.00    -0.550 OA
ENDBRANCH   5   6
ENDBRANCH   4   5
ENDBRANCH   3   4
ENDBRANCH   2   3
ENDBRANCH   1   2
BRANCH   1   9
ATOM      9  C   UNL     1      16.580   1.336  40.565  1.00  0.00     0.000 C 
BRANCH   9  10
ATOM     10  C   UNL     1      16.982   2.573  41.386  1.00  0.00    -0.000 C 
BRANCH  10  11
ATOM     11  C   UNL     1      17.029   3.855  40.538  1.00  0.00    -0.000 C 
BRANCH  11  12
ATOM     12  C   UNL     1      15.961   4.881  40.959  1.00  0.00    -0.000 C 
BRANCH  12  13
ATOM     13  C   UNL     1      16.274   5.531  42.316  1.00  0.00    -0.003 C 
ATOM     14  C   UNL     1      17.675   6.139  42.375  1.00  0.00     0.004 C 
ENDBRANCH  12  13
ENDBRANCH  11  12
ENDBRANCH  10  11
ENDBRANCH   9  10
ENDBRANCH   1   9
TORSDOF 10
ENDMDL
