MODEL 1
REMARK VINA RESULT:    -6.718      0.000      0.000
REMARK INTER + INTRA:         -11.334
REMARK INTER:                  -9.859
REMARK INTRA:                  -1.474
REMARK UNBOUND:                -1.474
REMARK SMILES O=c1c(O[C@H]2O[C@H](CO)[C@@H](O)[C@H](O)[C@@H]2O)c(-c2ccc(O)c(O)c2)oc2cc(O)cc(O)c12
REMARK SMILES IDX 4 1 3 2 16 3 25 4 2 5 26 6 1 7 33 8 27 9 31 10 28 11 30 12
REMARK SMILES IDX 17 13 18 14 19 15 20 16 24 17 22 18 21 19 23 21 32 23 29 25
REMARK SMILES IDX 5 27 14 28 6 29 12 30 7 31 10 32 15 33 13 35 8 37 9 38 11 40
REMARK H PARENT 21 20 23 22 32 24 29 26 15 34 13 36 9 39 11 41
REMARK Flexibility Score: inf
ROOT
ATOM      1  O   UNL     1       8.528  85.732  80.502  1.00  0.00    -0.454 OA
ENDROOT
BRANCH   1   2
ATOM      2  C   UNL     1       8.435  86.626  79.412  1.00  0.00     0.214 A 
ATOM      3  C   UNL     1       7.579  86.284  78.350  1.00  0.00     0.180 A 
ATOM      4  O   UNL     1       7.442  87.100  77.315  1.00  0.00    -0.452 OA
ATOM      5  C   UNL     1       9.159  87.842  79.327  1.00  0.00     0.239 A 
ATOM      6  C   UNL     1       8.049  88.275  77.223  1.00  0.00     0.146 A 
ATOM      7  O   UNL     1      10.006  88.117  80.209  1.00  0.00    -0.285 OA
ATOM      8  C   UNL     1       8.942  88.720  78.234  1.00  0.00     0.111 A 
ATOM      9  C   UNL     1       7.776  89.074  76.110  1.00  0.00     0.094 A 
ATOM     10  C   UNL     1       9.536  90.016  78.088  1.00  0.00     0.134 A 
ATOM     11  C   UNL     1       8.353  90.331  75.979  1.00  0.00     0.123 A 
ATOM     12  C   UNL     1       9.230  90.790  76.961  1.00  0.00     0.093 A 
BRANCH   3  13
ATOM     13  C   UNL     1       6.806  85.023  78.349  1.00  0.00     0.025 A 
ATOM     14  C   UNL     1       5.412  85.031  78.510  1.00  0.00     0.016 A 
ATOM     15  C   UNL     1       4.691  83.835  78.469  1.00  0.00     0.051 A 
ATOM     16  C   UNL     1       5.341  82.620  78.236  1.00  0.00     0.157 A 
ATOM     17  C   UNL     1       7.464  83.807  78.130  1.00  0.00     0.062 A 
ATOM     18  C   UNL     1       6.748  82.601  78.087  1.00  0.00     0.158 A 
BRANCH  16  19
ATOM     19  O   UNL     1       4.558  81.467  78.139  1.00  0.00    -0.504 OA
ATOM     20  H   UNL     1       3.562  81.476  77.962  1.00  0.00     0.293 HD
ENDBRANCH  16  19
BRANCH  18  21
ATOM     21  O   UNL     1       7.468  81.418  77.909  1.00  0.00    -0.504 OA
ATOM     22  H   UNL     1       7.974  81.190  77.064  1.00  0.00     0.293 HD
ENDBRANCH  18  21
ENDBRANCH   3  13
BRANCH  10  23
ATOM     23  O   UNL     1      10.414  90.602  79.008  1.00  0.00    -0.507 OA
ATOM     24  H   UNL     1      11.413  90.671  78.924  1.00  0.00     0.293 HD
ENDBRANCH  10  23
BRANCH  11  25
ATOM     25  O   UNL     1       8.035  91.124  74.878  1.00  0.00    -0.508 OA
ATOM     26  H   UNL     1       8.482  92.016  74.716  1.00  0.00     0.293 HD
ENDBRANCH  11  25
ENDBRANCH   1   2
BRANCH   1  27
ATOM     27  C   UNL     1       8.220  86.000  81.875  1.00  0.00     0.339 C 
ATOM     28  C   UNL     1       9.220  85.271  82.801  1.00  0.00     0.214 C 
ATOM     29  O   UNL     1       6.882  85.644  82.198  1.00  0.00    -0.332 OA
ATOM     30  C   UNL     1       8.994  83.745  82.721  1.00  0.00     0.180 C 
ATOM     31  C   UNL     1       6.630  84.264  81.977  1.00  0.00     0.179 C 
ATOM     32  C   UNL     1       7.499  83.400  82.922  1.00  0.00     0.177 C 
BRANCH  28  33
ATOM     33  O   UNL     1       9.047  85.712  84.125  1.00  0.00    -0.384 OA
ATOM     34  H   UNL     1       8.067  85.782  84.279  1.00  0.00     0.211 HD
ENDBRANCH  28  33
BRANCH  30  35
ATOM     35  O   UNL     1       9.808  83.053  83.638  1.00  0.00    -0.387 OA
ATOM     36  H   UNL     1       9.224  82.489  84.212  1.00  0.00     0.211 HD
ENDBRANCH  30  35
BRANCH  31  37
ATOM     37  C   UNL     1       5.131  84.016  82.199  1.00  0.00     0.191 C 
BRANCH  37  38
ATOM     38  O   UNL     1       4.747  82.777  81.655  1.00  0.00    -0.394 OA
ATOM     39  H   UNL     1       4.551  82.162  82.412  1.00  0.00     0.210 HD
ENDBRANCH  37  38
ENDBRANCH  31  37
BRANCH  32  40
ATOM     40  O   UNL     1       7.268  82.027  82.721  1.00  0.00    -0.387 OA
ATOM     41  H   UNL     1       8.117  81.547  82.862  1.00  0.00     0.211 HD
ENDBRANCH  32  40
ENDBRANCH   1  27
TORSDOF 12
ENDMDL
MODEL 2
REMARK VINA RESULT:    -6.650      2.008      4.700
REMARK INTER + INTRA:         -11.234
REMARK INTER:                 -10.272
REMARK INTRA:                  -0.962
REMARK UNBOUND:                -1.474
REMARK SMILES O=c1c(O[C@H]2O[C@H](CO)[C@@H](O)[C@H](O)[C@@H]2O)c(-c2ccc(O)c(O)c2)oc2cc(O)cc(O)c12
REMARK SMILES IDX 4 1 3 2 16 3 25 4 2 5 26 6 1 7 33 8 27 9 31 10 28 11 30 12
REMARK SMILES IDX 17 13 18 14 19 15 20 16 24 17 22 18 21 19 23 21 32 23 29 25
REMARK SMILES IDX 5 27 14 28 6 29 12 30 7 31 10 32 15 33 13 35 8 37 9 38 11 40
REMARK H PARENT 21 20 23 22 32 24 29 26 15 34 13 36 9 39 11 41
REMARK Flexibility Score: inf
ROOT
ATOM      1  O   UNL     1       7.927  86.758  79.558  1.00  0.00    -0.454 OA
ENDROOT
BRANCH   1   2
ATOM      2  C   UNL     1       8.970  87.555  79.035  1.00  0.00     0.214 A 
ATOM      3  C   UNL     1      10.277  87.313  79.494  1.00  0.00     0.180 A 
ATOM      4  O   UNL     1      11.292  88.019  79.018  1.00  0.00    -0.452 OA
ATOM      5  C   UNL     1       8.772  88.585  78.081  1.00  0.00     0.239 A 
ATOM      6  C   UNL     1      11.163  88.947  78.080  1.00  0.00     0.146 A 
ATOM      7  O   UNL     1       7.607  88.890  77.738  1.00  0.00    -0.285 OA
ATOM      8  C   UNL     1       9.889  89.280  77.549  1.00  0.00     0.111 A 
ATOM      9  C   UNL     1      12.317  89.582  77.615  1.00  0.00     0.094 A 
ATOM     10  C   UNL     1       9.826  90.267  76.512  1.00  0.00     0.134 A 
ATOM     11  C   UNL     1      12.248  90.534  76.607  1.00  0.00     0.123 A 
ATOM     12  C   UNL     1      11.008  90.873  76.068  1.00  0.00     0.093 A 
BRANCH   3  13
ATOM     13  C   UNL     1      10.566  86.273  80.505  1.00  0.00     0.025 A 
ATOM     14  C   UNL     1      11.672  85.419  80.366  1.00  0.00     0.016 A 
ATOM     15  C   UNL     1      11.954  84.466  81.348  1.00  0.00     0.051 A 
ATOM     16  C   UNL     1      11.162  84.370  82.496  1.00  0.00     0.157 A 
ATOM     17  C   UNL     1       9.761  86.171  81.645  1.00  0.00     0.062 A 
ATOM     18  C   UNL     1      10.037  85.218  82.637  1.00  0.00     0.158 A 
BRANCH  16  19
ATOM     19  O   UNL     1      11.534  83.444  83.473  1.00  0.00    -0.504 OA
ATOM     20  H   UNL     1      10.937  83.164  84.240  1.00  0.00     0.293 HD
ENDBRANCH  16  19
BRANCH  18  21
ATOM     21  O   UNL     1       9.170  85.138  83.728  1.00  0.00    -0.504 OA
ATOM     22  H   UNL     1       8.357  84.536  83.756  1.00  0.00     0.293 HD
ENDBRANCH  18  21
ENDBRANCH   3  13
BRANCH  10  23
ATOM     23  O   UNL     1       8.652  90.684  75.874  1.00  0.00    -0.507 OA
ATOM     24  H   UNL     1       7.780  90.921  76.315  1.00  0.00     0.293 HD
ENDBRANCH  10  23
BRANCH  11  25
ATOM     25  O   UNL     1      13.419  91.125  76.135  1.00  0.00    -0.508 OA
ATOM     26  H   UNL     1      14.321  90.921  76.542  1.00  0.00     0.293 HD
ENDBRANCH  11  25
ENDBRANCH   1   2
BRANCH   1  27
ATOM     27  C   UNL     1       6.954  86.007  78.822  1.00  0.00     0.339 C 
ATOM     28  C   UNL     1       5.765  85.631  79.734  1.00  0.00     0.214 C 
ATOM     29  O   UNL     1       7.520  84.846  78.227  1.00  0.00    -0.332 OA
ATOM     30  C   UNL     1       6.219  84.602  80.794  1.00  0.00     0.180 C 
ATOM     31  C   UNL     1       8.078  83.969  79.195  1.00  0.00     0.179 C 
ATOM     32  C   UNL     1       6.970  83.424  80.129  1.00  0.00     0.177 C 
BRANCH  28  33
ATOM     33  O   UNL     1       4.725  85.090  78.956  1.00  0.00    -0.384 OA
ATOM     34  H   UNL     1       4.553  84.174  79.302  1.00  0.00     0.211 HD
ENDBRANCH  28  33
BRANCH  30  35
ATOM     35  O   UNL     1       5.136  84.147  81.569  1.00  0.00    -0.387 OA
ATOM     36  H   UNL     1       4.978  84.803  82.300  1.00  0.00     0.211 HD
ENDBRANCH  30  35
BRANCH  31  37
ATOM     37  C   UNL     1       8.798  82.837  78.447  1.00  0.00     0.191 C 
BRANCH  37  38
ATOM     38  O   UNL     1       7.883  81.851  78.039  1.00  0.00    -0.394 OA
ATOM     39  H   UNL     1       7.515  82.126  77.157  1.00  0.00     0.210 HD
ENDBRANCH  37  38
ENDBRANCH  31  37
BRANCH  32  40
ATOM     40  O   UNL     1       7.498  82.554  81.098  1.00  0.00    -0.387 OA
ATOM     41  H   UNL     1       8.088  83.073  81.692  1.00  0.00     0.211 HD
ENDBRANCH  32  40
ENDBRANCH   1  27
TORSDOF 12
ENDMDL
MODEL 3
REMARK VINA RESULT:    -6.430      2.511      4.865
REMARK INTER + INTRA:         -10.912
REMARK INTER:                 -10.112
REMARK INTRA:                  -0.800
REMARK UNBOUND:                -1.474
REMARK SMILES O=c1c(O[C@H]2O[C@H](CO)[C@@H](O)[C@H](O)[C@@H]2O)c(-c2ccc(O)c(O)c2)oc2cc(O)cc(O)c12
REMARK SMILES IDX 4 1 3 2 16 3 25 4 2 5 26 6 1 7 33 8 27 9 31 10 28 11 30 12
REMARK SMILES IDX 17 13 18 14 19 15 20 16 24 17 22 18 21 19 23 21 32 23 29 25
REMARK SMILES IDX 5 27 14 28 6 29 12 30 7 31 10 32 15 33 13 35 8 37 9 38 11 40
REMARK H PARENT 21 20 23 22 32 24 29 26 15 34 13 36 9 39 11 41
REMARK Flexibility Score: inf
ROOT
ATOM      1  O   UNL     1       7.830  85.356  78.631  1.00  0.00    -0.454 OA
ENDROOT
BRANCH   1   2
ATOM      2  C   UNL     1       8.846  86.337  78.681  1.00  0.00     0.214 A 
ATOM      3  C   UNL     1       8.462  87.687  78.596  1.00  0.00     0.180 A 
ATOM      4  O   UNL     1       9.375  88.645  78.660  1.00  0.00    -0.452 OA
ATOM      5  C   UNL     1      10.226  86.036  78.806  1.00  0.00     0.239 A 
ATOM      6  C   UNL     1      10.669  88.413  78.840  1.00  0.00     0.146 A 
ATOM      7  O   UNL     1      10.600  84.841  78.776  1.00  0.00    -0.285 OA
ATOM      8  C   UNL     1      11.170  87.088  78.932  1.00  0.00     0.111 A 
ATOM      9  C   UNL     1      11.527  89.510  78.952  1.00  0.00     0.094 A 
ATOM     10  C   UNL     1      12.573  86.911  79.162  1.00  0.00     0.134 A 
ATOM     11  C   UNL     1      12.885  89.329  79.180  1.00  0.00     0.123 A 
ATOM     12  C   UNL     1      13.398  88.037  79.278  1.00  0.00     0.093 A 
BRANCH   3  13
ATOM     13  C   UNL     1       7.047  88.085  78.441  1.00  0.00     0.025 A 
ATOM     14  C   UNL     1       6.132  87.924  79.493  1.00  0.00     0.016 A 
ATOM     15  C   UNL     1       4.806  88.339  79.345  1.00  0.00     0.051 A 
ATOM     16  C   UNL     1       4.380  88.950  78.161  1.00  0.00     0.157 A 
ATOM     17  C   UNL     1       6.621  88.683  77.249  1.00  0.00     0.062 A 
ATOM     18  C   UNL     1       5.292  89.103  77.091  1.00  0.00     0.158 A 
BRANCH  16  19
ATOM     19  O   UNL     1       3.060  89.405  78.098  1.00  0.00    -0.504 OA
ATOM     20  H   UNL     1       2.263  88.866  78.410  1.00  0.00     0.293 HD
ENDBRANCH  16  19
BRANCH  18  21
ATOM     21  O   UNL     1       4.920  89.651  75.862  1.00  0.00    -0.504 OA
ATOM     22  H   UNL     1       4.586  89.103  75.080  1.00  0.00     0.293 HD
ENDBRANCH  18  21
ENDBRANCH   3  13
BRANCH  10  23
ATOM     23  O   UNL     1      13.212  85.672  79.300  1.00  0.00    -0.507 OA
ATOM     24  H   UNL     1      13.936  85.440  79.956  1.00  0.00     0.293 HD
ENDBRANCH  10  23
BRANCH  11  25
ATOM     25  O   UNL     1      13.713  90.440  79.326  1.00  0.00    -0.508 OA
ATOM     26  H   UNL     1      14.496  90.441  79.965  1.00  0.00     0.293 HD
ENDBRANCH  11  25
ENDBRANCH   1   2
BRANCH   1  27
ATOM     27  C   UNL     1       7.923  83.987  79.044  1.00  0.00     0.339 C 
ATOM     28  C   UNL     1       7.216  83.069  78.021  1.00  0.00     0.214 C 
ATOM     29  O   UNL     1       7.392  83.789  80.348  1.00  0.00    -0.332 OA
ATOM     30  C   UNL     1       5.691  83.308  78.064  1.00  0.00     0.180 C 
ATOM     31  C   UNL     1       6.022  84.157  80.427  1.00  0.00     0.179 C 
ATOM     32  C   UNL     1       5.166  83.241  79.519  1.00  0.00     0.177 C 
BRANCH  28  33
ATOM     33  O   UNL     1       7.500  81.724  78.317  1.00  0.00    -0.384 OA
ATOM     34  H   UNL     1       7.200  81.187  77.536  1.00  0.00     0.211 HD
ENDBRANCH  28  33
BRANCH  30  35
ATOM     35  O   UNL     1       5.003  82.407  77.229  1.00  0.00    -0.387 OA
ATOM     36  H   UNL     1       5.019  81.509  77.656  1.00  0.00     0.211 HD
ENDBRANCH  30  35
BRANCH  31  37
ATOM     37  C   UNL     1       5.591  84.060  81.898  1.00  0.00     0.191 C 
BRANCH  37  38
ATOM     38  O   UNL     1       4.886  82.866  82.131  1.00  0.00    -0.394 OA
ATOM     39  H   UNL     1       4.849  82.724  83.115  1.00  0.00     0.210 HD
ENDBRANCH  37  38
ENDBRANCH  31  37
BRANCH  32  40
ATOM     40  O   UNL     1       3.805  83.586  79.578  1.00  0.00    -0.387 OA
ATOM     41  H   UNL     1       3.644  84.069  80.421  1.00  0.00     0.211 HD
ENDBRANCH  32  40
ENDBRANCH   1  27
TORSDOF 12
ENDMDL
MODEL 4
REMARK VINA RESULT:    -6.420      2.588      5.299
REMARK INTER + INTRA:         -10.896
REMARK INTER:                  -9.695
REMARK INTRA:                  -1.202
REMARK UNBOUND:                -1.474
REMARK SMILES O=c1c(O[C@H]2O[C@H](CO)[C@@H](O)[C@H](O)[C@@H]2O)c(-c2ccc(O)c(O)c2)oc2cc(O)cc(O)c12
REMARK SMILES IDX 4 1 3 2 16 3 25 4 2 5 26 6 1 7 33 8 27 9 31 10 28 11 30 12
REMARK SMILES IDX 17 13 18 14 19 15 20 16 24 17 22 18 21 19 23 21 32 23 29 25
REMARK SMILES IDX 5 27 14 28 6 29 12 30 7 31 10 32 15 33 13 35 8 37 9 38 11 40
REMARK H PARENT 21 20 23 22 32 24 29 26 15 34 13 36 9 39 11 41
REMARK Flexibility Score: inf
ROOT
ATOM      1  O   UNL     1       8.891  84.789  79.403  1.00  0.00    -0.454 OA
ENDROOT
BRANCH   1   2
ATOM      2  C   UNL     1       9.830  85.553  80.132  1.00  0.00     0.214 A 
ATOM      3  C   UNL     1       9.660  85.652  81.524  1.00  0.00     0.180 A 
ATOM      4  O   UNL     1      10.525  86.340  82.254  1.00  0.00    -0.452 OA
ATOM      5  C   UNL     1      10.925  86.229  79.538  1.00  0.00     0.239 A 
ATOM      6  C   UNL     1      11.599  86.934  81.751  1.00  0.00     0.146 A 
ATOM      7  O   UNL     1      11.036  86.244  78.291  1.00  0.00    -0.285 OA
ATOM      8  C   UNL     1      11.867  86.906  80.357  1.00  0.00     0.111 A 
ATOM      9  C   UNL     1      12.471  87.579  82.632  1.00  0.00     0.094 A 
ATOM     10  C   UNL     1      13.063  87.539  79.886  1.00  0.00     0.134 A 
ATOM     11  C   UNL     1      13.630  88.185  82.167  1.00  0.00     0.123 A 
ATOM     12  C   UNL     1      13.915  88.166  80.802  1.00  0.00     0.093 A 
BRANCH   3  13
ATOM     13  C   UNL     1       8.530  84.997  82.218  1.00  0.00     0.025 A 
ATOM     14  C   UNL     1       7.591  85.751  82.939  1.00  0.00     0.016 A 
ATOM     15  C   UNL     1       6.508  85.122  83.559  1.00  0.00     0.051 A 
ATOM     16  C   UNL     1       6.327  83.740  83.444  1.00  0.00     0.157 A 
ATOM     17  C   UNL     1       8.361  83.612  82.113  1.00  0.00     0.062 A 
ATOM     18  C   UNL     1       7.277  82.971  82.731  1.00  0.00     0.158 A 
BRANCH  16  19
ATOM     19  O   UNL     1       5.189  83.178  84.028  1.00  0.00    -0.504 OA
ATOM     20  H   UNL     1       4.720  83.568  84.836  1.00  0.00     0.293 HD
ENDBRANCH  16  19
BRANCH  18  21
ATOM     21  O   UNL     1       7.189  81.582  82.625  1.00  0.00    -0.504 OA
ATOM     22  H   UNL     1       6.841  80.983  83.363  1.00  0.00     0.293 HD
ENDBRANCH  18  21
ENDBRANCH   3  13
BRANCH  10  23
ATOM     23  O   UNL     1      13.475  87.575  78.548  1.00  0.00    -0.507 OA
ATOM     24  H   UNL     1      13.782  86.795  77.993  1.00  0.00     0.293 HD
ENDBRANCH  10  23
BRANCH  11  25
ATOM     25  O   UNL     1      14.503  88.789  83.071  1.00  0.00    -0.508 OA
ATOM     26  H   UNL     1      14.810  89.745  82.958  1.00  0.00     0.293 HD
ENDBRANCH  11  25
ENDBRANCH   1   2
BRANCH   1  27
ATOM     27  C   UNL     1       8.076  85.225  78.309  1.00  0.00     0.339 C 
ATOM     28  C   UNL     1       7.137  86.366  78.761  1.00  0.00     0.214 C 
ATOM     29  O   UNL     1       7.332  84.155  77.742  1.00  0.00    -0.332 OA
ATOM     30  C   UNL     1       6.077  85.818  79.742  1.00  0.00     0.180 C 
ATOM     31  C   UNL     1       6.466  83.548  78.689  1.00  0.00     0.179 C 
ATOM     32  C   UNL     1       5.392  84.557  79.161  1.00  0.00     0.177 C 
BRANCH  28  33
ATOM     33  O   UNL     1       6.505  86.931  77.639  1.00  0.00    -0.384 OA
ATOM     34  H   UNL     1       5.766  86.316  77.384  1.00  0.00     0.211 HD
ENDBRANCH  28  33
BRANCH  30  35
ATOM     35  O   UNL     1       5.132  86.803  80.085  1.00  0.00    -0.387 OA
ATOM     36  H   UNL     1       5.575  87.692  80.038  1.00  0.00     0.211 HD
ENDBRANCH  30  35
BRANCH  31  37
ATOM     37  C   UNL     1       5.834  82.314  78.028  1.00  0.00     0.191 C 
BRANCH  37  38
ATOM     38  O   UNL     1       4.772  82.691  77.187  1.00  0.00    -0.394 OA
ATOM     39  H   UNL     1       4.187  83.312  77.698  1.00  0.00     0.210 HD
ENDBRANCH  37  38
ENDBRANCH  31  37
BRANCH  32  40
ATOM     40  O   UNL     1       4.522  83.980  80.102  1.00  0.00    -0.387 OA
ATOM     41  H   UNL     1       3.820  84.636  80.319  1.00  0.00     0.211 HD
ENDBRANCH  32  40
ENDBRANCH   1  27
TORSDOF 12
ENDMDL
MODEL 5
REMARK VINA RESULT:    -6.276      2.540      5.512
REMARK INTER + INTRA:         -10.685
REMARK INTER:                  -9.439
REMARK INTRA:                  -1.247
REMARK UNBOUND:                -1.474
REMARK SMILES O=c1c(O[C@H]2O[C@H](CO)[C@@H](O)[C@H](O)[C@@H]2O)c(-c2ccc(O)c(O)c2)oc2cc(O)cc(O)c12
REMARK SMILES IDX 4 1 3 2 16 3 25 4 2 5 26 6 1 7 33 8 27 9 31 10 28 11 30 12
REMARK SMILES IDX 17 13 18 14 19 15 20 16 24 17 22 18 21 19 23 21 32 23 29 25
REMARK SMILES IDX 5 27 14 28 6 29 12 30 7 31 10 32 15 33 13 35 8 37 9 38 11 40
REMARK H PARENT 21 20 23 22 32 24 29 26 15 34 13 36 9 39 11 41
REMARK Flexibility Score: inf
ROOT
ATOM      1  O   UNL     1       8.371  85.271  80.570  1.00  0.00    -0.454 OA
ENDROOT
BRANCH   1   2
ATOM      2  C   UNL     1       9.539  86.026  80.820  1.00  0.00     0.214 A 
ATOM      3  C   UNL     1       9.798  87.132  79.992  1.00  0.00     0.180 A 
ATOM      4  O   UNL     1      10.869  87.884  80.199  1.00  0.00    -0.452 OA
ATOM      5  C   UNL     1      10.464  85.726  81.852  1.00  0.00     0.239 A 
ATOM      6  C   UNL     1      11.727  87.680  81.190  1.00  0.00     0.146 A 
ATOM      7  O   UNL     1      10.311  84.686  82.532  1.00  0.00    -0.285 OA
ATOM      8  C   UNL     1      11.568  86.588  82.084  1.00  0.00     0.111 A 
ATOM      9  C   UNL     1      12.786  88.578  81.343  1.00  0.00     0.094 A 
ATOM     10  C   UNL     1      12.511  86.447  83.153  1.00  0.00     0.134 A 
ATOM     11  C   UNL     1      13.693  88.437  82.385  1.00  0.00     0.123 A 
ATOM     12  C   UNL     1      13.554  87.374  83.276  1.00  0.00     0.093 A 
BRANCH   3  13
ATOM     13  C   UNL     1       8.896  87.499  78.879  1.00  0.00     0.025 A 
ATOM     14  C   UNL     1       8.944  86.814  77.655  1.00  0.00     0.016 A 
ATOM     15  C   UNL     1       8.060  87.147  76.625  1.00  0.00     0.051 A 
ATOM     16  C   UNL     1       7.096  88.143  76.809  1.00  0.00     0.157 A 
ATOM     17  C   UNL     1       7.942  88.507  79.063  1.00  0.00     0.062 A 
ATOM     18  C   UNL     1       7.051  88.848  78.035  1.00  0.00     0.158 A 
BRANCH  16  19
ATOM     19  O   UNL     1       6.197  88.384  75.767  1.00  0.00    -0.504 OA
ATOM     20  H   UNL     1       5.934  89.309  75.454  1.00  0.00     0.293 HD
ENDBRANCH  16  19
BRANCH  18  21
ATOM     21  O   UNL     1       6.153  89.893  78.266  1.00  0.00    -0.504 OA
ATOM     22  H   UNL     1       5.925  90.243  79.187  1.00  0.00     0.293 HD
ENDBRANCH  18  21
ENDBRANCH   3  13
BRANCH  10  23
ATOM     23  O   UNL     1      12.475  85.440  84.125  1.00  0.00    -0.507 OA
ATOM     24  H   UNL     1      12.324  85.563  85.111  1.00  0.00     0.293 HD
ENDBRANCH  10  23
BRANCH  11  25
ATOM     25  O   UNL     1      14.718  89.369  82.537  1.00  0.00    -0.508 OA
ATOM     26  H   UNL     1      14.635  90.314  82.190  1.00  0.00     0.293 HD
ENDBRANCH  11  25
ENDBRANCH   1   2
BRANCH   1  27
ATOM     27  C   UNL     1       8.273  83.852  80.399  1.00  0.00     0.339 C 
ATOM     28  C   UNL     1       7.942  83.511  78.928  1.00  0.00     0.214 C 
ATOM     29  O   UNL     1       7.315  83.277  81.277  1.00  0.00    -0.332 OA
ATOM     30  C   UNL     1       6.505  83.968  78.593  1.00  0.00     0.180 C 
ATOM     31  C   UNL     1       6.015  83.812  81.072  1.00  0.00     0.179 C 
ATOM     32  C   UNL     1       5.504  83.455  79.656  1.00  0.00     0.177 C 
BRANCH  28  33
ATOM     33  O   UNL     1       8.064  82.125  78.725  1.00  0.00    -0.384 OA
ATOM     34  H   UNL     1       8.565  81.763  79.505  1.00  0.00     0.211 HD
ENDBRANCH  28  33
BRANCH  30  35
ATOM     35  O   UNL     1       6.125  83.569  77.297  1.00  0.00    -0.387 OA
ATOM     36  H   UNL     1       5.800  84.371  76.806  1.00  0.00     0.211 HD
ENDBRANCH  30  35
BRANCH  31  37
ATOM     37  C   UNL     1       5.095  83.250  82.166  1.00  0.00     0.191 C 
BRANCH  37  38
ATOM     38  O   UNL     1       3.909  84.000  82.250  1.00  0.00    -0.394 OA
ATOM     39  H   UNL     1       3.648  84.259  81.326  1.00  0.00     0.210 HD
ENDBRANCH  37  38
ENDBRANCH  31  37
BRANCH  32  40
ATOM     40  O   UNL     1       4.218  83.975  79.428  1.00  0.00    -0.387 OA
ATOM     41  H   UNL     1       3.567  83.241  79.514  1.00  0.00     0.211 HD
ENDBRANCH  32  40
ENDBRANCH   1  27
TORSDOF 12
ENDMDL
MODEL 6
REMARK VINA RESULT:    -6.268      2.350      7.222
REMARK INTER + INTRA:         -10.674
REMARK INTER:                  -8.904
REMARK INTRA:                  -1.770
REMARK UNBOUND:                -1.474
REMARK SMILES O=c1c(O[C@H]2O[C@H](CO)[C@@H](O)[C@H](O)[C@@H]2O)c(-c2ccc(O)c(O)c2)oc2cc(O)cc(O)c12
REMARK SMILES IDX 4 1 3 2 16 3 25 4 2 5 26 6 1 7 33 8 27 9 31 10 28 11 30 12
REMARK SMILES IDX 17 13 18 14 19 15 20 16 24 17 22 18 21 19 23 21 32 23 29 25
REMARK SMILES IDX 5 27 14 28 6 29 12 30 7 31 10 32 15 33 13 35 8 37 9 38 11 40
REMARK H PARENT 21 20 23 22 32 24 29 26 15 34 13 36 9 39 11 41
REMARK Flexibility Score: inf
ROOT
ATOM      1  O   UNL     1      10.396  87.101  80.160  1.00  0.00    -0.454 OA
ENDROOT
BRANCH   1   2
ATOM      2  C   UNL     1       9.580  86.105  80.742  1.00  0.00     0.214 A 
ATOM      3  C   UNL     1       8.316  85.874  80.173  1.00  0.00     0.180 A 
ATOM      4  O   UNL     1       7.522  84.937  80.669  1.00  0.00    -0.452 OA
ATOM      5  C   UNL     1       9.961  85.334  81.869  1.00  0.00     0.239 A 
ATOM      6  C   UNL     1       7.862  84.149  81.681  1.00  0.00     0.146 A 
ATOM      7  O   UNL     1      11.036  85.595  82.458  1.00  0.00    -0.285 OA
ATOM      8  C   UNL     1       9.112  84.298  82.337  1.00  0.00     0.111 A 
ATOM      9  C   UNL     1       6.963  83.156  82.076  1.00  0.00     0.094 A 
ATOM     10  C   UNL     1       9.430  83.390  83.399  1.00  0.00     0.134 A 
ATOM     11  C   UNL     1       7.281  82.277  83.103  1.00  0.00     0.123 A 
ATOM     12  C   UNL     1       8.504  82.402  83.759  1.00  0.00     0.093 A 
BRANCH   3  13
ATOM     13  C   UNL     1       7.832  86.651  79.011  1.00  0.00     0.025 A 
ATOM     14  C   UNL     1       7.745  86.067  77.738  1.00  0.00     0.016 A 
ATOM     15  C   UNL     1       7.251  86.801  76.656  1.00  0.00     0.051 A 
ATOM     16  C   UNL     1       6.807  88.115  76.833  1.00  0.00     0.157 A 
ATOM     17  C   UNL     1       7.402  87.971  79.189  1.00  0.00     0.062 A 
ATOM     18  C   UNL     1       6.904  88.716  78.110  1.00  0.00     0.158 A 
BRANCH  16  19
ATOM     19  O   UNL     1       6.260  88.775  75.729  1.00  0.00    -0.504 OA
ATOM     20  H   UNL     1       5.350  88.564  75.342  1.00  0.00     0.293 HD
ENDBRANCH  16  19
BRANCH  18  21
ATOM     21  O   UNL     1       6.533  90.042  78.345  1.00  0.00    -0.504 OA
ATOM     22  H   UNL     1       5.761  90.499  77.879  1.00  0.00     0.293 HD
ENDBRANCH  18  21
ENDBRANCH   3  13
BRANCH  10  23
ATOM     23  O   UNL     1      10.627  83.395  84.124  1.00  0.00    -0.507 OA
ATOM     24  H   UNL     1      11.408  82.774  83.998  1.00  0.00     0.293 HD
ENDBRANCH  10  23
BRANCH  11  25
ATOM     25  O   UNL     1       6.382  81.271  83.453  1.00  0.00    -0.508 OA
ATOM     26  H   UNL     1       5.402  81.324  83.210  1.00  0.00     0.293 HD
ENDBRANCH  11  25
ENDBRANCH   1   2
BRANCH   1  27
ATOM     27  C   UNL     1      11.303  86.948  79.061  1.00  0.00     0.339 C 
ATOM     28  C   UNL     1      12.741  87.306  79.499  1.00  0.00     0.214 C 
ATOM     29  O   UNL     1      10.911  87.726  77.938  1.00  0.00    -0.332 OA
ATOM     30  C   UNL     1      12.844  88.821  79.782  1.00  0.00     0.180 C 
ATOM     31  C   UNL     1      10.854  89.112  78.242  1.00  0.00     0.179 C 
ATOM     32  C   UNL     1      12.264  89.640  78.604  1.00  0.00     0.177 C 
BRANCH  28  33
ATOM     33  O   UNL     1      13.647  86.945  78.486  1.00  0.00    -0.384 OA
ATOM     34  H   UNL     1      13.116  86.514  77.764  1.00  0.00     0.211 HD
ENDBRANCH  28  33
BRANCH  30  35
ATOM     35  O   UNL     1      14.167  89.205  80.071  1.00  0.00    -0.387 OA
ATOM     36  H   UNL     1      14.255  90.180  79.898  1.00  0.00     0.211 HD
ENDBRANCH  30  35
BRANCH  31  37
ATOM     37  C   UNL     1      10.271  89.840  77.022  1.00  0.00     0.191 C 
BRANCH  37  38
ATOM     38  O   UNL     1       9.471  90.923  77.427  1.00  0.00    -0.394 OA
ATOM     39  H   UNL     1       8.553  90.576  77.592  1.00  0.00     0.210 HD
ENDBRANCH  37  38
ENDBRANCH  31  37
BRANCH  32  40
ATOM     40  O   UNL     1      12.235  91.012  78.911  1.00  0.00    -0.387 OA
ATOM     41  H   UNL     1      11.440  91.188  79.465  1.00  0.00     0.211 HD
ENDBRANCH  32  40
ENDBRANCH   1  27
TORSDOF 12
ENDMDL
MODEL 7
REMARK VINA RESULT:    -6.259      2.501      6.531
REMARK INTER + INTRA:         -10.661
REMARK INTER:                  -9.415
REMARK INTRA:                  -1.246
REMARK UNBOUND:                -1.474
REMARK SMILES O=c1c(O[C@H]2O[C@H](CO)[C@@H](O)[C@H](O)[C@@H]2O)c(-c2ccc(O)c(O)c2)oc2cc(O)cc(O)c12
REMARK SMILES IDX 4 1 3 2 16 3 25 4 2 5 26 6 1 7 33 8 27 9 31 10 28 11 30 12
REMARK SMILES IDX 17 13 18 14 19 15 20 16 24 17 22 18 21 19 23 21 32 23 29 25
REMARK SMILES IDX 5 27 14 28 6 29 12 30 7 31 10 32 15 33 13 35 8 37 9 38 11 40
REMARK H PARENT 21 20 23 22 32 24 29 26 15 34 13 36 9 39 11 41
REMARK Flexibility Score: inf
ROOT
ATOM      1  O   UNL     1       8.659  85.631  82.061  1.00  0.00    -0.454 OA
ENDROOT
BRANCH   1   2
ATOM      2  C   UNL     1       7.873  85.113  81.008  1.00  0.00     0.214 A 
ATOM      3  C   UNL     1       8.431  85.091  79.718  1.00  0.00     0.180 A 
ATOM      4  O   UNL     1       7.741  84.595  78.701  1.00  0.00    -0.452 OA
ATOM      5  C   UNL     1       6.554  84.622  81.179  1.00  0.00     0.239 A 
ATOM      6  C   UNL     1       6.531  84.068  78.825  1.00  0.00     0.146 A 
ATOM      7  O   UNL     1       5.997  84.730  82.296  1.00  0.00    -0.285 OA
ATOM      8  C   UNL     1       5.867  84.043  80.080  1.00  0.00     0.111 A 
ATOM      9  C   UNL     1       5.929  83.521  77.689  1.00  0.00     0.094 A 
ATOM     10  C   UNL     1       4.575  83.426  80.149  1.00  0.00     0.134 A 
ATOM     11  C   UNL     1       4.679  82.921  77.766  1.00  0.00     0.123 A 
ATOM     12  C   UNL     1       4.011  82.882  78.989  1.00  0.00     0.093 A 
BRANCH   3  13
ATOM     13  C   UNL     1       9.791  85.605  79.450  1.00  0.00     0.025 A 
ATOM     14  C   UNL     1      10.920  84.991  80.015  1.00  0.00     0.016 A 
ATOM     15  C   UNL     1      12.202  85.465  79.723  1.00  0.00     0.051 A 
ATOM     16  C   UNL     1      12.380  86.535  78.841  1.00  0.00     0.157 A 
ATOM     17  C   UNL     1       9.965  86.686  78.578  1.00  0.00     0.062 A 
ATOM     18  C   UNL     1      11.247  87.169  78.278  1.00  0.00     0.158 A 
BRANCH  16  19
ATOM     19  O   UNL     1      13.688  86.920  78.535  1.00  0.00    -0.504 OA
ATOM     20  H   UNL     1      14.378  86.299  78.133  1.00  0.00     0.293 HD
ENDBRANCH  16  19
BRANCH  18  21
ATOM     21  O   UNL     1      11.350  88.278  77.436  1.00  0.00    -0.504 OA
ATOM     22  H   UNL     1      11.761  88.246  76.513  1.00  0.00     0.293 HD
ENDBRANCH  18  21
ENDBRANCH   3  13
BRANCH  10  23
ATOM     23  O   UNL     1       3.809  83.303  81.314  1.00  0.00    -0.507 OA
ATOM     24  H   UNL     1       2.973  82.756  81.428  1.00  0.00     0.293 HD
ENDBRANCH  10  23
BRANCH  11  25
ATOM     25  O   UNL     1       4.117  82.349  76.626  1.00  0.00    -0.508 OA
ATOM     26  H   UNL     1       4.333  82.688  75.698  1.00  0.00     0.293 HD
ENDBRANCH  11  25
ENDBRANCH   1   2
BRANCH   1  27
ATOM     27  C   UNL     1       8.343  86.730  82.924  1.00  0.00     0.339 C 
ATOM     28  C   UNL     1       7.751  87.900  82.106  1.00  0.00     0.214 C 
ATOM     29  O   UNL     1       9.472  87.160  83.672  1.00  0.00    -0.332 OA
ATOM     30  C   UNL     1       8.842  88.516  81.202  1.00  0.00     0.180 C 
ATOM     31  C   UNL     1      10.538  87.582  82.834  1.00  0.00     0.179 C 
ATOM     32  C   UNL     1      10.119  88.829  82.018  1.00  0.00     0.177 C 
BRANCH  28  33
ATOM     33  O   UNL     1       7.244  88.879  82.980  1.00  0.00    -0.384 OA
ATOM     34  H   UNL     1       6.260  88.745  83.023  1.00  0.00     0.211 HD
ENDBRANCH  28  33
BRANCH  30  35
ATOM     35  O   UNL     1       8.371  89.658  80.528  1.00  0.00    -0.387 OA
ATOM     36  H   UNL     1       8.805  89.696  79.634  1.00  0.00     0.211 HD
ENDBRANCH  30  35
BRANCH  31  37
ATOM     37  C   UNL     1      11.755  87.870  83.725  1.00  0.00     0.191 C 
BRANCH  37  38
ATOM     38  O   UNL     1      12.951  87.649  83.019  1.00  0.00    -0.394 OA
ATOM     39  H   UNL     1      13.662  87.447  83.685  1.00  0.00     0.210 HD
ENDBRANCH  37  38
ENDBRANCH  31  37
BRANCH  32  40
ATOM     40  O   UNL     1      11.158  89.266  81.177  1.00  0.00    -0.387 OA
ATOM     41  H   UNL     1      11.578  88.475  80.767  1.00  0.00     0.211 HD
ENDBRANCH  32  40
ENDBRANCH   1  27
TORSDOF 12
ENDMDL
MODEL 8
REMARK VINA RESULT:    -6.259      2.595      5.070
REMARK INTER + INTRA:         -10.660
REMARK INTER:                  -9.769
REMARK INTRA:                  -0.892
REMARK UNBOUND:                -1.474
REMARK SMILES O=c1c(O[C@H]2O[C@H](CO)[C@@H](O)[C@H](O)[C@@H]2O)c(-c2ccc(O)c(O)c2)oc2cc(O)cc(O)c12
REMARK SMILES IDX 4 1 3 2 16 3 25 4 2 5 26 6 1 7 33 8 27 9 31 10 28 11 30 12
REMARK SMILES IDX 17 13 18 14 19 15 20 16 24 17 22 18 21 19 23 21 32 23 29 25
REMARK SMILES IDX 5 27 14 28 6 29 12 30 7 31 10 32 15 33 13 35 8 37 9 38 11 40
REMARK H PARENT 21 20 23 22 32 24 29 26 15 34 13 36 9 39 11 41
REMARK Flexibility Score: inf
ROOT
ATOM      1  O   UNL     1       7.825  86.141  77.640  1.00  0.00    -0.454 OA
ENDROOT
BRANCH   1   2
ATOM      2  C   UNL     1       8.954  86.925  77.963  1.00  0.00     0.214 A 
ATOM      3  C   UNL     1       8.824  88.323  77.902  1.00  0.00     0.180 A 
ATOM      4  O   UNL     1       9.848  89.103  78.216  1.00  0.00    -0.452 OA
ATOM      5  C   UNL     1      10.209  86.382  78.338  1.00  0.00     0.239 A 
ATOM      6  C   UNL     1      11.019  88.641  78.633  1.00  0.00     0.146 A 
ATOM      7  O   UNL     1      10.379  85.142  78.297  1.00  0.00    -0.285 OA
ATOM      8  C   UNL     1      11.266  87.246  78.727  1.00  0.00     0.111 A 
ATOM      9  C   UNL     1      12.003  89.565  78.994  1.00  0.00     0.094 A 
ATOM     10  C   UNL     1      12.541  86.816  79.218  1.00  0.00     0.134 A 
ATOM     11  C   UNL     1      13.235  89.139  79.474  1.00  0.00     0.123 A 
ATOM     12  C   UNL     1      13.497  87.774  79.578  1.00  0.00     0.093 A 
BRANCH   3  13
ATOM     13  C   UNL     1       7.557  88.970  77.497  1.00  0.00     0.025 A 
ATOM     14  C   UNL     1       7.134  88.956  76.159  1.00  0.00     0.016 A 
ATOM     15  C   UNL     1       5.917  89.539  75.797  1.00  0.00     0.051 A 
ATOM     16  C   UNL     1       5.089  90.114  76.766  1.00  0.00     0.157 A 
ATOM     17  C   UNL     1       6.738  89.558  78.468  1.00  0.00     0.062 A 
ATOM     18  C   UNL     1       5.514  90.145  78.115  1.00  0.00     0.158 A 
BRANCH  16  19
ATOM     19  O   UNL     1       3.853  90.620  76.353  1.00  0.00    -0.504 OA
ATOM     20  H   UNL     1       3.384  91.396  76.802  1.00  0.00     0.293 HD
ENDBRANCH  16  19
BRANCH  18  21
ATOM     21  O   UNL     1       4.764  90.754  79.123  1.00  0.00    -0.504 OA
ATOM     22  H   UNL     1       3.772  90.604  79.254  1.00  0.00     0.293 HD
ENDBRANCH  18  21
ENDBRANCH   3  13
BRANCH  10  23
ATOM     23  O   UNL     1      12.924  85.480  79.390  1.00  0.00    -0.507 OA
ATOM     24  H   UNL     1      12.314  84.684  79.451  1.00  0.00     0.293 HD
ENDBRANCH  10  23
BRANCH  11  25
ATOM     25  O   UNL     1      14.186  90.082  79.863  1.00  0.00    -0.508 OA
ATOM     26  H   UNL     1      13.922  90.972  80.261  1.00  0.00     0.293 HD
ENDBRANCH  11  25
ENDBRANCH   1   2
BRANCH   1  27
ATOM     27  C   UNL     1       6.582  86.072  78.349  1.00  0.00     0.339 C 
ATOM     28  C   UNL     1       6.825  86.197  79.870  1.00  0.00     0.214 C 
ATOM     29  O   UNL     1       5.865  84.881  78.050  1.00  0.00    -0.332 OA
ATOM     30  C   UNL     1       7.553  84.940  80.393  1.00  0.00     0.180 C 
ATOM     31  C   UNL     1       6.603  83.716  78.390  1.00  0.00     0.179 C 
ATOM     32  C   UNL     1       6.836  83.653  79.919  1.00  0.00     0.177 C 
BRANCH  28  33
ATOM     33  O   UNL     1       5.594  86.349  80.534  1.00  0.00    -0.384 OA
ATOM     34  H   UNL     1       4.904  85.913  79.966  1.00  0.00     0.211 HD
ENDBRANCH  28  33
BRANCH  30  35
ATOM     35  O   UNL     1       7.688  84.965  81.794  1.00  0.00    -0.387 OA
ATOM     36  H   UNL     1       6.907  84.496  82.192  1.00  0.00     0.211 HD
ENDBRANCH  30  35
BRANCH  31  37
ATOM     37  C   UNL     1       5.819  82.496  77.884  1.00  0.00     0.191 C 
BRANCH  37  38
ATOM     38  O   UNL     1       4.776  82.175  78.771  1.00  0.00    -0.394 OA
ATOM     39  H   UNL     1       5.169  81.662  79.527  1.00  0.00     0.210 HD
ENDBRANCH  37  38
ENDBRANCH  31  37
BRANCH  32  40
ATOM     40  O   UNL     1       7.567  82.508  80.280  1.00  0.00    -0.387 OA
ATOM     41  H   UNL     1       6.982  81.924  80.817  1.00  0.00     0.211 HD
ENDBRANCH  32  40
ENDBRANCH   1  27
TORSDOF 12
ENDMDL
MODEL 9
REMARK VINA RESULT:    -6.221      2.002      2.821
REMARK INTER + INTRA:         -10.604
REMARK INTER:                  -9.585
REMARK INTRA:                  -1.020
REMARK UNBOUND:                -1.474
REMARK SMILES O=c1c(O[C@H]2O[C@H](CO)[C@@H](O)[C@H](O)[C@@H]2O)c(-c2ccc(O)c(O)c2)oc2cc(O)cc(O)c12
REMARK SMILES IDX 4 1 3 2 16 3 25 4 2 5 26 6 1 7 33 8 27 9 31 10 28 11 30 12
REMARK SMILES IDX 17 13 18 14 19 15 20 16 24 17 22 18 21 19 23 21 32 23 29 25
REMARK SMILES IDX 5 27 14 28 6 29 12 30 7 31 10 32 15 33 13 35 8 37 9 38 11 40
REMARK H PARENT 21 20 23 22 32 24 29 26 15 34 13 36 9 39 11 41
REMARK Flexibility Score: inf
ROOT
ATOM      1  O   UNL     1      10.273  84.571  80.889  1.00  0.00    -0.454 OA
ENDROOT
BRANCH   1   2
ATOM      2  C   UNL     1      10.560  85.661  80.038  1.00  0.00     0.214 A 
ATOM      3  C   UNL     1       9.724  85.867  78.926  1.00  0.00     0.180 A 
ATOM      4  O   UNL     1       9.939  86.888  78.109  1.00  0.00    -0.452 OA
ATOM      5  C   UNL     1      11.644  86.552  80.237  1.00  0.00     0.239 A 
ATOM      6  C   UNL     1      10.900  87.782  78.293  1.00  0.00     0.146 A 
ATOM      7  O   UNL     1      12.464  86.327  81.157  1.00  0.00    -0.285 OA
ATOM      8  C   UNL     1      11.809  87.670  79.378  1.00  0.00     0.111 A 
ATOM      9  C   UNL     1      10.989  88.851  77.397  1.00  0.00     0.094 A 
ATOM     10  C   UNL     1      12.802  88.691  79.537  1.00  0.00     0.134 A 
ATOM     11  C   UNL     1      11.951  89.838  77.561  1.00  0.00     0.123 A 
ATOM     12  C   UNL     1      12.851  89.750  78.622  1.00  0.00     0.093 A 
BRANCH   3  13
ATOM     13  C   UNL     1       8.585  84.970  78.633  1.00  0.00     0.025 A 
ATOM     14  C   UNL     1       7.292  85.482  78.443  1.00  0.00     0.016 A 
ATOM     15  C   UNL     1       6.233  84.626  78.130  1.00  0.00     0.051 A 
ATOM     16  C   UNL     1       6.451  83.255  77.968  1.00  0.00     0.157 A 
ATOM     17  C   UNL     1       8.805  83.595  78.486  1.00  0.00     0.062 A 
ATOM     18  C   UNL     1       7.748  82.728  78.171  1.00  0.00     0.158 A 
BRANCH  16  19
ATOM     19  O   UNL     1       5.366  82.461  77.588  1.00  0.00    -0.504 OA
ATOM     20  H   UNL     1       5.370  81.852  76.780  1.00  0.00     0.293 HD
ENDBRANCH  16  19
BRANCH  18  21
ATOM     21  O   UNL     1       8.025  81.362  78.083  1.00  0.00    -0.504 OA
ATOM     22  H   UNL     1       7.621  80.752  77.385  1.00  0.00     0.293 HD
ENDBRANCH  18  21
ENDBRANCH   3  13
BRANCH  10  23
ATOM     23  O   UNL     1      13.749  88.732  80.567  1.00  0.00    -0.507 OA
ATOM     24  H   UNL     1      14.599  88.197  80.623  1.00  0.00     0.293 HD
ENDBRANCH  10  23
BRANCH  11  25
ATOM     25  O   UNL     1      11.994  90.913  76.675  1.00  0.00    -0.508 OA
ATOM     26  H   UNL     1      11.282  91.052  75.971  1.00  0.00     0.293 HD
ENDBRANCH  11  25
ENDBRANCH   1   2
BRANCH   1  27
ATOM     27  C   UNL     1       9.954  84.619  82.285  1.00  0.00     0.339 C 
ATOM     28  C   UNL     1       9.218  83.328  82.711  1.00  0.00     0.214 C 
ATOM     29  O   UNL     1       9.186  85.769  82.615  1.00  0.00    -0.332 OA
ATOM     30  C   UNL     1       7.814  83.286  82.070  1.00  0.00     0.180 C 
ATOM     31  C   UNL     1       7.956  85.809  81.905  1.00  0.00     0.179 C 
ATOM     32  C   UNL     1       7.060  84.616  82.314  1.00  0.00     0.177 C 
BRANCH  28  33
ATOM     33  O   UNL     1       9.107  83.289  84.113  1.00  0.00    -0.384 OA
ATOM     34  H   UNL     1      10.021  83.127  84.470  1.00  0.00     0.211 HD
ENDBRANCH  28  33
BRANCH  30  35
ATOM     35  O   UNL     1       7.069  82.183  82.528  1.00  0.00    -0.387 OA
ATOM     36  H   UNL     1       7.669  81.603  83.068  1.00  0.00     0.211 HD
ENDBRANCH  30  35
BRANCH  31  37
ATOM     37  C   UNL     1       7.281  87.156  82.206  1.00  0.00     0.191 C 
BRANCH  37  38
ATOM     38  O   UNL     1       6.504  87.577  81.113  1.00  0.00    -0.394 OA
ATOM     39  H   UNL     1       6.551  86.867  80.417  1.00  0.00     0.210 HD
ENDBRANCH  37  38
ENDBRANCH  31  37
BRANCH  32  40
ATOM     40  O   UNL     1       5.835  84.633  81.623  1.00  0.00    -0.387 OA
ATOM     41  H   UNL     1       5.464  85.544  81.674  1.00  0.00     0.211 HD
ENDBRANCH  32  40
ENDBRANCH   1  27
TORSDOF 12
ENDMDL
