MODEL 1
REMARK VINA RESULT:    -7.034      0.000      0.000
REMARK INTER + INTRA:         -14.102
REMARK INTER:                 -11.558
REMARK INTRA:                  -2.545
REMARK UNBOUND:                -2.545
REMARK SMILES C[C@@H]1O[C@@H](OC[C@H]2O[C@H](Oc3c(-c4ccc(O)c(O)c4)oc4cc(O)cc(O)c4c3=O)[C@H](O)[C@@H](O)[C@@H]2O)[C@H](O)[C@@H](O)[C@H]1O
REMARK SMILES IDX 7 1 36 2 34 3 32 4 9 5 8 6 6 7 5 8 4 9 1 10 2 11 42 12 3 13
REMARK SMILES IDX 40 14 38 15 43 16 41 18 39 20 37 22 35 24 10 26 11 27 12 28
REMARK SMILES IDX 30 29 21 30 29 31 31 32 22 33 27 34 23 35 26 36 24 37 13 38
REMARK SMILES IDX 20 39 14 40 18 41 15 42 16 43 19 44 17 46 28 48 25 50 33 52
REMARK H PARENT 43 17 41 19 39 21 37 23 35 25 19 45 17 47 28 49 25 51 33 53
REMARK Flexibility Score: inf
ROOT
ATOM      1  C   UNL     1     110.441 116.759 112.069  1.00  0.00     0.180 C 
ATOM      2  C   UNL     1     111.531 116.167 112.999  1.00  0.00     0.177 C 
ATOM      3  C   UNL     1     110.957 114.979 113.797  1.00  0.00     0.180 C 
ATOM      4  C   UNL     1     110.286 113.986 112.835  1.00  0.00     0.214 C 
ATOM      5  C   UNL     1     109.293 114.716 111.913  1.00  0.00     0.339 C 
ATOM      6  O   UNL     1     109.932 115.761 111.198  1.00  0.00    -0.332 OA
ENDROOT
BRANCH   1   7
ATOM      7  C   UNL     1     111.004 117.902 111.216  1.00  0.00     0.198 C 
BRANCH   7   8
ATOM      8  O   UNL     1     111.145 117.472 109.873  1.00  0.00    -0.347 OA
BRANCH   8   9
ATOM      9  C   UNL     1     112.466 117.671 109.398  1.00  0.00     0.281 C 
ATOM     10  C   UNL     1     111.813 117.883 105.779  1.00  0.00     0.041 C 
ATOM     11  C   UNL     1     111.862 117.236 107.166  1.00  0.00     0.150 C 
ATOM     12  C   UNL     1     112.651 115.907 107.117  1.00  0.00     0.174 C 
ATOM     13  O   UNL     1     112.475 118.153 108.059  1.00  0.00    -0.344 OA
ATOM     14  C   UNL     1     112.753 115.304 108.530  1.00  0.00     0.179 C 
ATOM     15  C   UNL     1     113.273 116.359 109.522  1.00  0.00     0.202 C 
BRANCH  12  16
ATOM     16  O   UNL     1     112.012 115.003 106.252  1.00  0.00    -0.388 OA
ATOM     17  H   UNL     1     112.711 114.374 105.929  1.00  0.00     0.211 HD
ENDBRANCH  12  16
BRANCH  14  18
ATOM     18  O   UNL     1     111.492 114.829 108.936  1.00  0.00    -0.387 OA
ATOM     19  H   UNL     1     110.971 114.653 108.110  1.00  0.00     0.211 HD
ENDBRANCH  14  18
BRANCH  15  20
ATOM     20  O   UNL     1     114.632 116.606 109.259  1.00  0.00    -0.385 OA
ATOM     21  H   UNL     1     115.150 116.147 109.973  1.00  0.00     0.211 HD
ENDBRANCH  15  20
ENDBRANCH   8   9
ENDBRANCH   7   8
ENDBRANCH   1   7
BRANCH   2  22
ATOM     22  O   UNL     1     112.047 117.145 113.869  1.00  0.00    -0.387 OA
ATOM     23  H   UNL     1     111.278 117.557 114.347  1.00  0.00     0.211 HD
ENDBRANCH   2  22
BRANCH   3  24
ATOM     24  O   UNL     1     111.987 114.325 114.494  1.00  0.00    -0.387 OA
ATOM     25  H   UNL     1     111.598 114.001 115.347  1.00  0.00     0.211 HD
ENDBRANCH   3  24
BRANCH   5  26
ATOM     26  O   UNL     1     108.177 115.217 112.659  1.00  0.00    -0.454 OA
BRANCH  26  27
ATOM     27  C   UNL     1     106.845 115.010 112.274  1.00  0.00     0.214 A 
ATOM     28  C   UNL     1     105.987 116.077 111.933  1.00  0.00     0.180 A 
ATOM     29  C   UNL     1     106.355 113.702 112.207  1.00  0.00     0.239 A 
ATOM     30  O   UNL     1     104.764 115.820 111.478  1.00  0.00    -0.452 OA
ATOM     31  C   UNL     1     105.049 113.468 111.735  1.00  0.00     0.111 A 
ATOM     32  O   UNL     1     107.106 112.746 112.550  1.00  0.00    -0.285 OA
ATOM     33  C   UNL     1     104.274 114.591 111.359  1.00  0.00     0.146 A 
ATOM     34  C   UNL     1     104.491 112.172 111.612  1.00  0.00     0.134 A 
ATOM     35  C   UNL     1     102.978 114.419 110.863  1.00  0.00     0.094 A 
ATOM     36  C   UNL     1     103.189 112.020 111.112  1.00  0.00     0.093 A 
ATOM     37  C   UNL     1     102.435 113.135 110.737  1.00  0.00     0.123 A 
BRANCH  28  38
ATOM     38  C   UNL     1     106.398 117.489 112.074  1.00  0.00     0.025 A 
ATOM     39  C   UNL     1     106.018 118.215 113.213  1.00  0.00     0.062 A 
ATOM     40  C   UNL     1     107.189 118.112 111.094  1.00  0.00     0.016 A 
ATOM     41  C   UNL     1     106.366 119.564 113.346  1.00  0.00     0.158 A 
ATOM     42  C   UNL     1     107.547 119.457 111.227  1.00  0.00     0.051 A 
ATOM     43  C   UNL     1     107.127 120.191 112.344  1.00  0.00     0.157 A 
BRANCH  41  44
ATOM     44  O   UNL     1     105.944 120.265 114.476  1.00  0.00    -0.504 OA
ATOM     45  H   UNL     1     106.059 119.896 115.412  1.00  0.00     0.293 HD
ENDBRANCH  41  44
BRANCH  43  46
ATOM     46  O   UNL     1     107.463 121.539 112.460  1.00  0.00    -0.504 OA
ATOM     47  H   UNL     1     107.866 121.913 113.312  1.00  0.00     0.293 HD
ENDBRANCH  43  46
ENDBRANCH  28  38
BRANCH  34  48
ATOM     48  O   UNL     1     105.219 111.038 111.978  1.00  0.00    -0.507 OA
ATOM     49  H   UNL     1     106.144 110.859 111.609  1.00  0.00     0.293 HD
ENDBRANCH  34  48
BRANCH  37  50
ATOM     50  O   UNL     1     101.147 112.955 110.238  1.00  0.00    -0.508 OA
ATOM     51  H   UNL     1     100.946 112.260 109.529  1.00  0.00     0.293 HD
ENDBRANCH  37  50
ENDBRANCH  26  27
ENDBRANCH   5  26
BRANCH   4  52
ATOM     52  O   UNL     1     109.605 112.992 113.557  1.00  0.00    -0.384 OA
ATOM     53  H   UNL     1     110.256 112.603 114.199  1.00  0.00     0.211 HD
ENDBRANCH   4  52
TORSDOF 16
ENDMDL
MODEL 2
REMARK VINA RESULT:    -7.027      1.116      1.621
REMARK INTER + INTRA:         -14.090
REMARK INTER:                 -10.799
REMARK INTRA:                  -3.291
REMARK UNBOUND:                -2.545
REMARK SMILES C[C@@H]1O[C@@H](OC[C@H]2O[C@H](Oc3c(-c4ccc(O)c(O)c4)oc4cc(O)cc(O)c4c3=O)[C@H](O)[C@@H](O)[C@@H]2O)[C@H](O)[C@@H](O)[C@H]1O
REMARK SMILES IDX 7 1 36 2 34 3 32 4 9 5 8 6 6 7 5 8 4 9 1 10 2 11 42 12 3 13
REMARK SMILES IDX 40 14 38 15 43 16 41 18 39 20 37 22 35 24 10 26 11 27 12 28
REMARK SMILES IDX 30 29 21 30 29 31 31 32 22 33 27 34 23 35 26 36 24 37 13 38
REMARK SMILES IDX 20 39 14 40 18 41 15 42 16 43 19 44 17 46 28 48 25 50 33 52
REMARK H PARENT 43 17 41 19 39 21 37 23 35 25 19 45 17 47 28 49 25 51 33 53
REMARK Flexibility Score: inf
ROOT
ATOM      1  C   UNL     1     110.018 117.208 112.595  1.00  0.00     0.180 C 
ATOM      2  C   UNL     1     111.230 116.623 113.364  1.00  0.00     0.177 C 
ATOM      3  C   UNL     1     110.899 115.207 113.876  1.00  0.00     0.180 C 
ATOM      4  C   UNL     1     110.364 114.350 112.717  1.00  0.00     0.214 C 
ATOM      5  C   UNL     1     109.223 115.083 111.988  1.00  0.00     0.339 C 
ATOM      6  O   UNL     1     109.646 116.354 111.523  1.00  0.00    -0.332 OA
ENDROOT
BRANCH   1   7
ATOM      7  C   UNL     1     110.344 118.591 112.020  1.00  0.00     0.198 C 
BRANCH   7   8
ATOM      8  O   UNL     1     110.083 118.603 110.627  1.00  0.00    -0.347 OA
BRANCH   8   9
ATOM      9  C   UNL     1     111.000 119.431 109.931  1.00  0.00     0.281 C 
ATOM     10  C   UNL     1     109.631 119.172 106.522  1.00  0.00     0.041 C 
ATOM     11  C   UNL     1     110.271 118.682 107.823  1.00  0.00     0.150 C 
ATOM     12  C   UNL     1     111.594 117.937 107.531  1.00  0.00     0.174 C 
ATOM     13  O   UNL     1     110.501 119.810 108.654  1.00  0.00    -0.344 OA
ATOM     14  C   UNL     1     112.262 117.512 108.851  1.00  0.00     0.179 C 
ATOM     15  C   UNL     1     112.364 118.715 109.806  1.00  0.00     0.202 C 
BRANCH  12  16
ATOM     16  O   UNL     1     111.341 116.808 106.734  1.00  0.00    -0.388 OA
ATOM     17  H   UNL     1     110.472 116.433 107.039  1.00  0.00     0.211 HD
ENDBRANCH  12  16
BRANCH  14  18
ATOM     18  O   UNL     1     111.521 116.475 109.447  1.00  0.00    -0.387 OA
ATOM     19  H   UNL     1     111.285 116.778 110.362  1.00  0.00     0.211 HD
ENDBRANCH  14  18
BRANCH  15  20
ATOM     20  O   UNL     1     113.331 119.610 109.315  1.00  0.00    -0.385 OA
ATOM     21  H   UNL     1     112.886 120.495 109.232  1.00  0.00     0.211 HD
ENDBRANCH  15  20
ENDBRANCH   8   9
ENDBRANCH   7   8
ENDBRANCH   1   7
BRANCH   2  22
ATOM     22  O   UNL     1     111.611 117.458 114.429  1.00  0.00    -0.387 OA
ATOM     23  H   UNL     1     111.859 116.874 115.194  1.00  0.00     0.211 HD
ENDBRANCH   2  22
BRANCH   3  24
ATOM     24  O   UNL     1     112.053 114.603 114.403  1.00  0.00    -0.387 OA
ATOM     25  H   UNL     1     112.239 113.803 113.848  1.00  0.00     0.211 HD
ENDBRANCH   3  24
BRANCH   5  26
ATOM     26  O   UNL     1     108.072 115.206 112.832  1.00  0.00    -0.454 OA
BRANCH  26  27
ATOM     27  C   UNL     1     106.775 114.887 112.406  1.00  0.00     0.214 A 
ATOM     28  C   UNL     1     105.823 115.880 112.091  1.00  0.00     0.180 A 
ATOM     29  C   UNL     1     106.417 113.542 112.271  1.00  0.00     0.239 A 
ATOM     30  O   UNL     1     104.640 115.527 111.596  1.00  0.00    -0.452 OA
ATOM     31  C   UNL     1     105.149 113.204 111.759  1.00  0.00     0.111 A 
ATOM     32  O   UNL     1     107.250 112.650 112.592  1.00  0.00    -0.285 OA
ATOM     33  C   UNL     1     104.275 114.263 111.412  1.00  0.00     0.146 A 
ATOM     34  C   UNL     1     104.723 111.867 111.567  1.00  0.00     0.134 A 
ATOM     35  C   UNL     1     103.013 113.988 110.879  1.00  0.00     0.094 A 
ATOM     36  C   UNL     1     103.452 111.612 111.030  1.00  0.00     0.093 A 
ATOM     37  C   UNL     1     102.601 112.665 110.685  1.00  0.00     0.123 A 
BRANCH  28  38
ATOM     38  C   UNL     1     106.091 117.318 112.303  1.00  0.00     0.025 A 
ATOM     39  C   UNL     1     106.591 118.097 111.249  1.00  0.00     0.062 A 
ATOM     40  C   UNL     1     105.826 117.926 113.541  1.00  0.00     0.016 A 
ATOM     41  C   UNL     1     106.886 119.451 111.441  1.00  0.00     0.158 A 
ATOM     42  C   UNL     1     106.110 119.281 113.736  1.00  0.00     0.051 A 
ATOM     43  C   UNL     1     106.654 120.045 112.695  1.00  0.00     0.157 A 
BRANCH  41  44
ATOM     44  O   UNL     1     107.414 120.187 110.381  1.00  0.00    -0.504 OA
ATOM     45  H   UNL     1     106.925 120.288 109.500  1.00  0.00     0.293 HD
ENDBRANCH  41  44
BRANCH  43  46
ATOM     46  O   UNL     1     106.961 121.388 112.900  1.00  0.00    -0.504 OA
ATOM     47  H   UNL     1     106.981 122.051 112.133  1.00  0.00     0.293 HD
ENDBRANCH  43  46
ENDBRANCH  28  38
BRANCH  34  48
ATOM     48  O   UNL     1     105.551 110.794 111.901  1.00  0.00    -0.507 OA
ATOM     49  H   UNL     1     105.354 109.852 111.586  1.00  0.00     0.293 HD
ENDBRANCH  34  48
BRANCH  37  50
ATOM     50  O   UNL     1     101.346 112.383 110.148  1.00  0.00    -0.508 OA
ATOM     51  H   UNL     1     100.526 112.298 110.736  1.00  0.00     0.293 HD
ENDBRANCH  37  50
ENDBRANCH  26  27
ENDBRANCH   5  26
BRANCH   4  52
ATOM     52  O   UNL     1     109.891 113.118 113.200  1.00  0.00    -0.384 OA
ATOM     53  H   UNL     1     109.082 112.891 112.670  1.00  0.00     0.211 HD
ENDBRANCH   4  52
TORSDOF 16
ENDMDL
MODEL 3
REMARK VINA RESULT:    -6.991      4.305      8.034
REMARK INTER + INTRA:         -14.032
REMARK INTER:                 -10.588
REMARK INTRA:                  -3.444
REMARK UNBOUND:                -2.545
REMARK SMILES C[C@@H]1O[C@@H](OC[C@H]2O[C@H](Oc3c(-c4ccc(O)c(O)c4)oc4cc(O)cc(O)c4c3=O)[C@H](O)[C@@H](O)[C@@H]2O)[C@H](O)[C@@H](O)[C@H]1O
REMARK SMILES IDX 7 1 36 2 34 3 32 4 9 5 8 6 6 7 5 8 4 9 1 10 2 11 42 12 3 13
REMARK SMILES IDX 40 14 38 15 43 16 41 18 39 20 37 22 35 24 10 26 11 27 12 28
REMARK SMILES IDX 30 29 21 30 29 31 31 32 22 33 27 34 23 35 26 36 24 37 13 38
REMARK SMILES IDX 20 39 14 40 18 41 15 42 16 43 19 44 17 46 28 48 25 50 33 52
REMARK H PARENT 43 17 41 19 39 21 37 23 35 25 19 45 17 47 28 49 25 51 33 53
REMARK Flexibility Score: inf
ROOT
ATOM      1  C   UNL     1     105.387 112.894 114.132  1.00  0.00     0.180 C 
ATOM      2  C   UNL     1     105.212 114.426 113.972  1.00  0.00     0.177 C 
ATOM      3  C   UNL     1     104.080 114.727 112.969  1.00  0.00     0.180 C 
ATOM      4  C   UNL     1     102.817 113.946 113.365  1.00  0.00     0.214 C 
ATOM      5  C   UNL     1     103.148 112.457 113.575  1.00  0.00     0.339 C 
ATOM      6  O   UNL     1     104.170 112.292 114.544  1.00  0.00    -0.332 OA
ENDROOT
BRANCH   1   7
ATOM      7  C   UNL     1     106.464 112.567 115.173  1.00  0.00     0.198 C 
BRANCH   7   8
ATOM      8  O   UNL     1     107.705 113.119 114.767  1.00  0.00    -0.347 OA
BRANCH   8   9
ATOM      9  C   UNL     1     108.488 112.176 114.057  1.00  0.00     0.281 C 
ATOM     10  C   UNL     1     111.417 111.978 116.282  1.00  0.00     0.041 C 
ATOM     11  C   UNL     1     110.416 112.632 115.326  1.00  0.00     0.150 C 
ATOM     12  C   UNL     1     111.152 113.291 114.136  1.00  0.00     0.174 C 
ATOM     13  O   UNL     1     109.520 111.631 114.871  1.00  0.00    -0.344 OA
ATOM     14  C   UNL     1     110.131 113.884 113.149  1.00  0.00     0.179 C 
ATOM     15  C   UNL     1     109.072 112.828 112.783  1.00  0.00     0.202 C 
BRANCH  12  16
ATOM     16  O   UNL     1     112.011 114.300 114.605  1.00  0.00    -0.388 OA
ATOM     17  H   UNL     1     111.502 115.153 114.554  1.00  0.00     0.211 HD
ENDBRANCH  12  16
BRANCH  14  18
ATOM     18  O   UNL     1     109.520 115.015 113.718  1.00  0.00    -0.387 OA
ATOM     19  H   UNL     1     108.546 114.935 113.543  1.00  0.00     0.211 HD
ENDBRANCH  14  18
BRANCH  15  20
ATOM     20  O   UNL     1     109.664 111.846 111.970  1.00  0.00    -0.385 OA
ATOM     21  H   UNL     1     109.006 111.105 111.891  1.00  0.00     0.211 HD
ENDBRANCH  15  20
ENDBRANCH   8   9
ENDBRANCH   7   8
ENDBRANCH   1   7
BRANCH   2  22
ATOM     22  O   UNL     1     106.411 115.038 113.564  1.00  0.00    -0.387 OA
ATOM     23  H   UNL     1     106.214 115.996 113.387  1.00  0.00     0.211 HD
ENDBRANCH   2  22
BRANCH   3  24
ATOM     24  O   UNL     1     103.793 116.102 112.967  1.00  0.00    -0.387 OA
ATOM     25  H   UNL     1     104.493 116.544 113.512  1.00  0.00     0.211 HD
ENDBRANCH   3  24
BRANCH   5  26
ATOM     26  O   UNL     1     103.514 111.835 112.337  1.00  0.00    -0.454 OA
BRANCH  26  27
ATOM     27  C   UNL     1     102.933 110.645 111.878  1.00  0.00     0.214 A 
ATOM     28  C   UNL     1     103.483 109.379 112.172  1.00  0.00     0.180 A 
ATOM     29  C   UNL     1     101.760 110.712 111.121  1.00  0.00     0.239 A 
ATOM     30  O   UNL     1     102.839 108.277 111.799  1.00  0.00    -0.452 OA
ATOM     31  C   UNL     1     101.112 109.524 110.728  1.00  0.00     0.111 A 
ATOM     32  O   UNL     1     101.286 111.843 110.820  1.00  0.00    -0.285 OA
ATOM     33  C   UNL     1     101.700 108.295 111.115  1.00  0.00     0.146 A 
ATOM     34  C   UNL     1      99.907 109.508 109.985  1.00  0.00     0.134 A 
ATOM     35  C   UNL     1     101.091 107.085 110.772  1.00  0.00     0.094 A 
ATOM     36  C   UNL     1      99.311 108.283 109.652  1.00  0.00     0.093 A 
ATOM     37  C   UNL     1      99.896 107.076 110.044  1.00  0.00     0.123 A 
BRANCH  28  38
ATOM     38  C   UNL     1     104.772 109.230 112.879  1.00  0.00     0.025 A 
ATOM     39  C   UNL     1     105.976 109.353 112.169  1.00  0.00     0.062 A 
ATOM     40  C   UNL     1     104.812 108.990 114.263  1.00  0.00     0.016 A 
ATOM     41  C   UNL     1     107.205 109.177 112.814  1.00  0.00     0.158 A 
ATOM     42  C   UNL     1     106.038 108.824 114.914  1.00  0.00     0.051 A 
ATOM     43  C   UNL     1     107.236 108.902 114.193  1.00  0.00     0.157 A 
BRANCH  41  44
ATOM     44  O   UNL     1     108.381 109.274 112.071  1.00  0.00    -0.504 OA
ATOM     45  H   UNL     1     109.270 108.945 112.426  1.00  0.00     0.293 HD
ENDBRANCH  41  44
BRANCH  43  46
ATOM     46  O   UNL     1     108.455 108.708 114.840  1.00  0.00    -0.504 OA
ATOM     47  H   UNL     1     109.027 107.891 114.659  1.00  0.00     0.293 HD
ENDBRANCH  43  46
ENDBRANCH  28  38
BRANCH  34  48
ATOM     48  O   UNL     1      99.297 110.697 109.579  1.00  0.00    -0.507 OA
ATOM     49  H   UNL     1      98.757 111.263 110.222  1.00  0.00     0.293 HD
ENDBRANCH  34  48
BRANCH  37  50
ATOM     50  O   UNL     1      99.280 105.873 109.705  1.00  0.00    -0.508 OA
ATOM     51  H   UNL     1      98.302 105.834 109.447  1.00  0.00     0.293 HD
ENDBRANCH  37  50
ENDBRANCH  26  27
ENDBRANCH   5  26
BRANCH   4  52
ATOM     52  O   UNL     1     101.836 114.068 112.367  1.00  0.00    -0.384 OA
ATOM     53  H   UNL     1     102.025 113.369 111.687  1.00  0.00     0.211 HD
ENDBRANCH   4  52
TORSDOF 16
ENDMDL
MODEL 4
REMARK VINA RESULT:    -6.813      3.067      7.909
REMARK INTER + INTRA:         -13.740
REMARK INTER:                 -10.745
REMARK INTRA:                  -2.994
REMARK UNBOUND:                -2.545
REMARK SMILES C[C@@H]1O[C@@H](OC[C@H]2O[C@H](Oc3c(-c4ccc(O)c(O)c4)oc4cc(O)cc(O)c4c3=O)[C@H](O)[C@@H](O)[C@@H]2O)[C@H](O)[C@@H](O)[C@H]1O
REMARK SMILES IDX 7 1 36 2 34 3 32 4 9 5 8 6 6 7 5 8 4 9 1 10 2 11 42 12 3 13
REMARK SMILES IDX 40 14 38 15 43 16 41 18 39 20 37 22 35 24 10 26 11 27 12 28
REMARK SMILES IDX 30 29 21 30 29 31 31 32 22 33 27 34 23 35 26 36 24 37 13 38
REMARK SMILES IDX 20 39 14 40 18 41 15 42 16 43 19 44 17 46 28 48 25 50 33 52
REMARK H PARENT 43 17 41 19 39 21 37 23 35 25 19 45 17 47 28 49 25 51 33 53
REMARK Flexibility Score: inf
ROOT
ATOM      1  C   UNL     1     111.243 119.615 114.171  1.00  0.00     0.180 C 
ATOM      2  C   UNL     1     112.122 120.735 114.785  1.00  0.00     0.177 C 
ATOM      3  C   UNL     1     113.466 120.823 114.035  1.00  0.00     0.180 C 
ATOM      4  C   UNL     1     113.209 120.926 112.523  1.00  0.00     0.214 C 
ATOM      5  C   UNL     1     112.256 119.809 112.062  1.00  0.00     0.339 C 
ATOM      6  O   UNL     1     111.037 119.844 112.785  1.00  0.00    -0.332 OA
ENDROOT
BRANCH   1   7
ATOM      7  C   UNL     1     109.873 119.550 114.858  1.00  0.00     0.198 C 
BRANCH   7   8
ATOM      8  O   UNL     1     108.970 118.809 114.055  1.00  0.00    -0.347 OA
BRANCH   8   9
ATOM      9  C   UNL     1     107.622 119.104 114.378  1.00  0.00     0.281 C 
ATOM     10  C   UNL     1     105.899 116.996 111.896  1.00  0.00     0.041 C 
ATOM     11  C   UNL     1     106.803 118.124 112.402  1.00  0.00     0.150 C 
ATOM     12  C   UNL     1     106.363 119.481 111.805  1.00  0.00     0.174 C 
ATOM     13  O   UNL     1     106.728 118.149 113.819  1.00  0.00    -0.344 OA
ATOM     14  C   UNL     1     107.235 120.614 112.376  1.00  0.00     0.179 C 
ATOM     15  C   UNL     1     107.270 120.534 113.913  1.00  0.00     0.202 C 
BRANCH  12  16
ATOM     16  O   UNL     1     106.475 119.446 110.405  1.00  0.00    -0.388 OA
ATOM     17  H   UNL     1     105.564 119.617 110.042  1.00  0.00     0.211 HD
ENDBRANCH  12  16
BRANCH  14  18
ATOM     18  O   UNL     1     108.537 120.523 111.850  1.00  0.00    -0.387 OA
ATOM     19  H   UNL     1     108.869 119.611 112.059  1.00  0.00     0.211 HD
ENDBRANCH  14  18
BRANCH  15  20
ATOM     20  O   UNL     1     106.014 120.908 114.420  1.00  0.00    -0.385 OA
ATOM     21  H   UNL     1     105.755 121.747 113.954  1.00  0.00     0.211 HD
ENDBRANCH  15  20
ENDBRANCH   8   9
ENDBRANCH   7   8
ENDBRANCH   1   7
BRANCH   2  22
ATOM     22  O   UNL     1     112.334 120.522 116.159  1.00  0.00    -0.387 OA
ATOM     23  H   UNL     1     111.600 120.978 116.650  1.00  0.00     0.211 HD
ENDBRANCH   2  22
BRANCH   3  24
ATOM     24  O   UNL     1     114.182 121.954 114.462  1.00  0.00    -0.387 OA
ATOM     25  H   UNL     1     113.609 122.743 114.281  1.00  0.00     0.211 HD
ENDBRANCH   3  24
BRANCH   5  26
ATOM     26  O   UNL     1     112.880 118.524 112.176  1.00  0.00    -0.454 OA
BRANCH  26  27
ATOM     27  C   UNL     1     112.768 117.530 111.195  1.00  0.00     0.214 A 
ATOM     28  C   UNL     1     111.955 116.390 111.369  1.00  0.00     0.180 A 
ATOM     29  C   UNL     1     113.471 117.680 109.995  1.00  0.00     0.239 A 
ATOM     30  O   UNL     1     111.804 115.527 110.368  1.00  0.00    -0.452 OA
ATOM     31  C   UNL     1     113.301 116.738 108.962  1.00  0.00     0.111 A 
ATOM     32  O   UNL     1     114.233 118.677 109.850  1.00  0.00    -0.285 OA
ATOM     33  C   UNL     1     112.420 115.655 109.198  1.00  0.00     0.146 A 
ATOM     34  C   UNL     1     113.955 116.835 107.710  1.00  0.00     0.134 A 
ATOM     35  C   UNL     1     112.196 114.701 108.202  1.00  0.00     0.094 A 
ATOM     36  C   UNL     1     113.715 115.867 106.723  1.00  0.00     0.093 A 
ATOM     37  C   UNL     1     112.839 114.806 106.964  1.00  0.00     0.123 A 
BRANCH  28  38
ATOM     38  C   UNL     1     111.262 116.110 112.644  1.00  0.00     0.025 A 
ATOM     39  C   UNL     1     111.987 116.097 113.844  1.00  0.00     0.062 A 
ATOM     40  C   UNL     1     109.876 115.881 112.676  1.00  0.00     0.016 A 
ATOM     41  C   UNL     1     111.355 115.796 115.055  1.00  0.00     0.158 A 
ATOM     42  C   UNL     1     109.237 115.590 113.885  1.00  0.00     0.051 A 
ATOM     43  C   UNL     1     109.974 115.532 115.075  1.00  0.00     0.157 A 
BRANCH  41  44
ATOM     44  O   UNL     1     112.114 115.758 116.225  1.00  0.00    -0.504 OA
ATOM     45  H   UNL     1     113.038 115.346 116.254  1.00  0.00     0.293 HD
ENDBRANCH  41  44
BRANCH  43  46
ATOM     46  O   UNL     1     109.339 115.214 116.275  1.00  0.00    -0.504 OA
ATOM     47  H   UNL     1     109.596 114.392 116.808  1.00  0.00     0.293 HD
ENDBRANCH  43  46
ENDBRANCH  28  38
BRANCH  34  48
ATOM     48  O   UNL     1     114.835 117.884 107.438  1.00  0.00    -0.507 OA
ATOM     49  H   UNL     1     115.494 118.218 108.131  1.00  0.00     0.293 HD
ENDBRANCH  34  48
BRANCH  37  50
ATOM     50  O   UNL     1     112.615 113.862 105.964  1.00  0.00    -0.508 OA
ATOM     51  H   UNL     1     112.268 112.935 106.179  1.00  0.00     0.293 HD
ENDBRANCH  37  50
ENDBRANCH  26  27
ENDBRANCH   5  26
BRANCH   4  52
ATOM     52  O   UNL     1     114.418 120.828 111.815  1.00  0.00    -0.384 OA
ATOM     53  H   UNL     1     114.496 121.647 111.259  1.00  0.00     0.211 HD
ENDBRANCH   4  52
TORSDOF 16
ENDMDL
MODEL 5
REMARK VINA RESULT:    -6.762      3.367      5.533
REMARK INTER + INTRA:         -13.656
REMARK INTER:                 -10.965
REMARK INTRA:                  -2.691
REMARK UNBOUND:                -2.545
REMARK SMILES C[C@@H]1O[C@@H](OC[C@H]2O[C@H](Oc3c(-c4ccc(O)c(O)c4)oc4cc(O)cc(O)c4c3=O)[C@H](O)[C@@H](O)[C@@H]2O)[C@H](O)[C@@H](O)[C@H]1O
REMARK SMILES IDX 7 1 36 2 34 3 32 4 9 5 8 6 6 7 5 8 4 9 1 10 2 11 42 12 3 13
REMARK SMILES IDX 40 14 38 15 43 16 41 18 39 20 37 22 35 24 10 26 11 27 12 28
REMARK SMILES IDX 30 29 21 30 29 31 31 32 22 33 27 34 23 35 26 36 24 37 13 38
REMARK SMILES IDX 20 39 14 40 18 41 15 42 16 43 19 44 17 46 28 48 25 50 33 52
REMARK H PARENT 43 17 41 19 39 21 37 23 35 25 19 45 17 47 28 49 25 51 33 53
REMARK Flexibility Score: inf
ROOT
ATOM      1  C   UNL     1     109.125 113.210 114.377  1.00  0.00     0.180 C 
ATOM      2  C   UNL     1     110.500 113.882 114.624  1.00  0.00     0.177 C 
ATOM      3  C   UNL     1     110.520 115.291 113.997  1.00  0.00     0.180 C 
ATOM      4  C   UNL     1     109.293 116.085 114.469  1.00  0.00     0.214 C 
ATOM      5  C   UNL     1     108.006 115.270 114.245  1.00  0.00     0.339 C 
ATOM      6  O   UNL     1     108.075 114.013 114.896  1.00  0.00    -0.332 OA
ENDROOT
BRANCH   1   7
ATOM      7  C   UNL     1     109.055 111.833 115.046  1.00  0.00     0.198 C 
BRANCH   7   8
ATOM      8  O   UNL     1     109.433 110.830 114.118  1.00  0.00    -0.347 OA
BRANCH   8   9
ATOM      9  C   UNL     1     109.179 109.530 114.622  1.00  0.00     0.281 C 
ATOM     10  C   UNL     1     111.084 107.523 112.191  1.00  0.00     0.041 C 
ATOM     11  C   UNL     1     109.995 108.481 112.681  1.00  0.00     0.150 C 
ATOM     12  C   UNL     1     108.596 107.975 112.259  1.00  0.00     0.174 C 
ATOM     13  O   UNL     1     110.091 108.575 114.094  1.00  0.00    -0.344 OA
ATOM     14  C   UNL     1     107.508 108.910 112.817  1.00  0.00     0.179 C 
ATOM     15  C   UNL     1     107.718 109.127 114.326  1.00  0.00     0.202 C 
BRANCH  12  16
ATOM     16  O   UNL     1     108.511 107.919 110.857  1.00  0.00    -0.388 OA
ATOM     17  H   UNL     1     108.426 108.858 110.539  1.00  0.00     0.211 HD
ENDBRANCH  12  16
BRANCH  14  18
ATOM     18  O   UNL     1     107.542 110.140 112.135  1.00  0.00    -0.387 OA
ATOM     19  H   UNL     1     107.092 110.805 112.719  1.00  0.00     0.211 HD
ENDBRANCH  14  18
BRANCH  15  20
ATOM     20  O   UNL     1     107.400 107.940 115.009  1.00  0.00    -0.385 OA
ATOM     21  H   UNL     1     108.237 107.629 115.447  1.00  0.00     0.211 HD
ENDBRANCH  15  20
ENDBRANCH   8   9
ENDBRANCH   7   8
ENDBRANCH   1   7
BRANCH   2  22
ATOM     22  O   UNL     1     111.551 113.098 114.115  1.00  0.00    -0.387 OA
ATOM     23  H   UNL     1     112.311 113.707 113.917  1.00  0.00     0.211 HD
ENDBRANCH   2  22
BRANCH   3  24
ATOM     24  O   UNL     1     111.688 115.971 114.381  1.00  0.00    -0.387 OA
ATOM     25  H   UNL     1     112.263 115.314 114.852  1.00  0.00     0.211 HD
ENDBRANCH   3  24
BRANCH   5  26
ATOM     26  O   UNL     1     107.741 115.106 112.846  1.00  0.00    -0.454 OA
BRANCH  26  27
ATOM     27  C   UNL     1     106.451 114.938 112.326  1.00  0.00     0.214 A 
ATOM     28  C   UNL     1     105.642 116.033 111.955  1.00  0.00     0.180 A 
ATOM     29  C   UNL     1     105.954 113.643 112.152  1.00  0.00     0.239 A 
ATOM     30  O   UNL     1     104.466 115.818 111.373  1.00  0.00    -0.452 OA
ATOM     31  C   UNL     1     104.696 113.451 111.548  1.00  0.00     0.111 A 
ATOM     32  O   UNL     1     106.656 112.660 112.521  1.00  0.00    -0.285 OA
ATOM     33  C   UNL     1     103.975 114.603 111.151  1.00  0.00     0.146 A 
ATOM     34  C   UNL     1     104.137 112.172 111.312  1.00  0.00     0.134 A 
ATOM     35  C   UNL     1     102.731 114.474 110.527  1.00  0.00     0.094 A 
ATOM     36  C   UNL     1     102.887 112.064 110.684  1.00  0.00     0.093 A 
ATOM     37  C   UNL     1     102.187 113.207 110.290  1.00  0.00     0.123 A 
BRANCH  28  38
ATOM     38  C   UNL     1     106.055 117.431 112.200  1.00  0.00     0.025 A 
ATOM     39  C   UNL     1     105.722 118.054 113.412  1.00  0.00     0.062 A 
ATOM     40  C   UNL     1     106.801 118.141 111.244  1.00  0.00     0.016 A 
ATOM     41  C   UNL     1     106.072 119.388 113.646  1.00  0.00     0.158 A 
ATOM     42  C   UNL     1     107.161 119.471 111.478  1.00  0.00     0.051 A 
ATOM     43  C   UNL     1     106.787 120.105 112.670  1.00  0.00     0.157 A 
BRANCH  41  44
ATOM     44  O   UNL     1     105.696 119.986 114.849  1.00  0.00    -0.504 OA
ATOM     45  H   UNL     1     106.202 120.770 115.242  1.00  0.00     0.293 HD
ENDBRANCH  41  44
BRANCH  43  46
ATOM     46  O   UNL     1     107.123 121.439 112.888  1.00  0.00    -0.504 OA
ATOM     47  H   UNL     1     108.042 121.799 112.654  1.00  0.00     0.293 HD
ENDBRANCH  43  46
ENDBRANCH  28  38
BRANCH  34  48
ATOM     48  O   UNL     1     104.812 111.011 111.693  1.00  0.00    -0.507 OA
ATOM     49  H   UNL     1     105.660 111.046 112.245  1.00  0.00     0.293 HD
ENDBRANCH  34  48
BRANCH  37  50
ATOM     50  O   UNL     1     100.950 113.071 109.662  1.00  0.00    -0.508 OA
ATOM     51  H   UNL     1     100.831 112.477 108.851  1.00  0.00     0.293 HD
ENDBRANCH  37  50
ENDBRANCH  26  27
ENDBRANCH   5  26
BRANCH   4  52
ATOM     52  O   UNL     1     109.201 117.301 113.771  1.00  0.00    -0.384 OA
ATOM     53  H   UNL     1     109.869 117.916 114.172  1.00  0.00     0.211 HD
ENDBRANCH   4  52
TORSDOF 16
ENDMDL
MODEL 6
REMARK VINA RESULT:    -6.632      4.977      8.122
REMARK INTER + INTRA:         -13.442
REMARK INTER:                 -10.792
REMARK INTRA:                  -2.650
REMARK UNBOUND:                -2.545
REMARK SMILES C[C@@H]1O[C@@H](OC[C@H]2O[C@H](Oc3c(-c4ccc(O)c(O)c4)oc4cc(O)cc(O)c4c3=O)[C@H](O)[C@@H](O)[C@@H]2O)[C@H](O)[C@@H](O)[C@H]1O
REMARK SMILES IDX 7 1 36 2 34 3 32 4 9 5 8 6 6 7 5 8 4 9 1 10 2 11 42 12 3 13
REMARK SMILES IDX 40 14 38 15 43 16 41 18 39 20 37 22 35 24 10 26 11 27 12 28
REMARK SMILES IDX 30 29 21 30 29 31 31 32 22 33 27 34 23 35 26 36 24 37 13 38
REMARK SMILES IDX 20 39 14 40 18 41 15 42 16 43 19 44 17 46 28 48 25 50 33 52
REMARK H PARENT 43 17 41 19 39 21 37 23 35 25 19 45 17 47 28 49 25 51 33 53
REMARK Flexibility Score: inf
ROOT
ATOM      1  C   UNL     1     105.398 110.050 113.331  1.00  0.00     0.180 C 
ATOM      2  C   UNL     1     104.969 108.841 114.201  1.00  0.00     0.177 C 
ATOM      3  C   UNL     1     103.432 108.724 114.225  1.00  0.00     0.180 C 
ATOM      4  C   UNL     1     102.890 108.740 112.787  1.00  0.00     0.214 C 
ATOM      5  C   UNL     1     103.459 109.941 112.010  1.00  0.00     0.339 C 
ATOM      6  O   UNL     1     104.877 109.929 112.016  1.00  0.00    -0.332 OA
ENDROOT
BRANCH   1   7
ATOM      7  C   UNL     1     106.925 110.150 113.238  1.00  0.00     0.198 C 
BRANCH   7   8
ATOM      8  O   UNL     1     107.495 108.855 113.317  1.00  0.00    -0.347 OA
BRANCH   8   9
ATOM      9  C   UNL     1     107.876 108.374 112.040  1.00  0.00     0.281 C 
ATOM     10  C   UNL     1     108.570 104.853 112.868  1.00  0.00     0.041 C 
ATOM     11  C   UNL     1     108.750 106.373 112.915  1.00  0.00     0.150 C 
ATOM     12  C   UNL     1     110.209 106.758 112.578  1.00  0.00     0.174 C 
ATOM     13  O   UNL     1     107.849 106.953 111.985  1.00  0.00    -0.344 OA
ATOM     14  C   UNL     1     110.358 108.290 112.561  1.00  0.00     0.179 C 
ATOM     15  C   UNL     1     109.273 108.918 111.667  1.00  0.00     0.202 C 
BRANCH  12  16
ATOM     16  O   UNL     1     111.082 106.200 113.528  1.00  0.00    -0.388 OA
ATOM     17  H   UNL     1     110.540 106.021 114.343  1.00  0.00     0.211 HD
ENDBRANCH  12  16
BRANCH  14  18
ATOM     18  O   UNL     1     110.265 108.792 113.871  1.00  0.00    -0.387 OA
ATOM     19  H   UNL     1     109.598 108.233 114.348  1.00  0.00     0.211 HD
ENDBRANCH  14  18
BRANCH  15  20
ATOM     20  O   UNL     1     109.559 108.625 110.323  1.00  0.00    -0.385 OA
ATOM     21  H   UNL     1     108.844 108.011 110.005  1.00  0.00     0.211 HD
ENDBRANCH  15  20
ENDBRANCH   8   9
ENDBRANCH   7   8
ENDBRANCH   1   7
BRANCH   2  22
ATOM     22  O   UNL     1     105.478 108.946 115.508  1.00  0.00    -0.387 OA
ATOM     23  H   UNL     1     106.053 108.152 115.671  1.00  0.00     0.211 HD
ENDBRANCH   2  22
BRANCH   3  24
ATOM     24  O   UNL     1     103.050 107.526 114.851  1.00  0.00    -0.387 OA
ATOM     25  H   UNL     1     103.628 107.421 115.650  1.00  0.00     0.211 HD
ENDBRANCH   3  24
BRANCH   5  26
ATOM     26  O   UNL     1     102.957 111.176 112.537  1.00  0.00    -0.454 OA
BRANCH  26  27
ATOM     27  C   UNL     1     102.597 112.262 111.728  1.00  0.00     0.214 A 
ATOM     28  C   UNL     1     103.420 113.400 111.590  1.00  0.00     0.180 A 
ATOM     29  C   UNL     1     101.393 112.209 111.020  1.00  0.00     0.239 A 
ATOM     30  O   UNL     1     103.081 114.359 110.732  1.00  0.00    -0.452 OA
ATOM     31  C   UNL     1     101.057 113.251 110.132  1.00  0.00     0.111 A 
ATOM     32  O   UNL     1     100.633 111.212 111.172  1.00  0.00    -0.285 OA
ATOM     33  C   UNL     1     101.967 114.328 110.009  1.00  0.00     0.146 A 
ATOM     34  C   UNL     1      99.871 113.257 109.360  1.00  0.00     0.134 A 
ATOM     35  C   UNL     1     101.697 115.379 109.128  1.00  0.00     0.094 A 
ATOM     36  C   UNL     1      99.619 114.321 108.481  1.00  0.00     0.093 A 
ATOM     37  C   UNL     1     100.526 115.377 108.362  1.00  0.00     0.123 A 
BRANCH  28  38
ATOM     38  C   UNL     1     104.656 113.574 112.380  1.00  0.00     0.025 A 
ATOM     39  C   UNL     1     105.906 113.464 111.752  1.00  0.00     0.062 A 
ATOM     40  C   UNL     1     104.600 113.875 113.751  1.00  0.00     0.016 A 
ATOM     41  C   UNL     1     107.088 113.589 112.491  1.00  0.00     0.158 A 
ATOM     42  C   UNL     1     105.777 114.010 114.492  1.00  0.00     0.051 A 
ATOM     43  C   UNL     1     107.023 113.854 113.871  1.00  0.00     0.157 A 
BRANCH  41  44
ATOM     44  O   UNL     1     108.313 113.441 111.841  1.00  0.00    -0.504 OA
ATOM     45  H   UNL     1     109.195 113.589 112.316  1.00  0.00     0.293 HD
ENDBRANCH  41  44
BRANCH  43  46
ATOM     46  O   UNL     1     108.195 113.962 114.618  1.00  0.00    -0.504 OA
ATOM     47  H   UNL     1     108.981 114.514 114.294  1.00  0.00     0.293 HD
ENDBRANCH  43  46
ENDBRANCH  28  38
BRANCH  34  48
ATOM     48  O   UNL     1      98.944 112.217 109.456  1.00  0.00    -0.507 OA
ATOM     49  H   UNL     1      99.220 111.283 109.735  1.00  0.00     0.293 HD
ENDBRANCH  34  48
BRANCH  37  50
ATOM     50  O   UNL     1     100.255 116.418 107.476  1.00  0.00    -0.508 OA
ATOM     51  H   UNL     1     100.857 116.611 106.686  1.00  0.00     0.293 HD
ENDBRANCH  37  50
ENDBRANCH  26  27
ENDBRANCH   5  26
BRANCH   4  52
ATOM     52  O   UNL     1     101.487 108.814 112.796  1.00  0.00    -0.384 OA
ATOM     53  H   UNL     1     101.237 109.494 113.476  1.00  0.00     0.211 HD
ENDBRANCH   4  52
TORSDOF 16
ENDMDL
MODEL 7
REMARK VINA RESULT:    -6.621      2.231      3.328
REMARK INTER + INTRA:         -13.423
REMARK INTER:                 -10.536
REMARK INTRA:                  -2.887
REMARK UNBOUND:                -2.545
REMARK SMILES C[C@@H]1O[C@@H](OC[C@H]2O[C@H](Oc3c(-c4ccc(O)c(O)c4)oc4cc(O)cc(O)c4c3=O)[C@H](O)[C@@H](O)[C@@H]2O)[C@H](O)[C@@H](O)[C@H]1O
REMARK SMILES IDX 7 1 36 2 34 3 32 4 9 5 8 6 6 7 5 8 4 9 1 10 2 11 42 12 3 13
REMARK SMILES IDX 40 14 38 15 43 16 41 18 39 20 37 22 35 24 10 26 11 27 12 28
REMARK SMILES IDX 30 29 21 30 29 31 31 32 22 33 27 34 23 35 26 36 24 37 13 38
REMARK SMILES IDX 20 39 14 40 18 41 15 42 16 43 19 44 17 46 28 48 25 50 33 52
REMARK H PARENT 43 17 41 19 39 21 37 23 35 25 19 45 17 47 28 49 25 51 33 53
REMARK Flexibility Score: inf
ROOT
ATOM      1  C   UNL     1     109.608 117.220 114.047  1.00  0.00     0.180 C 
ATOM      2  C   UNL     1     110.890 116.448 114.452  1.00  0.00     0.177 C 
ATOM      3  C   UNL     1     110.704 114.939 114.192  1.00  0.00     0.180 C 
ATOM      4  C   UNL     1     110.217 114.720 112.750  1.00  0.00     0.214 C 
ATOM      5  C   UNL     1     108.995 115.607 112.454  1.00  0.00     0.339 C 
ATOM      6  O   UNL     1     109.287 116.975 112.686  1.00  0.00    -0.332 OA
ENDROOT
BRANCH   1   7
ATOM      7  C   UNL     1     109.790 118.730 114.236  1.00  0.00     0.198 C 
BRANCH   7   8
ATOM      8  O   UNL     1     111.161 119.067 114.103  1.00  0.00    -0.347 OA
BRANCH   8   9
ATOM      9  C   UNL     1     111.400 119.826 112.930  1.00  0.00     0.281 C 
ATOM     10  C   UNL     1     113.245 117.341 110.933  1.00  0.00     0.041 C 
ATOM     11  C   UNL     1     112.978 118.288 112.106  1.00  0.00     0.150 C 
ATOM     12  C   UNL     1     114.162 119.264 112.297  1.00  0.00     0.174 C 
ATOM     13  O   UNL     1     111.779 118.997 111.838  1.00  0.00    -0.344 OA
ATOM     14  C   UNL     1     113.850 120.254 113.434  1.00  0.00     0.179 C 
ATOM     15  C   UNL     1     112.472 120.903 113.209  1.00  0.00     0.202 C 
BRANCH  12  16
ATOM     16  O   UNL     1     115.332 118.545 112.593  1.00  0.00    -0.388 OA
ATOM     17  H   UNL     1     115.999 119.206 112.920  1.00  0.00     0.211 HD
ENDBRANCH  12  16
BRANCH  14  18
ATOM     18  O   UNL     1     113.881 119.583 114.670  1.00  0.00    -0.387 OA
ATOM     19  H   UNL     1     113.852 120.280 115.377  1.00  0.00     0.211 HD
ENDBRANCH  14  18
BRANCH  15  20
ATOM     20  O   UNL     1     112.555 121.790 112.123  1.00  0.00    -0.385 OA
ATOM     21  H   UNL     1     111.683 122.267 112.075  1.00  0.00     0.211 HD
ENDBRANCH  15  20
ENDBRANCH   8   9
ENDBRANCH   7   8
ENDBRANCH   1   7
BRANCH   2  22
ATOM     22  O   UNL     1     111.222 116.680 115.799  1.00  0.00    -0.387 OA
ATOM     23  H   UNL     1     110.578 117.348 116.156  1.00  0.00     0.211 HD
ENDBRANCH   2  22
BRANCH   3  24
ATOM     24  O   UNL     1     111.922 114.265 114.377  1.00  0.00    -0.387 OA
ATOM     25  H   UNL     1     112.176 113.881 113.498  1.00  0.00     0.211 HD
ENDBRANCH   3  24
BRANCH   5  26
ATOM     26  O   UNL     1     107.861 115.190 113.224  1.00  0.00    -0.454 OA
BRANCH  26  27
ATOM     27  C   UNL     1     106.615 114.897 112.652  1.00  0.00     0.214 A 
ATOM     28  C   UNL     1     105.723 115.908 112.237  1.00  0.00     0.180 A 
ATOM     29  C   UNL     1     106.251 113.559 112.470  1.00  0.00     0.239 A 
ATOM     30  O   UNL     1     104.598 115.579 111.609  1.00  0.00    -0.452 OA
ATOM     31  C   UNL     1     105.043 113.246 111.815  1.00  0.00     0.111 A 
ATOM     32  O   UNL     1     107.027 112.650 112.877  1.00  0.00    -0.285 OA
ATOM     33  C   UNL     1     104.234 114.322 111.378  1.00  0.00     0.146 A 
ATOM     34  C   UNL     1     104.619 111.918 111.568  1.00  0.00     0.134 A 
ATOM     35  C   UNL     1     103.035 114.072 110.704  1.00  0.00     0.094 A 
ATOM     36  C   UNL     1     103.413 111.688 110.889  1.00  0.00     0.093 A 
ATOM     37  C   UNL     1     102.624 112.757 110.456  1.00  0.00     0.123 A 
BRANCH  28  38
ATOM     38  C   UNL     1     105.990 117.340 112.486  1.00  0.00     0.025 A 
ATOM     39  C   UNL     1     106.417 118.163 111.434  1.00  0.00     0.062 A 
ATOM     40  C   UNL     1     105.798 117.899 113.761  1.00  0.00     0.016 A 
ATOM     41  C   UNL     1     106.712 119.512 111.659  1.00  0.00     0.158 A 
ATOM     42  C   UNL     1     106.081 119.248 113.989  1.00  0.00     0.051 A 
ATOM     43  C   UNL     1     106.552 120.056 112.946  1.00  0.00     0.157 A 
BRANCH  41  44
ATOM     44  O   UNL     1     107.166 120.293 110.597  1.00  0.00    -0.504 OA
ATOM     45  H   UNL     1     108.048 120.789 110.632  1.00  0.00     0.293 HD
ENDBRANCH  41  44
BRANCH  43  46
ATOM     46  O   UNL     1     106.859 121.395 113.183  1.00  0.00    -0.504 OA
ATOM     47  H   UNL     1     106.460 121.900 113.966  1.00  0.00     0.293 HD
ENDBRANCH  43  46
ENDBRANCH  28  38
BRANCH  34  48
ATOM     48  O   UNL     1     105.385 110.828 111.987  1.00  0.00    -0.507 OA
ATOM     49  H   UNL     1     105.167 109.883 111.698  1.00  0.00     0.293 HD
ENDBRANCH  34  48
BRANCH  37  50
ATOM     50  O   UNL     1     101.434 112.501 109.779  1.00  0.00    -0.508 OA
ATOM     51  H   UNL     1     100.688 113.185 109.743  1.00  0.00     0.293 HD
ENDBRANCH  37  50
ENDBRANCH  26  27
ENDBRANCH   5  26
BRANCH   4  52
ATOM     52  O   UNL     1     109.873 113.372 112.552  1.00  0.00    -0.384 OA
ATOM     53  H   UNL     1     110.706 112.842 112.658  1.00  0.00     0.211 HD
ENDBRANCH   4  52
TORSDOF 16
ENDMDL
MODEL 8
REMARK VINA RESULT:    -6.424      3.864      8.746
REMARK INTER + INTRA:         -13.100
REMARK INTER:                 -10.207
REMARK INTRA:                  -2.894
REMARK UNBOUND:                -2.545
REMARK SMILES C[C@@H]1O[C@@H](OC[C@H]2O[C@H](Oc3c(-c4ccc(O)c(O)c4)oc4cc(O)cc(O)c4c3=O)[C@H](O)[C@@H](O)[C@@H]2O)[C@H](O)[C@@H](O)[C@H]1O
REMARK SMILES IDX 7 1 36 2 34 3 32 4 9 5 8 6 6 7 5 8 4 9 1 10 2 11 42 12 3 13
REMARK SMILES IDX 40 14 38 15 43 16 41 18 39 20 37 22 35 24 10 26 11 27 12 28
REMARK SMILES IDX 30 29 21 30 29 31 31 32 22 33 27 34 23 35 26 36 24 37 13 38
REMARK SMILES IDX 20 39 14 40 18 41 15 42 16 43 19 44 17 46 28 48 25 50 33 52
REMARK H PARENT 43 17 41 19 39 21 37 23 35 25 19 45 17 47 28 49 25 51 33 53
REMARK Flexibility Score: inf
ROOT
ATOM      1  C   UNL     1     104.896 108.383 114.070  1.00  0.00     0.180 C 
ATOM      2  C   UNL     1     103.471 108.066 114.590  1.00  0.00     0.177 C 
ATOM      3  C   UNL     1     102.598 109.337 114.548  1.00  0.00     0.180 C 
ATOM      4  C   UNL     1     102.675 109.971 113.151  1.00  0.00     0.214 C 
ATOM      5  C   UNL     1     104.142 110.151 112.722  1.00  0.00     0.339 C 
ATOM      6  O   UNL     1     104.842 108.918 112.756  1.00  0.00    -0.332 OA
ENDROOT
BRANCH   1   7
ATOM      7  C   UNL     1     105.767 107.121 114.041  1.00  0.00     0.198 C 
BRANCH   7   8
ATOM      8  O   UNL     1     107.128 107.475 114.212  1.00  0.00    -0.347 OA
BRANCH   8   9
ATOM      9  C   UNL     1     107.994 106.509 113.640  1.00  0.00     0.281 C 
ATOM     10  C   UNL     1     111.246 108.121 114.270  1.00  0.00     0.041 C 
ATOM     11  C   UNL     1     109.844 107.964 113.676  1.00  0.00     0.150 C 
ATOM     12  C   UNL     1     109.889 108.088 112.135  1.00  0.00     0.174 C 
ATOM     13  O   UNL     1     109.340 106.695 114.064  1.00  0.00    -0.344 OA
ATOM     14  C   UNL     1     108.485 107.857 111.547  1.00  0.00     0.179 C 
ATOM     15  C   UNL     1     107.886 106.552 112.100  1.00  0.00     0.202 C 
BRANCH  12  16
ATOM     16  O   UNL     1     110.360 109.360 111.772  1.00  0.00    -0.388 OA
ATOM     17  H   UNL     1     110.361 109.911 112.599  1.00  0.00     0.211 HD
ENDBRANCH  12  16
BRANCH  14  18
ATOM     18  O   UNL     1     107.654 108.949 111.859  1.00  0.00    -0.387 OA
ATOM     19  H   UNL     1     106.777 108.776 111.428  1.00  0.00     0.211 HD
ENDBRANCH  14  18
BRANCH  15  20
ATOM     20  O   UNL     1     108.571 105.459 111.541  1.00  0.00    -0.385 OA
ATOM     21  H   UNL     1     108.335 104.663 112.086  1.00  0.00     0.211 HD
ENDBRANCH  15  20
ENDBRANCH   8   9
ENDBRANCH   7   8
ENDBRANCH   1   7
BRANCH   2  22
ATOM     22  O   UNL     1     103.508 107.533 115.892  1.00  0.00    -0.387 OA
ATOM     23  H   UNL     1     103.608 106.548 115.810  1.00  0.00     0.211 HD
ENDBRANCH   2  22
BRANCH   3  24
ATOM     24  O   UNL     1     101.262 109.012 114.837  1.00  0.00    -0.387 OA
ATOM     25  H   UNL     1     100.943 108.426 114.103  1.00  0.00     0.211 HD
ENDBRANCH   3  24
BRANCH   5  26
ATOM     26  O   UNL     1     104.797 111.132 113.536  1.00  0.00    -0.454 OA
BRANCH  26  27
ATOM     27  C   UNL     1     105.854 111.928 113.074  1.00  0.00     0.214 A 
ATOM     28  C   UNL     1     105.647 113.016 112.200  1.00  0.00     0.180 A 
ATOM     29  C   UNL     1     107.153 111.647 113.508  1.00  0.00     0.239 A 
ATOM     30  O   UNL     1     106.669 113.801 111.871  1.00  0.00    -0.452 OA
ATOM     31  C   UNL     1     108.215 112.491 113.127  1.00  0.00     0.111 A 
ATOM     32  O   UNL     1     107.349 110.650 114.257  1.00  0.00    -0.285 OA
ATOM     33  C   UNL     1     107.912 113.595 112.294  1.00  0.00     0.146 A 
ATOM     34  C   UNL     1     109.552 112.290 113.546  1.00  0.00     0.134 A 
ATOM     35  C   UNL     1     108.921 114.478 111.901  1.00  0.00     0.094 A 
ATOM     36  C   UNL     1     110.551 113.188 113.141  1.00  0.00     0.093 A 
ATOM     37  C   UNL     1     110.240 114.278 112.325  1.00  0.00     0.123 A 
BRANCH  28  38
ATOM     38  C   UNL     1     104.322 113.315 111.619  1.00  0.00     0.025 A 
ATOM     39  C   UNL     1     103.547 114.356 112.151  1.00  0.00     0.062 A 
ATOM     40  C   UNL     1     103.834 112.586 110.522  1.00  0.00     0.016 A 
ATOM     41  C   UNL     1     102.273 114.629 111.638  1.00  0.00     0.158 A 
ATOM     42  C   UNL     1     102.567 112.860 110.000  1.00  0.00     0.051 A 
ATOM     43  C   UNL     1     101.776 113.871 110.563  1.00  0.00     0.157 A 
BRANCH  41  44
ATOM     44  O   UNL     1     101.516 115.650 112.212  1.00  0.00    -0.504 OA
ATOM     45  H   UNL     1     101.672 115.967 113.162  1.00  0.00     0.293 HD
ENDBRANCH  41  44
BRANCH  43  46
ATOM     46  O   UNL     1     100.502 114.124 110.059  1.00  0.00    -0.504 OA
ATOM     47  H   UNL     1     100.227 113.813 109.134  1.00  0.00     0.293 HD
ENDBRANCH  43  46
ENDBRANCH  28  38
BRANCH  34  48
ATOM     48  O   UNL     1     109.895 111.210 114.363  1.00  0.00    -0.507 OA
ATOM     49  H   UNL     1     109.306 110.917 115.132  1.00  0.00     0.293 HD
ENDBRANCH  34  48
BRANCH  37  50
ATOM     50  O   UNL     1     111.250 115.159 111.943  1.00  0.00    -0.508 OA
ATOM     51  H   UNL     1     112.086 114.833 111.472  1.00  0.00     0.293 HD
ENDBRANCH  37  50
ENDBRANCH  26  27
ENDBRANCH   5  26
BRANCH   4  52
ATOM     52  O   UNL     1     102.032 111.220 113.146  1.00  0.00    -0.384 OA
ATOM     53  H   UNL     1     101.079 111.056 113.372  1.00  0.00     0.211 HD
ENDBRANCH   4  52
TORSDOF 16
ENDMDL
MODEL 9
REMARK VINA RESULT:    -6.410      3.714      7.492
REMARK INTER + INTRA:         -13.077
REMARK INTER:                 -10.158
REMARK INTRA:                  -2.919
REMARK UNBOUND:                -2.545
REMARK SMILES C[C@@H]1O[C@@H](OC[C@H]2O[C@H](Oc3c(-c4ccc(O)c(O)c4)oc4cc(O)cc(O)c4c3=O)[C@H](O)[C@@H](O)[C@@H]2O)[C@H](O)[C@@H](O)[C@H]1O
REMARK SMILES IDX 7 1 36 2 34 3 32 4 9 5 8 6 6 7 5 8 4 9 1 10 2 11 42 12 3 13
REMARK SMILES IDX 40 14 38 15 43 16 41 18 39 20 37 22 35 24 10 26 11 27 12 28
REMARK SMILES IDX 30 29 21 30 29 31 31 32 22 33 27 34 23 35 26 36 24 37 13 38
REMARK SMILES IDX 20 39 14 40 18 41 15 42 16 43 19 44 17 46 28 48 25 50 33 52
REMARK H PARENT 43 17 41 19 39 21 37 23 35 25 19 45 17 47 28 49 25 51 33 53
REMARK Flexibility Score: inf
ROOT
ATOM      1  C   UNL     1     111.496 119.631 113.919  1.00  0.00     0.180 C 
ATOM      2  C   UNL     1     112.931 120.050 114.328  1.00  0.00     0.177 C 
ATOM      3  C   UNL     1     113.813 120.209 113.073  1.00  0.00     0.180 C 
ATOM      4  C   UNL     1     113.111 121.127 112.060  1.00  0.00     0.214 C 
ATOM      5  C   UNL     1     111.670 120.649 111.809  1.00  0.00     0.339 C 
ATOM      6  O   UNL     1     110.936 120.577 113.020  1.00  0.00    -0.332 OA
ENDROOT
BRANCH   1   7
ATOM      7  C   UNL     1     110.580 119.528 115.144  1.00  0.00     0.198 C 
BRANCH   7   8
ATOM      8  O   UNL     1     110.618 118.209 115.660  1.00  0.00    -0.347 OA
BRANCH   8   9
ATOM      9  C   UNL     1     110.061 117.276 114.750  1.00  0.00     0.281 C 
ATOM     10  C   UNL     1     108.815 114.744 117.118  1.00  0.00     0.041 C 
ATOM     11  C   UNL     1     109.854 115.606 116.394  1.00  0.00     0.150 C 
ATOM     12  C   UNL     1     110.947 114.717 115.756  1.00  0.00     0.174 C 
ATOM     13  O   UNL     1     109.182 116.367 115.403  1.00  0.00    -0.344 OA
ATOM     14  C   UNL     1     111.944 115.590 114.973  1.00  0.00     0.179 C 
ATOM     15  C   UNL     1     111.189 116.524 114.010  1.00  0.00     0.202 C 
BRANCH  12  16
ATOM     16  O   UNL     1     111.620 113.995 116.756  1.00  0.00    -0.388 OA
ATOM     17  H   UNL     1     111.303 114.352 117.628  1.00  0.00     0.211 HD
ENDBRANCH  12  16
BRANCH  14  18
ATOM     18  O   UNL     1     112.727 116.339 115.870  1.00  0.00    -0.387 OA
ATOM     19  H   UNL     1     112.098 116.849 116.445  1.00  0.00     0.211 HD
ENDBRANCH  14  18
BRANCH  15  20
ATOM     20  O   UNL     1     110.649 115.762 112.960  1.00  0.00    -0.385 OA
ATOM     21  H   UNL     1     109.896 115.238 113.344  1.00  0.00     0.211 HD
ENDBRANCH  15  20
ENDBRANCH   8   9
ENDBRANCH   7   8
ENDBRANCH   1   7
BRANCH   2  22
ATOM     22  O   UNL     1     113.500 119.122 115.219  1.00  0.00    -0.387 OA
ATOM     23  H   UNL     1     113.925 119.636 115.956  1.00  0.00     0.211 HD
ENDBRANCH   2  22
BRANCH   3  24
ATOM     24  O   UNL     1     115.053 120.770 113.425  1.00  0.00    -0.387 OA
ATOM     25  H   UNL     1     115.177 120.609 114.396  1.00  0.00     0.211 HD
ENDBRANCH   3  24
BRANCH   5  26
ATOM     26  O   UNL     1     111.660 119.386 111.132  1.00  0.00    -0.454 OA
BRANCH  26  27
ATOM     27  C   UNL     1     111.125 119.211 109.849  1.00  0.00     0.214 A 
ATOM     28  C   UNL     1     109.736 119.245 109.604  1.00  0.00     0.180 A 
ATOM     29  C   UNL     1     111.996 119.014 108.772  1.00  0.00     0.239 A 
ATOM     30  O   UNL     1     109.284 119.174 108.355  1.00  0.00    -0.452 OA
ATOM     31  C   UNL     1     111.481 118.927 107.464  1.00  0.00     0.111 A 
ATOM     32  O   UNL     1     113.237 118.941 108.991  1.00  0.00    -0.285 OA
ATOM     33  C   UNL     1     110.079 119.030 107.300  1.00  0.00     0.146 A 
ATOM     34  C   UNL     1     112.299 118.757 106.321  1.00  0.00     0.134 A 
ATOM     35  C   UNL     1     109.513 118.972 106.023  1.00  0.00     0.094 A 
ATOM     36  C   UNL     1     111.712 118.701 105.047  1.00  0.00     0.093 A 
ATOM     37  C   UNL     1     110.327 118.810 104.896  1.00  0.00     0.123 A 
BRANCH  28  38
ATOM     38  C   UNL     1     108.749 119.348 110.699  1.00  0.00     0.025 A 
ATOM     39  C   UNL     1     108.424 118.211 111.454  1.00  0.00     0.062 A 
ATOM     40  C   UNL     1     108.147 120.577 111.014  1.00  0.00     0.016 A 
ATOM     41  C   UNL     1     107.465 118.281 112.470  1.00  0.00     0.158 A 
ATOM     42  C   UNL     1     107.194 120.655 112.035  1.00  0.00     0.051 A 
ATOM     43  C   UNL     1     106.839 119.508 112.756  1.00  0.00     0.157 A 
BRANCH  41  44
ATOM     44  O   UNL     1     107.142 117.124 113.178  1.00  0.00    -0.504 OA
ATOM     45  H   UNL     1     106.269 117.028 113.683  1.00  0.00     0.293 HD
ENDBRANCH  41  44
BRANCH  43  46
ATOM     46  O   UNL     1     105.869 119.582 113.754  1.00  0.00    -0.504 OA
ATOM     47  H   UNL     1     104.910 119.833 113.543  1.00  0.00     0.293 HD
ENDBRANCH  43  46
ENDBRANCH  28  38
BRANCH  34  48
ATOM     48  O   UNL     1     113.686 118.645 106.438  1.00  0.00    -0.507 OA
ATOM     49  H   UNL     1     114.277 119.460 106.550  1.00  0.00     0.293 HD
ENDBRANCH  34  48
BRANCH  37  50
ATOM     50  O   UNL     1     109.771 118.758 103.620  1.00  0.00    -0.508 OA
ATOM     51  H   UNL     1     109.720 119.580 103.031  1.00  0.00     0.293 HD
ENDBRANCH  37  50
ENDBRANCH  26  27
ENDBRANCH   5  26
BRANCH   4  52
ATOM     52  O   UNL     1     113.815 121.140 110.845  1.00  0.00    -0.384 OA
ATOM     53  H   UNL     1     114.749 120.867 111.048  1.00  0.00     0.211 HD
ENDBRANCH   4  52
TORSDOF 16
ENDMDL
