MODEL 1
REMARK VINA RESULT:    -5.254      0.000      0.000
REMARK INTER + INTRA:          -5.561
REMARK INTER:                  -5.561
REMARK INTRA:                   0.000
REMARK UNBOUND:                 0.000
REMARK SMILES O=c1ccc2cc(O)c(O)cc2o1
REMARK SMILES IDX 4 1 3 2 2 3 1 4 13 5 12 6 11 7 9 8 7 9 6 10 5 11 8 12 10 14
REMARK H PARENT 8 13 10 15
REMARK Flexibility Score: inf
ROOT
ATOM      1  C   UNL     1     -20.635  30.362  -3.150  1.00  0.00     0.019 A 
ATOM      2  C   UNL     1     -19.316  30.621  -3.521  1.00  0.00     0.094 A 
ATOM      3  C   UNL     1     -18.794  31.904  -3.319  1.00  0.00     0.336 A 
ATOM      4  O   UNL     1     -17.605  32.158  -3.647  1.00  0.00    -0.246 OA
ATOM      5  O   UNL     1     -19.548  32.860  -2.782  1.00  0.00    -0.423 OA
ATOM      6  C   UNL     1     -20.810  32.655  -2.415  1.00  0.00     0.142 A 
ATOM      7  C   UNL     1     -21.554  33.698  -1.855  1.00  0.00     0.098 A 
ATOM      8  C   UNL     1     -22.883  33.491  -1.465  1.00  0.00     0.161 A 
ATOM      9  C   UNL     1     -23.475  32.226  -1.638  1.00  0.00     0.158 A 
ATOM     10  C   UNL     1     -22.733  31.177  -2.198  1.00  0.00     0.062 A 
ATOM     11  C   UNL     1     -21.404  31.386  -2.588  1.00  0.00     0.022 A 
ENDROOT
BRANCH   9  12
ATOM     12  O   UNL     1     -24.799  32.019  -1.250  1.00  0.00    -0.504 OA
ATOM     13  H   UNL     1     -25.035  31.704  -0.317  1.00  0.00     0.293 HD
ENDBRANCH   9  12
BRANCH   8  14
ATOM     14  O   UNL     1     -23.597  34.552  -0.910  1.00  0.00    -0.504 OA
ATOM     15  H   UNL     1     -23.136  35.343  -0.477  1.00  0.00     0.293 HD
ENDBRANCH   8  14
TORSDOF 2
ENDMDL
MODEL 2
REMARK VINA RESULT:    -5.178      1.175      2.275
REMARK INTER + INTRA:          -5.481
REMARK INTER:                  -5.481
REMARK INTRA:                   0.000
REMARK UNBOUND:                 0.000
REMARK SMILES O=c1ccc2cc(O)c(O)cc2o1
REMARK SMILES IDX 4 1 3 2 2 3 1 4 13 5 12 6 11 7 9 8 7 9 6 10 5 11 8 12 10 14
REMARK H PARENT 8 13 10 15
REMARK Flexibility Score: inf
ROOT
ATOM      1  C   UNL     1     -19.492  32.801  -2.778  1.00  0.00     0.019 A 
ATOM      2  C   UNL     1     -18.788  31.728  -3.326  1.00  0.00     0.094 A 
ATOM      3  C   UNL     1     -19.439  30.501  -3.485  1.00  0.00     0.336 A 
ATOM      4  O   UNL     1     -18.821  29.520  -3.978  1.00  0.00    -0.246 OA
ATOM      5  O   UNL     1     -20.711  30.361  -3.119  1.00  0.00    -0.423 OA
ATOM      6  C   UNL     1     -21.418  31.357  -2.593  1.00  0.00     0.142 A 
ATOM      7  C   UNL     1     -22.752  31.152  -2.227  1.00  0.00     0.098 A 
ATOM      8  C   UNL     1     -23.504  32.195  -1.673  1.00  0.00     0.161 A 
ATOM      9  C   UNL     1     -22.915  33.459  -1.482  1.00  0.00     0.158 A 
ATOM     10  C   UNL     1     -21.577  33.671  -1.848  1.00  0.00     0.062 A 
ATOM     11  C   UNL     1     -20.827  32.625  -2.402  1.00  0.00     0.022 A 
ENDROOT
BRANCH   9  12
ATOM     12  O   UNL     1     -23.662  34.499  -0.931  1.00  0.00    -0.504 OA
ATOM     13  H   UNL     1     -24.129  35.184  -1.513  1.00  0.00     0.293 HD
ENDBRANCH   9  12
BRANCH   8  14
ATOM     14  O   UNL     1     -24.831  31.958  -1.319  1.00  0.00    -0.504 OA
ATOM     15  H   UNL     1     -25.602  32.429  -1.776  1.00  0.00     0.293 HD
ENDBRANCH   8  14
TORSDOF 2
ENDMDL
MODEL 3
REMARK VINA RESULT:    -5.156      1.463      1.830
REMARK INTER + INTRA:          -5.457
REMARK INTER:                  -5.457
REMARK INTRA:                   0.000
REMARK UNBOUND:                 0.000
REMARK SMILES O=c1ccc2cc(O)c(O)cc2o1
REMARK SMILES IDX 4 1 3 2 2 3 1 4 13 5 12 6 11 7 9 8 7 9 6 10 5 11 8 12 10 14
REMARK H PARENT 8 13 10 15
REMARK Flexibility Score: inf
ROOT
ATOM      1  C   UNL     1     -18.354  30.451  -2.461  1.00  0.00     0.019 A 
ATOM      2  C   UNL     1     -17.321  30.966  -3.244  1.00  0.00     0.094 A 
ATOM      3  C   UNL     1     -17.537  32.149  -3.959  1.00  0.00     0.336 A 
ATOM      4  O   UNL     1     -16.617  32.630  -4.671  1.00  0.00    -0.246 OA
ATOM      5  O   UNL     1     -18.711  32.771  -3.892  1.00  0.00    -0.423 OA
ATOM      6  C   UNL     1     -19.722  32.314  -3.158  1.00  0.00     0.142 A 
ATOM      7  C   UNL     1     -20.934  33.011  -3.126  1.00  0.00     0.098 A 
ATOM      8  C   UNL     1     -22.004  32.537  -2.356  1.00  0.00     0.161 A 
ATOM      9  C   UNL     1     -21.860  31.353  -1.610  1.00  0.00     0.158 A 
ATOM     10  C   UNL     1     -20.646  30.650  -1.638  1.00  0.00     0.062 A 
ATOM     11  C   UNL     1     -19.578  31.126  -2.410  1.00  0.00     0.022 A 
ENDROOT
BRANCH   9  12
ATOM     12  O   UNL     1     -22.924  30.880  -0.843  1.00  0.00    -0.504 OA
ATOM     13  H   UNL     1     -23.414  31.479  -0.189  1.00  0.00     0.293 HD
ENDBRANCH   9  12
BRANCH   8  14
ATOM     14  O   UNL     1     -23.198  33.255  -2.345  1.00  0.00    -0.504 OA
ATOM     15  H   UNL     1     -24.088  32.818  -2.135  1.00  0.00     0.293 HD
ENDBRANCH   8  14
TORSDOF 2
ENDMDL
MODEL 4
REMARK VINA RESULT:    -5.101      1.690      2.605
REMARK INTER + INTRA:          -5.400
REMARK INTER:                  -5.400
REMARK INTRA:                   0.000
REMARK UNBOUND:                 0.000
REMARK SMILES O=c1ccc2cc(O)c(O)cc2o1
REMARK SMILES IDX 4 1 3 2 2 3 1 4 13 5 12 6 11 7 9 8 7 9 6 10 5 11 8 12 10 14
REMARK H PARENT 8 13 10 15
REMARK Flexibility Score: inf
ROOT
ATOM      1  C   UNL     1     -18.529  32.660  -3.799  1.00  0.00     0.019 A 
ATOM      2  C   UNL     1     -17.369  31.886  -3.761  1.00  0.00     0.094 A 
ATOM      3  C   UNL     1     -17.365  30.706  -3.010  1.00  0.00     0.336 A 
ATOM      4  O   UNL     1     -16.328  29.994  -2.964  1.00  0.00    -0.246 OA
ATOM      5  O   UNL     1     -18.453  30.329  -2.343  1.00  0.00    -0.423 OA
ATOM      6  C   UNL     1     -19.580  31.036  -2.352  1.00  0.00     0.142 A 
ATOM      7  C   UNL     1     -20.692  30.590  -1.632  1.00  0.00     0.098 A 
ATOM      8  C   UNL     1     -21.881  31.329  -1.636  1.00  0.00     0.161 A 
ATOM      9  C   UNL     1     -21.960  32.528  -2.369  1.00  0.00     0.158 A 
ATOM     10  C   UNL     1     -20.847  32.980  -3.093  1.00  0.00     0.062 A 
ATOM     11  C   UNL     1     -19.658  32.239  -3.088  1.00  0.00     0.022 A 
ENDROOT
BRANCH   9  12
ATOM     12  O   UNL     1     -23.144  33.265  -2.374  1.00  0.00    -0.504 OA
ATOM     13  H   UNL     1     -23.295  34.021  -3.031  1.00  0.00     0.293 HD
ENDBRANCH   9  12
BRANCH   8  14
ATOM     14  O   UNL     1     -22.972  30.857  -0.908  1.00  0.00    -0.504 OA
ATOM     15  H   UNL     1     -22.874  30.486   0.029  1.00  0.00     0.293 HD
ENDBRANCH   8  14
TORSDOF 2
ENDMDL
MODEL 5
REMARK VINA RESULT:    -5.022      1.597      4.960
REMARK INTER + INTRA:          -5.315
REMARK INTER:                  -5.315
REMARK INTRA:                   0.000
REMARK UNBOUND:                 0.000
REMARK SMILES O=c1ccc2cc(O)c(O)cc2o1
REMARK SMILES IDX 4 1 3 2 2 3 1 4 13 5 12 6 11 7 9 8 7 9 6 10 5 11 8 12 10 14
REMARK H PARENT 8 13 10 15
REMARK Flexibility Score: inf
ROOT
ATOM      1  C   UNL     1     -20.552  30.270  -1.255  1.00  0.00     0.019 A 
ATOM      2  C   UNL     1     -21.872  30.720  -1.257  1.00  0.00     0.094 A 
ATOM      3  C   UNL     1     -22.220  31.797  -2.079  1.00  0.00     0.336 A 
ATOM      4  O   UNL     1     -23.407  32.217  -2.096  1.00  0.00    -0.246 OA
ATOM      5  O   UNL     1     -21.304  32.382  -2.846  1.00  0.00    -0.423 OA
ATOM      6  C   UNL     1     -20.034  31.985  -2.874  1.00  0.00     0.142 A 
ATOM      7  C   UNL     1     -19.115  32.638  -3.701  1.00  0.00     0.098 A 
ATOM      8  C   UNL     1     -17.777  32.226  -3.736  1.00  0.00     0.161 A 
ATOM      9  C   UNL     1     -17.353  31.149  -2.935  1.00  0.00     0.158 A 
ATOM     10  C   UNL     1     -18.271  30.491  -2.105  1.00  0.00     0.062 A 
ATOM     11  C   UNL     1     -19.610  30.904  -2.071  1.00  0.00     0.022 A 
ENDROOT
BRANCH   9  12
ATOM     12  O   UNL     1     -16.021  30.738  -2.970  1.00  0.00    -0.504 OA
ATOM     13  H   UNL     1     -15.334  31.214  -3.542  1.00  0.00     0.293 HD
ENDBRANCH   9  12
BRANCH   8  14
ATOM     14  O   UNL     1     -16.885  32.898  -4.571  1.00  0.00    -0.504 OA
ATOM     15  H   UNL     1     -16.573  32.506  -5.452  1.00  0.00     0.293 HD
ENDBRANCH   8  14
TORSDOF 2
ENDMDL
MODEL 6
REMARK VINA RESULT:    -4.991      8.728     10.654
REMARK INTER + INTRA:          -5.283
REMARK INTER:                  -5.283
REMARK INTRA:                   0.000
REMARK UNBOUND:                 0.000
REMARK SMILES O=c1ccc2cc(O)c(O)cc2o1
REMARK SMILES IDX 4 1 3 2 2 3 1 4 13 5 12 6 11 7 9 8 7 9 6 10 5 11 8 12 10 14
REMARK H PARENT 8 13 10 15
REMARK Flexibility Score: inf
ROOT
ATOM      1  C   UNL     1     -21.404  24.484  -4.626  1.00  0.00     0.019 A 
ATOM      2  C   UNL     1     -22.512  23.797  -5.122  1.00  0.00     0.094 A 
ATOM      3  C   UNL     1     -22.461  22.403  -5.212  1.00  0.00     0.336 A 
ATOM      4  O   UNL     1     -23.452  21.764  -5.657  1.00  0.00    -0.246 OA
ATOM      5  O   UNL     1     -21.371  21.742  -4.829  1.00  0.00    -0.423 OA
ATOM      6  C   UNL     1     -20.293  22.358  -4.351  1.00  0.00     0.142 A 
ATOM      7  C   UNL     1     -19.175  21.612  -3.965  1.00  0.00     0.098 A 
ATOM      8  C   UNL     1     -18.036  22.252  -3.460  1.00  0.00     0.161 A 
ATOM      9  C   UNL     1     -18.015  23.654  -3.341  1.00  0.00     0.158 A 
ATOM     10  C   UNL     1     -19.133  24.407  -3.727  1.00  0.00     0.062 A 
ATOM     11  C   UNL     1     -20.272  23.765  -4.232  1.00  0.00     0.022 A 
ENDROOT
BRANCH   9  12
ATOM     12  O   UNL     1     -16.881  24.293  -2.838  1.00  0.00    -0.504 OA
ATOM     13  H   UNL     1     -16.952  25.051  -2.170  1.00  0.00     0.293 HD
ENDBRANCH   9  12
BRANCH   8  14
ATOM     14  O   UNL     1     -16.939  21.480  -3.083  1.00  0.00    -0.504 OA
ATOM     15  H   UNL     1     -16.338  21.740  -2.310  1.00  0.00     0.293 HD
ENDBRANCH   8  14
TORSDOF 2
ENDMDL
MODEL 7
REMARK VINA RESULT:    -4.967      1.750      5.306
REMARK INTER + INTRA:          -5.257
REMARK INTER:                  -5.257
REMARK INTRA:                   0.000
REMARK UNBOUND:                 0.000
REMARK SMILES O=c1ccc2cc(O)c(O)cc2o1
REMARK SMILES IDX 4 1 3 2 2 3 1 4 13 5 12 6 11 7 9 8 7 9 6 10 5 11 8 12 10 14
REMARK H PARENT 8 13 10 15
REMARK Flexibility Score: inf
ROOT
ATOM      1  C   UNL     1     -20.619  33.011  -3.909  1.00  0.00     0.019 A 
ATOM      2  C   UNL     1     -21.811  32.945  -3.188  1.00  0.00     0.094 A 
ATOM      3  C   UNL     1     -21.871  32.139  -2.047  1.00  0.00     0.336 A 
ATOM      4  O   UNL     1     -22.938  32.067  -1.382  1.00  0.00    -0.246 OA
ATOM      5  O   UNL     1     -20.804  31.444  -1.657  1.00  0.00    -0.423 OA
ATOM      6  C   UNL     1     -19.649  31.478  -2.315  1.00  0.00     0.142 A 
ATOM      7  C   UNL     1     -18.562  30.726  -1.858  1.00  0.00     0.098 A 
ATOM      8  C   UNL     1     -17.341  30.756  -2.545  1.00  0.00     0.161 A 
ATOM      9  C   UNL     1     -17.207  31.546  -3.702  1.00  0.00     0.158 A 
ATOM     10  C   UNL     1     -18.294  32.301  -4.164  1.00  0.00     0.062 A 
ATOM     11  C   UNL     1     -19.514  32.270  -3.476  1.00  0.00     0.022 A 
ENDROOT
BRANCH   9  12
ATOM     12  O   UNL     1     -15.992  31.576  -4.387  1.00  0.00    -0.504 OA
ATOM     13  H   UNL     1     -15.127  31.292  -3.944  1.00  0.00     0.293 HD
ENDBRANCH   9  12
BRANCH   8  14
ATOM     14  O   UNL     1     -16.277  29.996  -2.063  1.00  0.00    -0.504 OA
ATOM     15  H   UNL     1     -16.416  29.198  -1.454  1.00  0.00     0.293 HD
ENDBRANCH   8  14
TORSDOF 2
ENDMDL
MODEL 8
REMARK VINA RESULT:    -4.881      1.870      5.081
REMARK INTER + INTRA:          -5.166
REMARK INTER:                  -5.166
REMARK INTRA:                   0.000
REMARK UNBOUND:                 0.000
REMARK SMILES O=c1ccc2cc(O)c(O)cc2o1
REMARK SMILES IDX 4 1 3 2 2 3 1 4 13 5 12 6 11 7 9 8 7 9 6 10 5 11 8 12 10 14
REMARK H PARENT 8 13 10 15
REMARK Flexibility Score: inf
ROOT
ATOM      1  C   UNL     1     -20.956  30.996  -4.214  1.00  0.00     0.019 A 
ATOM      2  C   UNL     1     -21.812  31.989  -3.737  1.00  0.00     0.094 A 
ATOM      3  C   UNL     1     -21.378  32.813  -2.694  1.00  0.00     0.336 A 
ATOM      4  O   UNL     1     -22.134  33.716  -2.249  1.00  0.00    -0.246 OA
ATOM      5  O   UNL     1     -20.167  32.650  -2.166  1.00  0.00    -0.423 OA
ATOM      6  C   UNL     1     -19.321  31.715  -2.591  1.00  0.00     0.142 A 
ATOM      7  C   UNL     1     -18.061  31.591  -1.998  1.00  0.00     0.098 A 
ATOM      8  C   UNL     1     -17.164  30.610  -2.439  1.00  0.00     0.161 A 
ATOM      9  C   UNL     1     -17.532  29.743  -3.485  1.00  0.00     0.158 A 
ATOM     10  C   UNL     1     -18.794  29.864  -4.084  1.00  0.00     0.062 A 
ATOM     11  C   UNL     1     -19.690  30.846  -3.641  1.00  0.00     0.022 A 
ENDROOT
BRANCH   9  12
ATOM     12  O   UNL     1     -16.640  28.766  -3.926  1.00  0.00    -0.504 OA
ATOM     13  H   UNL     1     -16.791  27.783  -3.731  1.00  0.00     0.293 HD
ENDBRANCH   9  12
BRANCH   8  14
ATOM     14  O   UNL     1     -15.916  30.512  -1.827  1.00  0.00    -0.504 OA
ATOM     15  H   UNL     1     -15.211  29.857  -2.144  1.00  0.00     0.293 HD
ENDBRANCH   8  14
TORSDOF 2
ENDMDL
MODEL 9
REMARK VINA RESULT:    -4.864      2.517      5.489
REMARK INTER + INTRA:          -5.149
REMARK INTER:                  -5.149
REMARK INTRA:                   0.000
REMARK UNBOUND:                 0.000
REMARK SMILES O=c1ccc2cc(O)c(O)cc2o1
REMARK SMILES IDX 4 1 3 2 2 3 1 4 13 5 12 6 11 7 9 8 7 9 6 10 5 11 8 12 10 14
REMARK H PARENT 8 13 10 15
REMARK Flexibility Score: inf
ROOT
ATOM      1  C   UNL     1     -20.243  32.651  -2.439  1.00  0.00     0.019 A 
ATOM      2  C   UNL     1     -21.453  32.583  -3.130  1.00  0.00     0.094 A 
ATOM      3  C   UNL     1     -21.629  31.584  -4.093  1.00  0.00     0.336 A 
ATOM      4  O   UNL     1     -22.714  31.506  -4.727  1.00  0.00    -0.246 OA
ATOM      5  O   UNL     1     -20.655  30.713  -4.345  1.00  0.00    -0.423 OA
ATOM      6  C   UNL     1     -19.486  30.742  -3.710  1.00  0.00     0.142 A 
ATOM      7  C   UNL     1     -18.500  29.800  -4.017  1.00  0.00     0.098 A 
ATOM      8  C   UNL     1     -17.267  29.823  -3.353  1.00  0.00     0.161 A 
ATOM      9  C   UNL     1     -17.018  30.801  -2.371  1.00  0.00     0.158 A 
ATOM     10  C   UNL     1     -18.004  31.748  -2.059  1.00  0.00     0.062 A 
ATOM     11  C   UNL     1     -19.237  31.723  -2.725  1.00  0.00     0.022 A 
ENDROOT
BRANCH   9  12
ATOM     12  O   UNL     1     -15.791  30.825  -1.709  1.00  0.00    -0.504 OA
ATOM     13  H   UNL     1     -15.688  31.254  -0.797  1.00  0.00     0.293 HD
ENDBRANCH   9  12
BRANCH   8  14
ATOM     14  O   UNL     1     -16.305  28.870  -3.681  1.00  0.00    -0.504 OA
ATOM     15  H   UNL     1     -15.921  28.792  -4.616  1.00  0.00     0.293 HD
ENDBRANCH   8  14
TORSDOF 2
ENDMDL
