MODEL 1
REMARK VINA RESULT:    -4.759      0.000      0.000
REMARK INTER + INTRA:          -5.816
REMARK INTER:                  -5.732
REMARK INTRA:                  -0.083
REMARK UNBOUND:                -0.083
REMARK SMILES O=c1c(O)c(-c2ccc(O)c(O)c2)oc2cc(O)cc(O)c12
REMARK SMILES IDX 5 1 3 2 2 3 1 4 22 5 20 6 19 7 17 8 16 9 15 10 14 11 6 12
REMARK SMILES IDX 7 13 8 14 9 15 13 16 11 17 10 18 12 20 4 22 21 24 18 26
REMARK H PARENT 10 19 12 21 4 23 21 25 18 27
REMARK Flexibility Score: inf
ROOT
ATOM      1  C   UNL     1      20.747  48.122  88.238  1.00  0.00     0.180 A 
ATOM      2  C   UNL     1      21.491  48.244  87.052  1.00  0.00     0.208 A 
ATOM      3  C   UNL     1      22.319  47.181  86.655  1.00  0.00     0.238 A 
ATOM      4  O   UNL     1      23.025  47.319  85.622  1.00  0.00    -0.285 OA
ATOM      5  C   UNL     1      22.379  46.005  87.439  1.00  0.00     0.111 A 
ATOM      6  C   UNL     1      23.152  44.850  87.110  1.00  0.00     0.134 A 
ATOM      7  C   UNL     1      23.239  43.793  88.025  1.00  0.00     0.093 A 
ATOM      8  C   UNL     1      22.527  43.821  89.227  1.00  0.00     0.123 A 
ATOM      9  C   UNL     1      21.723  44.918  89.530  1.00  0.00     0.094 A 
ATOM     10  C   UNL     1      21.645  46.003  88.653  1.00  0.00     0.146 A 
ATOM     11  O   UNL     1      20.875  47.031  88.985  1.00  0.00    -0.452 OA
ENDROOT
BRANCH   1  12
ATOM     12  C   UNL     1      19.834  49.188  88.708  1.00  0.00     0.025 A 
ATOM     13  C   UNL     1      18.467  48.941  88.924  1.00  0.00     0.016 A 
ATOM     14  C   UNL     1      17.629  49.958  89.391  1.00  0.00     0.051 A 
ATOM     15  C   UNL     1      18.147  51.231  89.661  1.00  0.00     0.157 A 
ATOM     16  C   UNL     1      20.351  50.462  89.000  1.00  0.00     0.062 A 
ATOM     17  C   UNL     1      19.512  51.483  89.468  1.00  0.00     0.158 A 
BRANCH  15  18
ATOM     18  O   UNL     1      17.316  52.248  90.125  1.00  0.00    -0.504 OA
ATOM     19  H   UNL     1      17.686  53.152  90.397  1.00  0.00     0.293 HD
ENDBRANCH  15  18
BRANCH  17  20
ATOM     20  O   UNL     1      20.025  52.749  89.745  1.00  0.00    -0.504 OA
ATOM     21  H   UNL     1      19.840  53.539  89.138  1.00  0.00     0.293 HD
ENDBRANCH  17  20
ENDBRANCH   1  12
BRANCH   2  22
ATOM     22  O   UNL     1      21.435  49.424  86.304  1.00  0.00    -0.502 OA
ATOM     23  H   UNL     1      22.255  49.836  85.875  1.00  0.00     0.293 HD
ENDBRANCH   2  22
BRANCH   6  24
ATOM     24  O   UNL     1      23.826  44.682  85.897  1.00  0.00    -0.507 OA
ATOM     25  H   UNL     1      24.736  44.259  85.800  1.00  0.00     0.293 HD
ENDBRANCH   6  24
BRANCH   8  26
ATOM     26  O   UNL     1      22.606  42.759  90.125  1.00  0.00    -0.508 OA
ATOM     27  H   UNL     1      23.435  42.180  90.188  1.00  0.00     0.293 HD
ENDBRANCH   8  26
TORSDOF 6
ENDMDL
MODEL 2
REMARK VINA RESULT:    -4.717      2.579      7.389
REMARK INTER + INTRA:          -5.765
REMARK INTER:                  -5.596
REMARK INTRA:                  -0.169
REMARK UNBOUND:                -0.083
REMARK SMILES O=c1c(O)c(-c2ccc(O)c(O)c2)oc2cc(O)cc(O)c12
REMARK SMILES IDX 5 1 3 2 2 3 1 4 22 5 20 6 19 7 17 8 16 9 15 10 14 11 6 12
REMARK SMILES IDX 7 13 8 14 9 15 13 16 11 17 10 18 12 20 4 22 21 24 18 26
REMARK H PARENT 10 19 12 21 4 23 21 25 18 27
REMARK Flexibility Score: inf
ROOT
ATOM      1  C   UNL     1      23.548  46.173  87.218  1.00  0.00     0.180 A 
ATOM      2  C   UNL     1      23.032  45.375  88.254  1.00  0.00     0.208 A 
ATOM      3  C   UNL     1      21.894  45.815  88.950  1.00  0.00     0.238 A 
ATOM      4  O   UNL     1      21.470  45.123  89.912  1.00  0.00    -0.285 OA
ATOM      5  C   UNL     1      21.278  47.037  88.591  1.00  0.00     0.111 A 
ATOM      6  C   UNL     1      20.098  47.560  89.201  1.00  0.00     0.134 A 
ATOM      7  C   UNL     1      19.651  48.841  88.855  1.00  0.00     0.093 A 
ATOM      8  C   UNL     1      20.303  49.590  87.873  1.00  0.00     0.123 A 
ATOM      9  C   UNL     1      21.421  49.065  87.230  1.00  0.00     0.094 A 
ATOM     10  C   UNL     1      21.912  47.804  87.580  1.00  0.00     0.146 A 
ATOM     11  O   UNL     1      22.985  47.345  86.948  1.00  0.00    -0.452 OA
ENDROOT
BRANCH   1  12
ATOM     12  C   UNL     1      24.727  45.764  86.423  1.00  0.00     0.025 A 
ATOM     13  C   UNL     1      24.713  44.599  85.635  1.00  0.00     0.016 A 
ATOM     14  C   UNL     1      25.831  44.245  84.874  1.00  0.00     0.051 A 
ATOM     15  C   UNL     1      26.973  45.058  84.877  1.00  0.00     0.157 A 
ATOM     16  C   UNL     1      25.868  46.584  86.406  1.00  0.00     0.062 A 
ATOM     17  C   UNL     1      26.990  46.231  85.643  1.00  0.00     0.158 A 
BRANCH  15  18
ATOM     18  O   UNL     1      28.090  44.708  84.121  1.00  0.00    -0.504 OA
ATOM     19  H   UNL     1      28.010  44.468  83.140  1.00  0.00     0.293 HD
ENDBRANCH  15  18
BRANCH  17  20
ATOM     20  O   UNL     1      28.125  47.040  85.638  1.00  0.00    -0.504 OA
ATOM     21  H   UNL     1      28.095  47.996  85.973  1.00  0.00     0.293 HD
ENDBRANCH  17  20
ENDBRANCH   1  12
BRANCH   2  22
ATOM     22  O   UNL     1      23.669  44.182  88.607  1.00  0.00    -0.502 OA
ATOM     23  H   UNL     1      23.281  43.272  88.388  1.00  0.00     0.293 HD
ENDBRANCH   2  22
BRANCH   6  24
ATOM     24  O   UNL     1      19.319  46.856  90.125  1.00  0.00    -0.507 OA
ATOM     25  H   UNL     1      18.566  47.255  90.663  1.00  0.00     0.293 HD
ENDBRANCH   6  24
BRANCH   8  26
ATOM     26  O   UNL     1      19.842  50.858  87.523  1.00  0.00    -0.508 OA
ATOM     27  H   UNL     1      18.853  51.077  87.511  1.00  0.00     0.293 HD
ENDBRANCH   8  26
TORSDOF 6
ENDMDL
MODEL 3
REMARK VINA RESULT:    -4.625      2.446      7.479
REMARK INTER + INTRA:          -5.654
REMARK INTER:                  -5.524
REMARK INTRA:                  -0.131
REMARK UNBOUND:                -0.083
REMARK SMILES O=c1c(O)c(-c2ccc(O)c(O)c2)oc2cc(O)cc(O)c12
REMARK SMILES IDX 5 1 3 2 2 3 1 4 22 5 20 6 19 7 17 8 16 9 15 10 14 11 6 12
REMARK SMILES IDX 7 13 8 14 9 15 13 16 11 17 10 18 12 20 4 22 21 24 18 26
REMARK H PARENT 10 19 12 21 4 23 21 25 18 27
REMARK Flexibility Score: inf
ROOT
ATOM      1  C   UNL     1      23.467  46.400  87.334  1.00  0.00     0.180 A 
ATOM      2  C   UNL     1      22.924  45.520  88.286  1.00  0.00     0.208 A 
ATOM      3  C   UNL     1      21.754  45.893  88.969  1.00  0.00     0.238 A 
ATOM      4  O   UNL     1      21.304  45.125  89.859  1.00  0.00    -0.285 OA
ATOM      5  C   UNL     1      21.134  47.131  88.679  1.00  0.00     0.111 A 
ATOM      6  C   UNL     1      19.923  47.591  89.279  1.00  0.00     0.134 A 
ATOM      7  C   UNL     1      19.470  48.889  89.013  1.00  0.00     0.093 A 
ATOM      8  C   UNL     1      20.148  49.719  88.117  1.00  0.00     0.123 A 
ATOM      9  C   UNL     1      21.298  49.257  87.479  1.00  0.00     0.094 A 
ATOM     10  C   UNL     1      21.794  47.980  87.753  1.00  0.00     0.146 A 
ATOM     11  O   UNL     1      22.897  47.582  87.132  1.00  0.00    -0.452 OA
ENDROOT
BRANCH   1  12
ATOM     12  C   UNL     1      24.682  46.067  86.557  1.00  0.00     0.025 A 
ATOM     13  C   UNL     1      25.865  46.817  86.688  1.00  0.00     0.016 A 
ATOM     14  C   UNL     1      27.007  46.468  85.962  1.00  0.00     0.051 A 
ATOM     15  C   UNL     1      26.989  45.358  85.107  1.00  0.00     0.157 A 
ATOM     16  C   UNL     1      24.677  44.943  85.713  1.00  0.00     0.062 A 
ATOM     17  C   UNL     1      25.822  44.593  84.984  1.00  0.00     0.158 A 
BRANCH  15  18
ATOM     18  O   UNL     1      28.125  45.008  84.380  1.00  0.00    -0.504 OA
ATOM     19  H   UNL     1      28.187  44.123  83.890  1.00  0.00     0.293 HD
ENDBRANCH  15  18
BRANCH  17  20
ATOM     20  O   UNL     1      25.810  43.486  84.138  1.00  0.00    -0.504 OA
ATOM     21  H   UNL     1      25.691  43.586  83.137  1.00  0.00     0.293 HD
ENDBRANCH  17  20
ENDBRANCH   1  12
BRANCH   2  22
ATOM     22  O   UNL     1      23.566  44.312  88.574  1.00  0.00    -0.502 OA
ATOM     23  H   UNL     1      23.335  43.753  89.387  1.00  0.00     0.293 HD
ENDBRANCH   2  22
BRANCH   6  24
ATOM     24  O   UNL     1      19.121  46.810  90.116  1.00  0.00    -0.507 OA
ATOM     25  H   UNL     1      19.186  46.794  91.123  1.00  0.00     0.293 HD
ENDBRANCH   6  24
BRANCH   8  26
ATOM     26  O   UNL     1      19.682  51.004  87.845  1.00  0.00    -0.508 OA
ATOM     27  H   UNL     1      19.089  51.193  87.046  1.00  0.00     0.293 HD
ENDBRANCH   8  26
TORSDOF 6
ENDMDL
MODEL 4
REMARK VINA RESULT:    -4.504      1.954      7.034
REMARK INTER + INTRA:          -5.508
REMARK INTER:                  -5.246
REMARK INTRA:                  -0.262
REMARK UNBOUND:                -0.083
REMARK SMILES O=c1c(O)c(-c2ccc(O)c(O)c2)oc2cc(O)cc(O)c12
REMARK SMILES IDX 5 1 3 2 2 3 1 4 22 5 20 6 19 7 17 8 16 9 15 10 14 11 6 12
REMARK SMILES IDX 7 13 8 14 9 15 13 16 11 17 10 18 12 20 4 22 21 24 18 26
REMARK H PARENT 10 19 12 21 4 23 21 25 18 27
REMARK Flexibility Score: inf
ROOT
ATOM      1  C   UNL     1      21.716  47.059  88.426  1.00  0.00     0.180 A 
ATOM      2  C   UNL     1      20.802  46.118  88.931  1.00  0.00     0.208 A 
ATOM      3  C   UNL     1      19.549  46.563  89.387  1.00  0.00     0.238 A 
ATOM      4  O   UNL     1      18.757  45.723  89.888  1.00  0.00    -0.285 OA
ATOM      5  C   UNL     1      19.222  47.937  89.315  1.00  0.00     0.111 A 
ATOM      6  C   UNL     1      17.967  48.493  89.709  1.00  0.00     0.134 A 
ATOM      7  C   UNL     1      17.799  49.883  89.717  1.00  0.00     0.093 A 
ATOM      8  C   UNL     1      18.817  50.734  89.282  1.00  0.00     0.123 A 
ATOM      9  C   UNL     1      20.025  50.198  88.839  1.00  0.00     0.094 A 
ATOM     10  C   UNL     1      20.235  48.817  88.854  1.00  0.00     0.146 A 
ATOM     11  O   UNL     1      21.403  48.349  88.433  1.00  0.00    -0.452 OA
ENDROOT
BRANCH   1  12
ATOM     12  C   UNL     1      23.044  46.664  87.905  1.00  0.00     0.025 A 
ATOM     13  C   UNL     1      24.216  46.859  88.659  1.00  0.00     0.016 A 
ATOM     14  C   UNL     1      25.456  46.456  88.157  1.00  0.00     0.051 A 
ATOM     15  C   UNL     1      25.542  45.840  86.901  1.00  0.00     0.157 A 
ATOM     16  C   UNL     1      23.136  46.027  86.656  1.00  0.00     0.062 A 
ATOM     17  C   UNL     1      24.379  45.623  86.150  1.00  0.00     0.158 A 
BRANCH  15  18
ATOM     18  O   UNL     1      26.777  45.438  86.395  1.00  0.00    -0.504 OA
ATOM     19  H   UNL     1      27.337  46.052  85.815  1.00  0.00     0.293 HD
ENDBRANCH  15  18
BRANCH  17  20
ATOM     20  O   UNL     1      24.469  45.004  84.905  1.00  0.00    -0.504 OA
ATOM     21  H   UNL     1      25.322  44.551  84.599  1.00  0.00     0.293 HD
ENDBRANCH  17  20
ENDBRANCH   1  12
BRANCH   2  22
ATOM     22  O   UNL     1      21.155  44.768  89.014  1.00  0.00    -0.502 OA
ATOM     23  H   UNL     1      21.685  44.391  89.791  1.00  0.00     0.293 HD
ENDBRANCH   2  22
BRANCH   6  24
ATOM     24  O   UNL     1      16.855  47.728  90.072  1.00  0.00    -0.507 OA
ATOM     25  H   UNL     1      16.860  47.004  90.775  1.00  0.00     0.293 HD
ENDBRANCH   6  24
BRANCH   8  26
ATOM     26  O   UNL     1      18.637  52.116  89.278  1.00  0.00    -0.508 OA
ATOM     27  H   UNL     1      19.384  52.747  89.544  1.00  0.00     0.293 HD
ENDBRANCH   8  26
TORSDOF 6
ENDMDL
MODEL 5
REMARK VINA RESULT:    -4.407      2.187      6.464
REMARK INTER + INTRA:          -5.392
REMARK INTER:                  -5.156
REMARK INTRA:                  -0.236
REMARK UNBOUND:                -0.083
REMARK SMILES O=c1c(O)c(-c2ccc(O)c(O)c2)oc2cc(O)cc(O)c12
REMARK SMILES IDX 5 1 3 2 2 3 1 4 22 5 20 6 19 7 17 8 16 9 15 10 14 11 6 12
REMARK SMILES IDX 7 13 8 14 9 15 13 16 11 17 10 18 12 20 4 22 21 24 18 26
REMARK H PARENT 10 19 12 21 4 23 21 25 18 27
REMARK Flexibility Score: inf
ROOT
ATOM      1  C   UNL     1      21.812  47.538  88.201  1.00  0.00     0.180 A 
ATOM      2  C   UNL     1      21.554  48.919  88.258  1.00  0.00     0.208 A 
ATOM      3  C   UNL     1      20.312  49.360  88.746  1.00  0.00     0.238 A 
ATOM      4  O   UNL     1      20.067  50.595  88.743  1.00  0.00    -0.285 OA
ATOM      5  C   UNL     1      19.354  48.417  89.185  1.00  0.00     0.111 A 
ATOM      6  C   UNL     1      18.080  48.752  89.736  1.00  0.00     0.134 A 
ATOM      7  C   UNL     1      17.159  47.736  90.016  1.00  0.00     0.093 A 
ATOM      8  C   UNL     1      17.491  46.392  89.829  1.00  0.00     0.123 A 
ATOM      9  C   UNL     1      18.753  46.051  89.347  1.00  0.00     0.094 A 
ATOM     10  C   UNL     1      19.680  47.046  89.024  1.00  0.00     0.146 A 
ATOM     11  O   UNL     1      20.867  46.678  88.560  1.00  0.00    -0.452 OA
ENDROOT
BRANCH   1  12
ATOM     12  C   UNL     1      23.105  46.999  87.723  1.00  0.00     0.025 A 
ATOM     13  C   UNL     1      24.287  47.160  88.467  1.00  0.00     0.016 A 
ATOM     14  C   UNL     1      25.492  46.621  88.007  1.00  0.00     0.051 A 
ATOM     15  C   UNL     1      25.530  45.902  86.805  1.00  0.00     0.157 A 
ATOM     16  C   UNL     1      23.147  46.259  86.528  1.00  0.00     0.062 A 
ATOM     17  C   UNL     1      24.354  45.718  86.066  1.00  0.00     0.158 A 
BRANCH  15  18
ATOM     18  O   UNL     1      26.730  45.364  86.342  1.00  0.00    -0.504 OA
ATOM     19  H   UNL     1      27.622  45.783  86.576  1.00  0.00     0.293 HD
ENDBRANCH  15  18
BRANCH  17  20
ATOM     20  O   UNL     1      24.395  44.996  84.875  1.00  0.00    -0.504 OA
ATOM     21  H   UNL     1      25.015  44.203  84.757  1.00  0.00     0.293 HD
ENDBRANCH  17  20
ENDBRANCH   1  12
BRANCH   2  22
ATOM     22  O   UNL     1      22.507  49.833  87.797  1.00  0.00    -0.502 OA
ATOM     23  H   UNL     1      22.555  50.127  86.829  1.00  0.00     0.293 HD
ENDBRANCH   2  22
BRANCH   6  24
ATOM     24  O   UNL     1      17.684  50.057  90.049  1.00  0.00    -0.507 OA
ATOM     25  H   UNL     1      16.820  50.300  90.508  1.00  0.00     0.293 HD
ENDBRANCH   6  24
BRANCH   8  26
ATOM     26  O   UNL     1      16.574  45.385  90.125  1.00  0.00    -0.508 OA
ATOM     27  H   UNL     1      16.870  44.427  90.272  1.00  0.00     0.293 HD
ENDBRANCH   8  26
TORSDOF 6
ENDMDL
MODEL 6
REMARK VINA RESULT:    -4.298      2.918      3.774
REMARK INTER + INTRA:          -5.261
REMARK INTER:                  -4.938
REMARK INTRA:                  -0.324
REMARK UNBOUND:                -0.083
REMARK SMILES O=c1c(O)c(-c2ccc(O)c(O)c2)oc2cc(O)cc(O)c12
REMARK SMILES IDX 5 1 3 2 2 3 1 4 22 5 20 6 19 7 17 8 16 9 15 10 14 11 6 12
REMARK SMILES IDX 7 13 8 14 9 15 13 16 11 17 10 18 12 20 4 22 21 24 18 26
REMARK H PARENT 10 19 12 21 4 23 21 25 18 27
REMARK Flexibility Score: inf
ROOT
ATOM      1  C   UNL     1      23.246  48.231  87.790  1.00  0.00     0.180 A 
ATOM      2  C   UNL     1      24.427  48.911  88.135  1.00  0.00     0.208 A 
ATOM      3  C   UNL     1      25.651  48.456  87.615  1.00  0.00     0.238 A 
ATOM      4  O   UNL     1      26.710  49.035  87.972  1.00  0.00    -0.285 OA
ATOM      5  C   UNL     1      25.676  47.341  86.745  1.00  0.00     0.111 A 
ATOM      6  C   UNL     1      26.853  46.821  86.128  1.00  0.00     0.134 A 
ATOM      7  C   UNL     1      26.779  45.633  85.389  1.00  0.00     0.093 A 
ATOM      8  C   UNL     1      25.558  44.985  85.190  1.00  0.00     0.123 A 
ATOM      9  C   UNL     1      24.393  45.517  85.739  1.00  0.00     0.094 A 
ATOM     10  C   UNL     1      24.442  46.680  86.511  1.00  0.00     0.146 A 
ATOM     11  O   UNL     1      23.311  47.148  87.023  1.00  0.00    -0.452 OA
ENDROOT
BRANCH   1  12
ATOM     12  C   UNL     1      21.918  48.665  88.278  1.00  0.00     0.025 A 
ATOM     13  C   UNL     1      21.391  48.190  89.492  1.00  0.00     0.016 A 
ATOM     14  C   UNL     1      20.144  48.632  89.944  1.00  0.00     0.051 A 
ATOM     15  C   UNL     1      19.413  49.565  89.197  1.00  0.00     0.157 A 
ATOM     16  C   UNL     1      21.188  49.616  87.544  1.00  0.00     0.062 A 
ATOM     17  C   UNL     1      19.938  50.060  87.995  1.00  0.00     0.158 A 
BRANCH  15  18
ATOM     18  O   UNL     1      18.169  50.008  89.643  1.00  0.00    -0.504 OA
ATOM     19  H   UNL     1      18.086  50.774  90.302  1.00  0.00     0.293 HD
ENDBRANCH  15  18
BRANCH  17  20
ATOM     20  O   UNL     1      19.211  50.994  87.259  1.00  0.00    -0.504 OA
ATOM     21  H   UNL     1      19.336  51.092  86.258  1.00  0.00     0.293 HD
ENDBRANCH  17  20
ENDBRANCH   1  12
BRANCH   2  22
ATOM     22  O   UNL     1      24.383  49.996  89.014  1.00  0.00    -0.502 OA
ATOM     23  H   UNL     1      23.585  50.619  89.070  1.00  0.00     0.293 HD
ENDBRANCH   2  22
BRANCH   6  24
ATOM     24  O   UNL     1      28.104  47.441  86.187  1.00  0.00    -0.507 OA
ATOM     25  H   UNL     1      28.262  48.387  86.498  1.00  0.00     0.293 HD
ENDBRANCH   6  24
BRANCH   8  26
ATOM     26  O   UNL     1      25.489  43.812  84.440  1.00  0.00    -0.508 OA
ATOM     27  H   UNL     1      26.046  43.686  83.603  1.00  0.00     0.293 HD
ENDBRANCH   8  26
TORSDOF 6
ENDMDL
MODEL 7
REMARK VINA RESULT:    -4.249      3.003      4.759
REMARK INTER + INTRA:          -5.202
REMARK INTER:                  -5.191
REMARK INTRA:                  -0.011
REMARK UNBOUND:                -0.083
REMARK SMILES O=c1c(O)c(-c2ccc(O)c(O)c2)oc2cc(O)cc(O)c12
REMARK SMILES IDX 5 1 3 2 2 3 1 4 22 5 20 6 19 7 17 8 16 9 15 10 14 11 6 12
REMARK SMILES IDX 7 13 8 14 9 15 13 16 11 17 10 18 12 20 4 22 21 24 18 26
REMARK H PARENT 10 19 12 21 4 23 21 25 18 27
REMARK Flexibility Score: inf
ROOT
ATOM      1  C   UNL     1      23.193  46.806  87.277  1.00  0.00     0.180 A 
ATOM      2  C   UNL     1      23.459  45.550  86.705  1.00  0.00     0.208 A 
ATOM      3  C   UNL     1      24.683  45.347  86.046  1.00  0.00     0.238 A 
ATOM      4  O   UNL     1      24.892  44.238  85.488  1.00  0.00    -0.285 OA
ATOM      5  C   UNL     1      25.631  46.396  85.982  1.00  0.00     0.111 A 
ATOM      6  C   UNL     1      26.919  46.289  85.376  1.00  0.00     0.134 A 
ATOM      7  C   UNL     1      27.723  47.430  85.256  1.00  0.00     0.093 A 
ATOM      8  C   UNL     1      27.313  48.658  85.780  1.00  0.00     0.123 A 
ATOM      9  C   UNL     1      26.082  48.759  86.426  1.00  0.00     0.094 A 
ATOM     10  C   UNL     1      25.243  47.647  86.529  1.00  0.00     0.146 A 
ATOM     11  O   UNL     1      24.076  47.789  87.144  1.00  0.00    -0.452 OA
ENDROOT
BRANCH   1  12
ATOM     12  C   UNL     1      21.938  47.087  88.009  1.00  0.00     0.025 A 
ATOM     13  C   UNL     1      21.465  46.223  89.013  1.00  0.00     0.016 A 
ATOM     14  C   UNL     1      20.289  46.521  89.707  1.00  0.00     0.051 A 
ATOM     15  C   UNL     1      19.577  47.693  89.419  1.00  0.00     0.157 A 
ATOM     16  C   UNL     1      21.230  48.271  87.739  1.00  0.00     0.062 A 
ATOM     17  C   UNL     1      20.051  48.571  88.435  1.00  0.00     0.158 A 
BRANCH  15  18
ATOM     18  O   UNL     1      18.404  47.994  90.107  1.00  0.00    -0.504 OA
ATOM     19  H   UNL     1      18.266  47.707  91.069  1.00  0.00     0.293 HD
ENDBRANCH  15  18
BRANCH  17  20
ATOM     20  O   UNL     1      19.344  49.739  88.156  1.00  0.00    -0.504 OA
ATOM     21  H   UNL     1      18.365  49.716  87.894  1.00  0.00     0.293 HD
ENDBRANCH  17  20
ENDBRANCH   1  12
BRANCH   2  22
ATOM     22  O   UNL     1      22.500  44.534  86.760  1.00  0.00    -0.502 OA
ATOM     23  H   UNL     1      22.073  44.236  87.629  1.00  0.00     0.293 HD
ENDBRANCH   2  22
BRANCH   6  24
ATOM     24  O   UNL     1      27.462  45.091  84.904  1.00  0.00    -0.507 OA
ATOM     25  H   UNL     1      26.922  44.310  84.565  1.00  0.00     0.293 HD
ENDBRANCH   6  24
BRANCH   8  26
ATOM     26  O   UNL     1      28.125  49.785  85.670  1.00  0.00    -0.508 OA
ATOM     27  H   UNL     1      28.962  49.890  86.231  1.00  0.00     0.293 HD
ENDBRANCH   8  26
TORSDOF 6
ENDMDL
MODEL 8
REMARK VINA RESULT:    -4.125      1.816      7.367
REMARK INTER + INTRA:          -5.052
REMARK INTER:                  -4.746
REMARK INTRA:                  -0.306
REMARK UNBOUND:                -0.083
REMARK SMILES O=c1c(O)c(-c2ccc(O)c(O)c2)oc2cc(O)cc(O)c12
REMARK SMILES IDX 5 1 3 2 2 3 1 4 22 5 20 6 19 7 17 8 16 9 15 10 14 11 6 12
REMARK SMILES IDX 7 13 8 14 9 15 13 16 11 17 10 18 12 20 4 22 21 24 18 26
REMARK H PARENT 10 19 12 21 4 23 21 25 18 27
REMARK Flexibility Score: inf
ROOT
ATOM      1  C   UNL     1      21.335  49.155  88.441  1.00  0.00     0.180 A 
ATOM      2  C   UNL     1      19.985  48.961  88.779  1.00  0.00     0.208 A 
ATOM      3  C   UNL     1      19.247  50.044  89.286  1.00  0.00     0.238 A 
ATOM      4  O   UNL     1      18.054  49.849  89.639  1.00  0.00    -0.285 OA
ATOM      5  C   UNL     1      19.863  51.309  89.432  1.00  0.00     0.111 A 
ATOM      6  C   UNL     1      19.200  52.485  89.896  1.00  0.00     0.134 A 
ATOM      7  C   UNL     1      19.941  53.651  90.125  1.00  0.00     0.093 A 
ATOM      8  C   UNL     1      21.308  53.703  89.842  1.00  0.00     0.123 A 
ATOM      9  C   UNL     1      21.953  52.578  89.333  1.00  0.00     0.094 A 
ATOM     10  C   UNL     1      21.247  51.389  89.129  1.00  0.00     0.146 A 
ATOM     11  O   UNL     1      21.901  50.338  88.650  1.00  0.00    -0.452 OA
ENDROOT
BRANCH   1  12
ATOM     12  C   UNL     1      22.170  48.070  87.878  1.00  0.00     0.025 A 
ATOM     13  C   UNL     1      22.394  47.960  86.494  1.00  0.00     0.016 A 
ATOM     14  C   UNL     1      23.205  46.941  85.988  1.00  0.00     0.051 A 
ATOM     15  C   UNL     1      23.815  46.026  86.858  1.00  0.00     0.157 A 
ATOM     16  C   UNL     1      22.800  47.162  88.746  1.00  0.00     0.062 A 
ATOM     17  C   UNL     1      23.613  46.139  88.240  1.00  0.00     0.158 A 
BRANCH  15  18
ATOM     18  O   UNL     1      24.623  45.007  86.357  1.00  0.00    -0.504 OA
ATOM     19  H   UNL     1      24.913  44.228  86.938  1.00  0.00     0.293 HD
ENDBRANCH  15  18
BRANCH  17  20
ATOM     20  O   UNL     1      24.227  45.231  89.101  1.00  0.00    -0.504 OA
ATOM     21  H   UNL     1      23.885  45.082  90.044  1.00  0.00     0.293 HD
ENDBRANCH  17  20
ENDBRANCH   1  12
BRANCH   2  22
ATOM     22  O   UNL     1      19.402  47.697  88.649  1.00  0.00    -0.502 OA
ATOM     23  H   UNL     1      18.716  47.344  89.306  1.00  0.00     0.293 HD
ENDBRANCH   2  22
BRANCH   6  24
ATOM     24  O   UNL     1      17.823  52.567  90.120  1.00  0.00    -0.507 OA
ATOM     25  H   UNL     1      17.192  51.780  90.118  1.00  0.00     0.293 HD
ENDBRANCH   6  24
BRANCH   8  26
ATOM     26  O   UNL     1      22.035  54.872  90.058  1.00  0.00    -0.508 OA
ATOM     27  H   UNL     1      21.604  55.696  90.459  1.00  0.00     0.293 HD
ENDBRANCH   8  26
TORSDOF 6
ENDMDL
MODEL 9
REMARK VINA RESULT:    -4.105      2.735      4.091
REMARK INTER + INTRA:          -5.028
REMARK INTER:                  -4.739
REMARK INTRA:                  -0.289
REMARK UNBOUND:                -0.083
REMARK SMILES O=c1c(O)c(-c2ccc(O)c(O)c2)oc2cc(O)cc(O)c12
REMARK SMILES IDX 5 1 3 2 2 3 1 4 22 5 20 6 19 7 17 8 16 9 15 10 14 11 6 12
REMARK SMILES IDX 7 13 8 14 9 15 13 16 11 17 10 18 12 20 4 22 21 24 18 26
REMARK H PARENT 10 19 12 21 4 23 21 25 18 27
REMARK Flexibility Score: inf
ROOT
ATOM      1  C   UNL     1      22.729  48.523  87.646  1.00  0.00     0.180 A 
ATOM      2  C   UNL     1      22.575  47.133  87.500  1.00  0.00     0.208 A 
ATOM      3  C   UNL     1      23.625  46.387  86.937  1.00  0.00     0.238 A 
ATOM      4  O   UNL     1      23.460  45.152  86.759  1.00  0.00    -0.285 OA
ATOM      5  C   UNL     1      24.818  47.038  86.543  1.00  0.00     0.111 A 
ATOM      6  C   UNL     1      25.960  46.376  86.000  1.00  0.00     0.134 A 
ATOM      7  C   UNL     1      27.037  47.135  85.523  1.00  0.00     0.093 A 
ATOM      8  C   UNL     1      27.040  48.527  85.633  1.00  0.00     0.123 A 
ATOM      9  C   UNL     1      25.955  49.179  86.216  1.00  0.00     0.094 A 
ATOM     10  C   UNL     1      24.851  48.451  86.667  1.00  0.00     0.146 A 
ATOM     11  O   UNL     1      23.835  49.112  87.207  1.00  0.00    -0.452 OA
ENDROOT
BRANCH   1  12
ATOM     12  C   UNL     1      21.678  49.370  88.254  1.00  0.00     0.025 A 
ATOM     13  C   UNL     1      21.780  49.827  89.580  1.00  0.00     0.016 A 
ATOM     14  C   UNL     1      20.788  50.647  90.124  1.00  0.00     0.051 A 
ATOM     15  C   UNL     1      19.687  51.033  89.347  1.00  0.00     0.157 A 
ATOM     16  C   UNL     1      20.582  49.778  87.474  1.00  0.00     0.062 A 
ATOM     17  C   UNL     1      19.586  50.600  88.019  1.00  0.00     0.158 A 
BRANCH  15  18
ATOM     18  O   UNL     1      18.694  51.849  89.886  1.00  0.00    -0.504 OA
ATOM     19  H   UNL     1      18.471  52.750  89.479  1.00  0.00     0.293 HD
ENDBRANCH  15  18
BRANCH  17  20
ATOM     20  O   UNL     1      18.493  50.992  87.248  1.00  0.00    -0.504 OA
ATOM     21  H   UNL     1      17.673  50.405  87.155  1.00  0.00     0.293 HD
ENDBRANCH  17  20
ENDBRANCH   1  12
BRANCH   2  22
ATOM     22  O   UNL     1      21.380  46.514  87.875  1.00  0.00    -0.502 OA
ATOM     23  H   UNL     1      20.531  47.036  88.058  1.00  0.00     0.293 HD
ENDBRANCH   2  22
BRANCH   6  24
ATOM     24  O   UNL     1      26.098  44.987  85.930  1.00  0.00    -0.507 OA
ATOM     25  H   UNL     1      26.317  44.473  85.091  1.00  0.00     0.293 HD
ENDBRANCH   6  24
BRANCH   8  26
ATOM     26  O   UNL     1      28.122  49.275  85.170  1.00  0.00    -0.508 OA
ATOM     27  H   UNL     1      28.010  49.977  84.448  1.00  0.00     0.293 HD
ENDBRANCH   8  26
TORSDOF 6
ENDMDL
