MODEL 1
REMARK VINA RESULT:    -7.522      0.000      0.000
REMARK INTER + INTRA:          -8.949
REMARK INTER:                  -8.842
REMARK INTRA:                  -0.107
REMARK UNBOUND:                -0.107
REMARK SMILES O=c1c(O)c(-c2ccc(O)cc2)oc2cc(O)cc(O)c12
REMARK SMILES IDX 5 1 3 2 2 3 1 4 21 5 19 6 18 7 16 8 15 9 14 10 13 11 6 12
REMARK SMILES IDX 7 13 8 14 9 15 12 16 11 17 10 18 4 20 20 22 17 24
REMARK H PARENT 10 19 4 21 20 23 17 25
REMARK Flexibility Score: inf
ROOT
ATOM      1  C   UNL     1     -22.361 -15.543 -10.562  1.00  0.00     0.180 A 
ATOM      2  C   UNL     1     -21.308 -14.722 -10.123  1.00  0.00     0.208 A 
ATOM      3  C   UNL     1     -20.951 -14.740  -8.764  1.00  0.00     0.238 A 
ATOM      4  O   UNL     1     -20.044 -13.963  -8.368  1.00  0.00    -0.285 OA
ATOM      5  C   UNL     1     -21.641 -15.590  -7.866  1.00  0.00     0.111 A 
ATOM      6  C   UNL     1     -21.336 -15.718  -6.477  1.00  0.00     0.134 A 
ATOM      7  C   UNL     1     -22.168 -16.491  -5.657  1.00  0.00     0.093 A 
ATOM      8  C   UNL     1     -23.252 -17.190  -6.185  1.00  0.00     0.123 A 
ATOM      9  C   UNL     1     -23.523 -17.120  -7.552  1.00  0.00     0.094 A 
ATOM     10  C   UNL     1     -22.733 -16.329  -8.390  1.00  0.00     0.146 A 
ATOM     11  O   UNL     1     -23.031 -16.280  -9.683  1.00  0.00    -0.452 OA
ENDROOT
BRANCH   1  12
ATOM     12  C   UNL     1     -22.779 -15.598 -11.982  1.00  0.00     0.021 A 
ATOM     13  C   UNL     1     -22.608 -16.788 -12.708  1.00  0.00     0.016 A 
ATOM     14  C   UNL     1     -22.974 -16.854 -14.055  1.00  0.00     0.047 A 
ATOM     15  C   UNL     1     -23.501 -15.726 -14.697  1.00  0.00     0.115 A 
ATOM     16  C   UNL     1     -23.289 -14.463 -12.638  1.00  0.00     0.016 A 
ATOM     17  C   UNL     1     -23.654 -14.532 -13.986  1.00  0.00     0.047 A 
BRANCH  15  18
ATOM     18  O   UNL     1     -23.870 -15.780 -16.040  1.00  0.00    -0.508 OA
ATOM     19  H   UNL     1     -23.180 -15.748 -16.780  1.00  0.00     0.293 HD
ENDBRANCH  15  18
ENDBRANCH   1  12
BRANCH   2  20
ATOM     20  O   UNL     1     -20.656 -13.875 -11.022  1.00  0.00    -0.502 OA
ATOM     21  H   UNL     1     -20.079 -14.224 -11.779  1.00  0.00     0.293 HD
ENDBRANCH   2  20
BRANCH   6  22
ATOM     22  O   UNL     1     -20.223 -15.135  -5.865  1.00  0.00    -0.507 OA
ATOM     23  H   UNL     1     -20.041 -14.144  -5.826  1.00  0.00     0.293 HD
ENDBRANCH   6  22
BRANCH   8  24
ATOM     24  O   UNL     1     -24.049 -17.962  -5.342  1.00  0.00    -0.508 OA
ATOM     25  H   UNL     1     -25.024 -18.141  -5.551  1.00  0.00     0.293 HD
ENDBRANCH   8  24
TORSDOF 5
ENDMDL
MODEL 2
REMARK VINA RESULT:    -7.519      0.258      1.083
REMARK INTER + INTRA:          -8.945
REMARK INTER:                  -8.928
REMARK INTRA:                  -0.017
REMARK UNBOUND:                -0.107
REMARK SMILES O=c1c(O)c(-c2ccc(O)cc2)oc2cc(O)cc(O)c12
REMARK SMILES IDX 5 1 3 2 2 3 1 4 21 5 19 6 18 7 16 8 15 9 14 10 13 11 6 12
REMARK SMILES IDX 7 13 8 14 9 15 12 16 11 17 10 18 4 20 20 22 17 24
REMARK H PARENT 10 19 4 21 20 23 17 25
REMARK Flexibility Score: inf
ROOT
ATOM      1  C   UNL     1     -22.489 -15.547 -10.660  1.00  0.00     0.180 A 
ATOM      2  C   UNL     1     -21.419 -14.730 -10.253  1.00  0.00     0.208 A 
ATOM      3  C   UNL     1     -21.009 -14.762  -8.910  1.00  0.00     0.238 A 
ATOM      4  O   UNL     1     -20.087 -13.989  -8.542  1.00  0.00    -0.285 OA
ATOM      5  C   UNL     1     -21.664 -15.620  -7.994  1.00  0.00     0.111 A 
ATOM      6  C   UNL     1     -21.306 -15.763  -6.620  1.00  0.00     0.134 A 
ATOM      7  C   UNL     1     -22.106 -16.543  -5.775  1.00  0.00     0.093 A 
ATOM      8  C   UNL     1     -23.210 -17.236  -6.267  1.00  0.00     0.123 A 
ATOM      9  C   UNL     1     -23.534 -17.152  -7.622  1.00  0.00     0.094 A 
ATOM     10  C   UNL     1     -22.777 -16.354  -8.483  1.00  0.00     0.146 A 
ATOM     11  O   UNL     1     -23.124 -16.292  -9.763  1.00  0.00    -0.452 OA
ENDROOT
BRANCH   1  12
ATOM     12  C   UNL     1     -22.961 -15.587 -12.062  1.00  0.00     0.021 A 
ATOM     13  C   UNL     1     -23.387 -14.401 -12.683  1.00  0.00     0.016 A 
ATOM     14  C   UNL     1     -23.858 -14.421 -13.999  1.00  0.00     0.047 A 
ATOM     15  C   UNL     1     -23.924 -15.629 -14.705  1.00  0.00     0.115 A 
ATOM     16  C   UNL     1     -23.049 -16.799 -12.771  1.00  0.00     0.016 A 
ATOM     17  C   UNL     1     -23.522 -16.816 -14.087  1.00  0.00     0.047 A 
BRANCH  15  18
ATOM     18  O   UNL     1     -24.392 -15.660 -16.017  1.00  0.00    -0.508 OA
ATOM     19  H   UNL     1     -23.852 -16.085 -16.762  1.00  0.00     0.293 HD
ENDBRANCH  15  18
ENDBRANCH   1  12
BRANCH   2  20
ATOM     20  O   UNL     1     -20.801 -13.875 -11.169  1.00  0.00    -0.502 OA
ATOM     21  H   UNL     1     -19.794 -13.817 -11.266  1.00  0.00     0.293 HD
ENDBRANCH   2  20
BRANCH   6  22
ATOM     22  O   UNL     1     -20.169 -15.186  -6.046  1.00  0.00    -0.507 OA
ATOM     23  H   UNL     1     -20.170 -14.624  -5.208  1.00  0.00     0.293 HD
ENDBRANCH   6  22
BRANCH   8  24
ATOM     24  O   UNL     1     -23.974 -18.016  -5.402  1.00  0.00    -0.508 OA
ATOM     25  H   UNL     1     -24.480 -18.831  -5.730  1.00  0.00     0.293 HD
ENDBRANCH   8  24
TORSDOF 5
ENDMDL
MODEL 3
REMARK VINA RESULT:    -6.715      1.385      6.546
REMARK INTER + INTRA:          -7.999
REMARK INTER:                  -8.360
REMARK INTRA:                   0.360
REMARK UNBOUND:                -0.107
REMARK SMILES O=c1c(O)c(-c2ccc(O)cc2)oc2cc(O)cc(O)c12
REMARK SMILES IDX 5 1 3 2 2 3 1 4 21 5 19 6 18 7 16 8 15 9 14 10 13 11 6 12
REMARK SMILES IDX 7 13 8 14 9 15 12 16 11 17 10 18 4 20 20 22 17 24
REMARK H PARENT 10 19 4 21 20 23 17 25
REMARK Flexibility Score: inf
ROOT
ATOM      1  C   UNL     1     -22.388 -16.019  -9.930  1.00  0.00     0.180 A 
ATOM      2  C   UNL     1     -21.548 -15.011 -10.435  1.00  0.00     0.208 A 
ATOM      3  C   UNL     1     -21.557 -14.743 -11.814  1.00  0.00     0.238 A 
ATOM      4  O   UNL     1     -20.765 -13.877 -12.266  1.00  0.00    -0.285 OA
ATOM      5  C   UNL     1     -22.416 -15.476 -12.667  1.00  0.00     0.111 A 
ATOM      6  C   UNL     1     -22.537 -15.262 -14.074  1.00  0.00     0.134 A 
ATOM      7  C   UNL     1     -23.321 -16.133 -14.840  1.00  0.00     0.093 A 
ATOM      8  C   UNL     1     -24.039 -17.169 -14.244  1.00  0.00     0.123 A 
ATOM      9  C   UNL     1     -23.976 -17.350 -12.862  1.00  0.00     0.094 A 
ATOM     10  C   UNL     1     -23.174 -16.520 -12.075  1.00  0.00     0.146 A 
ATOM     11  O   UNL     1     -23.133 -16.733 -10.765  1.00  0.00    -0.452 OA
ENDROOT
BRANCH   1  12
ATOM     12  C   UNL     1     -22.452 -16.341  -8.486  1.00  0.00     0.021 A 
ATOM     13  C   UNL     1     -21.312 -16.162  -7.686  1.00  0.00     0.016 A 
ATOM     14  C   UNL     1     -21.344 -16.482  -6.325  1.00  0.00     0.047 A 
ATOM     15  C   UNL     1     -22.513 -16.999  -5.752  1.00  0.00     0.115 A 
ATOM     16  C   UNL     1     -23.616 -16.880  -7.907  1.00  0.00     0.016 A 
ATOM     17  C   UNL     1     -23.645 -17.200  -6.546  1.00  0.00     0.047 A 
BRANCH  15  18
ATOM     18  O   UNL     1     -22.557 -17.321  -4.397  1.00  0.00    -0.508 OA
ATOM     19  H   UNL     1     -23.403 -17.670  -3.962  1.00  0.00     0.293 HD
ENDBRANCH  15  18
ENDBRANCH   1  12
BRANCH   2  20
ATOM     20  O   UNL     1     -20.693 -14.314  -9.577  1.00  0.00    -0.502 OA
ATOM     21  H   UNL     1     -19.918 -14.760  -9.101  1.00  0.00     0.293 HD
ENDBRANCH   2  20
BRANCH   6  22
ATOM     22  O   UNL     1     -21.934 -14.201 -14.756  1.00  0.00    -0.507 OA
ATOM     23  H   UNL     1     -21.960 -14.072 -15.756  1.00  0.00     0.293 HD
ENDBRANCH   6  22
BRANCH   8  24
ATOM     24  O   UNL     1     -24.823 -18.007 -15.036  1.00  0.00    -0.508 OA
ATOM     25  H   UNL     1     -25.336 -17.653 -15.834  1.00  0.00     0.293 HD
ENDBRANCH   8  24
TORSDOF 5
ENDMDL
MODEL 4
REMARK VINA RESULT:    -6.683      1.364      6.537
REMARK INTER + INTRA:          -7.962
REMARK INTER:                  -8.353
REMARK INTRA:                   0.391
REMARK UNBOUND:                -0.107
REMARK SMILES O=c1c(O)c(-c2ccc(O)cc2)oc2cc(O)cc(O)c12
REMARK SMILES IDX 5 1 3 2 2 3 1 4 21 5 19 6 18 7 16 8 15 9 14 10 13 11 6 12
REMARK SMILES IDX 7 13 8 14 9 15 12 16 11 17 10 18 4 20 20 22 17 24
REMARK H PARENT 10 19 4 21 20 23 17 25
REMARK Flexibility Score: inf
ROOT
ATOM      1  C   UNL     1     -22.286 -16.003  -9.950  1.00  0.00     0.180 A 
ATOM      2  C   UNL     1     -21.428 -15.012 -10.457  1.00  0.00     0.208 A 
ATOM      3  C   UNL     1     -21.454 -14.725 -11.832  1.00  0.00     0.238 A 
ATOM      4  O   UNL     1     -20.646 -13.875 -12.287  1.00  0.00    -0.285 OA
ATOM      5  C   UNL     1     -22.348 -15.423 -12.679  1.00  0.00     0.111 A 
ATOM      6  C   UNL     1     -22.488 -15.185 -14.081  1.00  0.00     0.134 A 
ATOM      7  C   UNL     1     -23.309 -16.024 -14.844  1.00  0.00     0.093 A 
ATOM      8  C   UNL     1     -24.045 -17.048 -14.249  1.00  0.00     0.123 A 
ATOM      9  C   UNL     1     -23.963 -17.250 -12.871  1.00  0.00     0.094 A 
ATOM     10  C   UNL     1     -23.124 -16.453 -12.087  1.00  0.00     0.146 A 
ATOM     11  O   UNL     1     -23.065 -16.685 -10.781  1.00  0.00    -0.452 OA
ENDROOT
BRANCH   1  12
ATOM     12  C   UNL     1     -22.333 -16.344  -8.510  1.00  0.00     0.021 A 
ATOM     13  C   UNL     1     -23.507 -16.891  -7.967  1.00  0.00     0.016 A 
ATOM     14  C   UNL     1     -23.581 -17.199  -6.606  1.00  0.00     0.047 A 
ATOM     15  C   UNL     1     -22.487 -16.948  -5.767  1.00  0.00     0.115 A 
ATOM     16  C   UNL     1     -21.246 -16.075  -7.658  1.00  0.00     0.016 A 
ATOM     17  C   UNL     1     -21.323 -16.383  -6.296  1.00  0.00     0.047 A 
BRANCH  15  18
ATOM     18  O   UNL     1     -22.549 -17.250  -4.408  1.00  0.00    -0.508 OA
ATOM     19  H   UNL     1     -21.710 -17.394  -3.859  1.00  0.00     0.293 HD
ENDBRANCH  15  18
ENDBRANCH   1  12
BRANCH   2  20
ATOM     20  O   UNL     1     -20.538 -14.351  -9.606  1.00  0.00    -0.502 OA
ATOM     21  H   UNL     1     -20.229 -13.401  -9.774  1.00  0.00     0.293 HD
ENDBRANCH   2  20
BRANCH   6  22
ATOM     22  O   UNL     1     -21.868 -14.132 -14.759  1.00  0.00    -0.507 OA
ATOM     23  H   UNL     1     -20.892 -14.106 -15.012  1.00  0.00     0.293 HD
ENDBRANCH   6  22
BRANCH   8  24
ATOM     24  O   UNL     1     -24.866 -17.853 -15.037  1.00  0.00    -0.508 OA
ATOM     25  H   UNL     1     -24.482 -18.573 -15.638  1.00  0.00     0.293 HD
ENDBRANCH   8  24
TORSDOF 5
ENDMDL
MODEL 5
REMARK VINA RESULT:    -6.385      1.449      3.051
REMARK INTER + INTRA:          -7.612
REMARK INTER:                  -8.017
REMARK INTRA:                   0.405
REMARK UNBOUND:                -0.107
REMARK SMILES O=c1c(O)c(-c2ccc(O)cc2)oc2cc(O)cc(O)c12
REMARK SMILES IDX 5 1 3 2 2 3 1 4 21 5 19 6 18 7 16 8 15 9 14 10 13 11 6 12
REMARK SMILES IDX 7 13 8 14 9 15 12 16 11 17 10 18 4 20 20 22 17 24
REMARK H PARENT 10 19 4 21 20 23 17 25
REMARK Flexibility Score: inf
ROOT
ATOM      1  C   UNL     1     -22.712 -16.064 -11.164  1.00  0.00     0.180 A 
ATOM      2  C   UNL     1     -23.506 -17.076 -10.598  1.00  0.00     0.208 A 
ATOM      3  C   UNL     1     -23.517 -17.234  -9.202  1.00  0.00     0.238 A 
ATOM      4  O   UNL     1     -24.187 -18.176  -8.706  1.00  0.00    -0.285 OA
ATOM      5  C   UNL     1     -22.745 -16.368  -8.390  1.00  0.00     0.111 A 
ATOM      6  C   UNL     1     -22.712 -16.412  -6.963  1.00  0.00     0.134 A 
ATOM      7  C   UNL     1     -21.813 -15.593  -6.269  1.00  0.00     0.093 A 
ATOM      8  C   UNL     1     -20.995 -14.688  -6.942  1.00  0.00     0.123 A 
ATOM      9  C   UNL     1     -21.062 -14.594  -8.333  1.00  0.00     0.094 A 
ATOM     10  C   UNL     1     -21.923 -15.423  -9.057  1.00  0.00     0.146 A 
ATOM     11  O   UNL     1     -21.950 -15.311 -10.380  1.00  0.00    -0.452 OA
ENDROOT
BRANCH   1  12
ATOM     12  C   UNL     1     -22.668 -15.820 -12.624  1.00  0.00     0.021 A 
ATOM     13  C   UNL     1     -21.633 -15.040 -13.164  1.00  0.00     0.016 A 
ATOM     14  C   UNL     1     -21.585 -14.779 -14.536  1.00  0.00     0.047 A 
ATOM     15  C   UNL     1     -22.582 -15.280 -15.383  1.00  0.00     0.115 A 
ATOM     16  C   UNL     1     -23.676 -16.303 -13.478  1.00  0.00     0.016 A 
ATOM     17  C   UNL     1     -23.627 -16.040 -14.850  1.00  0.00     0.047 A 
BRANCH  15  18
ATOM     18  O   UNL     1     -22.544 -15.027 -16.753  1.00  0.00    -0.508 OA
ATOM     19  H   UNL     1     -21.779 -14.515 -17.176  1.00  0.00     0.293 HD
ENDBRANCH  15  18
ENDBRANCH   1  12
BRANCH   2  20
ATOM     20  O   UNL     1     -24.243 -17.933 -11.420  1.00  0.00    -0.502 OA
ATOM     21  H   UNL     1     -24.412 -17.736 -12.399  1.00  0.00     0.293 HD
ENDBRANCH   2  20
BRANCH   6  22
ATOM     22  O   UNL     1     -23.553 -17.214  -6.187  1.00  0.00    -0.507 OA
ATOM     23  H   UNL     1     -23.238 -17.938  -5.559  1.00  0.00     0.293 HD
ENDBRANCH   6  22
BRANCH   8  24
ATOM     24  O   UNL     1     -20.124 -13.876  -6.218  1.00  0.00    -0.508 OA
ATOM     25  H   UNL     1     -19.962 -14.024  -5.229  1.00  0.00     0.293 HD
ENDBRANCH   8  24
TORSDOF 5
ENDMDL
MODEL 6
REMARK VINA RESULT:    -5.482      1.940      7.115
REMARK INTER + INTRA:          -6.551
REMARK INTER:                  -6.250
REMARK INTRA:                  -0.300
REMARK UNBOUND:                -0.107
REMARK SMILES O=c1c(O)c(-c2ccc(O)cc2)oc2cc(O)cc(O)c12
REMARK SMILES IDX 5 1 3 2 2 3 1 4 21 5 19 6 18 7 16 8 15 9 14 10 13 11 6 12
REMARK SMILES IDX 7 13 8 14 9 15 12 16 11 17 10 18 4 20 20 22 17 24
REMARK H PARENT 10 19 4 21 20 23 17 25
REMARK Flexibility Score: inf
ROOT
ATOM      1  C   UNL     1     -22.607 -15.753 -10.308  1.00  0.00     0.180 A 
ATOM      2  C   UNL     1     -23.393 -16.913 -10.410  1.00  0.00     0.208 A 
ATOM      3  C   UNL     1     -23.872 -17.305 -11.671  1.00  0.00     0.238 A 
ATOM      4  O   UNL     1     -24.619 -18.314 -11.747  1.00  0.00    -0.285 OA
ATOM      5  C   UNL     1     -23.545 -16.539 -12.816  1.00  0.00     0.111 A 
ATOM      6  C   UNL     1     -23.942 -16.865 -14.149  1.00  0.00     0.134 A 
ATOM      7  C   UNL     1     -23.673 -15.966 -15.188  1.00  0.00     0.093 A 
ATOM      8  C   UNL     1     -22.966 -14.787 -14.956  1.00  0.00     0.123 A 
ATOM      9  C   UNL     1     -22.521 -14.488 -13.668  1.00  0.00     0.094 A 
ATOM     10  C   UNL     1     -22.805 -15.347 -12.604  1.00  0.00     0.146 A 
ATOM     11  O   UNL     1     -22.373 -15.021 -11.391  1.00  0.00    -0.452 OA
ENDROOT
BRANCH   1  12
ATOM     12  C   UNL     1     -22.047 -15.291  -9.018  1.00  0.00     0.021 A 
ATOM     13  C   UNL     1     -22.751 -14.342  -8.259  1.00  0.00     0.016 A 
ATOM     14  C   UNL     1     -22.229 -13.875  -7.049  1.00  0.00     0.047 A 
ATOM     15  C   UNL     1     -20.988 -14.340  -6.592  1.00  0.00     0.115 A 
ATOM     16  C   UNL     1     -20.793 -15.737  -8.563  1.00  0.00     0.016 A 
ATOM     17  C   UNL     1     -20.273 -15.268  -7.353  1.00  0.00     0.047 A 
BRANCH  15  18
ATOM     18  O   UNL     1     -20.458 -13.882  -5.387  1.00  0.00    -0.508 OA
ATOM     19  H   UNL     1     -20.051 -12.958  -5.305  1.00  0.00     0.293 HD
ENDBRANCH  15  18
ENDBRANCH   1  12
BRANCH   2  20
ATOM     20  O   UNL     1     -23.722 -17.642  -9.264  1.00  0.00    -0.502 OA
ATOM     21  H   UNL     1     -23.532 -18.634  -9.176  1.00  0.00     0.293 HD
ENDBRANCH   2  20
BRANCH   6  22
ATOM     22  O   UNL     1     -24.572 -18.061 -14.505  1.00  0.00    -0.507 OA
ATOM     23  H   UNL     1     -25.521 -18.133 -14.841  1.00  0.00     0.293 HD
ENDBRANCH   6  22
BRANCH   8  24
ATOM     24  O   UNL     1     -22.702 -13.923 -16.018  1.00  0.00    -0.508 OA
ATOM     25  H   UNL     1     -22.676 -12.919 -15.889  1.00  0.00     0.293 HD
ENDBRANCH   8  24
TORSDOF 5
ENDMDL
MODEL 7
REMARK VINA RESULT:    -4.690      1.816      7.130
REMARK INTER + INTRA:          -5.619
REMARK INTER:                  -6.136
REMARK INTRA:                   0.516
REMARK UNBOUND:                -0.107
REMARK SMILES O=c1c(O)c(-c2ccc(O)cc2)oc2cc(O)cc(O)c12
REMARK SMILES IDX 5 1 3 2 2 3 1 4 21 5 19 6 18 7 16 8 15 9 14 10 13 11 6 12
REMARK SMILES IDX 7 13 8 14 9 15 12 16 11 17 10 18 4 20 20 22 17 24
REMARK H PARENT 10 19 4 21 20 23 17 25
REMARK Flexibility Score: inf
ROOT
ATOM      1  C   UNL     1     -22.895 -16.872  -9.779  1.00  0.00     0.180 A 
ATOM      2  C   UNL     1     -23.844 -17.647 -10.467  1.00  0.00     0.208 A 
ATOM      3  C   UNL     1     -23.910 -17.559 -11.868  1.00  0.00     0.238 A 
ATOM      4  O   UNL     1     -24.797 -18.214 -12.473  1.00  0.00    -0.285 OA
ATOM      5  C   UNL     1     -23.016 -16.709 -12.562  1.00  0.00     0.111 A 
ATOM      6  C   UNL     1     -22.966 -16.573 -13.983  1.00  0.00     0.134 A 
ATOM      7  C   UNL     1     -22.130 -15.605 -14.554  1.00  0.00     0.093 A 
ATOM      8  C   UNL     1     -21.296 -14.817 -13.764  1.00  0.00     0.123 A 
ATOM      9  C   UNL     1     -21.292 -14.984 -12.379  1.00  0.00     0.094 A 
ATOM     10  C   UNL     1     -22.141 -15.915 -11.776  1.00  0.00     0.146 A 
ATOM     11  O   UNL     1     -22.115 -16.036 -10.454  1.00  0.00    -0.452 OA
ENDROOT
BRANCH   1  12
ATOM     12  C   UNL     1     -22.749 -16.929  -8.307  1.00  0.00     0.021 A 
ATOM     13  C   UNL     1     -23.774 -17.496  -7.531  1.00  0.00     0.016 A 
ATOM     14  C   UNL     1     -23.666 -17.539  -6.138  1.00  0.00     0.047 A 
ATOM     15  C   UNL     1     -22.539 -17.002  -5.502  1.00  0.00     0.115 A 
ATOM     16  C   UNL     1     -21.630 -16.373  -7.660  1.00  0.00     0.016 A 
ATOM     17  C   UNL     1     -21.525 -16.417  -6.266  1.00  0.00     0.047 A 
BRANCH  15  18
ATOM     18  O   UNL     1     -22.421 -17.040  -4.115  1.00  0.00    -0.508 OA
ATOM     19  H   UNL     1     -21.735 -16.478  -3.626  1.00  0.00     0.293 HD
ENDBRANCH  15  18
ENDBRANCH   1  12
BRANCH   2  20
ATOM     20  O   UNL     1     -24.731 -18.462  -9.760  1.00  0.00    -0.502 OA
ATOM     21  H   UNL     1     -24.546 -18.778  -8.816  1.00  0.00     0.293 HD
ENDBRANCH   2  20
BRANCH   6  22
ATOM     22  O   UNL     1     -23.691 -17.374 -14.869  1.00  0.00    -0.507 OA
ATOM     23  H   UNL     1     -24.068 -18.283 -14.647  1.00  0.00     0.293 HD
ENDBRANCH   6  22
BRANCH   8  24
ATOM     24  O   UNL     1     -20.465 -13.875 -14.369  1.00  0.00    -0.508 OA
ATOM     25  H   UNL     1     -20.777 -12.927 -14.542  1.00  0.00     0.293 HD
ENDBRANCH   8  24
TORSDOF 5
ENDMDL
