MODEL 1
REMARK VINA RESULT:    -3.812      0.000      0.000
REMARK INTER + INTRA:          -6.963
REMARK INTER:                  -6.486
REMARK INTRA:                  -0.477
REMARK UNBOUND:                -0.477
REMARK SMILES CCCCCCCCCCCCCC(=O)[O-]
REMARK SMILES IDX 8 1 9 2 10 3 11 4 12 5 13 6 14 7 15 8 16 9 7 10 6 11 5 12
REMARK SMILES IDX 4 13 3 14 2 15 1 16
REMARK H PARENT
REMARK Flexibility Score: inf
ROOT
ATOM      1  C   UNL     1      33.576  25.231  64.479  1.00  0.00     0.000 C 
ENDROOT
BRANCH   1   2
ATOM      2  C   UNL     1      34.581  25.143  65.639  1.00  0.00     0.000 C 
BRANCH   2   3
ATOM      3  C   UNL     1      36.004  25.552  65.219  1.00  0.00     0.000 C 
BRANCH   3   4
ATOM      4  C   UNL     1      36.225  27.072  65.284  1.00  0.00     0.000 C 
BRANCH   4   5
ATOM      5  C   UNL     1      37.112  27.493  66.470  1.00  0.00     0.006 C 
BRANCH   5   6
ATOM      6  C   UNL     1      38.417  26.688  66.528  1.00  0.00     0.053 C 
BRANCH   6   7
ATOM      7  C   UNL     1      39.618  27.561  66.332  1.00  0.00     0.041 C 
ATOM      8  O   UNL     1      40.777  27.078  66.429  1.00  0.00    -0.550 OA
ATOM      9  O   UNL     1      39.458  28.916  66.070  1.00  0.00    -0.550 OA
ENDBRANCH   6   7
ENDBRANCH   5   6
ENDBRANCH   4   5
ENDBRANCH   3   4
ENDBRANCH   2   3
ENDBRANCH   1   2
BRANCH   1  10
ATOM     10  C   UNL     1      32.870  23.894  64.202  1.00  0.00     0.000 C 
BRANCH  10  11
ATOM     11  C   UNL     1      32.468  23.205  65.512  1.00  0.00    -0.000 C 
BRANCH  11  12
ATOM     12  C   UNL     1      31.574  24.120  66.363  1.00  0.00    -0.000 C 
BRANCH  12  13
ATOM     13  C   UNL     1      30.298  24.554  65.625  1.00  0.00    -0.000 C 
BRANCH  13  14
ATOM     14  C   UNL     1      29.435  23.363  65.184  1.00  0.00    -0.000 C 
BRANCH  14  15
ATOM     15  C   UNL     1      28.875  23.583  63.774  1.00  0.00    -0.003 C 
ATOM     16  C   UNL     1      29.909  23.232  62.708  1.00  0.00     0.004 C 
ENDBRANCH  14  15
ENDBRANCH  13  14
ENDBRANCH  12  13
ENDBRANCH  11  12
ENDBRANCH  10  11
ENDBRANCH   1  10
TORSDOF 12
ENDMDL
MODEL 2
REMARK VINA RESULT:    -3.563      4.104      8.490
REMARK INTER + INTRA:          -6.540
REMARK INTER:                  -5.832
REMARK INTRA:                  -0.708
REMARK UNBOUND:                -0.477
REMARK SMILES CCCCCCCCCCCCCC(=O)[O-]
REMARK SMILES IDX 8 1 9 2 10 3 11 4 12 5 13 6 14 7 15 8 16 9 7 10 6 11 5 12
REMARK SMILES IDX 4 13 3 14 2 15 1 16
REMARK H PARENT
REMARK Flexibility Score: inf
ROOT
ATOM      1  C   UNL     1      33.879  25.275  64.824  1.00  0.00     0.000 C 
ENDROOT
BRANCH   1   2
ATOM      2  C   UNL     1      33.382  24.165  65.765  1.00  0.00     0.000 C 
BRANCH   2   3
ATOM      3  C   UNL     1      32.403  24.688  66.831  1.00  0.00     0.000 C 
BRANCH   3   4
ATOM      4  C   UNL     1      31.055  23.949  66.810  1.00  0.00     0.000 C 
BRANCH   4   5
ATOM      5  C   UNL     1      30.110  24.470  65.712  1.00  0.00     0.006 C 
BRANCH   5   6
ATOM      6  C   UNL     1      29.529  23.333  64.862  1.00  0.00     0.053 C 
BRANCH   6   7
ATOM      7  C   UNL     1      29.898  23.475  63.417  1.00  0.00     0.041 C 
ATOM      8  O   UNL     1      29.007  23.443  62.528  1.00  0.00    -0.550 OA
ATOM      9  O   UNL     1      31.231  23.612  63.050  1.00  0.00    -0.550 OA
ENDBRANCH   6   7
ENDBRANCH   5   6
ENDBRANCH   4   5
ENDBRANCH   3   4
ENDBRANCH   2   3
ENDBRANCH   1   2
BRANCH   1  10
ATOM     10  C   UNL     1      35.388  25.531  64.953  1.00  0.00     0.000 C 
BRANCH  10  11
ATOM     11  C   UNL     1      35.700  26.346  66.216  1.00  0.00    -0.000 C 
BRANCH  11  12
ATOM     12  C   UNL     1      37.210  26.598  66.348  1.00  0.00    -0.000 C 
BRANCH  12  13
ATOM     13  C   UNL     1      37.624  27.988  65.842  1.00  0.00    -0.000 C 
BRANCH  13  14
ATOM     14  C   UNL     1      39.036  28.388  66.295  1.00  0.00    -0.000 C 
BRANCH  14  15
ATOM     15  C   UNL     1      39.714  27.239  67.051  1.00  0.00    -0.003 C 
ATOM     16  C   UNL     1      41.188  27.123  66.672  1.00  0.00     0.004 C 
ENDBRANCH  14  15
ENDBRANCH  13  14
ENDBRANCH  12  13
ENDBRANCH  11  12
ENDBRANCH  10  11
ENDBRANCH   1  10
TORSDOF 12
ENDMDL
MODEL 3
REMARK VINA RESULT:    -2.761     14.891     17.376
REMARK INTER + INTRA:          -5.174
REMARK INTER:                  -3.689
REMARK INTRA:                  -1.485
REMARK UNBOUND:                -0.477
REMARK SMILES CCCCCCCCCCCCCC(=O)[O-]
REMARK SMILES IDX 8 1 9 2 10 3 11 4 12 5 13 6 14 7 15 8 16 9 7 10 6 11 5 12
REMARK SMILES IDX 4 13 3 14 2 15 1 16
REMARK H PARENT
REMARK Flexibility Score: inf
ROOT
ATOM      1  C   UNL     1      39.457  39.020  64.603  1.00  0.00     0.000 C 
ENDROOT
BRANCH   1   2
ATOM      2  C   UNL     1      38.814  39.824  65.745  1.00  0.00     0.000 C 
BRANCH   2   3
ATOM      3  C   UNL     1      39.077  41.336  65.624  1.00  0.00     0.000 C 
BRANCH   3   4
ATOM      4  C   UNL     1      39.001  42.059  66.979  1.00  0.00     0.000 C 
BRANCH   4   5
ATOM      5  C   UNL     1      37.727  42.911  67.125  1.00  0.00     0.006 C 
BRANCH   5   6
ATOM      6  C   UNL     1      36.686  42.583  66.047  1.00  0.00     0.053 C 
BRANCH   6   7
ATOM      7  C   UNL     1      35.481  41.907  66.625  1.00  0.00     0.041 C 
ATOM      8  O   UNL     1      34.402  42.541  66.761  1.00  0.00    -0.550 OA
ATOM      9  O   UNL     1      35.558  40.583  67.040  1.00  0.00    -0.550 OA
ENDBRANCH   6   7
ENDBRANCH   5   6
ENDBRANCH   4   5
ENDBRANCH   3   4
ENDBRANCH   2   3
ENDBRANCH   1   2
BRANCH   1  10
ATOM     10  C   UNL     1      40.453  37.965  65.107  1.00  0.00     0.000 C 
BRANCH  10  11
ATOM     11  C   UNL     1      40.522  37.963  66.639  1.00  0.00    -0.000 C 
BRANCH  11  12
ATOM     12  C   UNL     1      41.969  37.791  67.125  1.00  0.00    -0.000 C 
BRANCH  12  13
ATOM     13  C   UNL     1      42.953  38.719  66.394  1.00  0.00    -0.000 C 
BRANCH  13  14
ATOM     14  C   UNL     1      43.049  40.108  67.041  1.00  0.00    -0.000 C 
BRANCH  14  15
ATOM     15  C   UNL     1      42.827  41.213  66.002  1.00  0.00    -0.003 C 
ATOM     16  C   UNL     1      42.660  42.575  66.671  1.00  0.00     0.004 C 
ENDBRANCH  14  15
ENDBRANCH  13  14
ENDBRANCH  12  13
ENDBRANCH  11  12
ENDBRANCH  10  11
ENDBRANCH   1  10
TORSDOF 12
ENDMDL
MODEL 4
REMARK VINA RESULT:    -2.506     15.364     16.718
REMARK INTER + INTRA:          -4.740
REMARK INTER:                  -4.195
REMARK INTRA:                  -0.545
REMARK UNBOUND:                -0.477
REMARK SMILES CCCCCCCCCCCCCC(=O)[O-]
REMARK SMILES IDX 8 1 9 2 10 3 11 4 12 5 13 6 14 7 15 8 16 9 7 10 6 11 5 12
REMARK SMILES IDX 4 13 3 14 2 15 1 16
REMARK H PARENT
REMARK Flexibility Score: inf
ROOT
ATOM      1  C   UNL     1      38.602  39.451  65.849  1.00  0.00     0.000 C 
ENDROOT
BRANCH   1   2
ATOM      2  C   UNL     1      39.819  39.236  64.935  1.00  0.00     0.000 C 
BRANCH   2   3
ATOM      3  C   UNL     1      40.861  38.286  65.552  1.00  0.00     0.000 C 
BRANCH   3   4
ATOM      4  C   UNL     1      41.270  38.701  66.974  1.00  0.00     0.000 C 
BRANCH   4   5
ATOM      5  C   UNL     1      41.426  40.225  67.125  1.00  0.00     0.006 C 
BRANCH   5   6
ATOM      6  C   UNL     1      42.818  40.709  66.697  1.00  0.00     0.053 C 
BRANCH   6   7
ATOM      7  C   UNL     1      42.880  42.202  66.593  1.00  0.00     0.041 C 
ATOM      8  O   UNL     1      41.834  42.866  66.367  1.00  0.00    -0.550 OA
ATOM      9  O   UNL     1      44.098  42.858  66.715  1.00  0.00    -0.550 OA
ENDBRANCH   6   7
ENDBRANCH   5   6
ENDBRANCH   4   5
ENDBRANCH   3   4
ENDBRANCH   2   3
ENDBRANCH   1   2
BRANCH   1  10
ATOM     10  C   UNL     1      37.997  40.857  65.711  1.00  0.00     0.000 C 
BRANCH  10  11
ATOM     11  C   UNL     1      37.420  41.340  67.047  1.00  0.00    -0.000 C 
BRANCH  11  12
ATOM     12  C   UNL     1      36.827  42.750  66.913  1.00  0.00    -0.000 C 
BRANCH  12  13
ATOM     13  C   UNL     1      36.098  42.961  65.576  1.00  0.00    -0.000 C 
BRANCH  13  14
ATOM     14  C   UNL     1      34.571  42.969  65.729  1.00  0.00    -0.000 C 
BRANCH  14  15
ATOM     15  C   UNL     1      34.155  42.457  67.113  1.00  0.00    -0.003 C 
ATOM     16  C   UNL     1      33.348  41.166  67.005  1.00  0.00     0.004 C 
ENDBRANCH  14  15
ENDBRANCH  13  14
ENDBRANCH  12  13
ENDBRANCH  11  12
ENDBRANCH  10  11
ENDBRANCH   1  10
TORSDOF 12
ENDMDL
MODEL 5
REMARK VINA RESULT:    -2.353      4.348      8.406
REMARK INTER + INTRA:          -4.480
REMARK INTER:                  -4.226
REMARK INTRA:                  -0.253
REMARK UNBOUND:                -0.477
REMARK SMILES CCCCCCCCCCCCCC(=O)[O-]
REMARK SMILES IDX 8 1 9 2 10 3 11 4 12 5 13 6 14 7 15 8 16 9 7 10 6 11 5 12
REMARK SMILES IDX 4 13 3 14 2 15 1 16
REMARK H PARENT
REMARK Flexibility Score: inf
ROOT
ATOM      1  C   UNL     1      34.465  25.159  66.531  1.00  0.00     0.000 C 
ENDROOT
BRANCH   1   2
ATOM      2  C   UNL     1      33.421  24.207  65.923  1.00  0.00     0.000 C 
BRANCH   2   3
ATOM      3  C   UNL     1      32.882  24.707  64.572  1.00  0.00     0.000 C 
BRANCH   3   4
ATOM      4  C   UNL     1      32.467  23.558  63.639  1.00  0.00     0.000 C 
BRANCH   4   5
ATOM      5  C   UNL     1      31.010  23.111  63.862  1.00  0.00     0.006 C 
BRANCH   5   6
ATOM      6  C   UNL     1      30.698  22.878  65.345  1.00  0.00     0.053 C 
BRANCH   6   7
ATOM      7  C   UNL     1      29.507  23.667  65.794  1.00  0.00     0.041 C 
ATOM      8  O   UNL     1      28.876  24.385  64.973  1.00  0.00    -0.550 OA
ATOM      9  O   UNL     1      29.110  23.634  67.124  1.00  0.00    -0.550 OA
ENDBRANCH   6   7
ENDBRANCH   5   6
ENDBRANCH   4   5
ENDBRANCH   3   4
ENDBRANCH   2   3
ENDBRANCH   1   2
BRANCH   1  10
ATOM     10  C   UNL     1      35.147  26.044  65.476  1.00  0.00     0.000 C 
BRANCH  10  11
ATOM     11  C   UNL     1      36.668  26.055  65.668  1.00  0.00    -0.000 C 
BRANCH  11  12
ATOM     12  C   UNL     1      37.063  26.902  66.887  1.00  0.00    -0.000 C 
BRANCH  12  13
ATOM     13  C   UNL     1      38.584  27.069  67.025  1.00  0.00    -0.000 C 
BRANCH  13  14
ATOM     14  C   UNL     1      39.186  27.947  65.917  1.00  0.00    -0.000 C 
BRANCH  14  15
ATOM     15  C   UNL     1      38.352  29.216  65.709  1.00  0.00    -0.003 C 
ATOM     16  C   UNL     1      38.834  30.348  66.612  1.00  0.00     0.004 C 
ENDBRANCH  14  15
ENDBRANCH  13  14
ENDBRANCH  12  13
ENDBRANCH  11  12
ENDBRANCH  10  11
ENDBRANCH   1  10
TORSDOF 12
ENDMDL
MODEL 6
REMARK VINA RESULT:    -2.308     12.521     14.081
REMARK INTER + INTRA:          -4.403
REMARK INTER:                  -3.832
REMARK INTRA:                  -0.572
REMARK UNBOUND:                -0.477
REMARK SMILES CCCCCCCCCCCCCC(=O)[O-]
REMARK SMILES IDX 8 1 9 2 10 3 11 4 12 5 13 6 14 7 15 8 16 9 7 10 6 11 5 12
REMARK SMILES IDX 4 13 3 14 2 15 1 16
REMARK H PARENT
REMARK Flexibility Score: inf
ROOT
ATOM      1  C   UNL     1      35.822  24.968  52.904  1.00  0.00     0.000 C 
ENDROOT
BRANCH   1   2
ATOM      2  C   UNL     1      37.264  25.293  53.330  1.00  0.00     0.000 C 
BRANCH   2   3
ATOM      3  C   UNL     1      38.312  24.651  52.404  1.00  0.00     0.000 C 
BRANCH   3   4
ATOM      4  C   UNL     1      38.045  23.158  52.154  1.00  0.00     0.000 C 
BRANCH   4   5
ATOM      5  C   UNL     1      37.533  22.878  50.730  1.00  0.00     0.006 C 
BRANCH   5   6
ATOM      6  C   UNL     1      36.000  22.876  50.657  1.00  0.00     0.053 C 
BRANCH   6   7
ATOM      7  C   UNL     1      35.503  23.503  49.391  1.00  0.00     0.041 C 
ATOM      8  O   UNL     1      36.075  23.261  48.295  1.00  0.00    -0.550 OA
ATOM      9  O   UNL     1      34.425  24.378  49.424  1.00  0.00    -0.550 OA
ENDBRANCH   6   7
ENDBRANCH   5   6
ENDBRANCH   4   5
ENDBRANCH   3   4
ENDBRANCH   2   3
ENDBRANCH   1   2
BRANCH   1  10
ATOM     10  C   UNL     1      35.020  24.265  54.010  1.00  0.00     0.000 C 
BRANCH  10  11
ATOM     11  C   UNL     1      35.880  23.218  54.730  1.00  0.00    -0.000 C 
BRANCH  11  12
ATOM     12  C   UNL     1      35.874  23.451  56.249  1.00  0.00    -0.000 C 
BRANCH  12  13
ATOM     13  C   UNL     1      37.262  23.263  56.881  1.00  0.00    -0.000 C 
BRANCH  13  14
ATOM     14  C   UNL     1      38.378  23.942  56.074  1.00  0.00    -0.000 C 
BRANCH  14  15
ATOM     15  C   UNL     1      39.746  23.341  56.416  1.00  0.00    -0.003 C 
ATOM     16  C   UNL     1      40.532  24.254  57.354  1.00  0.00     0.004 C 
ENDBRANCH  14  15
ENDBRANCH  13  14
ENDBRANCH  12  13
ENDBRANCH  11  12
ENDBRANCH  10  11
ENDBRANCH   1  10
TORSDOF 12
ENDMDL
MODEL 7
REMARK VINA RESULT:    -1.549     14.976     18.016
REMARK INTER + INTRA:          -3.112
REMARK INTER:                  -3.690
REMARK INTRA:                   0.578
REMARK UNBOUND:                -0.477
REMARK SMILES CCCCCCCCCCCCCC(=O)[O-]
REMARK SMILES IDX 8 1 9 2 10 3 11 4 12 5 13 6 14 7 15 8 16 9 7 10 6 11 5 12
REMARK SMILES IDX 4 13 3 14 2 15 1 16
REMARK H PARENT
REMARK Flexibility Score: inf
ROOT
ATOM      1  C   UNL     1      40.054  38.004  66.405  1.00  0.00     0.000 C 
ENDROOT
BRANCH   1   2
ATOM      2  C   UNL     1      38.893  38.712  67.121  1.00  0.00     0.000 C 
BRANCH   2   3
ATOM      3  C   UNL     1      37.683  38.943  66.199  1.00  0.00     0.000 C 
BRANCH   3   4
ATOM      4  C   UNL     1      37.544  40.411  65.763  1.00  0.00     0.000 C 
BRANCH   4   5
ATOM      5  C   UNL     1      36.642  41.227  66.708  1.00  0.00     0.006 C 
BRANCH   5   6
ATOM      6  C   UNL     1      36.511  42.688  66.261  1.00  0.00     0.053 C 
BRANCH   6   7
ATOM      7  C   UNL     1      35.184  42.956  65.618  1.00  0.00     0.041 C 
ATOM      8  O   UNL     1      34.139  43.006  66.318  1.00  0.00    -0.550 OA
ATOM      9  O   UNL     1      35.099  43.122  64.242  1.00  0.00    -0.550 OA
ENDBRANCH   6   7
ENDBRANCH   5   6
ENDBRANCH   4   5
ENDBRANCH   3   4
ENDBRANCH   2   3
ENDBRANCH   1   2
BRANCH   1  10
ATOM     10  C   UNL     1      40.298  38.546  64.988  1.00  0.00     0.000 C 
BRANCH  10  11
ATOM     11  C   UNL     1      40.682  40.031  65.028  1.00  0.00    -0.000 C 
BRANCH  11  12
ATOM     12  C   UNL     1      40.922  40.498  66.471  1.00  0.00    -0.000 C 
BRANCH  12  13
ATOM     13  C   UNL     1      41.645  41.853  66.542  1.00  0.00    -0.000 C 
BRANCH  13  14
ATOM     14  C   UNL     1      43.061  41.739  67.125  1.00  0.00    -0.000 C 
BRANCH  14  15
ATOM     15  C   UNL     1      43.772  43.098  67.108  1.00  0.00    -0.003 C 
ATOM     16  C   UNL     1      45.278  42.931  66.924  1.00  0.00     0.004 C 
ENDBRANCH  14  15
ENDBRANCH  13  14
ENDBRANCH  12  13
ENDBRANCH  11  12
ENDBRANCH  10  11
ENDBRANCH   1  10
TORSDOF 12
ENDMDL
