MODEL 1
REMARK VINA RESULT:    -1.929      0.000      0.000
REMARK INTER + INTRA:          -6.491
REMARK INTER:                  -5.087
REMARK INTRA:                  -1.404
REMARK UNBOUND:                -1.404
REMARK SMILES CCCCCCCCCCCCCCCCCCCCCCCCCCCCCC(=O)[O-]
REMARK SMILES IDX 16 1 17 2 18 3 19 4 20 5 21 6 22 7 23 8 24 9 25 10 26 11
REMARK SMILES IDX 27 12 28 13 29 14 30 15 31 16 32 17 15 18 14 19 13 20 12 21
REMARK SMILES IDX 11 22 10 23 9 24 8 25 7 26 6 27 5 28 4 29 3 30 2 31 1 32
REMARK H PARENT
REMARK Flexibility Score: inf
ROOT
ATOM      1  C   UNL     1     108.244 106.570 112.595  1.00  0.00     0.000 C 
ENDROOT
BRANCH   1   2
ATOM      2  C   UNL     1     108.479 106.396 111.088  1.00  0.00     0.000 C 
BRANCH   2   3
ATOM      3  C   UNL     1     108.730 104.931 110.686  1.00  0.00     0.000 C 
BRANCH   3   4
ATOM      4  C   UNL     1     109.915 104.256 111.400  1.00  0.00     0.000 C 
BRANCH   4   5
ATOM      5  C   UNL     1     110.484 103.060 110.615  1.00  0.00     0.000 C 
BRANCH   5   6
ATOM      6  C   UNL     1     111.053 101.967 111.533  1.00  0.00     0.000 C 
BRANCH   6   7
ATOM      7  C   UNL     1     112.033 102.524 112.581  1.00  0.00     0.000 C 
BRANCH   7   8
ATOM      8  C   UNL     1     113.499 102.194 112.255  1.00  0.00     0.000 C 
BRANCH   8   9
ATOM      9  C   UNL     1     113.997 102.901 110.983  1.00  0.00     0.000 C 
BRANCH   9  10
ATOM     10  C   UNL     1     115.156 103.876 111.255  1.00  0.00     0.000 C 
BRANCH  10  11
ATOM     11  C   UNL     1     115.062 104.641 112.589  1.00  0.00     0.000 C 
BRANCH  11  12
ATOM     12  C   UNL     1     116.370 104.699 113.403  1.00  0.00     0.000 C 
BRANCH  12  13
ATOM     13  C   UNL     1     117.658 104.804 112.562  1.00  0.00     0.006 C 
BRANCH  13  14
ATOM     14  C   UNL     1     118.861 105.393 113.317  1.00  0.00     0.053 C 
BRANCH  14  15
ATOM     15  C   UNL     1     119.236 104.566 114.508  1.00  0.00     0.041 C 
ATOM     16  O   UNL     1     119.079 103.316 114.487  1.00  0.00    -0.550 OA
ATOM     17  O   UNL     1     119.784 105.170 115.632  1.00  0.00    -0.550 OA
ENDBRANCH  14  15
ENDBRANCH  13  14
ENDBRANCH  12  13
ENDBRANCH  11  12
ENDBRANCH  10  11
ENDBRANCH   9  10
ENDBRANCH   8   9
ENDBRANCH   7   8
ENDBRANCH   6   7
ENDBRANCH   5   6
ENDBRANCH   4   5
ENDBRANCH   3   4
ENDBRANCH   2   3
ENDBRANCH   1   2
BRANCH   1  18
ATOM     18  C   UNL     1     106.844 106.079 112.994  1.00  0.00     0.000 C 
BRANCH  18  19
ATOM     19  C   UNL     1     105.861 107.228 113.286  1.00  0.00     0.000 C 
BRANCH  19  20
ATOM     20  C   UNL     1     104.727 106.888 114.269  1.00  0.00     0.000 C 
BRANCH  20  21
ATOM     21  C   UNL     1     103.684 105.929 113.672  1.00  0.00     0.000 C 
BRANCH  21  22
ATOM     22  C   UNL     1     102.786 106.600 112.615  1.00  0.00     0.000 C 
BRANCH  22  23
ATOM     23  C   UNL     1     101.313 106.153 112.628  1.00  0.00     0.000 C 
BRANCH  23  24
ATOM     24  C   UNL     1     100.446 106.914 111.610  1.00  0.00    -0.000 C 
BRANCH  24  25
ATOM     25  C   UNL     1     100.275 106.148 110.289  1.00  0.00    -0.000 C 
BRANCH  25  26
ATOM     26  C   UNL     1     100.342 107.070 109.063  1.00  0.00    -0.000 C 
BRANCH  26  27
ATOM     27  C   UNL     1     101.543 108.020 109.151  1.00  0.00    -0.000 C 
BRANCH  27  28
ATOM     28  C   UNL     1     101.523 109.037 108.000  1.00  0.00    -0.000 C 
BRANCH  28  29
ATOM     29  C   UNL     1     102.846 109.078 107.213  1.00  0.00    -0.000 C 
BRANCH  29  30
ATOM     30  C   UNL     1     102.797 109.876 105.894  1.00  0.00    -0.000 C 
BRANCH  30  31
ATOM     31  C   UNL     1     103.586 109.253 104.729  1.00  0.00    -0.003 C 
ATOM     32  C   UNL     1     102.937 109.506 103.369  1.00  0.00     0.004 C 
ENDBRANCH  30  31
ENDBRANCH  29  30
ENDBRANCH  28  29
ENDBRANCH  27  28
ENDBRANCH  26  27
ENDBRANCH  25  26
ENDBRANCH  24  25
ENDBRANCH  23  24
ENDBRANCH  22  23
ENDBRANCH  21  22
ENDBRANCH  20  21
ENDBRANCH  19  20
ENDBRANCH  18  19
ENDBRANCH   1  18
TORSDOF 28
ENDMDL
MODEL 2
REMARK VINA RESULT:    -1.660      5.029     13.699
REMARK INTER + INTRA:          -5.783
REMARK INTER:                  -4.301
REMARK INTRA:                  -1.481
REMARK UNBOUND:                -1.404
REMARK SMILES CCCCCCCCCCCCCCCCCCCCCCCCCCCCCC(=O)[O-]
REMARK SMILES IDX 16 1 17 2 18 3 19 4 20 5 21 6 22 7 23 8 24 9 25 10 26 11
REMARK SMILES IDX 27 12 28 13 29 14 30 15 31 16 32 17 15 18 14 19 13 20 12 21
REMARK SMILES IDX 11 22 10 23 9 24 8 25 7 26 6 27 5 28 4 29 3 30 2 31 1 32
REMARK H PARENT
REMARK Flexibility Score: inf
ROOT
ATOM      1  C   UNL     1     107.425 106.522 112.654  1.00  0.00     0.000 C 
ENDROOT
BRANCH   1   2
ATOM      2  C   UNL     1     106.111 107.247 112.979  1.00  0.00     0.000 C 
BRANCH   2   3
ATOM      3  C   UNL     1     105.252 106.497 114.014  1.00  0.00     0.000 C 
BRANCH   3   4
ATOM      4  C   UNL     1     104.023 105.774 113.435  1.00  0.00     0.000 C 
BRANCH   4   5
ATOM      5  C   UNL     1     102.961 106.744 112.887  1.00  0.00     0.000 C 
BRANCH   5   6
ATOM      6  C   UNL     1     101.563 106.112 112.816  1.00  0.00     0.000 C 
BRANCH   6   7
ATOM      7  C   UNL     1     100.617 106.869 111.866  1.00  0.00     0.000 C 
BRANCH   7   8
ATOM      8  C   UNL     1     100.117 105.992 110.707  1.00  0.00     0.000 C 
BRANCH   8   9
ATOM      9  C   UNL     1     100.345 106.643 109.331  1.00  0.00     0.000 C 
BRANCH   9  10
ATOM     10  C   UNL     1     101.036 108.014 109.424  1.00  0.00     0.000 C 
BRANCH  10  11
ATOM     11  C   UNL     1     102.114 108.272 108.353  1.00  0.00     0.000 C 
BRANCH  11  12
ATOM     12  C   UNL     1     101.862 109.497 107.453  1.00  0.00     0.000 C 
BRANCH  12  13
ATOM     13  C   UNL     1     102.962 109.777 106.410  1.00  0.00     0.006 C 
BRANCH  13  14
ATOM     14  C   UNL     1     102.434 110.055 104.992  1.00  0.00     0.053 C 
BRANCH  14  15
ATOM     15  C   UNL     1     103.306 109.445 103.938  1.00  0.00     0.041 C 
ATOM     16  O   UNL     1     104.498 109.135 104.202  1.00  0.00    -0.550 OA
ATOM     17  O   UNL     1     102.795 109.194 102.671  1.00  0.00    -0.550 OA
ENDBRANCH  14  15
ENDBRANCH  13  14
ENDBRANCH  12  13
ENDBRANCH  11  12
ENDBRANCH  10  11
ENDBRANCH   9  10
ENDBRANCH   8   9
ENDBRANCH   7   8
ENDBRANCH   6   7
ENDBRANCH   5   6
ENDBRANCH   4   5
ENDBRANCH   3   4
ENDBRANCH   2   3
ENDBRANCH   1   2
BRANCH   1  18
ATOM     18  C   UNL     1     108.168 107.219 111.504  1.00  0.00     0.000 C 
BRANCH  18  19
ATOM     19  C   UNL     1     109.128 106.282 110.749  1.00  0.00     0.000 C 
BRANCH  19  20
ATOM     20  C   UNL     1     108.851 104.778 110.925  1.00  0.00     0.000 C 
BRANCH  20  21
ATOM     21  C   UNL     1     110.070 103.901 110.597  1.00  0.00     0.000 C 
BRANCH  21  22
ATOM     22  C   UNL     1     110.303 102.785 111.633  1.00  0.00     0.000 C 
BRANCH  22  23
ATOM     23  C   UNL     1     111.588 101.961 111.429  1.00  0.00     0.000 C 
BRANCH  23  24
ATOM     24  C   UNL     1     112.842 102.656 111.989  1.00  0.00    -0.000 C 
BRANCH  24  25
ATOM     25  C   UNL     1     114.078 102.448 111.101  1.00  0.00    -0.000 C 
BRANCH  25  26
ATOM     26  C   UNL     1     114.852 103.752 110.858  1.00  0.00    -0.000 C 
BRANCH  26  27
ATOM     27  C   UNL     1     116.033 103.883 111.829  1.00  0.00    -0.000 C 
BRANCH  27  28
ATOM     28  C   UNL     1     115.654 104.749 113.038  1.00  0.00    -0.000 C 
BRANCH  28  29
ATOM     29  C   UNL     1     116.851 105.053 113.958  1.00  0.00    -0.000 C 
BRANCH  29  30
ATOM     30  C   UNL     1     118.214 104.540 113.448  1.00  0.00    -0.000 C 
BRANCH  30  31
ATOM     31  C   UNL     1     119.315 105.611 113.349  1.00  0.00    -0.003 C 
ATOM     32  C   UNL     1     119.274 106.387 112.034  1.00  0.00     0.004 C 
ENDBRANCH  30  31
ENDBRANCH  29  30
ENDBRANCH  28  29
ENDBRANCH  27  28
ENDBRANCH  26  27
ENDBRANCH  25  26
ENDBRANCH  24  25
ENDBRANCH  23  24
ENDBRANCH  22  23
ENDBRANCH  21  22
ENDBRANCH  20  21
ENDBRANCH  19  20
ENDBRANCH  18  19
ENDBRANCH   1  18
TORSDOF 28
ENDMDL
MODEL 3
REMARK VINA RESULT:    -1.645      1.005      2.763
REMARK INTER + INTRA:          -5.741
REMARK INTER:                  -4.438
REMARK INTRA:                  -1.304
REMARK UNBOUND:                -1.404
REMARK SMILES CCCCCCCCCCCCCCCCCCCCCCCCCCCCCC(=O)[O-]
REMARK SMILES IDX 16 1 17 2 18 3 19 4 20 5 21 6 22 7 23 8 24 9 25 10 26 11
REMARK SMILES IDX 27 12 28 13 29 14 30 15 31 16 32 17 15 18 14 19 13 20 12 21
REMARK SMILES IDX 11 22 10 23 9 24 8 25 7 26 6 27 5 28 4 29 3 30 2 31 1 32
REMARK H PARENT
REMARK Flexibility Score: inf
ROOT
ATOM      1  C   UNL     1     105.812 107.067 113.020  1.00  0.00     0.000 C 
ENDROOT
BRANCH   1   2
ATOM      2  C   UNL     1     107.022 106.122 112.984  1.00  0.00     0.000 C 
BRANCH   2   3
ATOM      3  C   UNL     1     108.253 106.749 112.303  1.00  0.00     0.000 C 
BRANCH   3   4
ATOM      4  C   UNL     1     108.497 106.289 110.854  1.00  0.00     0.000 C 
BRANCH   4   5
ATOM      5  C   UNL     1     108.747 104.774 110.742  1.00  0.00     0.000 C 
BRANCH   5   6
ATOM      6  C   UNL     1     110.018 104.329 111.481  1.00  0.00     0.000 C 
BRANCH   6   7
ATOM      7  C   UNL     1     110.721 103.145 110.792  1.00  0.00     0.000 C 
BRANCH   7   8
ATOM      8  C   UNL     1     111.225 102.092 111.791  1.00  0.00     0.000 C 
BRANCH   8   9
ATOM      9  C   UNL     1     112.661 102.368 112.269  1.00  0.00     0.000 C 
BRANCH   9  10
ATOM     10  C   UNL     1     113.618 102.723 111.117  1.00  0.00     0.000 C 
BRANCH  10  11
ATOM     11  C   UNL     1     114.813 103.612 111.516  1.00  0.00     0.000 C 
BRANCH  11  12
ATOM     12  C   UNL     1     114.768 104.160 112.956  1.00  0.00     0.000 C 
BRANCH  12  13
ATOM     13  C   UNL     1     116.045 104.893 113.414  1.00  0.00     0.006 C 
BRANCH  13  14
ATOM     14  C   UNL     1     117.323 104.456 112.679  1.00  0.00     0.053 C 
BRANCH  14  15
ATOM     15  C   UNL     1     118.542 105.140 113.217  1.00  0.00     0.041 C 
ATOM     16  O   UNL     1     119.006 106.158 112.639  1.00  0.00    -0.550 OA
ATOM     17  O   UNL     1     119.151 104.669 114.373  1.00  0.00    -0.550 OA
ENDBRANCH  14  15
ENDBRANCH  13  14
ENDBRANCH  12  13
ENDBRANCH  11  12
ENDBRANCH  10  11
ENDBRANCH   9  10
ENDBRANCH   8   9
ENDBRANCH   7   8
ENDBRANCH   6   7
ENDBRANCH   5   6
ENDBRANCH   4   5
ENDBRANCH   3   4
ENDBRANCH   2   3
ENDBRANCH   1   2
BRANCH   1  18
ATOM     18  C   UNL     1     104.755 106.567 114.017  1.00  0.00     0.000 C 
BRANCH  18  19
ATOM     19  C   UNL     1     103.543 105.909 113.332  1.00  0.00     0.000 C 
BRANCH  19  20
ATOM     20  C   UNL     1     102.688 106.850 112.464  1.00  0.00     0.000 C 
BRANCH  20  21
ATOM     21  C   UNL     1     101.249 106.345 112.270  1.00  0.00     0.000 C 
BRANCH  21  22
ATOM     22  C   UNL     1     100.643 106.764 110.917  1.00  0.00     0.000 C 
BRANCH  22  23
ATOM     23  C   UNL     1     101.355 107.934 110.215  1.00  0.00     0.000 C 
BRANCH  23  24
ATOM     24  C   UNL     1     101.370 107.794 108.683  1.00  0.00    -0.000 C 
BRANCH  24  25
ATOM     25  C   UNL     1     101.431 109.152 107.966  1.00  0.00    -0.000 C 
BRANCH  25  26
ATOM     26  C   UNL     1     102.793 109.406 107.303  1.00  0.00    -0.000 C 
BRANCH  26  27
ATOM     27  C   UNL     1     102.620 109.934 105.873  1.00  0.00    -0.000 C 
BRANCH  27  28
ATOM     28  C   UNL     1     103.486 109.137 104.886  1.00  0.00    -0.000 C 
BRANCH  28  29
ATOM     29  C   UNL     1     103.511 109.754 103.476  1.00  0.00    -0.000 C 
BRANCH  29  30
ATOM     30  C   UNL     1     102.280 109.440 102.602  1.00  0.00    -0.000 C 
BRANCH  30  31
ATOM     31  C   UNL     1     101.041 110.307 102.889  1.00  0.00    -0.003 C 
ATOM     32  C   UNL     1     101.250 111.779 102.538  1.00  0.00     0.004 C 
ENDBRANCH  30  31
ENDBRANCH  29  30
ENDBRANCH  28  29
ENDBRANCH  27  28
ENDBRANCH  26  27
ENDBRANCH  25  26
ENDBRANCH  24  25
ENDBRANCH  23  24
ENDBRANCH  22  23
ENDBRANCH  21  22
ENDBRANCH  20  21
ENDBRANCH  19  20
ENDBRANCH  18  19
ENDBRANCH   1  18
TORSDOF 28
ENDMDL
MODEL 4
REMARK VINA RESULT:    -1.594      4.701     13.587
REMARK INTER + INTRA:          -5.607
REMARK INTER:                  -3.749
REMARK INTRA:                  -1.858
REMARK UNBOUND:                -1.404
REMARK SMILES CCCCCCCCCCCCCCCCCCCCCCCCCCCCCC(=O)[O-]
REMARK SMILES IDX 16 1 17 2 18 3 19 4 20 5 21 6 22 7 23 8 24 9 25 10 26 11
REMARK SMILES IDX 27 12 28 13 29 14 30 15 31 16 32 17 15 18 14 19 13 20 12 21
REMARK SMILES IDX 11 22 10 23 9 24 8 25 7 26 6 27 5 28 4 29 3 30 2 31 1 32
REMARK H PARENT
REMARK Flexibility Score: inf
ROOT
ATOM      1  C   UNL     1     108.878 106.108 110.363  1.00  0.00     0.000 C 
ENDROOT
BRANCH   1   2
ATOM      2  C   UNL     1     108.785 107.110 111.523  1.00  0.00     0.000 C 
BRANCH   2   3
ATOM      3  C   UNL     1     107.334 107.475 111.887  1.00  0.00     0.000 C 
BRANCH   3   4
ATOM      4  C   UNL     1     106.759 106.715 113.096  1.00  0.00     0.000 C 
BRANCH   4   5
ATOM      5  C   UNL     1     105.533 107.413 113.713  1.00  0.00     0.000 C 
BRANCH   5   6
ATOM      6  C   UNL     1     104.545 106.421 114.345  1.00  0.00     0.000 C 
BRANCH   6   7
ATOM      7  C   UNL     1     103.682 105.694 113.297  1.00  0.00     0.000 C 
BRANCH   7   8
ATOM      8  C   UNL     1     102.706 106.638 112.576  1.00  0.00     0.000 C 
BRANCH   8   9
ATOM      9  C   UNL     1     101.258 106.119 112.595  1.00  0.00     0.000 C 
BRANCH   9  10
ATOM     10  C   UNL     1     100.330 106.901 111.648  1.00  0.00     0.000 C 
BRANCH  10  11
ATOM     11  C   UNL     1      99.944 106.155 110.355  1.00  0.00     0.000 C 
BRANCH  11  12
ATOM     12  C   UNL     1     100.552 106.732 109.061  1.00  0.00     0.000 C 
BRANCH  12  13
ATOM     13  C   UNL     1     101.447 107.972 109.258  1.00  0.00     0.006 C 
BRANCH  13  14
ATOM     14  C   UNL     1     101.379 108.990 108.107  1.00  0.00     0.053 C 
BRANCH  14  15
ATOM     15  C   UNL     1     102.631 108.992 107.285  1.00  0.00     0.041 C 
ATOM     16  O   UNL     1     103.490 108.083 107.435  1.00  0.00    -0.550 OA
ATOM     17  O   UNL     1     102.838 109.983 106.334  1.00  0.00    -0.550 OA
ENDBRANCH  14  15
ENDBRANCH  13  14
ENDBRANCH  12  13
ENDBRANCH  11  12
ENDBRANCH  10  11
ENDBRANCH   9  10
ENDBRANCH   8   9
ENDBRANCH   7   8
ENDBRANCH   6   7
ENDBRANCH   5   6
ENDBRANCH   4   5
ENDBRANCH   3   4
ENDBRANCH   2   3
ENDBRANCH   1   2
BRANCH   1  18
ATOM     18  C   UNL     1     108.790 104.663 110.876  1.00  0.00     0.000 C 
BRANCH  18  19
ATOM     19  C   UNL     1     110.169 103.998 111.047  1.00  0.00     0.000 C 
BRANCH  19  20
ATOM     20  C   UNL     1     110.267 102.550 110.535  1.00  0.00     0.000 C 
BRANCH  20  21
ATOM     21  C   UNL     1     111.332 101.724 111.273  1.00  0.00     0.000 C 
BRANCH  21  22
ATOM     22  C   UNL     1     111.954 102.474 112.467  1.00  0.00     0.000 C 
BRANCH  22  23
ATOM     23  C   UNL     1     113.488 102.390 112.565  1.00  0.00     0.000 C 
BRANCH  23  24
ATOM     24  C   UNL     1     114.172 102.273 111.192  1.00  0.00    -0.000 C 
BRANCH  24  25
ATOM     25  C   UNL     1     114.931 103.550 110.800  1.00  0.00    -0.000 C 
BRANCH  25  26
ATOM     26  C   UNL     1     115.983 103.953 111.845  1.00  0.00    -0.000 C 
BRANCH  26  27
ATOM     27  C   UNL     1     115.415 104.983 112.830  1.00  0.00    -0.000 C 
BRANCH  27  28
ATOM     28  C   UNL     1     116.524 105.550 113.728  1.00  0.00    -0.000 C 
BRANCH  28  29
ATOM     29  C   UNL     1     117.583 104.501 114.110  1.00  0.00    -0.000 C 
BRANCH  29  30
ATOM     30  C   UNL     1     119.003 104.780 113.575  1.00  0.00    -0.000 C 
BRANCH  30  31
ATOM     31  C   UNL     1     119.205 106.180 112.968  1.00  0.00    -0.003 C 
ATOM     32  C   UNL     1     119.263 106.164 111.441  1.00  0.00     0.004 C 
ENDBRANCH  30  31
ENDBRANCH  29  30
ENDBRANCH  28  29
ENDBRANCH  27  28
ENDBRANCH  26  27
ENDBRANCH  25  26
ENDBRANCH  24  25
ENDBRANCH  23  24
ENDBRANCH  22  23
ENDBRANCH  21  22
ENDBRANCH  20  21
ENDBRANCH  19  20
ENDBRANCH  18  19
ENDBRANCH   1  18
TORSDOF 28
ENDMDL
MODEL 5
REMARK VINA RESULT:    -1.524      4.691     13.948
REMARK INTER + INTRA:          -5.423
REMARK INTER:                  -3.417
REMARK INTRA:                  -2.006
REMARK UNBOUND:                -1.404
REMARK SMILES CCCCCCCCCCCCCCCCCCCCCCCCCCCCCC(=O)[O-]
REMARK SMILES IDX 16 1 17 2 18 3 19 4 20 5 21 6 22 7 23 8 24 9 25 10 26 11
REMARK SMILES IDX 27 12 28 13 29 14 30 15 31 16 32 17 15 18 14 19 13 20 12 21
REMARK SMILES IDX 11 22 10 23 9 24 8 25 7 26 6 27 5 28 4 29 3 30 2 31 1 32
REMARK H PARENT
REMARK Flexibility Score: inf
ROOT
ATOM      1  C   UNL     1     110.112 104.394 111.040  1.00  0.00     0.000 C 
ENDROOT
BRANCH   1   2
ATOM      2  C   UNL     1     108.764 105.062 110.732  1.00  0.00     0.000 C 
BRANCH   2   3
ATOM      3  C   UNL     1     108.793 106.590 110.925  1.00  0.00     0.000 C 
BRANCH   3   4
ATOM      4  C   UNL     1     107.562 107.175 111.642  1.00  0.00     0.000 C 
BRANCH   4   5
ATOM      5  C   UNL     1     107.291 106.510 113.003  1.00  0.00     0.000 C 
BRANCH   5   6
ATOM      6  C   UNL     1     105.965 106.968 113.630  1.00  0.00     0.000 C 
BRANCH   6   7
ATOM      7  C   UNL     1     104.891 105.865 113.617  1.00  0.00     0.000 C 
BRANCH   7   8
ATOM      8  C   UNL     1     103.465 106.426 113.738  1.00  0.00     0.000 C 
BRANCH   8   9
ATOM      9  C   UNL     1     102.501 105.820 112.704  1.00  0.00     0.000 C 
BRANCH   9  10
ATOM     10  C   UNL     1     101.541 106.860 112.100  1.00  0.00     0.000 C 
BRANCH  10  11
ATOM     11  C   UNL     1     100.474 106.283 111.148  1.00  0.00     0.000 C 
BRANCH  11  12
ATOM     12  C   UNL     1     100.426 106.931 109.750  1.00  0.00     0.000 C 
BRANCH  12  13
ATOM     13  C   UNL     1     101.605 107.869 109.425  1.00  0.00     0.006 C 
BRANCH  13  14
ATOM     14  C   UNL     1     101.374 108.778 108.206  1.00  0.00     0.053 C 
BRANCH  14  15
ATOM     15  C   UNL     1     102.620 108.957 107.395  1.00  0.00     0.041 C 
ATOM     16  O   UNL     1     102.778 109.993 106.695  1.00  0.00    -0.550 OA
ATOM     17  O   UNL     1     103.620 107.993 107.431  1.00  0.00    -0.550 OA
ENDBRANCH  14  15
ENDBRANCH  13  14
ENDBRANCH  12  13
ENDBRANCH  11  12
ENDBRANCH  10  11
ENDBRANCH   9  10
ENDBRANCH   8   9
ENDBRANCH   7   8
ENDBRANCH   6   7
ENDBRANCH   5   6
ENDBRANCH   4   5
ENDBRANCH   3   4
ENDBRANCH   2   3
ENDBRANCH   1   2
BRANCH   1  18
ATOM     18  C   UNL     1     110.036 102.876 110.819  1.00  0.00     0.000 C 
BRANCH  18  19
ATOM     19  C   UNL     1     111.364 102.155 111.117  1.00  0.00     0.000 C 
BRANCH  19  20
ATOM     20  C   UNL     1     111.895 102.323 112.552  1.00  0.00     0.000 C 
BRANCH  20  21
ATOM     21  C   UNL     1     113.399 102.030 112.673  1.00  0.00     0.000 C 
BRANCH  21  22
ATOM     22  C   UNL     1     114.140 102.124 111.326  1.00  0.00     0.000 C 
BRANCH  22  23
ATOM     23  C   UNL     1     114.987 103.395 111.131  1.00  0.00     0.000 C 
BRANCH  23  24
ATOM     24  C   UNL     1     114.238 104.681 111.522  1.00  0.00    -0.000 C 
BRANCH  24  25
ATOM     25  C   UNL     1     114.526 105.117 112.967  1.00  0.00    -0.000 C 
BRANCH  25  26
ATOM     26  C   UNL     1     115.933 104.714 113.432  1.00  0.00    -0.000 C 
BRANCH  26  27
ATOM     27  C   UNL     1     116.897 105.906 113.370  1.00  0.00    -0.000 C 
BRANCH  27  28
ATOM     28  C   UNL     1     118.273 105.472 112.843  1.00  0.00    -0.000 C 
BRANCH  28  29
ATOM     29  C   UNL     1     118.576 103.986 113.109  1.00  0.00    -0.000 C 
BRANCH  29  30
ATOM     30  C   UNL     1     119.347 103.700 114.414  1.00  0.00    -0.000 C 
BRANCH  30  31
ATOM     31  C   UNL     1     119.828 104.949 115.173  1.00  0.00    -0.003 C 
ATOM     32  C   UNL     1     119.545 104.881 116.673  1.00  0.00     0.004 C 
ENDBRANCH  30  31
ENDBRANCH  29  30
ENDBRANCH  28  29
ENDBRANCH  27  28
ENDBRANCH  26  27
ENDBRANCH  25  26
ENDBRANCH  24  25
ENDBRANCH  23  24
ENDBRANCH  22  23
ENDBRANCH  21  22
ENDBRANCH  20  21
ENDBRANCH  19  20
ENDBRANCH  18  19
ENDBRANCH   1  18
TORSDOF 28
ENDMDL
MODEL 6
REMARK VINA RESULT:    -1.288      1.132      2.717
REMARK INTER + INTRA:          -4.801
REMARK INTER:                  -2.549
REMARK INTRA:                  -2.251
REMARK UNBOUND:                -1.404
REMARK SMILES CCCCCCCCCCCCCCCCCCCCCCCCCCCCCC(=O)[O-]
REMARK SMILES IDX 16 1 17 2 18 3 19 4 20 5 21 6 22 7 23 8 24 9 25 10 26 11
REMARK SMILES IDX 27 12 28 13 29 14 30 15 31 16 32 17 15 18 14 19 13 20 12 21
REMARK SMILES IDX 11 22 10 23 9 24 8 25 7 26 6 27 5 28 4 29 3 30 2 31 1 32
REMARK H PARENT
REMARK Flexibility Score: inf
ROOT
ATOM      1  C   UNL     1     108.815 104.735 110.511  1.00  0.00     0.000 C 
ENDROOT
BRANCH   1   2
ATOM      2  C   UNL     1     109.947 103.713 110.691  1.00  0.00     0.000 C 
BRANCH   2   3
ATOM      3  C   UNL     1     110.438 103.611 112.146  1.00  0.00     0.000 C 
BRANCH   3   4
ATOM      4  C   UNL     1     111.311 102.379 112.451  1.00  0.00     0.000 C 
BRANCH   4   5
ATOM      5  C   UNL     1     112.244 102.005 111.285  1.00  0.00     0.000 C 
BRANCH   5   6
ATOM      6  C   UNL     1     113.727 102.027 111.684  1.00  0.00     0.000 C 
BRANCH   6   7
ATOM      7  C   UNL     1     114.503 103.178 111.017  1.00  0.00     0.000 C 
BRANCH   7   8
ATOM      8  C   UNL     1     114.294 104.523 111.730  1.00  0.00     0.000 C 
BRANCH   8   9
ATOM      9  C   UNL     1     114.330 104.394 113.263  1.00  0.00     0.000 C 
BRANCH   9  10
ATOM     10  C   UNL     1     115.758 104.443 113.835  1.00  0.00     0.000 C 
BRANCH  10  11
ATOM     11  C   UNL     1     116.681 105.494 113.188  1.00  0.00     0.000 C 
BRANCH  11  12
ATOM     12  C   UNL     1     117.750 104.928 112.232  1.00  0.00     0.000 C 
BRANCH  12  13
ATOM     13  C   UNL     1     119.061 104.485 112.911  1.00  0.00     0.006 C 
BRANCH  13  14
ATOM     14  C   UNL     1     119.403 105.260 114.194  1.00  0.00     0.053 C 
BRANCH  14  15
ATOM     15  C   UNL     1     119.392 104.377 115.403  1.00  0.00     0.041 C 
ATOM     16  O   UNL     1     119.672 104.849 116.537  1.00  0.00    -0.550 OA
ATOM     17  O   UNL     1     119.048 103.036 115.284  1.00  0.00    -0.550 OA
ENDBRANCH  14  15
ENDBRANCH  13  14
ENDBRANCH  12  13
ENDBRANCH  11  12
ENDBRANCH  10  11
ENDBRANCH   9  10
ENDBRANCH   8   9
ENDBRANCH   7   8
ENDBRANCH   6   7
ENDBRANCH   5   6
ENDBRANCH   4   5
ENDBRANCH   3   4
ENDBRANCH   2   3
ENDBRANCH   1   2
BRANCH   1  18
ATOM     18  C   UNL     1     109.019 105.949 111.431  1.00  0.00     0.000 C 
BRANCH  18  19
ATOM     19  C   UNL     1     108.183 107.172 111.010  1.00  0.00     0.000 C 
BRANCH  19  20
ATOM     20  C   UNL     1     107.061 107.567 111.987  1.00  0.00     0.000 C 
BRANCH  20  21
ATOM     21  C   UNL     1     107.007 106.669 113.234  1.00  0.00     0.000 C 
BRANCH  21  22
ATOM     22  C   UNL     1     105.652 105.954 113.401  1.00  0.00     0.000 C 
BRANCH  22  23
ATOM     23  C   UNL     1     104.469 106.871 113.763  1.00  0.00     0.000 C 
BRANCH  23  24
ATOM     24  C   UNL     1     103.102 106.221 113.491  1.00  0.00    -0.000 C 
BRANCH  24  25
ATOM     25  C   UNL     1     102.368 106.865 112.304  1.00  0.00    -0.000 C 
BRANCH  25  26
ATOM     26  C   UNL     1     100.957 106.291 112.104  1.00  0.00    -0.000 C 
BRANCH  26  27
ATOM     27  C   UNL     1     100.516 106.408 110.640  1.00  0.00    -0.000 C 
BRANCH  27  28
ATOM     28  C   UNL     1     100.807 107.812 110.090  1.00  0.00    -0.000 C 
BRANCH  28  29
ATOM     29  C   UNL     1     101.349 107.792 108.649  1.00  0.00    -0.000 C 
BRANCH  29  30
ATOM     30  C   UNL     1     101.844 109.153 108.118  1.00  0.00    -0.000 C 
BRANCH  30  31
ATOM     31  C   UNL     1     102.940 109.070 107.040  1.00  0.00    -0.003 C 
ATOM     32  C   UNL     1     103.749 107.776 107.111  1.00  0.00     0.004 C 
ENDBRANCH  30  31
ENDBRANCH  29  30
ENDBRANCH  28  29
ENDBRANCH  27  28
ENDBRANCH  26  27
ENDBRANCH  25  26
ENDBRANCH  24  25
ENDBRANCH  23  24
ENDBRANCH  22  23
ENDBRANCH  21  22
ENDBRANCH  20  21
ENDBRANCH  19  20
ENDBRANCH  18  19
ENDBRANCH   1  18
TORSDOF 28
ENDMDL
MODEL 7
REMARK VINA RESULT:    -0.668      1.433      4.399
REMARK INTER + INTRA:          -3.167
REMARK INTER:                  -2.485
REMARK INTRA:                  -0.681
REMARK UNBOUND:                -1.404
REMARK SMILES CCCCCCCCCCCCCCCCCCCCCCCCCCCCCC(=O)[O-]
REMARK SMILES IDX 16 1 17 2 18 3 19 4 20 5 21 6 22 7 23 8 24 9 25 10 26 11
REMARK SMILES IDX 27 12 28 13 29 14 30 15 31 16 32 17 15 18 14 19 13 20 12 21
REMARK SMILES IDX 11 22 10 23 9 24 8 25 7 26 6 27 5 28 4 29 3 30 2 31 1 32
REMARK H PARENT
REMARK Flexibility Score: inf
ROOT
ATOM      1  C   UNL     1     103.714 106.984 112.989  1.00  0.00     0.000 C 
ENDROOT
BRANCH   1   2
ATOM      2  C   UNL     1     104.816 106.138 113.643  1.00  0.00     0.000 C 
BRANCH   2   3
ATOM      3  C   UNL     1     106.170 106.869 113.717  1.00  0.00     0.000 C 
BRANCH   3   4
ATOM      4  C   UNL     1     107.306 106.212 112.911  1.00  0.00     0.000 C 
BRANCH   4   5
ATOM      5  C   UNL     1     107.724 107.041 111.683  1.00  0.00     0.000 C 
BRANCH   5   6
ATOM      6  C   UNL     1     108.778 106.329 110.821  1.00  0.00     0.000 C 
BRANCH   6   7
ATOM      7  C   UNL     1     108.742 104.799 110.985  1.00  0.00     0.000 C 
BRANCH   7   8
ATOM      8  C   UNL     1     110.095 104.138 110.673  1.00  0.00     0.000 C 
BRANCH   8   9
ATOM      9  C   UNL     1     110.621 103.286 111.840  1.00  0.00     0.000 C 
BRANCH   9  10
ATOM     10  C   UNL     1     111.242 101.957 111.379  1.00  0.00     0.000 C 
BRANCH  10  11
ATOM     11  C   UNL     1     112.784 101.933 111.354  1.00  0.00     0.000 C 
BRANCH  11  12
ATOM     12  C   UNL     1     113.468 102.906 112.335  1.00  0.00     0.000 C 
BRANCH  12  13
ATOM     13  C   UNL     1     114.224 104.075 111.672  1.00  0.00     0.006 C 
BRANCH  13  14
ATOM     14  C   UNL     1     115.719 103.806 111.431  1.00  0.00     0.053 C 
BRANCH  14  15
ATOM     15  C   UNL     1     116.567 104.292 112.565  1.00  0.00     0.041 C 
ATOM     16  O   UNL     1     116.033 104.823 113.575  1.00  0.00    -0.550 OA
ATOM     17  O   UNL     1     117.947 104.136 112.519  1.00  0.00    -0.550 OA
ENDBRANCH  14  15
ENDBRANCH  13  14
ENDBRANCH  12  13
ENDBRANCH  11  12
ENDBRANCH  10  11
ENDBRANCH   9  10
ENDBRANCH   8   9
ENDBRANCH   7   8
ENDBRANCH   6   7
ENDBRANCH   5   6
ENDBRANCH   4   5
ENDBRANCH   3   4
ENDBRANCH   2   3
ENDBRANCH   1   2
BRANCH   1  18
ATOM     18  C   UNL     1     102.451 106.144 112.740  1.00  0.00     0.000 C 
BRANCH  18  19
ATOM     19  C   UNL     1     101.294 106.959 112.135  1.00  0.00     0.000 C 
BRANCH  19  20
ATOM     20  C   UNL     1     100.270 106.143 111.325  1.00  0.00     0.000 C 
BRANCH  20  21
ATOM     21  C   UNL     1     100.300 106.465 109.822  1.00  0.00     0.000 C 
BRANCH  21  22
ATOM     22  C   UNL     1     101.181 107.684 109.486  1.00  0.00     0.000 C 
BRANCH  22  23
ATOM     23  C   UNL     1     101.087 108.179 108.032  1.00  0.00     0.000 C 
BRANCH  23  24
ATOM     24  C   UNL     1     101.749 109.552 107.820  1.00  0.00    -0.000 C 
BRANCH  24  25
ATOM     25  C   UNL     1     103.042 109.463 106.995  1.00  0.00    -0.000 C 
BRANCH  25  26
ATOM     26  C   UNL     1     102.812 109.775 105.508  1.00  0.00    -0.000 C 
BRANCH  26  27
ATOM     27  C   UNL     1     103.967 109.246 104.648  1.00  0.00    -0.000 C 
BRANCH  27  28
ATOM     28  C   UNL     1     103.622 109.331 103.155  1.00  0.00    -0.000 C 
BRANCH  28  29
ATOM     29  C   UNL     1     102.114 109.501 102.896  1.00  0.00    -0.000 C 
BRANCH  29  30
ATOM     30  C   UNL     1     101.531 110.872 103.297  1.00  0.00    -0.000 C 
BRANCH  30  31
ATOM     31  C   UNL     1     100.780 111.612 102.177  1.00  0.00    -0.003 C 
ATOM     32  C   UNL     1     101.437 112.938 101.794  1.00  0.00     0.004 C 
ENDBRANCH  30  31
ENDBRANCH  29  30
ENDBRANCH  28  29
ENDBRANCH  27  28
ENDBRANCH  26  27
ENDBRANCH  25  26
ENDBRANCH  24  25
ENDBRANCH  23  24
ENDBRANCH  22  23
ENDBRANCH  21  22
ENDBRANCH  20  21
ENDBRANCH  19  20
ENDBRANCH  18  19
ENDBRANCH   1  18
TORSDOF 28
ENDMDL
MODEL 8
REMARK VINA RESULT:    -0.001      5.668     13.847
REMARK INTER + INTRA:          -1.407
REMARK INTER:                  -0.226
REMARK INTRA:                  -1.181
REMARK UNBOUND:                -1.404
REMARK SMILES CCCCCCCCCCCCCCCCCCCCCCCCCCCCCC(=O)[O-]
REMARK SMILES IDX 16 1 17 2 18 3 19 4 20 5 21 6 22 7 23 8 24 9 25 10 26 11
REMARK SMILES IDX 27 12 28 13 29 14 30 15 31 16 32 17 15 18 14 19 13 20 12 21
REMARK SMILES IDX 11 22 10 23 9 24 8 25 7 26 6 27 5 28 4 29 3 30 2 31 1 32
REMARK H PARENT
REMARK Flexibility Score: inf
ROOT
ATOM      1  C   UNL     1     110.933 101.823 111.899  1.00  0.00     0.000 C 
ENDROOT
BRANCH   1   2
ATOM      2  C   UNL     1     110.568 102.748 110.729  1.00  0.00     0.000 C 
BRANCH   2   3
ATOM      3  C   UNL     1     109.658 103.917 111.150  1.00  0.00     0.000 C 
BRANCH   3   4
ATOM      4  C   UNL     1     108.937 104.627 109.989  1.00  0.00     0.000 C 
BRANCH   4   5
ATOM      5  C   UNL     1     108.141 105.863 110.447  1.00  0.00     0.000 C 
BRANCH   5   6
ATOM      6  C   UNL     1     108.853 106.645 111.561  1.00  0.00     0.000 C 
BRANCH   6   7
ATOM      7  C   UNL     1     107.878 107.195 112.618  1.00  0.00     0.000 C 
BRANCH   7   8
ATOM      8  C   UNL     1     106.740 106.213 112.940  1.00  0.00     0.000 C 
BRANCH   8   9
ATOM      9  C   UNL     1     105.703 106.806 113.910  1.00  0.00     0.000 C 
BRANCH   9  10
ATOM     10  C   UNL     1     104.365 107.137 113.226  1.00  0.00     0.000 C 
BRANCH  10  11
ATOM     11  C   UNL     1     103.164 106.302 113.711  1.00  0.00     0.000 C 
BRANCH  11  12
ATOM     12  C   UNL     1     102.195 105.844 112.602  1.00  0.00     0.000 C 
BRANCH  12  13
ATOM     13  C   UNL     1     101.494 106.984 111.838  1.00  0.00     0.006 C 
BRANCH  13  14
ATOM     14  C   UNL     1     100.059 106.657 111.391  1.00  0.00     0.053 C 
BRANCH  14  15
ATOM     15  C   UNL     1     100.033 105.876 110.113  1.00  0.00     0.041 C 
ATOM     16  O   UNL     1      99.995 106.474 109.005  1.00  0.00    -0.550 OA
ATOM     17  O   UNL     1     100.076 104.488 110.144  1.00  0.00    -0.550 OA
ENDBRANCH  14  15
ENDBRANCH  13  14
ENDBRANCH  12  13
ENDBRANCH  11  12
ENDBRANCH  10  11
ENDBRANCH   9  10
ENDBRANCH   8   9
ENDBRANCH   7   8
ENDBRANCH   6   7
ENDBRANCH   5   6
ENDBRANCH   4   5
ENDBRANCH   3   4
ENDBRANCH   2   3
ENDBRANCH   1   2
BRANCH   1  18
ATOM     18  C   UNL     1     111.693 102.591 112.991  1.00  0.00     0.000 C 
BRANCH  18  19
ATOM     19  C   UNL     1     113.223 102.499 112.840  1.00  0.00     0.000 C 
BRANCH  19  20
ATOM     20  C   UNL     1     113.723 102.153 111.426  1.00  0.00     0.000 C 
BRANCH  20  21
ATOM     21  C   UNL     1     114.776 103.144 110.903  1.00  0.00     0.000 C 
BRANCH  21  22
ATOM     22  C   UNL     1     114.335 104.614 111.034  1.00  0.00     0.000 C 
BRANCH  22  23
ATOM     23  C   UNL     1     114.244 105.145 112.476  1.00  0.00     0.000 C 
BRANCH  23  24
ATOM     24  C   UNL     1     115.555 105.787 112.963  1.00  0.00    -0.000 C 
BRANCH  24  25
ATOM     25  C   UNL     1     116.436 104.807 113.752  1.00  0.00    -0.000 C 
BRANCH  25  26
ATOM     26  C   UNL     1     117.390 104.015 112.846  1.00  0.00    -0.000 C 
BRANCH  26  27
ATOM     27  C   UNL     1     118.690 103.668 113.583  1.00  0.00    -0.000 C 
BRANCH  27  28
ATOM     28  C   UNL     1     119.090 104.792 114.549  1.00  0.00    -0.000 C 
BRANCH  28  29
ATOM     29  C   UNL     1     119.996 105.851 113.895  1.00  0.00    -0.000 C 
BRANCH  29  30
ATOM     30  C   UNL     1     119.380 106.582 112.685  1.00  0.00    -0.000 C 
BRANCH  30  31
ATOM     31  C   UNL     1     119.912 106.132 111.313  1.00  0.00    -0.003 C 
ATOM     32  C   UNL     1     119.794 107.217 110.243  1.00  0.00     0.004 C 
ENDBRANCH  30  31
ENDBRANCH  29  30
ENDBRANCH  28  29
ENDBRANCH  27  28
ENDBRANCH  26  27
ENDBRANCH  25  26
ENDBRANCH  24  25
ENDBRANCH  23  24
ENDBRANCH  22  23
ENDBRANCH  21  22
ENDBRANCH  20  21
ENDBRANCH  19  20
ENDBRANCH  18  19
ENDBRANCH   1  18
TORSDOF 28
ENDMDL
MODEL 9
REMARK VINA RESULT:     0.100      5.309     10.843
REMARK INTER + INTRA:          -1.141
REMARK INTER:                   0.857
REMARK INTRA:                  -1.998
REMARK UNBOUND:                -1.404
REMARK SMILES CCCCCCCCCCCCCCCCCCCCCCCCCCCCCC(=O)[O-]
REMARK SMILES IDX 16 1 17 2 18 3 19 4 20 5 21 6 22 7 23 8 24 9 25 10 26 11
REMARK SMILES IDX 27 12 28 13 29 14 30 15 31 16 32 17 15 18 14 19 13 20 12 21
REMARK SMILES IDX 11 22 10 23 9 24 8 25 7 26 6 27 5 28 4 29 3 30 2 31 1 32
REMARK H PARENT
REMARK Flexibility Score: inf
ROOT
ATOM      1  C   UNL     1     114.127 102.377 112.112  1.00  0.00     0.000 C 
ENDROOT
BRANCH   1   2
ATOM      2  C   UNL     1     112.867 103.088 112.627  1.00  0.00     0.000 C 
BRANCH   2   3
ATOM      3  C   UNL     1     111.608 102.204 112.557  1.00  0.00     0.000 C 
BRANCH   3   4
ATOM      4  C   UNL     1     111.097 101.914 111.134  1.00  0.00     0.000 C 
BRANCH   4   5
ATOM      5  C   UNL     1     110.501 103.157 110.448  1.00  0.00     0.000 C 
BRANCH   5   6
ATOM      6  C   UNL     1     109.485 103.891 111.336  1.00  0.00     0.000 C 
BRANCH   6   7
ATOM      7  C   UNL     1     108.854 105.107 110.634  1.00  0.00     0.000 C 
BRANCH   7   8
ATOM      8  C   UNL     1     109.414 106.443 111.148  1.00  0.00     0.000 C 
BRANCH   8   9
ATOM      9  C   UNL     1     108.463 107.624 110.888  1.00  0.00     0.000 C 
BRANCH   9  10
ATOM     10  C   UNL     1     107.177 107.553 111.730  1.00  0.00     0.000 C 
BRANCH  10  11
ATOM     11  C   UNL     1     107.318 106.803 113.069  1.00  0.00     0.000 C 
BRANCH  11  12
ATOM     12  C   UNL     1     106.149 105.861 113.418  1.00  0.00     0.000 C 
BRANCH  12  13
ATOM     13  C   UNL     1     104.882 106.563 113.946  1.00  0.00     0.006 C 
BRANCH  13  14
ATOM     14  C   UNL     1     105.140 107.936 114.588  1.00  0.00     0.053 C 
BRANCH  14  15
ATOM     15  C   UNL     1     105.109 107.871 116.084  1.00  0.00     0.041 C 
ATOM     16  O   UNL     1     104.401 107.006 116.667  1.00  0.00    -0.550 OA
ATOM     17  O   UNL     1     105.879 108.748 116.836  1.00  0.00    -0.550 OA
ENDBRANCH  14  15
ENDBRANCH  13  14
ENDBRANCH  12  13
ENDBRANCH  11  12
ENDBRANCH  10  11
ENDBRANCH   9  10
ENDBRANCH   8   9
ENDBRANCH   7   8
ENDBRANCH   6   7
ENDBRANCH   5   6
ENDBRANCH   4   5
ENDBRANCH   3   4
ENDBRANCH   2   3
ENDBRANCH   1   2
BRANCH   1  18
ATOM     18  C   UNL     1     114.578 102.963 110.766  1.00  0.00     0.000 C 
BRANCH  18  19
ATOM     19  C   UNL     1     115.764 103.936 110.898  1.00  0.00     0.000 C 
BRANCH  19  20
ATOM     20  C   UNL     1     116.875 103.489 111.865  1.00  0.00     0.000 C 
BRANCH  20  21
ATOM     21  C   UNL     1     117.868 104.614 112.199  1.00  0.00     0.000 C 
BRANCH  21  22
ATOM     22  C   UNL     1     117.390 105.515 113.354  1.00  0.00     0.000 C 
BRANCH  22  23
ATOM     23  C   UNL     1     115.896 105.389 113.707  1.00  0.00     0.000 C 
BRANCH  23  24
ATOM     24  C   UNL     1     115.049 106.547 113.153  1.00  0.00    -0.000 C 
BRANCH  24  25
ATOM     25  C   UNL     1     114.085 106.097 112.044  1.00  0.00    -0.000 C 
BRANCH  25  26
ATOM     26  C   UNL     1     113.481 107.280 111.274  1.00  0.00    -0.000 C 
BRANCH  26  27
ATOM     27  C   UNL     1     112.853 106.817 109.953  1.00  0.00    -0.000 C 
BRANCH  27  28
ATOM     28  C   UNL     1     112.330 108.014 109.145  1.00  0.00    -0.000 C 
BRANCH  28  29
ATOM     29  C   UNL     1     113.210 108.346 107.927  1.00  0.00    -0.000 C 
BRANCH  29  30
ATOM     30  C   UNL     1     113.135 107.330 106.769  1.00  0.00    -0.000 C 
BRANCH  30  31
ATOM     31  C   UNL     1     113.553 107.880 105.393  1.00  0.00    -0.003 C 
ATOM     32  C   UNL     1     113.473 106.832 104.284  1.00  0.00     0.004 C 
ENDBRANCH  30  31
ENDBRANCH  29  30
ENDBRANCH  28  29
ENDBRANCH  27  28
ENDBRANCH  26  27
ENDBRANCH  25  26
ENDBRANCH  24  25
ENDBRANCH  23  24
ENDBRANCH  22  23
ENDBRANCH  21  22
ENDBRANCH  20  21
ENDBRANCH  19  20
ENDBRANCH  18  19
ENDBRANCH   1  18
TORSDOF 28
ENDMDL
