MODEL 1
REMARK VINA RESULT:    -1.829      0.000      0.000
REMARK INTER + INTRA:          -7.975
REMARK INTER:                  -4.608
REMARK INTRA:                  -3.367
REMARK UNBOUND:                -3.367
REMARK SMILES CCCCCCCCCCCCCCCCCCCCCCCCCCCC(=O)[O-]
REMARK SMILES IDX 15 1 16 2 17 3 18 4 19 5 20 6 21 7 22 8 23 9 24 10 25 11
REMARK SMILES IDX 26 12 27 13 28 14 29 15 30 16 14 17 13 18 12 19 11 20 10 21
REMARK SMILES IDX 9 22 8 23 7 24 6 25 5 26 4 27 3 28 2 29 1 30
REMARK H PARENT
REMARK Flexibility Score: inf
ROOT
ATOM      1  C   UNL     1      12.390   5.053  17.470  1.00  0.00     0.000 C 
ENDROOT
BRANCH   1   2
ATOM      2  C   UNL     1      11.316   4.729  18.530  1.00  0.00     0.000 C 
BRANCH   2   3
ATOM      3  C   UNL     1      11.049   5.879  19.515  1.00  0.00     0.000 C 
BRANCH   3   4
ATOM      4  C   UNL     1      11.242   5.469  20.983  1.00  0.00     0.000 C 
BRANCH   4   5
ATOM      5  C   UNL     1      12.634   5.827  21.528  1.00  0.00     0.000 C 
BRANCH   5   6
ATOM      6  C   UNL     1      13.575   4.613  21.689  1.00  0.00     0.000 C 
BRANCH   6   7
ATOM      7  C   UNL     1      15.058   5.003  21.588  1.00  0.00     0.000 C 
BRANCH   7   8
ATOM      8  C   UNL     1      15.943   4.018  22.367  1.00  0.00     0.000 C 
BRANCH   8   9
ATOM      9  C   UNL     1      17.096   4.709  23.121  1.00  0.00     0.000 C 
BRANCH   9  10
ATOM     10  C   UNL     1      17.132   6.245  23.006  1.00  0.00     0.000 C 
BRANCH  10  11
ATOM     11  C   UNL     1      18.559   6.805  22.872  1.00  0.00     0.000 C 
BRANCH  11  12
ATOM     12  C   UNL     1      18.712   7.780  21.690  1.00  0.00     0.006 C 
BRANCH  12  13
ATOM     13  C   UNL     1      18.958   7.091  20.335  1.00  0.00     0.053 C 
BRANCH  13  14
ATOM     14  C   UNL     1      19.400   8.052  19.272  1.00  0.00     0.041 C 
ATOM     15  O   UNL     1      19.138   7.826  18.062  1.00  0.00    -0.550 OA
ATOM     16  O   UNL     1      20.124   9.188  19.615  1.00  0.00    -0.550 OA
ENDBRANCH  13  14
ENDBRANCH  12  13
ENDBRANCH  11  12
ENDBRANCH  10  11
ENDBRANCH   9  10
ENDBRANCH   8   9
ENDBRANCH   7   8
ENDBRANCH   6   7
ENDBRANCH   5   6
ENDBRANCH   4   5
ENDBRANCH   3   4
ENDBRANCH   2   3
ENDBRANCH   1   2
BRANCH   1  17
ATOM     17  C   UNL     1      13.821   4.881  18.013  1.00  0.00     0.000 C 
BRANCH  17  18
ATOM     18  C   UNL     1      14.534   6.226  18.221  1.00  0.00     0.000 C 
BRANCH  18  19
ATOM     19  C   UNL     1      16.066   6.080  18.276  1.00  0.00     0.000 C 
BRANCH  19  20
ATOM     20  C   UNL     1      16.520   4.605  18.251  1.00  0.00     0.000 C 
BRANCH  20  21
ATOM     21  C   UNL     1      17.817   4.328  19.036  1.00  0.00     0.000 C 
BRANCH  21  22
ATOM     22  C   UNL     1      19.016   3.875  18.185  1.00  0.00    -0.000 C 
BRANCH  22  23
ATOM     23  C   UNL     1      19.326   4.766  16.965  1.00  0.00    -0.000 C 
BRANCH  23  24
ATOM     24  C   UNL     1      20.059   4.031  15.822  1.00  0.00    -0.000 C 
BRANCH  24  25
ATOM     25  C   UNL     1      19.451   4.339  14.443  1.00  0.00    -0.000 C 
BRANCH  25  26
ATOM     26  C   UNL     1      17.941   4.615  14.509  1.00  0.00    -0.000 C 
BRANCH  26  27
ATOM     27  C   UNL     1      17.180   4.047  13.296  1.00  0.00    -0.000 C 
BRANCH  27  28
ATOM     28  C   UNL     1      18.014   4.118  12.000  1.00  0.00    -0.000 C 
BRANCH  28  29
ATOM     29  C   UNL     1      17.250   4.723  10.810  1.00  0.00    -0.003 C 
ATOM     30  C   UNL     1      18.031   4.661   9.500  1.00  0.00     0.004 C 
ENDBRANCH  28  29
ENDBRANCH  27  28
ENDBRANCH  26  27
ENDBRANCH  25  26
ENDBRANCH  24  25
ENDBRANCH  23  24
ENDBRANCH  22  23
ENDBRANCH  21  22
ENDBRANCH  20  21
ENDBRANCH  19  20
ENDBRANCH  18  19
ENDBRANCH  17  18
ENDBRANCH   1  17
TORSDOF 26
ENDMDL
MODEL 2
REMARK VINA RESULT:    -1.816      2.068      4.469
REMARK INTER + INTRA:          -7.942
REMARK INTER:                  -5.421
REMARK INTRA:                  -2.521
REMARK UNBOUND:                -3.367
REMARK SMILES CCCCCCCCCCCCCCCCCCCCCCCCCCCC(=O)[O-]
REMARK SMILES IDX 15 1 16 2 17 3 18 4 19 5 20 6 21 7 22 8 23 9 24 10 25 11
REMARK SMILES IDX 26 12 27 13 28 14 29 15 30 16 14 17 13 18 12 19 11 20 10 21
REMARK SMILES IDX 9 22 8 23 7 24 6 25 5 26 4 27 3 28 2 29 1 30
REMARK H PARENT
REMARK Flexibility Score: inf
ROOT
ATOM      1  C   UNL     1      17.090   7.112  18.770  1.00  0.00     0.000 C 
ENDROOT
BRANCH   1   2
ATOM      2  C   UNL     1      16.018   6.037  19.050  1.00  0.00     0.000 C 
BRANCH   2   3
ATOM      3  C   UNL     1      14.987   5.879  17.921  1.00  0.00     0.000 C 
BRANCH   3   4
ATOM      4  C   UNL     1      14.822   4.425  17.457  1.00  0.00     0.000 C 
BRANCH   4   5
ATOM      5  C   UNL     1      13.365   4.061  17.126  1.00  0.00     0.000 C 
BRANCH   5   6
ATOM      6  C   UNL     1      12.327   5.055  17.690  1.00  0.00     0.000 C 
BRANCH   6   7
ATOM      7  C   UNL     1      12.517   5.312  19.194  1.00  0.00     0.000 C 
BRANCH   7   8
ATOM      8  C   UNL     1      12.344   4.016  20.001  1.00  0.00     0.000 C 
BRANCH   8   9
ATOM      9  C   UNL     1      13.370   3.875  21.142  1.00  0.00     0.000 C 
BRANCH   9  10
ATOM     10  C   UNL     1      13.439   5.065  22.118  1.00  0.00     0.000 C 
BRANCH  10  11
ATOM     11  C   UNL     1      14.597   4.952  23.125  1.00  0.00     0.000 C 
BRANCH  11  12
ATOM     12  C   UNL     1      15.974   5.211  22.488  1.00  0.00     0.006 C 
BRANCH  12  13
ATOM     13  C   UNL     1      16.729   6.411  23.090  1.00  0.00     0.053 C 
BRANCH  13  14
ATOM     14  C   UNL     1      18.044   6.661  22.415  1.00  0.00     0.041 C 
ATOM     15  O   UNL     1      18.562   7.808  22.437  1.00  0.00    -0.550 OA
ATOM     16  O   UNL     1      18.688   5.633  21.738  1.00  0.00    -0.550 OA
ENDBRANCH  13  14
ENDBRANCH  12  13
ENDBRANCH  11  12
ENDBRANCH  10  11
ENDBRANCH   9  10
ENDBRANCH   8   9
ENDBRANCH   7   8
ENDBRANCH   6   7
ENDBRANCH   5   6
ENDBRANCH   4   5
ENDBRANCH   3   4
ENDBRANCH   2   3
ENDBRANCH   1   2
BRANCH   1  17
ATOM     17  C   UNL     1      18.481   6.503  18.519  1.00  0.00     0.000 C 
BRANCH  17  18
ATOM     18  C   UNL     1      18.422   4.987  18.275  1.00  0.00     0.000 C 
BRANCH  18  19
ATOM     19  C   UNL     1      19.257   4.552  17.057  1.00  0.00     0.000 C 
BRANCH  19  20
ATOM     20  C   UNL     1      18.401   3.875  15.965  1.00  0.00     0.000 C 
BRANCH  20  21
ATOM     21  C   UNL     1      17.405   4.821  15.266  1.00  0.00     0.000 C 
BRANCH  21  22
ATOM     22  C   UNL     1      16.808   4.290  13.951  1.00  0.00    -0.000 C 
BRANCH  22  23
ATOM     23  C   UNL     1      17.841   3.898  12.876  1.00  0.00    -0.000 C 
BRANCH  23  24
ATOM     24  C   UNL     1      17.416   4.262  11.437  1.00  0.00    -0.000 C 
BRANCH  24  25
ATOM     25  C   UNL     1      17.913   5.656  11.015  1.00  0.00    -0.000 C 
BRANCH  25  26
ATOM     26  C   UNL     1      19.267   6.019  11.644  1.00  0.00    -0.000 C 
BRANCH  26  27
ATOM     27  C   UNL     1      19.119   6.845  12.936  1.00  0.00    -0.000 C 
BRANCH  27  28
ATOM     28  C   UNL     1      20.059   8.069  12.954  1.00  0.00    -0.000 C 
BRANCH  28  29
ATOM     29  C   UNL     1      19.859   8.978  14.179  1.00  0.00    -0.003 C 
ATOM     30  C   UNL     1      20.033   8.244  15.506  1.00  0.00     0.004 C 
ENDBRANCH  28  29
ENDBRANCH  27  28
ENDBRANCH  26  27
ENDBRANCH  25  26
ENDBRANCH  24  25
ENDBRANCH  23  24
ENDBRANCH  22  23
ENDBRANCH  21  22
ENDBRANCH  20  21
ENDBRANCH  19  20
ENDBRANCH  18  19
ENDBRANCH  17  18
ENDBRANCH   1  17
TORSDOF 26
ENDMDL
MODEL 3
REMARK VINA RESULT:    -1.735      1.563      2.211
REMARK INTER + INTRA:          -7.740
REMARK INTER:                  -5.630
REMARK INTRA:                  -2.110
REMARK UNBOUND:                -3.367
REMARK SMILES CCCCCCCCCCCCCCCCCCCCCCCCCCCC(=O)[O-]
REMARK SMILES IDX 15 1 16 2 17 3 18 4 19 5 20 6 21 7 22 8 23 9 24 10 25 11
REMARK SMILES IDX 26 12 27 13 28 14 29 15 30 16 14 17 13 18 12 19 11 20 10 21
REMARK SMILES IDX 9 22 8 23 7 24 6 25 5 26 4 27 3 28 2 29 1 30
REMARK H PARENT
REMARK Flexibility Score: inf
ROOT
ATOM      1  C   UNL     1      11.706   5.327  17.640  1.00  0.00     0.000 C 
ENDROOT
BRANCH   1   2
ATOM      2  C   UNL     1      10.202   4.985  17.712  1.00  0.00     0.000 C 
BRANCH   2   3
ATOM      3  C   UNL     1       9.523   5.444  19.012  1.00  0.00     0.000 C 
BRANCH   3   4
ATOM      4  C   UNL     1      10.391   5.212  20.257  1.00  0.00     0.000 C 
BRANCH   4   5
ATOM      5  C   UNL     1      11.400   6.345  20.506  1.00  0.00     0.000 C 
BRANCH   5   6
ATOM      6  C   UNL     1      12.292   6.130  21.748  1.00  0.00     0.000 C 
BRANCH   6   7
ATOM      7  C   UNL     1      13.087   4.815  21.678  1.00  0.00     0.000 C 
BRANCH   7   8
ATOM      8  C   UNL     1      14.016   4.666  22.893  1.00  0.00     0.000 C 
BRANCH   8   9
ATOM      9  C   UNL     1      15.313   3.899  22.569  1.00  0.00     0.000 C 
BRANCH   9  10
ATOM     10  C   UNL     1      16.286   4.619  21.617  1.00  0.00     0.000 C 
BRANCH  10  11
ATOM     11  C   UNL     1      17.220   5.603  22.341  1.00  0.00     0.000 C 
BRANCH  11  12
ATOM     12  C   UNL     1      17.593   6.823  21.479  1.00  0.00     0.006 C 
BRANCH  12  13
ATOM     13  C   UNL     1      18.128   6.463  20.080  1.00  0.00     0.053 C 
BRANCH  13  14
ATOM     14  C   UNL     1      17.426   7.211  18.986  1.00  0.00     0.041 C 
ATOM     15  O   UNL     1      18.088   7.827  18.111  1.00  0.00    -0.550 OA
ATOM     16  O   UNL     1      16.037   7.247  18.945  1.00  0.00    -0.550 OA
ENDBRANCH  13  14
ENDBRANCH  12  13
ENDBRANCH  11  12
ENDBRANCH  10  11
ENDBRANCH   9  10
ENDBRANCH   8   9
ENDBRANCH   7   8
ENDBRANCH   6   7
ENDBRANCH   5   6
ENDBRANCH   4   5
ENDBRANCH   3   4
ENDBRANCH   2   3
ENDBRANCH   1   2
BRANCH   1  17
ATOM     17  C   UNL     1      12.592   4.069  17.589  1.00  0.00     0.000 C 
BRANCH  17  18
ATOM     18  C   UNL     1      13.620   4.029  18.731  1.00  0.00     0.000 C 
BRANCH  18  19
ATOM     19  C   UNL     1      15.066   3.901  18.220  1.00  0.00     0.000 C 
BRANCH  19  20
ATOM     20  C   UNL     1      15.177   4.125  16.697  1.00  0.00     0.000 C 
BRANCH  20  21
ATOM     21  C   UNL     1      16.584   3.875  16.120  1.00  0.00     0.000 C 
BRANCH  21  22
ATOM     22  C   UNL     1      17.345   5.136  15.677  1.00  0.00    -0.000 C 
BRANCH  22  23
ATOM     23  C   UNL     1      18.819   5.201  16.126  1.00  0.00    -0.000 C 
BRANCH  23  24
ATOM     24  C   UNL     1      19.831   4.896  15.001  1.00  0.00    -0.000 C 
BRANCH  24  25
ATOM     25  C   UNL     1      19.145   4.408  13.713  1.00  0.00    -0.000 C 
BRANCH  25  26
ATOM     26  C   UNL     1      20.026   4.588  12.467  1.00  0.00    -0.000 C 
BRANCH  26  27
ATOM     27  C   UNL     1      20.101   6.053  11.998  1.00  0.00    -0.000 C 
BRANCH  27  28
ATOM     28  C   UNL     1      19.981   6.181  10.465  1.00  0.00    -0.000 C 
BRANCH  28  29
ATOM     29  C   UNL     1      18.556   6.503   9.984  1.00  0.00    -0.003 C 
ATOM     30  C   UNL     1      17.758   5.260   9.598  1.00  0.00     0.004 C 
ENDBRANCH  28  29
ENDBRANCH  27  28
ENDBRANCH  26  27
ENDBRANCH  25  26
ENDBRANCH  24  25
ENDBRANCH  23  24
ENDBRANCH  22  23
ENDBRANCH  21  22
ENDBRANCH  20  21
ENDBRANCH  19  20
ENDBRANCH  18  19
ENDBRANCH  17  18
ENDBRANCH   1  17
TORSDOF 26
ENDMDL
MODEL 4
REMARK VINA RESULT:    -1.697      2.747      7.195
REMARK INTER + INTRA:          -7.644
REMARK INTER:                  -4.772
REMARK INTRA:                  -2.871
REMARK UNBOUND:                -3.367
REMARK SMILES CCCCCCCCCCCCCCCCCCCCCCCCCCCC(=O)[O-]
REMARK SMILES IDX 15 1 16 2 17 3 18 4 19 5 20 6 21 7 22 8 23 9 24 10 25 11
REMARK SMILES IDX 26 12 27 13 28 14 29 15 30 16 14 17 13 18 12 19 11 20 10 21
REMARK SMILES IDX 9 22 8 23 7 24 6 25 5 26 4 27 3 28 2 29 1 30
REMARK H PARENT
REMARK Flexibility Score: inf
ROOT
ATOM      1  C   UNL     1      11.620   5.942  18.830  1.00  0.00     0.000 C 
ENDROOT
BRANCH   1   2
ATOM      2  C   UNL     1      12.823   5.518  17.960  1.00  0.00     0.000 C 
BRANCH   2   3
ATOM      3  C   UNL     1      13.512   4.230  18.439  1.00  0.00     0.000 C 
BRANCH   3   4
ATOM      4  C   UNL     1      14.916   4.044  17.846  1.00  0.00     0.000 C 
BRANCH   4   5
ATOM      5  C   UNL     1      15.664   5.373  17.646  1.00  0.00     0.000 C 
BRANCH   5   6
ATOM      6  C   UNL     1      17.195   5.217  17.520  1.00  0.00     0.000 C 
BRANCH   6   7
ATOM      7  C   UNL     1      17.594   3.967  16.719  1.00  0.00     0.000 C 
BRANCH   7   8
ATOM      8  C   UNL     1      18.747   4.275  15.752  1.00  0.00     0.000 C 
BRANCH   8   9
ATOM      9  C   UNL     1      19.362   5.671  15.972  1.00  0.00     0.000 C 
BRANCH   9  10
ATOM     10  C   UNL     1      19.067   6.704  14.867  1.00  0.00     0.000 C 
BRANCH  10  11
ATOM     11  C   UNL     1      20.009   6.576  13.657  1.00  0.00     0.000 C 
BRANCH  11  12
ATOM     12  C   UNL     1      19.562   5.492  12.659  1.00  0.00     0.006 C 
BRANCH  12  13
ATOM     13  C   UNL     1      20.115   5.683  11.234  1.00  0.00     0.053 C 
BRANCH  13  14
ATOM     14  C   UNL     1      19.087   5.411  10.177  1.00  0.00     0.041 C 
ATOM     15  O   UNL     1      17.943   5.930  10.254  1.00  0.00    -0.550 OA
ATOM     16  O   UNL     1      19.384   4.563   9.116  1.00  0.00    -0.550 OA
ENDBRANCH  13  14
ENDBRANCH  12  13
ENDBRANCH  11  12
ENDBRANCH  10  11
ENDBRANCH   9  10
ENDBRANCH   8   9
ENDBRANCH   7   8
ENDBRANCH   6   7
ENDBRANCH   5   6
ENDBRANCH   4   5
ENDBRANCH   3   4
ENDBRANCH   2   3
ENDBRANCH   1   2
BRANCH   1  17
ATOM     17  C   UNL     1      11.608   5.238  20.199  1.00  0.00     0.000 C 
BRANCH  17  18
ATOM     18  C   UNL     1      12.334   6.051  21.283  1.00  0.00     0.000 C 
BRANCH  18  19
ATOM     19  C   UNL     1      12.702   5.200  22.512  1.00  0.00     0.000 C 
BRANCH  19  20
ATOM     20  C   UNL     1      13.447   3.903  22.132  1.00  0.00     0.000 C 
BRANCH  20  21
ATOM     21  C   UNL     1      14.945   3.905  22.494  1.00  0.00     0.000 C 
BRANCH  21  22
ATOM     22  C   UNL     1      15.911   3.903  21.297  1.00  0.00    -0.000 C 
BRANCH  22  23
ATOM     23  C   UNL     1      17.378   4.232  21.641  1.00  0.00    -0.000 C 
BRANCH  23  24
ATOM     24  C   UNL     1      17.725   5.733  21.532  1.00  0.00    -0.000 C 
BRANCH  24  25
ATOM     25  C   UNL     1      18.570   6.227  22.719  1.00  0.00    -0.000 C 
BRANCH  25  26
ATOM     26  C   UNL     1      18.955   7.709  22.597  1.00  0.00    -0.000 C 
BRANCH  26  27
ATOM     27  C   UNL     1      20.125   7.941  21.624  1.00  0.00    -0.000 C 
BRANCH  27  28
ATOM     28  C   UNL     1      19.698   8.751  20.381  1.00  0.00    -0.000 C 
BRANCH  28  29
ATOM     29  C   UNL     1      19.755   7.945  19.072  1.00  0.00    -0.003 C 
ATOM     30  C   UNL     1      19.844   8.825  17.829  1.00  0.00     0.004 C 
ENDBRANCH  28  29
ENDBRANCH  27  28
ENDBRANCH  26  27
ENDBRANCH  25  26
ENDBRANCH  24  25
ENDBRANCH  23  24
ENDBRANCH  22  23
ENDBRANCH  21  22
ENDBRANCH  20  21
ENDBRANCH  19  20
ENDBRANCH  18  19
ENDBRANCH  17  18
ENDBRANCH   1  17
TORSDOF 26
ENDMDL
MODEL 5
REMARK VINA RESULT:    -1.631      2.860      7.679
REMARK INTER + INTRA:          -7.477
REMARK INTER:                  -5.576
REMARK INTRA:                  -1.901
REMARK UNBOUND:                -3.367
REMARK SMILES CCCCCCCCCCCCCCCCCCCCCCCCCCCC(=O)[O-]
REMARK SMILES IDX 15 1 16 2 17 3 18 4 19 5 20 6 21 7 22 8 23 9 24 10 25 11
REMARK SMILES IDX 26 12 27 13 28 14 29 15 30 16 14 17 13 18 12 19 11 20 10 21
REMARK SMILES IDX 9 22 8 23 7 24 6 25 5 26 4 27 3 28 2 29 1 30
REMARK H PARENT
REMARK Flexibility Score: inf
ROOT
ATOM      1  C   UNL     1      12.965   6.159  18.361  1.00  0.00     0.000 C 
ENDROOT
BRANCH   1   2
ATOM      2  C   UNL     1      14.277   5.586  18.938  1.00  0.00     0.000 C 
BRANCH   2   3
ATOM      3  C   UNL     1      15.057   4.705  17.949  1.00  0.00     0.000 C 
BRANCH   3   4
ATOM      4  C   UNL     1      16.397   4.209  18.514  1.00  0.00     0.000 C 
BRANCH   4   5
ATOM      5  C   UNL     1      17.425   3.876  17.419  1.00  0.00     0.000 C 
BRANCH   5   6
ATOM      6  C   UNL     1      17.160   4.586  16.074  1.00  0.00     0.000 C 
BRANCH   6   7
ATOM      7  C   UNL     1      18.095   5.786  15.850  1.00  0.00     0.000 C 
BRANCH   7   8
ATOM      8  C   UNL     1      19.444   5.334  15.271  1.00  0.00     0.000 C 
BRANCH   8   9
ATOM      9  C   UNL     1      19.360   3.988  14.524  1.00  0.00     0.000 C 
BRANCH   9  10
ATOM     10  C   UNL     1      20.089   3.939  13.168  1.00  0.00     0.000 C 
BRANCH  10  11
ATOM     11  C   UNL     1      19.330   4.671  12.049  1.00  0.00     0.000 C 
BRANCH  11  12
ATOM     12  C   UNL     1      20.125   5.850  11.457  1.00  0.00     0.006 C 
BRANCH  12  13
ATOM     13  C   UNL     1      19.297   7.136  11.272  1.00  0.00     0.053 C 
BRANCH  13  14
ATOM     14  C   UNL     1      18.744   7.270   9.885  1.00  0.00     0.041 C 
ATOM     15  O   UNL     1      17.998   6.376   9.409  1.00  0.00    -0.550 OA
ATOM     16  O   UNL     1      19.073   8.374   9.106  1.00  0.00    -0.550 OA
ENDBRANCH  13  14
ENDBRANCH  12  13
ENDBRANCH  11  12
ENDBRANCH  10  11
ENDBRANCH   9  10
ENDBRANCH   8   9
ENDBRANCH   7   8
ENDBRANCH   6   7
ENDBRANCH   5   6
ENDBRANCH   4   5
ENDBRANCH   3   4
ENDBRANCH   2   3
ENDBRANCH   1   2
BRANCH   1  17
ATOM     17  C   UNL     1      11.982   5.055  17.930  1.00  0.00     0.000 C 
BRANCH  17  18
ATOM     18  C   UNL     1      10.602   5.209  18.588  1.00  0.00     0.000 C 
BRANCH  18  19
ATOM     19  C   UNL     1      10.687   5.293  20.123  1.00  0.00     0.000 C 
BRANCH  19  20
ATOM     20  C   UNL     1      11.993   4.685  20.677  1.00  0.00     0.000 C 
BRANCH  20  21
ATOM     21  C   UNL     1      12.518   5.369  21.954  1.00  0.00     0.000 C 
BRANCH  21  22
ATOM     22  C   UNL     1      13.660   4.631  22.673  1.00  0.00    -0.000 C 
BRANCH  22  23
ATOM     23  C   UNL     1      15.043   4.753  22.000  1.00  0.00    -0.000 C 
BRANCH  23  24
ATOM     24  C   UNL     1      16.219   4.837  22.997  1.00  0.00    -0.000 C 
BRANCH  24  25
ATOM     25  C   UNL     1      16.838   6.244  23.054  1.00  0.00    -0.000 C 
BRANCH  25  26
ATOM     26  C   UNL     1      17.502   6.654  21.730  1.00  0.00    -0.000 C 
BRANCH  26  27
ATOM     27  C   UNL     1      18.579   5.655  21.271  1.00  0.00    -0.000 C 
BRANCH  27  28
ATOM     28  C   UNL     1      19.145   6.007  19.879  1.00  0.00    -0.000 C 
BRANCH  28  29
ATOM     29  C   UNL     1      18.394   7.154  19.182  1.00  0.00    -0.003 C 
ATOM     30  C   UNL     1      19.310   8.068  18.373  1.00  0.00     0.004 C 
ENDBRANCH  28  29
ENDBRANCH  27  28
ENDBRANCH  26  27
ENDBRANCH  25  26
ENDBRANCH  24  25
ENDBRANCH  23  24
ENDBRANCH  22  23
ENDBRANCH  21  22
ENDBRANCH  20  21
ENDBRANCH  19  20
ENDBRANCH  18  19
ENDBRANCH  17  18
ENDBRANCH   1  17
TORSDOF 26
ENDMDL
MODEL 6
REMARK VINA RESULT:    -1.616      2.343      9.169
REMARK INTER + INTRA:          -7.440
REMARK INTER:                  -5.290
REMARK INTRA:                  -2.150
REMARK UNBOUND:                -3.367
REMARK SMILES CCCCCCCCCCCCCCCCCCCCCCCCCCCC(=O)[O-]
REMARK SMILES IDX 15 1 16 2 17 3 18 4 19 5 20 6 21 7 22 8 23 9 24 10 25 11
REMARK SMILES IDX 26 12 27 13 28 14 29 15 30 16 14 17 13 18 12 19 11 20 10 21
REMARK SMILES IDX 9 22 8 23 7 24 6 25 5 26 4 27 3 28 2 29 1 30
REMARK H PARENT
REMARK Flexibility Score: inf
ROOT
ATOM      1  C   UNL     1      19.395   8.546  16.565  1.00  0.00     0.000 C 
ENDROOT
BRANCH   1   2
ATOM      2  C   UNL     1      19.168   8.255  15.066  1.00  0.00     0.000 C 
BRANCH   2   3
ATOM      3  C   UNL     1      20.109   7.184  14.492  1.00  0.00     0.000 C 
BRANCH   3   4
ATOM      4  C   UNL     1      19.920   6.965  12.984  1.00  0.00     0.000 C 
BRANCH   4   5
ATOM      5  C   UNL     1      20.125   8.247  12.160  1.00  0.00     0.000 C 
BRANCH   5   6
ATOM      6  C   UNL     1      20.039   8.032  10.634  1.00  0.00     0.000 C 
BRANCH   6   7
ATOM      7  C   UNL     1      18.712   7.386  10.205  1.00  0.00     0.000 C 
BRANCH   7   8
ATOM      8  C   UNL     1      18.957   6.099   9.402  1.00  0.00     0.000 C 
BRANCH   8   9
ATOM      9  C   UNL     1      18.339   4.850  10.059  1.00  0.00     0.000 C 
BRANCH   9  10
ATOM     10  C   UNL     1      16.986   5.074  10.759  1.00  0.00     0.000 C 
BRANCH  10  11
ATOM     11  C   UNL     1      16.545   3.875  11.616  1.00  0.00     0.000 C 
BRANCH  11  12
ATOM     12  C   UNL     1      17.160   3.888  13.028  1.00  0.00     0.006 C 
BRANCH  12  13
ATOM     13  C   UNL     1      16.122   3.889  14.166  1.00  0.00     0.053 C 
BRANCH  13  14
ATOM     14  C   UNL     1      16.607   4.613  15.386  1.00  0.00     0.041 C 
ATOM     15  O   UNL     1      17.814   4.954  15.485  1.00  0.00    -0.550 OA
ATOM     16  O   UNL     1      15.730   4.890  16.428  1.00  0.00    -0.550 OA
ENDBRANCH  13  14
ENDBRANCH  12  13
ENDBRANCH  11  12
ENDBRANCH  10  11
ENDBRANCH   9  10
ENDBRANCH   8   9
ENDBRANCH   7   8
ENDBRANCH   6   7
ENDBRANCH   5   6
ENDBRANCH   4   5
ENDBRANCH   3   4
ENDBRANCH   2   3
ENDBRANCH   1   2
BRANCH   1  17
ATOM     17  C   UNL     1      18.590   7.600  17.475  1.00  0.00     0.000 C 
BRANCH  17  18
ATOM     18  C   UNL     1      19.468   6.925  18.541  1.00  0.00     0.000 C 
BRANCH  18  19
ATOM     19  C   UNL     1      19.748   7.845  19.743  1.00  0.00     0.000 C 
BRANCH  19  20
ATOM     20  C   UNL     1      19.428   7.169  21.093  1.00  0.00     0.000 C 
BRANCH  20  21
ATOM     21  C   UNL     1      19.973   5.734  21.227  1.00  0.00     0.000 C 
BRANCH  21  22
ATOM     22  C   UNL     1      18.905   4.635  21.362  1.00  0.00    -0.000 C 
BRANCH  22  23
ATOM     23  C   UNL     1      18.056   4.390  20.098  1.00  0.00    -0.000 C 
BRANCH  23  24
ATOM     24  C   UNL     1      16.772   5.243  20.030  1.00  0.00    -0.000 C 
BRANCH  24  25
ATOM     25  C   UNL     1      15.496   4.392  20.149  1.00  0.00    -0.000 C 
BRANCH  25  26
ATOM     26  C   UNL     1      14.953   4.335  21.586  1.00  0.00    -0.000 C 
BRANCH  26  27
ATOM     27  C   UNL     1      13.926   5.444  21.877  1.00  0.00    -0.000 C 
BRANCH  27  28
ATOM     28  C   UNL     1      12.610   5.238  21.098  1.00  0.00    -0.000 C 
BRANCH  28  29
ATOM     29  C   UNL     1      12.147   6.490  20.332  1.00  0.00    -0.003 C 
ATOM     30  C   UNL     1      10.646   6.504  20.058  1.00  0.00     0.004 C 
ENDBRANCH  28  29
ENDBRANCH  27  28
ENDBRANCH  26  27
ENDBRANCH  25  26
ENDBRANCH  24  25
ENDBRANCH  23  24
ENDBRANCH  22  23
ENDBRANCH  21  22
ENDBRANCH  20  21
ENDBRANCH  19  20
ENDBRANCH  18  19
ENDBRANCH  17  18
ENDBRANCH   1  17
TORSDOF 26
ENDMDL
MODEL 7
REMARK VINA RESULT:    -1.108      2.034      8.290
REMARK INTER + INTRA:          -6.158
REMARK INTER:                  -5.551
REMARK INTRA:                  -0.608
REMARK UNBOUND:                -3.367
REMARK SMILES CCCCCCCCCCCCCCCCCCCCCCCCCCCC(=O)[O-]
REMARK SMILES IDX 15 1 16 2 17 3 18 4 19 5 20 6 21 7 22 8 23 9 24 10 25 11
REMARK SMILES IDX 26 12 27 13 28 14 29 15 30 16 14 17 13 18 12 19 11 20 10 21
REMARK SMILES IDX 9 22 8 23 7 24 6 25 5 26 4 27 3 28 2 29 1 30
REMARK H PARENT
REMARK Flexibility Score: inf
ROOT
ATOM      1  C   UNL     1      18.404   7.308  18.987  1.00  0.00     0.000 C 
ENDROOT
BRANCH   1   2
ATOM      2  C   UNL     1      19.391   6.122  19.043  1.00  0.00     0.000 C 
BRANCH   2   3
ATOM      3  C   UNL     1      20.016   5.769  17.684  1.00  0.00     0.000 C 
BRANCH   3   4
ATOM      4  C   UNL     1      19.464   4.465  17.090  1.00  0.00     0.000 C 
BRANCH   4   5
ATOM      5  C   UNL     1      17.928   4.396  17.114  1.00  0.00     0.000 C 
BRANCH   5   6
ATOM      6  C   UNL     1      17.248   5.174  15.967  1.00  0.00     0.000 C 
BRANCH   6   7
ATOM      7  C   UNL     1      16.496   4.248  14.996  1.00  0.00     0.000 C 
BRANCH   7   8
ATOM      8  C   UNL     1      17.377   3.876  13.794  1.00  0.00     0.000 C 
BRANCH   8   9
ATOM      9  C   UNL     1      16.847   4.437  12.460  1.00  0.00     0.000 C 
BRANCH   9  10
ATOM     10  C   UNL     1      17.855   4.434  11.296  1.00  0.00     0.000 C 
BRANCH  10  11
ATOM     11  C   UNL     1      19.299   4.165  11.750  1.00  0.00     0.000 C 
BRANCH  11  12
ATOM     12  C   UNL     1      19.999   5.421  12.303  1.00  0.00     0.006 C 
BRANCH  12  13
ATOM     13  C   UNL     1      19.352   6.747  11.861  1.00  0.00     0.053 C 
BRANCH  13  14
ATOM     14  C   UNL     1      19.580   7.855  12.845  1.00  0.00     0.041 C 
ATOM     15  O   UNL     1      19.262   7.707  14.053  1.00  0.00    -0.550 OA
ATOM     16  O   UNL     1      20.124   9.062  12.422  1.00  0.00    -0.550 OA
ENDBRANCH  13  14
ENDBRANCH  12  13
ENDBRANCH  11  12
ENDBRANCH  10  11
ENDBRANCH   9  10
ENDBRANCH   8   9
ENDBRANCH   7   8
ENDBRANCH   6   7
ENDBRANCH   5   6
ENDBRANCH   4   5
ENDBRANCH   3   4
ENDBRANCH   2   3
ENDBRANCH   1   2
BRANCH   1  17
ATOM     17  C   UNL     1      18.341   8.082  20.317  1.00  0.00     0.000 C 
BRANCH  17  18
ATOM     18  C   UNL     1      19.619   7.915  21.154  1.00  0.00     0.000 C 
BRANCH  18  19
ATOM     19  C   UNL     1      19.576   6.666  22.053  1.00  0.00     0.000 C 
BRANCH  19  20
ATOM     20  C   UNL     1      18.334   5.789  21.788  1.00  0.00     0.000 C 
BRANCH  20  21
ATOM     21  C   UNL     1      17.272   5.843  22.903  1.00  0.00     0.000 C 
BRANCH  21  22
ATOM     22  C   UNL     1      16.405   4.581  23.047  1.00  0.00    -0.000 C 
BRANCH  22  23
ATOM     23  C   UNL     1      16.043   3.882  21.720  1.00  0.00    -0.000 C 
BRANCH  23  24
ATOM     24  C   UNL     1      14.537   3.920  21.383  1.00  0.00    -0.000 C 
BRANCH  24  25
ATOM     25  C   UNL     1      14.127   5.226  20.679  1.00  0.00    -0.000 C 
BRANCH  25  26
ATOM     26  C   UNL     1      12.936   5.037  19.726  1.00  0.00    -0.000 C 
BRANCH  26  27
ATOM     27  C   UNL     1      12.398   6.370  19.176  1.00  0.00    -0.000 C 
BRANCH  27  28
ATOM     28  C   UNL     1      11.438   7.064  20.166  1.00  0.00    -0.000 C 
BRANCH  28  29
ATOM     29  C   UNL     1      10.091   6.340  20.324  1.00  0.00    -0.003 C 
ATOM     30  C   UNL     1       8.912   7.139  19.777  1.00  0.00     0.004 C 
ENDBRANCH  28  29
ENDBRANCH  27  28
ENDBRANCH  26  27
ENDBRANCH  25  26
ENDBRANCH  24  25
ENDBRANCH  23  24
ENDBRANCH  22  23
ENDBRANCH  21  22
ENDBRANCH  20  21
ENDBRANCH  19  20
ENDBRANCH  18  19
ENDBRANCH  17  18
ENDBRANCH   1  17
TORSDOF 26
ENDMDL
