MODEL 1
REMARK VINA RESULT:    -4.030      0.000      0.000
REMARK INTER + INTRA:         -12.201
REMARK INTER:                 -10.625
REMARK INTRA:                  -1.576
REMARK UNBOUND:                -1.576
REMARK SMILES CCCCCCCCCCCCCCCCCCCCCCCCCCCCCC(=O)[O-]
REMARK SMILES IDX 16 1 17 2 18 3 19 4 20 5 21 6 22 7 23 8 24 9 25 10 26 11
REMARK SMILES IDX 27 12 28 13 29 14 30 15 31 16 32 17 15 18 14 19 13 20 12 21
REMARK SMILES IDX 11 22 10 23 9 24 8 25 7 26 6 27 5 28 4 29 3 30 2 31 1 32
REMARK H PARENT
REMARK Flexibility Score: inf
ROOT
ATOM      1  C   UNL     1     -21.291   4.342  -2.538  1.00  0.00     0.000 C 
ENDROOT
BRANCH   1   2
ATOM      2  C   UNL     1     -22.708   4.753  -2.094  1.00  0.00     0.000 C 
BRANCH   2   3
ATOM      3  C   UNL     1     -22.772   5.585  -0.800  1.00  0.00     0.000 C 
BRANCH   3   4
ATOM      4  C   UNL     1     -22.371   7.054  -1.008  1.00  0.00     0.000 C 
BRANCH   4   5
ATOM      5  C   UNL     1     -21.002   7.342  -0.374  1.00  0.00     0.000 C 
BRANCH   5   6
ATOM      6  C   UNL     1     -20.598   6.292   0.677  1.00  0.00     0.000 C 
BRANCH   6   7
ATOM      7  C   UNL     1     -21.060   6.594   2.117  1.00  0.00     0.000 C 
BRANCH   7   8
ATOM      8  C   UNL     1     -20.225   7.638   2.888  1.00  0.00     0.000 C 
BRANCH   8   9
ATOM      9  C   UNL     1     -19.615   7.152   4.222  1.00  0.00     0.000 C 
BRANCH   9  10
ATOM     10  C   UNL     1     -19.734   5.635   4.460  1.00  0.00     0.000 C 
BRANCH  10  11
ATOM     11  C   UNL     1     -18.846   5.108   5.606  1.00  0.00     0.000 C 
BRANCH  11  12
ATOM     12  C   UNL     1     -19.367   3.777   6.175  1.00  0.00     0.000 C 
BRANCH  12  13
ATOM     13  C   UNL     1     -19.450   3.779   7.709  1.00  0.00     0.006 C 
BRANCH  13  14
ATOM     14  C   UNL     1     -20.605   2.921   8.238  1.00  0.00     0.053 C 
BRANCH  14  15
ATOM     15  C   UNL     1     -20.120   1.996   9.307  1.00  0.00     0.041 C 
ATOM     16  O   UNL     1     -18.997   1.434   9.198  1.00  0.00    -0.550 OA
ATOM     17  O   UNL     1     -20.878   1.801  10.455  1.00  0.00    -0.550 OA
ENDBRANCH  14  15
ENDBRANCH  13  14
ENDBRANCH  12  13
ENDBRANCH  11  12
ENDBRANCH  10  11
ENDBRANCH   9  10
ENDBRANCH   8   9
ENDBRANCH   7   8
ENDBRANCH   6   7
ENDBRANCH   5   6
ENDBRANCH   4   5
ENDBRANCH   3   4
ENDBRANCH   2   3
ENDBRANCH   1   2
BRANCH   1  18
ATOM     18  C   UNL     1     -20.798   4.988  -3.847  1.00  0.00     0.000 C 
BRANCH  18  19
ATOM     19  C   UNL     1     -19.267   5.173  -3.922  1.00  0.00     0.000 C 
BRANCH  19  20
ATOM     20  C   UNL     1     -18.576   4.100  -4.781  1.00  0.00     0.000 C 
BRANCH  20  21
ATOM     21  C   UNL     1     -18.027   2.925  -3.951  1.00  0.00     0.000 C 
BRANCH  21  22
ATOM     22  C   UNL     1     -18.924   1.673  -3.911  1.00  0.00     0.000 C 
BRANCH  22  23
ATOM     23  C   UNL     1     -18.151   0.371  -4.179  1.00  0.00     0.000 C 
BRANCH  23  24
ATOM     24  C   UNL     1     -19.071  -0.862  -4.272  1.00  0.00    -0.000 C 
BRANCH  24  25
ATOM     25  C   UNL     1     -20.082  -1.019  -3.121  1.00  0.00    -0.000 C 
BRANCH  25  26
ATOM     26  C   UNL     1     -20.091  -2.436  -2.520  1.00  0.00    -0.000 C 
BRANCH  26  27
ATOM     27  C   UNL     1     -20.014  -2.429  -0.985  1.00  0.00    -0.000 C 
BRANCH  27  28
ATOM     28  C   UNL     1     -19.345  -3.694  -0.414  1.00  0.00    -0.000 C 
BRANCH  28  29
ATOM     29  C   UNL     1     -19.720  -3.952   1.054  1.00  0.00    -0.000 C 
BRANCH  29  30
ATOM     30  C   UNL     1     -19.621  -5.436   1.437  1.00  0.00    -0.000 C 
BRANCH  30  31
ATOM     31  C   UNL     1     -20.494  -5.747   2.658  1.00  0.00    -0.003 C 
ATOM     32  C   UNL     1     -20.719  -7.250   2.808  1.00  0.00     0.004 C 
ENDBRANCH  30  31
ENDBRANCH  29  30
ENDBRANCH  28  29
ENDBRANCH  27  28
ENDBRANCH  26  27
ENDBRANCH  25  26
ENDBRANCH  24  25
ENDBRANCH  23  24
ENDBRANCH  22  23
ENDBRANCH  21  22
ENDBRANCH  20  21
ENDBRANCH  19  20
ENDBRANCH  18  19
ENDBRANCH   1  18
TORSDOF 28
ENDMDL
MODEL 2
REMARK VINA RESULT:    -3.865      2.783      9.165
REMARK INTER + INTRA:         -11.767
REMARK INTER:                 -10.161
REMARK INTRA:                  -1.605
REMARK UNBOUND:                -1.576
REMARK SMILES CCCCCCCCCCCCCCCCCCCCCCCCCCCCCC(=O)[O-]
REMARK SMILES IDX 16 1 17 2 18 3 19 4 20 5 21 6 22 7 23 8 24 9 25 10 26 11
REMARK SMILES IDX 27 12 28 13 29 14 30 15 31 16 32 17 15 18 14 19 13 20 12 21
REMARK SMILES IDX 11 22 10 23 9 24 8 25 7 26 6 27 5 28 4 29 3 30 2 31 1 32
REMARK H PARENT
REMARK Flexibility Score: inf
ROOT
ATOM      1  C   UNL     1     -22.957   5.899  -1.122  1.00  0.00     0.000 C 
ENDROOT
BRANCH   1   2
ATOM      2  C   UNL     1     -22.726   4.757  -2.129  1.00  0.00     0.000 C 
BRANCH   2   3
ATOM      3  C   UNL     1     -21.609   5.010  -3.158  1.00  0.00     0.000 C 
BRANCH   3   4
ATOM      4  C   UNL     1     -20.499   3.949  -3.117  1.00  0.00     0.000 C 
BRANCH   4   5
ATOM      5  C   UNL     1     -19.285   4.394  -3.947  1.00  0.00     0.000 C 
BRANCH   5   6
ATOM      6  C   UNL     1     -18.282   3.254  -4.196  1.00  0.00     0.000 C 
BRANCH   6   7
ATOM      7  C   UNL     1     -18.793   1.842  -3.845  1.00  0.00     0.000 C 
BRANCH   7   8
ATOM      8  C   UNL     1     -18.010   0.667  -4.467  1.00  0.00     0.000 C 
BRANCH   8   9
ATOM      9  C   UNL     1     -18.696  -0.714  -4.378  1.00  0.00     0.000 C 
BRANCH   9  10
ATOM     10  C   UNL     1     -19.848  -0.788  -3.358  1.00  0.00     0.000 C 
BRANCH  10  11
ATOM     11  C   UNL     1     -20.126  -2.208  -2.825  1.00  0.00     0.000 C 
BRANCH  11  12
ATOM     12  C   UNL     1     -20.134  -2.257  -1.288  1.00  0.00     0.000 C 
BRANCH  12  13
ATOM     13  C   UNL     1     -19.768  -3.642  -0.735  1.00  0.00     0.006 C 
BRANCH  13  14
ATOM     14  C   UNL     1     -19.452  -3.614   0.765  1.00  0.00     0.053 C 
BRANCH  14  15
ATOM     15  C   UNL     1     -19.440  -5.001   1.322  1.00  0.00     0.041 C 
ATOM     16  O   UNL     1     -18.445  -5.751   1.134  1.00  0.00    -0.550 OA
ATOM     17  O   UNL     1     -20.500  -5.447   2.102  1.00  0.00    -0.550 OA
ENDBRANCH  14  15
ENDBRANCH  13  14
ENDBRANCH  12  13
ENDBRANCH  11  12
ENDBRANCH  10  11
ENDBRANCH   9  10
ENDBRANCH   8   9
ENDBRANCH   7   8
ENDBRANCH   6   7
ENDBRANCH   5   6
ENDBRANCH   4   5
ENDBRANCH   3   4
ENDBRANCH   2   3
ENDBRANCH   1   2
BRANCH   1  18
ATOM     18  C   UNL     1     -21.992   7.094  -1.248  1.00  0.00     0.000 C 
BRANCH  18  19
ATOM     19  C   UNL     1     -20.880   7.123  -0.177  1.00  0.00     0.000 C 
BRANCH  19  20
ATOM     20  C   UNL     1     -21.209   6.255   1.050  1.00  0.00     0.000 C 
BRANCH  20  21
ATOM     21  C   UNL     1     -20.974   6.986   2.386  1.00  0.00     0.000 C 
BRANCH  21  22
ATOM     22  C   UNL     1     -19.584   6.777   3.014  1.00  0.00     0.000 C 
BRANCH  22  23
ATOM     23  C   UNL     1     -19.576   5.702   4.114  1.00  0.00     0.000 C 
BRANCH  23  24
ATOM     24  C   UNL     1     -18.161   5.393   4.639  1.00  0.00    -0.000 C 
BRANCH  24  25
ATOM     25  C   UNL     1     -18.091   4.910   6.100  1.00  0.00    -0.000 C 
BRANCH  25  26
ATOM     26  C   UNL     1     -19.107   3.798   6.413  1.00  0.00    -0.000 C 
BRANCH  26  27
ATOM     27  C   UNL     1     -19.673   3.897   7.839  1.00  0.00    -0.000 C 
BRANCH  27  28
ATOM     28  C   UNL     1     -18.917   3.009   8.845  1.00  0.00    -0.000 C 
BRANCH  28  29
ATOM     29  C   UNL     1     -19.850   2.066   9.622  1.00  0.00    -0.000 C 
BRANCH  29  30
ATOM     30  C   UNL     1     -21.216   2.701   9.921  1.00  0.00    -0.000 C 
BRANCH  30  31
ATOM     31  C   UNL     1     -22.358   1.780   9.476  1.00  0.00    -0.003 C 
ATOM     32  C   UNL     1     -21.979   0.997   8.221  1.00  0.00     0.004 C 
ENDBRANCH  30  31
ENDBRANCH  29  30
ENDBRANCH  28  29
ENDBRANCH  27  28
ENDBRANCH  26  27
ENDBRANCH  25  26
ENDBRANCH  24  25
ENDBRANCH  23  24
ENDBRANCH  22  23
ENDBRANCH  21  22
ENDBRANCH  20  21
ENDBRANCH  19  20
ENDBRANCH  18  19
ENDBRANCH   1  18
TORSDOF 28
ENDMDL
MODEL 3
REMARK VINA RESULT:    -3.864      5.864     12.675
REMARK INTER + INTRA:         -11.765
REMARK INTER:                  -8.898
REMARK INTRA:                  -2.867
REMARK UNBOUND:                -1.576
REMARK SMILES CCCCCCCCCCCCCCCCCCCCCCCCCCCCCC(=O)[O-]
REMARK SMILES IDX 16 1 17 2 18 3 19 4 20 5 21 6 22 7 23 8 24 9 25 10 26 11
REMARK SMILES IDX 27 12 28 13 29 14 30 15 31 16 32 17 15 18 14 19 13 20 12 21
REMARK SMILES IDX 11 22 10 23 9 24 8 25 7 26 6 27 5 28 4 29 3 30 2 31 1 32
REMARK H PARENT
REMARK Flexibility Score: inf
ROOT
ATOM      1  C   UNL     1     -19.099   3.484   6.770  1.00  0.00     0.000 C 
ENDROOT
BRANCH   1   2
ATOM      2  C   UNL     1     -19.399   4.995   6.800  1.00  0.00     0.000 C 
BRANCH   2   3
ATOM      3  C   UNL     1     -18.776   5.807   5.649  1.00  0.00     0.000 C 
BRANCH   3   4
ATOM      4  C   UNL     1     -19.488   7.145   5.401  1.00  0.00     0.000 C 
BRANCH   4   5
ATOM      5  C   UNL     1     -19.774   7.343   3.905  1.00  0.00     0.000 C 
BRANCH   5   6
ATOM      6  C   UNL     1     -19.099   6.277   3.022  1.00  0.00     0.000 C 
BRANCH   6   7
ATOM      7  C   UNL     1     -19.592   6.228   1.561  1.00  0.00     0.000 C 
BRANCH   7   8
ATOM      8  C   UNL     1     -21.093   6.514   1.346  1.00  0.00     0.000 C 
BRANCH   8   9
ATOM      9  C   UNL     1     -21.569   6.507  -0.123  1.00  0.00     0.000 C 
BRANCH   9  10
ATOM     10  C   UNL     1     -22.415   5.280  -0.513  1.00  0.00     0.000 C 
BRANCH  10  11
ATOM     11  C   UNL     1     -22.122   4.739  -1.927  1.00  0.00     0.000 C 
BRANCH  11  12
ATOM     12  C   UNL     1     -20.621   4.775  -2.259  1.00  0.00     0.000 C 
BRANCH  12  13
ATOM     13  C   UNL     1     -20.279   4.011  -3.547  1.00  0.00     0.006 C 
BRANCH  13  14
ATOM     14  C   UNL     1     -19.093   4.626  -4.301  1.00  0.00     0.053 C 
BRANCH  14  15
ATOM     15  C   UNL     1     -19.270   6.105  -4.431  1.00  0.00     0.041 C 
ATOM     16  O   UNL     1     -20.185   6.572  -5.161  1.00  0.00    -0.550 OA
ATOM     17  O   UNL     1     -18.465   6.969  -3.699  1.00  0.00    -0.550 OA
ENDBRANCH  14  15
ENDBRANCH  13  14
ENDBRANCH  12  13
ENDBRANCH  11  12
ENDBRANCH  10  11
ENDBRANCH   9  10
ENDBRANCH   8   9
ENDBRANCH   7   8
ENDBRANCH   6   7
ENDBRANCH   5   6
ENDBRANCH   4   5
ENDBRANCH   3   4
ENDBRANCH   2   3
ENDBRANCH   1   2
BRANCH   1  18
ATOM     18  C   UNL     1     -18.178   2.973   7.896  1.00  0.00     0.000 C 
BRANCH  18  19
ATOM     19  C   UNL     1     -18.890   2.771   9.251  1.00  0.00     0.000 C 
BRANCH  19  20
ATOM     20  C   UNL     1     -19.955   1.660   9.207  1.00  0.00     0.000 C 
BRANCH  20  21
ATOM     21  C   UNL     1     -21.395   2.207   9.189  1.00  0.00     0.000 C 
BRANCH  21  22
ATOM     22  C   UNL     1     -22.198   1.986  10.484  1.00  0.00     0.000 C 
BRANCH  22  23
ATOM     23  C   UNL     1     -22.152   3.194  11.434  1.00  0.00     0.000 C 
BRANCH  23  24
ATOM     24  C   UNL     1     -23.503   3.928  11.535  1.00  0.00    -0.000 C 
BRANCH  24  25
ATOM     25  C   UNL     1     -23.595   4.987  12.650  1.00  0.00    -0.000 C 
BRANCH  25  26
ATOM     26  C   UNL     1     -24.568   6.131  12.312  1.00  0.00    -0.000 C 
BRANCH  26  27
ATOM     27  C   UNL     1     -23.849   7.469  12.075  1.00  0.00    -0.000 C 
BRANCH  27  28
ATOM     28  C   UNL     1     -22.485   7.549  12.787  1.00  0.00    -0.000 C 
BRANCH  28  29
ATOM     29  C   UNL     1     -21.324   7.813  11.815  1.00  0.00    -0.000 C 
BRANCH  29  30
ATOM     30  C   UNL     1     -20.116   6.900  12.074  1.00  0.00    -0.000 C 
BRANCH  30  31
ATOM     31  C   UNL     1     -19.783   6.066  10.833  1.00  0.00    -0.003 C 
ATOM     32  C   UNL     1     -20.870   6.200   9.768  1.00  0.00     0.004 C 
ENDBRANCH  30  31
ENDBRANCH  29  30
ENDBRANCH  28  29
ENDBRANCH  27  28
ENDBRANCH  26  27
ENDBRANCH  25  26
ENDBRANCH  24  25
ENDBRANCH  23  24
ENDBRANCH  22  23
ENDBRANCH  21  22
ENDBRANCH  20  21
ENDBRANCH  19  20
ENDBRANCH  18  19
ENDBRANCH   1  18
TORSDOF 28
ENDMDL
MODEL 4
REMARK VINA RESULT:    -3.837      3.354      8.175
REMARK INTER + INTRA:         -11.693
REMARK INTER:                  -9.341
REMARK INTRA:                  -2.353
REMARK UNBOUND:                -1.576
REMARK SMILES CCCCCCCCCCCCCCCCCCCCCCCCCCCCCC(=O)[O-]
REMARK SMILES IDX 16 1 17 2 18 3 19 4 20 5 21 6 22 7 23 8 24 9 25 10 26 11
REMARK SMILES IDX 27 12 28 13 29 14 30 15 31 16 32 17 15 18 14 19 13 20 12 21
REMARK SMILES IDX 11 22 10 23 9 24 8 25 7 26 6 27 5 28 4 29 3 30 2 31 1 32
REMARK H PARENT
REMARK Flexibility Score: inf
ROOT
ATOM      1  C   UNL     1     -18.754   5.761   6.208  1.00  0.00     0.000 C 
ENDROOT
BRANCH   1   2
ATOM      2  C   UNL     1     -19.028   7.237   6.558  1.00  0.00     0.000 C 
BRANCH   2   3
ATOM      3  C   UNL     1     -19.075   7.553   8.064  1.00  0.00     0.000 C 
BRANCH   3   4
ATOM      4  C   UNL     1     -20.501   7.553   8.635  1.00  0.00     0.000 C 
BRANCH   4   5
ATOM      5  C   UNL     1     -20.766   6.277   9.447  1.00  0.00     0.000 C 
BRANCH   5   6
ATOM      6  C   UNL     1     -20.255   6.374  10.896  1.00  0.00     0.000 C 
BRANCH   6   7
ATOM      7  C   UNL     1     -20.954   7.439  11.766  1.00  0.00     0.000 C 
BRANCH   7   8
ATOM      8  C   UNL     1     -21.979   6.907  12.790  1.00  0.00     0.000 C 
BRANCH   8   9
ATOM      9  C   UNL     1     -23.390   6.619  12.233  1.00  0.00     0.000 C 
BRANCH   9  10
ATOM     10  C   UNL     1     -23.943   5.225  12.588  1.00  0.00     0.000 C 
BRANCH  10  11
ATOM     11  C   UNL     1     -23.538   4.118  11.595  1.00  0.00     0.000 C 
BRANCH  11  12
ATOM     12  C   UNL     1     -22.249   3.398  12.027  1.00  0.00     0.000 C 
BRANCH  12  13
ATOM     13  C   UNL     1     -21.482   2.792  10.843  1.00  0.00     0.006 C 
BRANCH  13  14
ATOM     14  C   UNL     1     -22.296   1.729  10.095  1.00  0.00     0.053 C 
BRANCH  14  15
ATOM     15  C   UNL     1     -21.481   1.124   8.998  1.00  0.00     0.041 C 
ATOM     16  O   UNL     1     -22.036   0.736   7.935  1.00  0.00    -0.550 OA
ATOM     17  O   UNL     1     -20.100   1.043   9.121  1.00  0.00    -0.550 OA
ENDBRANCH  14  15
ENDBRANCH  13  14
ENDBRANCH  12  13
ENDBRANCH  11  12
ENDBRANCH  10  11
ENDBRANCH   9  10
ENDBRANCH   8   9
ENDBRANCH   7   8
ENDBRANCH   6   7
ENDBRANCH   5   6
ENDBRANCH   4   5
ENDBRANCH   3   4
ENDBRANCH   2   3
ENDBRANCH   1   2
BRANCH   1  18
ATOM     18  C   UNL     1     -19.534   5.216   4.995  1.00  0.00     0.000 C 
BRANCH  18  19
ATOM     19  C   UNL     1     -19.621   6.198   3.808  1.00  0.00     0.000 C 
BRANCH  19  20
ATOM     20  C   UNL     1     -21.018   6.237   3.165  1.00  0.00     0.000 C 
BRANCH  20  21
ATOM     21  C   UNL     1     -20.983   6.606   1.670  1.00  0.00     0.000 C 
BRANCH  21  22
ATOM     22  C   UNL     1     -19.591   6.955   1.111  1.00  0.00     0.000 C 
BRANCH  22  23
ATOM     23  C   UNL     1     -19.577   7.106  -0.419  1.00  0.00     0.000 C 
BRANCH  23  24
ATOM     24  C   UNL     1     -19.465   5.755  -1.153  1.00  0.00    -0.000 C 
BRANCH  24  25
ATOM     25  C   UNL     1     -20.667   5.390  -2.045  1.00  0.00    -0.000 C 
BRANCH  25  26
ATOM     26  C   UNL     1     -20.286   5.232  -3.528  1.00  0.00    -0.000 C 
BRANCH  26  27
ATOM     27  C   UNL     1     -18.824   5.614  -3.808  1.00  0.00    -0.000 C 
BRANCH  27  28
ATOM     28  C   UNL     1     -18.067   4.534  -4.605  1.00  0.00    -0.000 C 
BRANCH  28  29
ATOM     29  C   UNL     1     -17.877   3.234  -3.808  1.00  0.00    -0.000 C 
BRANCH  29  30
ATOM     30  C   UNL     1     -18.921   2.165  -4.163  1.00  0.00    -0.000 C 
BRANCH  30  31
ATOM     31  C   UNL     1     -18.246   0.845  -4.550  1.00  0.00    -0.003 C 
ATOM     32  C   UNL     1     -18.893  -0.338  -3.833  1.00  0.00     0.004 C 
ENDBRANCH  30  31
ENDBRANCH  29  30
ENDBRANCH  28  29
ENDBRANCH  27  28
ENDBRANCH  26  27
ENDBRANCH  25  26
ENDBRANCH  24  25
ENDBRANCH  23  24
ENDBRANCH  22  23
ENDBRANCH  21  22
ENDBRANCH  20  21
ENDBRANCH  19  20
ENDBRANCH  18  19
ENDBRANCH   1  18
TORSDOF 28
ENDMDL
MODEL 5
REMARK VINA RESULT:    -3.795      5.590     11.245
REMARK INTER + INTRA:         -11.583
REMARK INTER:                  -8.412
REMARK INTRA:                  -3.171
REMARK UNBOUND:                -1.576
REMARK SMILES CCCCCCCCCCCCCCCCCCCCCCCCCCCCCC(=O)[O-]
REMARK SMILES IDX 16 1 17 2 18 3 19 4 20 5 21 6 22 7 23 8 24 9 25 10 26 11
REMARK SMILES IDX 27 12 28 13 29 14 30 15 31 16 32 17 15 18 14 19 13 20 12 21
REMARK SMILES IDX 11 22 10 23 9 24 8 25 7 26 6 27 5 28 4 29 3 30 2 31 1 32
REMARK H PARENT
REMARK Flexibility Score: inf
ROOT
ATOM      1  C   UNL     1     -19.378   4.947   5.061  1.00  0.00     0.000 C 
ENDROOT
BRANCH   1   2
ATOM      2  C   UNL     1     -19.360   6.234   4.214  1.00  0.00     0.000 C 
BRANCH   2   3
ATOM      3  C   UNL     1     -20.639   6.497   3.398  1.00  0.00     0.000 C 
BRANCH   3   4
ATOM      4  C   UNL     1     -20.454   7.573   2.317  1.00  0.00     0.000 C 
BRANCH   4   5
ATOM      5  C   UNL     1     -20.664   6.982   0.915  1.00  0.00     0.000 C 
BRANCH   5   6
ATOM      6  C   UNL     1     -19.567   5.977   0.521  1.00  0.00     0.000 C 
BRANCH   6   7
ATOM      7  C   UNL     1     -18.334   6.591  -0.174  1.00  0.00     0.000 C 
BRANCH   7   8
ATOM      8  C   UNL     1     -18.588   7.234  -1.554  1.00  0.00     0.000 C 
BRANCH   8   9
ATOM      9  C   UNL     1     -17.945   6.508  -2.757  1.00  0.00     0.000 C 
BRANCH   9  10
ATOM     10  C   UNL     1     -18.290   5.010  -2.855  1.00  0.00     0.000 C 
BRANCH  10  11
ATOM     11  C   UNL     1     -18.977   4.610  -4.177  1.00  0.00     0.000 C 
BRANCH  11  12
ATOM     12  C   UNL     1     -20.485   4.911  -4.158  1.00  0.00     0.000 C 
BRANCH  12  13
ATOM     13  C   UNL     1     -21.149   4.538  -2.825  1.00  0.00     0.006 C 
BRANCH  13  14
ATOM     14  C   UNL     1     -21.947   5.700  -2.218  1.00  0.00     0.053 C 
BRANCH  14  15
ATOM     15  C   UNL     1     -23.068   5.179  -1.378  1.00  0.00     0.041 C 
ATOM     16  O   UNL     1     -22.969   4.057  -0.812  1.00  0.00    -0.550 OA
ATOM     17  O   UNL     1     -24.199   5.958  -1.166  1.00  0.00    -0.550 OA
ENDBRANCH  14  15
ENDBRANCH  13  14
ENDBRANCH  12  13
ENDBRANCH  11  12
ENDBRANCH  10  11
ENDBRANCH   9  10
ENDBRANCH   8   9
ENDBRANCH   7   8
ENDBRANCH   6   7
ENDBRANCH   5   6
ENDBRANCH   4   5
ENDBRANCH   3   4
ENDBRANCH   2   3
ENDBRANCH   1   2
BRANCH   1  18
ATOM     18  C   UNL     1     -19.207   5.154   6.578  1.00  0.00     0.000 C 
BRANCH  18  19
ATOM     19  C   UNL     1     -19.333   6.623   7.033  1.00  0.00     0.000 C 
BRANCH  19  20
ATOM     20  C   UNL     1     -19.958   6.766   8.432  1.00  0.00     0.000 C 
BRANCH  20  21
ATOM     21  C   UNL     1     -18.985   6.398   9.567  1.00  0.00     0.000 C 
BRANCH  21  22
ATOM     22  C   UNL     1     -19.488   5.312  10.538  1.00  0.00     0.000 C 
BRANCH  22  23
ATOM     23  C   UNL     1     -18.373   4.366  11.013  1.00  0.00     0.000 C 
BRANCH  23  24
ATOM     24  C   UNL     1     -18.500   2.948  10.425  1.00  0.00    -0.000 C 
BRANCH  24  25
ATOM     25  C   UNL     1     -19.556   2.786   9.316  1.00  0.00    -0.000 C 
BRANCH  25  26
ATOM     26  C   UNL     1     -20.701   1.837   9.712  1.00  0.00    -0.000 C 
BRANCH  26  27
ATOM     27  C   UNL     1     -22.036   2.571   9.916  1.00  0.00    -0.000 C 
BRANCH  27  28
ATOM     28  C   UNL     1     -22.594   2.409  11.343  1.00  0.00    -0.000 C 
BRANCH  28  29
ATOM     29  C   UNL     1     -21.860   3.287  12.369  1.00  0.00    -0.000 C 
BRANCH  29  30
ATOM     30  C   UNL     1     -22.692   4.499  12.813  1.00  0.00    -0.000 C 
BRANCH  30  31
ATOM     31  C   UNL     1     -23.784   4.821  11.787  1.00  0.00    -0.003 C 
ATOM     32  C   UNL     1     -24.893   5.668  12.407  1.00  0.00     0.004 C 
ENDBRANCH  30  31
ENDBRANCH  29  30
ENDBRANCH  28  29
ENDBRANCH  27  28
ENDBRANCH  26  27
ENDBRANCH  25  26
ENDBRANCH  24  25
ENDBRANCH  23  24
ENDBRANCH  22  23
ENDBRANCH  21  22
ENDBRANCH  20  21
ENDBRANCH  19  20
ENDBRANCH  18  19
ENDBRANCH   1  18
TORSDOF 28
ENDMDL
MODEL 6
REMARK VINA RESULT:    -3.768      5.674     11.791
REMARK INTER + INTRA:         -11.512
REMARK INTER:                  -7.766
REMARK INTRA:                  -3.746
REMARK UNBOUND:                -1.576
REMARK SMILES CCCCCCCCCCCCCCCCCCCCCCCCCCCCCC(=O)[O-]
REMARK SMILES IDX 16 1 17 2 18 3 19 4 20 5 21 6 22 7 23 8 24 9 25 10 26 11
REMARK SMILES IDX 27 12 28 13 29 14 30 15 31 16 32 17 15 18 14 19 13 20 12 21
REMARK SMILES IDX 11 22 10 23 9 24 8 25 7 26 6 27 5 28 4 29 3 30 2 31 1 32
REMARK H PARENT
REMARK Flexibility Score: inf
ROOT
ATOM      1  C   UNL     1     -18.864   4.597   7.776  1.00  0.00     0.000 C 
ENDROOT
BRANCH   1   2
ATOM      2  C   UNL     1     -19.119   3.712   6.541  1.00  0.00     0.000 C 
BRANCH   2   3
ATOM      3  C   UNL     1     -19.358   4.478   5.227  1.00  0.00     0.000 C 
BRANCH   3   4
ATOM      4  C   UNL     1     -18.693   5.863   5.207  1.00  0.00     0.000 C 
BRANCH   4   5
ATOM      5  C   UNL     1     -19.711   6.952   4.838  1.00  0.00     0.000 C 
BRANCH   5   6
ATOM      6  C   UNL     1     -20.042   6.976   3.335  1.00  0.00     0.000 C 
BRANCH   6   7
ATOM      7  C   UNL     1     -18.866   6.632   2.399  1.00  0.00     0.000 C 
BRANCH   7   8
ATOM      8  C   UNL     1     -19.249   6.066   1.015  1.00  0.00     0.000 C 
BRANCH   8   9
ATOM      9  C   UNL     1     -19.650   7.113  -0.047  1.00  0.00     0.000 C 
BRANCH   9  10
ATOM     10  C   UNL     1     -21.155   7.141  -0.376  1.00  0.00     0.000 C 
BRANCH  10  11
ATOM     11  C   UNL     1     -21.847   5.768  -0.268  1.00  0.00     0.000 C 
BRANCH  11  12
ATOM     12  C   UNL     1     -21.708   4.948  -1.563  1.00  0.00     0.000 C 
BRANCH  12  13
ATOM     13  C   UNL     1     -21.265   5.801  -2.761  1.00  0.00     0.006 C 
BRANCH  13  14
ATOM     14  C   UNL     1     -20.679   4.958  -3.900  1.00  0.00     0.053 C 
BRANCH  14  15
ATOM     15  C   UNL     1     -19.320   4.456  -3.530  1.00  0.00     0.041 C 
ATOM     16  O   UNL     1     -18.601   5.107  -2.726  1.00  0.00    -0.550 OA
ATOM     17  O   UNL     1     -18.870   3.237  -4.023  1.00  0.00    -0.550 OA
ENDBRANCH  14  15
ENDBRANCH  13  14
ENDBRANCH  12  13
ENDBRANCH  11  12
ENDBRANCH  10  11
ENDBRANCH   9  10
ENDBRANCH   8   9
ENDBRANCH   7   8
ENDBRANCH   6   7
ENDBRANCH   5   6
ENDBRANCH   4   5
ENDBRANCH   3   4
ENDBRANCH   2   3
ENDBRANCH   1   2
BRANCH   1  18
ATOM     18  C   UNL     1     -20.126   5.024   8.553  1.00  0.00     0.000 C 
BRANCH  18  19
ATOM     19  C   UNL     1     -19.893   6.181   9.547  1.00  0.00     0.000 C 
BRANCH  19  20
ATOM     20  C   UNL     1     -21.146   7.048   9.760  1.00  0.00     0.000 C 
BRANCH  20  21
ATOM     21  C   UNL     1     -21.482   7.268  11.247  1.00  0.00     0.000 C 
BRANCH  21  22
ATOM     22  C   UNL     1     -22.763   6.571  11.741  1.00  0.00     0.000 C 
BRANCH  22  23
ATOM     23  C   UNL     1     -22.572   5.065  11.986  1.00  0.00     0.000 C 
BRANCH  23  24
ATOM     24  C   UNL     1     -21.292   4.744  12.781  1.00  0.00    -0.000 C 
BRANCH  24  25
ATOM     25  C   UNL     1     -21.085   3.257  13.125  1.00  0.00    -0.000 C 
BRANCH  25  26
ATOM     26  C   UNL     1     -19.616   2.815  13.017  1.00  0.00    -0.000 C 
BRANCH  26  27
ATOM     27  C   UNL     1     -18.797   3.706  12.070  1.00  0.00    -0.000 C 
BRANCH  27  28
ATOM     28  C   UNL     1     -18.122   2.912  10.936  1.00  0.00    -0.000 C 
BRANCH  28  29
ATOM     29  C   UNL     1     -18.733   1.514  10.746  1.00  0.00    -0.000 C 
BRANCH  29  30
ATOM     30  C   UNL     1     -19.561   1.401   9.457  1.00  0.00    -0.000 C 
BRANCH  30  31
ATOM     31  C   UNL     1     -21.030   1.752   9.716  1.00  0.00    -0.003 C 
ATOM     32  C   UNL     1     -21.871   1.575   8.453  1.00  0.00     0.004 C 
ENDBRANCH  30  31
ENDBRANCH  29  30
ENDBRANCH  28  29
ENDBRANCH  27  28
ENDBRANCH  26  27
ENDBRANCH  25  26
ENDBRANCH  24  25
ENDBRANCH  23  24
ENDBRANCH  22  23
ENDBRANCH  21  22
ENDBRANCH  20  21
ENDBRANCH  19  20
ENDBRANCH  18  19
ENDBRANCH   1  18
TORSDOF 28
ENDMDL
MODEL 7
REMARK VINA RESULT:    -3.767      4.916      9.675
REMARK INTER + INTRA:         -11.510
REMARK INTER:                  -8.352
REMARK INTRA:                  -3.158
REMARK UNBOUND:                -1.576
REMARK SMILES CCCCCCCCCCCCCCCCCCCCCCCCCCCCCC(=O)[O-]
REMARK SMILES IDX 16 1 17 2 18 3 19 4 20 5 21 6 22 7 23 8 24 9 25 10 26 11
REMARK SMILES IDX 27 12 28 13 29 14 30 15 31 16 32 17 15 18 14 19 13 20 12 21
REMARK SMILES IDX 11 22 10 23 9 24 8 25 7 26 6 27 5 28 4 29 3 30 2 31 1 32
REMARK H PARENT
REMARK Flexibility Score: inf
ROOT
ATOM      1  C   UNL     1     -19.867   4.362   7.834  1.00  0.00     0.000 C 
ENDROOT
BRANCH   1   2
ATOM      2  C   UNL     1     -19.840   2.883   8.263  1.00  0.00     0.000 C 
BRANCH   2   3
ATOM      3  C   UNL     1     -21.207   2.175   8.253  1.00  0.00     0.000 C 
BRANCH   3   4
ATOM      4  C   UNL     1     -21.615   1.631   9.630  1.00  0.00     0.000 C 
BRANCH   4   5
ATOM      5  C   UNL     1     -22.332   2.711  10.454  1.00  0.00     0.000 C 
BRANCH   5   6
ATOM      6  C   UNL     1     -21.662   2.965  11.817  1.00  0.00     0.000 C 
BRANCH   6   7
ATOM      7  C   UNL     1     -20.161   2.617  11.885  1.00  0.00     0.000 C 
BRANCH   7   8
ATOM      8  C   UNL     1     -19.375   3.248  13.054  1.00  0.00     0.000 C 
BRANCH   8   9
ATOM      9  C   UNL     1     -18.522   4.484  12.694  1.00  0.00     0.000 C 
BRANCH   9  10
ATOM     10  C   UNL     1     -18.713   4.991  11.252  1.00  0.00     0.000 C 
BRANCH  10  11
ATOM     11  C   UNL     1     -19.626   6.228  11.137  1.00  0.00     0.000 C 
BRANCH  11  12
ATOM     12  C   UNL     1     -20.120   6.712  12.511  1.00  0.00     0.000 C 
BRANCH  12  13
ATOM     13  C   UNL     1     -21.562   7.237  12.473  1.00  0.00     0.006 C 
BRANCH  13  14
ATOM     14  C   UNL     1     -22.589   6.169  12.870  1.00  0.00     0.053 C 
BRANCH  14  15
ATOM     15  C   UNL     1     -23.937   6.514  12.323  1.00  0.00     0.041 C 
ATOM     16  O   UNL     1     -24.159   7.665  11.863  1.00  0.00    -0.550 OA
ATOM     17  O   UNL     1     -24.932   5.546  12.263  1.00  0.00    -0.550 OA
ENDBRANCH  14  15
ENDBRANCH  13  14
ENDBRANCH  12  13
ENDBRANCH  11  12
ENDBRANCH  10  11
ENDBRANCH   9  10
ENDBRANCH   8   9
ENDBRANCH   7   8
ENDBRANCH   6   7
ENDBRANCH   5   6
ENDBRANCH   4   5
ENDBRANCH   3   4
ENDBRANCH   2   3
ENDBRANCH   1   2
BRANCH   1  18
ATOM     18  C   UNL     1     -18.561   4.891   7.209  1.00  0.00     0.000 C 
BRANCH  18  19
ATOM     19  C   UNL     1     -18.372   4.511   5.725  1.00  0.00     0.000 C 
BRANCH  19  20
ATOM     20  C   UNL     1     -19.491   5.056   4.820  1.00  0.00     0.000 C 
BRANCH  20  21
ATOM     21  C   UNL     1     -19.481   6.592   4.709  1.00  0.00     0.000 C 
BRANCH  21  22
ATOM     22  C   UNL     1     -19.531   7.147   3.273  1.00  0.00     0.000 C 
BRANCH  22  23
ATOM     23  C   UNL     1     -18.649   6.358   2.291  1.00  0.00     0.000 C 
BRANCH  23  24
ATOM     24  C   UNL     1     -19.304   6.180   0.908  1.00  0.00    -0.000 C 
BRANCH  24  25
ATOM     25  C   UNL     1     -20.843   6.256   0.894  1.00  0.00    -0.000 C 
BRANCH  25  26
ATOM     26  C   UNL     1     -21.384   7.277  -0.122  1.00  0.00    -0.000 C 
BRANCH  26  27
ATOM     27  C   UNL     1     -22.293   6.635  -1.182  1.00  0.00    -0.000 C 
BRANCH  27  28
ATOM     28  C   UNL     1     -22.147   5.102  -1.245  1.00  0.00    -0.000 C 
BRANCH  28  29
ATOM     29  C   UNL     1     -21.176   4.644  -2.345  1.00  0.00    -0.000 C 
BRANCH  29  30
ATOM     30  C   UNL     1     -20.761   5.788  -3.281  1.00  0.00    -0.000 C 
BRANCH  30  31
ATOM     31  C   UNL     1     -20.148   5.243  -4.576  1.00  0.00    -0.003 C 
ATOM     32  C   UNL     1     -19.116   4.156  -4.283  1.00  0.00     0.004 C 
ENDBRANCH  30  31
ENDBRANCH  29  30
ENDBRANCH  28  29
ENDBRANCH  27  28
ENDBRANCH  26  27
ENDBRANCH  25  26
ENDBRANCH  24  25
ENDBRANCH  23  24
ENDBRANCH  22  23
ENDBRANCH  21  22
ENDBRANCH  20  21
ENDBRANCH  19  20
ENDBRANCH  18  19
ENDBRANCH   1  18
TORSDOF 28
ENDMDL
MODEL 8
REMARK VINA RESULT:    -3.718      5.430     11.271
REMARK INTER + INTRA:         -11.381
REMARK INTER:                  -8.172
REMARK INTRA:                  -3.209
REMARK UNBOUND:                -1.576
REMARK SMILES CCCCCCCCCCCCCCCCCCCCCCCCCCCCCC(=O)[O-]
REMARK SMILES IDX 16 1 17 2 18 3 19 4 20 5 21 6 22 7 23 8 24 9 25 10 26 11
REMARK SMILES IDX 27 12 28 13 29 14 30 15 31 16 32 17 15 18 14 19 13 20 12 21
REMARK SMILES IDX 11 22 10 23 9 24 8 25 7 26 6 27 5 28 4 29 3 30 2 31 1 32
REMARK H PARENT
REMARK Flexibility Score: inf
ROOT
ATOM      1  C   UNL     1     -19.364   5.029   5.305  1.00  0.00     0.000 C 
ENDROOT
BRANCH   1   2
ATOM      2  C   UNL     1     -19.830   5.926   4.141  1.00  0.00     0.000 C 
BRANCH   2   3
ATOM      3  C   UNL     1     -19.135   7.297   4.055  1.00  0.00     0.000 C 
BRANCH   3   4
ATOM      4  C   UNL     1     -18.535   7.583   2.670  1.00  0.00     0.000 C 
BRANCH   4   5
ATOM      5  C   UNL     1     -18.253   6.275   1.916  1.00  0.00     0.000 C 
BRANCH   5   6
ATOM      6  C   UNL     1     -18.399   6.422   0.391  1.00  0.00     0.000 C 
BRANCH   6   7
ATOM      7  C   UNL     1     -18.940   7.785  -0.088  1.00  0.00     0.000 C 
BRANCH   7   8
ATOM      8  C   UNL     1     -19.387   7.853  -1.563  1.00  0.00     0.000 C 
BRANCH   8   9
ATOM      9  C   UNL     1     -18.423   7.208  -2.583  1.00  0.00     0.000 C 
BRANCH   9  10
ATOM     10  C   UNL     1     -18.938   7.209  -4.035  1.00  0.00     0.000 C 
BRANCH  10  11
ATOM     11  C   UNL     1     -20.199   6.349  -4.255  1.00  0.00     0.000 C 
BRANCH  11  12
ATOM     12  C   UNL     1     -19.894   4.844  -4.166  1.00  0.00     0.000 C 
BRANCH  12  13
ATOM     13  C   UNL     1     -20.667   4.147  -3.037  1.00  0.00     0.006 C 
BRANCH  13  14
ATOM     14  C   UNL     1     -22.017   4.815  -2.747  1.00  0.00     0.053 C 
BRANCH  14  15
ATOM     15  C   UNL     1     -22.340   4.725  -1.290  1.00  0.00     0.041 C 
ATOM     16  O   UNL     1     -23.236   3.936  -0.887  1.00  0.00    -0.550 OA
ATOM     17  O   UNL     1     -21.609   5.464  -0.368  1.00  0.00    -0.550 OA
ENDBRANCH  14  15
ENDBRANCH  13  14
ENDBRANCH  12  13
ENDBRANCH  11  12
ENDBRANCH  10  11
ENDBRANCH   9  10
ENDBRANCH   8   9
ENDBRANCH   7   8
ENDBRANCH   6   7
ENDBRANCH   5   6
ENDBRANCH   4   5
ENDBRANCH   3   4
ENDBRANCH   2   3
ENDBRANCH   1   2
BRANCH   1  18
ATOM     18  C   UNL     1     -18.273   5.638   6.209  1.00  0.00     0.000 C 
BRANCH  18  19
ATOM     19  C   UNL     1     -18.607   5.596   7.715  1.00  0.00     0.000 C 
BRANCH  19  20
ATOM     20  C   UNL     1     -19.747   6.555   8.102  1.00  0.00     0.000 C 
BRANCH  20  21
ATOM     21  C   UNL     1     -20.515   6.101   9.358  1.00  0.00     0.000 C 
BRANCH  21  22
ATOM     22  C   UNL     1     -19.870   6.491  10.700  1.00  0.00     0.000 C 
BRANCH  22  23
ATOM     23  C   UNL     1     -20.898   6.698  11.825  1.00  0.00     0.000 C 
BRANCH  23  24
ATOM     24  C   UNL     1     -22.347   6.447  11.366  1.00  0.00    -0.000 C 
BRANCH  24  25
ATOM     25  C   UNL     1     -23.105   5.355  12.144  1.00  0.00    -0.000 C 
BRANCH  25  26
ATOM     26  C   UNL     1     -22.167   4.383  12.881  1.00  0.00    -0.000 C 
BRANCH  26  27
ATOM     27  C   UNL     1     -21.631   3.270  11.966  1.00  0.00    -0.000 C 
BRANCH  27  28
ATOM     28  C   UNL     1     -22.649   2.835  10.895  1.00  0.00    -0.000 C 
BRANCH  28  29
ATOM     29  C   UNL     1     -22.260   1.516  10.208  1.00  0.00    -0.000 C 
BRANCH  29  30
ATOM     30  C   UNL     1     -21.997   1.687   8.705  1.00  0.00    -0.000 C 
BRANCH  30  31
ATOM     31  C   UNL     1     -20.845   2.667   8.457  1.00  0.00    -0.003 C 
ATOM     32  C   UNL     1     -19.510   2.075   8.903  1.00  0.00     0.004 C 
ENDBRANCH  30  31
ENDBRANCH  29  30
ENDBRANCH  28  29
ENDBRANCH  27  28
ENDBRANCH  26  27
ENDBRANCH  25  26
ENDBRANCH  24  25
ENDBRANCH  23  24
ENDBRANCH  22  23
ENDBRANCH  21  22
ENDBRANCH  20  21
ENDBRANCH  19  20
ENDBRANCH  18  19
ENDBRANCH   1  18
TORSDOF 28
ENDMDL
MODEL 9
REMARK VINA RESULT:    -3.688      5.649     12.012
REMARK INTER + INTRA:         -11.300
REMARK INTER:                  -8.036
REMARK INTRA:                  -3.265
REMARK UNBOUND:                -1.576
REMARK SMILES CCCCCCCCCCCCCCCCCCCCCCCCCCCCCC(=O)[O-]
REMARK SMILES IDX 16 1 17 2 18 3 19 4 20 5 21 6 22 7 23 8 24 9 25 10 26 11
REMARK SMILES IDX 27 12 28 13 29 14 30 15 31 16 32 17 15 18 14 19 13 20 12 21
REMARK SMILES IDX 11 22 10 23 9 24 8 25 7 26 6 27 5 28 4 29 3 30 2 31 1 32
REMARK H PARENT
REMARK Flexibility Score: inf
ROOT
ATOM      1  C   UNL     1     -19.733   5.783   7.955  1.00  0.00     0.000 C 
ENDROOT
BRANCH   1   2
ATOM      2  C   UNL     1     -18.637   6.712   7.399  1.00  0.00     0.000 C 
BRANCH   2   3
ATOM      3  C   UNL     1     -18.525   6.744   5.864  1.00  0.00     0.000 C 
BRANCH   3   4
ATOM      4  C   UNL     1     -19.412   5.698   5.172  1.00  0.00     0.000 C 
BRANCH   4   5
ATOM      5  C   UNL     1     -19.427   5.912   3.652  1.00  0.00     0.000 C 
BRANCH   5   6
ATOM      6  C   UNL     1     -20.820   6.287   3.115  1.00  0.00     0.000 C 
BRANCH   6   7
ATOM      7  C   UNL     1     -20.857   6.731   1.638  1.00  0.00     0.000 C 
BRANCH   7   8
ATOM      8  C   UNL     1     -19.749   7.713   1.202  1.00  0.00     0.000 C 
BRANCH   8   9
ATOM      9  C   UNL     1     -18.594   7.094   0.384  1.00  0.00     0.000 C 
BRANCH   9  10
ATOM     10  C   UNL     1     -18.877   6.973  -1.126  1.00  0.00     0.000 C 
BRANCH  10  11
ATOM     11  C   UNL     1     -18.650   5.559  -1.696  1.00  0.00     0.000 C 
BRANCH  11  12
ATOM     12  C   UNL     1     -19.585   5.256  -2.880  1.00  0.00     0.000 C 
BRANCH  12  13
ATOM     13  C   UNL     1     -21.023   5.740  -2.640  1.00  0.00     0.006 C 
BRANCH  13  14
ATOM     14  C   UNL     1     -21.973   4.598  -2.259  1.00  0.00     0.053 C 
BRANCH  14  15
ATOM     15  C   UNL     1     -22.931   5.047  -1.203  1.00  0.00     0.041 C 
ATOM     16  O   UNL     1     -23.430   4.211  -0.403  1.00  0.00    -0.550 OA
ATOM     17  O   UNL     1     -23.227   6.397  -1.061  1.00  0.00    -0.550 OA
ENDBRANCH  14  15
ENDBRANCH  13  14
ENDBRANCH  12  13
ENDBRANCH  11  12
ENDBRANCH  10  11
ENDBRANCH   9  10
ENDBRANCH   8   9
ENDBRANCH   7   8
ENDBRANCH   6   7
ENDBRANCH   5   6
ENDBRANCH   4   5
ENDBRANCH   3   4
ENDBRANCH   2   3
ENDBRANCH   1   2
BRANCH   1  18
ATOM     18  C   UNL     1     -20.269   6.158   9.351  1.00  0.00     0.000 C 
BRANCH  18  19
ATOM     19  C   UNL     1     -20.838   7.590   9.444  1.00  0.00     0.000 C 
BRANCH  19  20
ATOM     20  C   UNL     1     -22.033   7.697  10.407  1.00  0.00     0.000 C 
BRANCH  20  21
ATOM     21  C   UNL     1     -21.645   7.460  11.879  1.00  0.00     0.000 C 
BRANCH  21  22
ATOM     22  C   UNL     1     -22.823   7.411  12.870  1.00  0.00     0.000 C 
BRANCH  22  23
ATOM     23  C   UNL     1     -24.021   6.604  12.342  1.00  0.00     0.000 C 
BRANCH  23  24
ATOM     24  C   UNL     1     -23.908   5.098  12.644  1.00  0.00    -0.000 C 
BRANCH  24  25
ATOM     25  C   UNL     1     -23.175   4.264  11.576  1.00  0.00    -0.000 C 
BRANCH  25  26
ATOM     26  C   UNL     1     -22.210   3.229  12.181  1.00  0.00    -0.000 C 
BRANCH  26  27
ATOM     27  C   UNL     1     -21.127   3.873  13.062  1.00  0.00    -0.000 C 
BRANCH  27  28
ATOM     28  C   UNL     1     -19.770   4.000  12.343  1.00  0.00    -0.000 C 
BRANCH  28  29
ATOM     29  C   UNL     1     -19.418   2.753  11.516  1.00  0.00    -0.000 C 
BRANCH  29  30
ATOM     30  C   UNL     1     -18.472   3.066  10.348  1.00  0.00    -0.000 C 
BRANCH  30  31
ATOM     31  C   UNL     1     -18.877   2.290   9.090  1.00  0.00    -0.003 C 
ATOM     32  C   UNL     1     -20.243   1.629   9.266  1.00  0.00     0.004 C 
ENDBRANCH  30  31
ENDBRANCH  29  30
ENDBRANCH  28  29
ENDBRANCH  27  28
ENDBRANCH  26  27
ENDBRANCH  25  26
ENDBRANCH  24  25
ENDBRANCH  23  24
ENDBRANCH  22  23
ENDBRANCH  21  22
ENDBRANCH  20  21
ENDBRANCH  19  20
ENDBRANCH  18  19
ENDBRANCH   1  18
TORSDOF 28
ENDMDL
