MODEL 1
REMARK VINA RESULT:    -3.803      0.000      0.000
REMARK INTER + INTRA:          -8.355
REMARK INTER:                  -6.916
REMARK INTRA:                  -1.439
REMARK UNBOUND:                -1.439
REMARK SMILES CCCCCCCCCCCCCCCC(=O)[O-]
REMARK SMILES IDX 9 1 10 2 11 3 12 4 13 5 14 6 15 7 16 8 17 9 18 10 8 11 7 12
REMARK SMILES IDX 6 13 5 14 4 15 3 16 2 17 1 18
REMARK H PARENT
REMARK Flexibility Score: inf
ROOT
ATOM      1  C   UNL     1      33.014  37.914  25.993  1.00  0.00     0.000 C 
ENDROOT
BRANCH   1   2
ATOM      2  C   UNL     1      34.367  37.712  26.692  1.00  0.00     0.000 C 
BRANCH   2   3
ATOM      3  C   UNL     1      34.461  38.561  27.965  1.00  0.00     0.000 C 
BRANCH   3   4
ATOM      4  C   UNL     1      35.575  39.612  27.845  1.00  0.00     0.000 C 
BRANCH   4   5
ATOM      5  C   UNL     1      36.101  39.759  26.408  1.00  0.00     0.000 C 
BRANCH   5   6
ATOM      6  C   UNL     1      37.499  40.396  26.352  1.00  0.00     0.006 C 
BRANCH   6   7
ATOM      7  C   UNL     1      38.155  40.232  24.975  1.00  0.00     0.053 C 
BRANCH   7   8
ATOM      8  C   UNL     1      38.289  41.541  24.260  1.00  0.00     0.041 C 
ATOM      9  O   UNL     1      37.359  41.956  23.518  1.00  0.00    -0.550 OA
ATOM     10  O   UNL     1      39.427  42.319  24.436  1.00  0.00    -0.550 OA
ENDBRANCH   7   8
ENDBRANCH   6   7
ENDBRANCH   5   6
ENDBRANCH   4   5
ENDBRANCH   3   4
ENDBRANCH   2   3
ENDBRANCH   1   2
BRANCH   1  11
ATOM     11  C   UNL     1      32.129  38.947  26.708  1.00  0.00     0.000 C 
BRANCH  11  12
ATOM     12  C   UNL     1      31.912  40.220  25.872  1.00  0.00    -0.000 C 
BRANCH  12  13
ATOM     13  C   UNL     1      32.662  40.189  24.527  1.00  0.00    -0.000 C 
BRANCH  13  14
ATOM     14  C   UNL     1      33.395  41.492  24.156  1.00  0.00    -0.000 C 
BRANCH  14  15
ATOM     15  C   UNL     1      32.468  42.541  23.520  1.00  0.00    -0.000 C 
BRANCH  15  16
ATOM     16  C   UNL     1      32.120  42.222  22.054  1.00  0.00    -0.000 C 
BRANCH  16  17
ATOM     17  C   UNL     1      30.622  42.004  21.770  1.00  0.00    -0.003 C 
ATOM     18  C   UNL     1      30.347  40.770  20.914  1.00  0.00     0.004 C 
ENDBRANCH  16  17
ENDBRANCH  15  16
ENDBRANCH  14  15
ENDBRANCH  13  14
ENDBRANCH  12  13
ENDBRANCH  11  12
ENDBRANCH   1  11
TORSDOF 14
ENDMDL
MODEL 2
REMARK VINA RESULT:    -3.630      1.107      2.098
REMARK INTER + INTRA:          -8.041
REMARK INTER:                  -6.610
REMARK INTRA:                  -1.431
REMARK UNBOUND:                -1.439
REMARK SMILES CCCCCCCCCCCCCCCC(=O)[O-]
REMARK SMILES IDX 9 1 10 2 11 3 12 4 13 5 14 6 15 7 16 8 17 9 18 10 8 11 7 12
REMARK SMILES IDX 6 13 5 14 4 15 3 16 2 17 1 18
REMARK H PARENT
REMARK Flexibility Score: inf
ROOT
ATOM      1  C   UNL     1      32.505  39.376  26.066  1.00  0.00     0.000 C 
ENDROOT
BRANCH   1   2
ATOM      2  C   UNL     1      32.996  37.950  26.362  1.00  0.00     0.000 C 
BRANCH   2   3
ATOM      3  C   UNL     1      34.432  37.964  26.898  1.00  0.00     0.000 C 
BRANCH   3   4
ATOM      4  C   UNL     1      34.693  39.223  27.739  1.00  0.00     0.000 C 
BRANCH   4   5
ATOM      5  C   UNL     1      35.921  40.014  27.260  1.00  0.00     0.000 C 
BRANCH   5   6
ATOM      6  C   UNL     1      36.376  39.604  25.850  1.00  0.00     0.006 C 
BRANCH   6   7
ATOM      7  C   UNL     1      37.852  39.939  25.597  1.00  0.00     0.053 C 
BRANCH   7   8
ATOM      8  C   UNL     1      38.012  41.222  24.840  1.00  0.00     0.041 C 
ATOM      9  O   UNL     1      39.149  41.750  24.720  1.00  0.00    -0.550 OA
ATOM     10  O   UNL     1      36.909  41.819  24.241  1.00  0.00    -0.550 OA
ENDBRANCH   7   8
ENDBRANCH   6   7
ENDBRANCH   5   6
ENDBRANCH   4   5
ENDBRANCH   3   4
ENDBRANCH   2   3
ENDBRANCH   1   2
BRANCH   1  11
ATOM     11  C   UNL     1      32.859  39.838  24.644  1.00  0.00     0.000 C 
BRANCH  11  12
ATOM     12  C   UNL     1      32.508  41.317  24.398  1.00  0.00    -0.000 C 
BRANCH  12  13
ATOM     13  C   UNL     1      31.049  41.653  24.754  1.00  0.00    -0.000 C 
BRANCH  13  14
ATOM     14  C   UNL     1      30.254  42.372  23.648  1.00  0.00    -0.000 C 
BRANCH  14  15
ATOM     15  C   UNL     1      30.599  41.866  22.237  1.00  0.00    -0.000 C 
BRANCH  15  16
ATOM     16  C   UNL     1      31.228  42.955  21.348  1.00  0.00    -0.000 C 
BRANCH  16  17
ATOM     17  C   UNL     1      32.635  42.629  20.813  1.00  0.00    -0.003 C 
ATOM     18  C   UNL     1      33.725  43.512  21.417  1.00  0.00     0.004 C 
ENDBRANCH  16  17
ENDBRANCH  15  16
ENDBRANCH  14  15
ENDBRANCH  13  14
ENDBRANCH  12  13
ENDBRANCH  11  12
ENDBRANCH   1  11
TORSDOF 14
ENDMDL
MODEL 3
REMARK VINA RESULT:    -3.577      2.909      5.707
REMARK INTER + INTRA:          -7.944
REMARK INTER:                  -6.131
REMARK INTRA:                  -1.813
REMARK UNBOUND:                -1.439
REMARK SMILES CCCCCCCCCCCCCCCC(=O)[O-]
REMARK SMILES IDX 9 1 10 2 11 3 12 4 13 5 14 6 15 7 16 8 17 9 18 10 8 11 7 12
REMARK SMILES IDX 6 13 5 14 4 15 3 16 2 17 1 18
REMARK H PARENT
REMARK Flexibility Score: inf
ROOT
ATOM      1  C   UNL     1      34.525  38.177  26.596  1.00  0.00     0.000 C 
ENDROOT
BRANCH   1   2
ATOM      2  C   UNL     1      32.989  38.140  26.625  1.00  0.00     0.000 C 
BRANCH   2   3
ATOM      3  C   UNL     1      32.399  39.479  26.165  1.00  0.00     0.000 C 
BRANCH   3   4
ATOM      4  C   UNL     1      32.866  39.826  24.743  1.00  0.00     0.000 C 
BRANCH   4   5
ATOM      5  C   UNL     1      33.204  41.316  24.575  1.00  0.00     0.000 C 
BRANCH   5   6
ATOM      6  C   UNL     1      32.669  41.899  23.256  1.00  0.00     0.006 C 
BRANCH   6   7
ATOM      7  C   UNL     1      31.189  41.563  23.033  1.00  0.00     0.053 C 
BRANCH   7   8
ATOM      8  C   UNL     1      30.795  41.701  21.595  1.00  0.00     0.041 C 
ATOM      9  O   UNL     1      30.580  40.676  20.895  1.00  0.00    -0.550 OA
ATOM     10  O   UNL     1      30.636  42.962  21.033  1.00  0.00    -0.550 OA
ENDBRANCH   7   8
ENDBRANCH   6   7
ENDBRANCH   5   6
ENDBRANCH   4   5
ENDBRANCH   3   4
ENDBRANCH   2   3
ENDBRANCH   1   2
BRANCH   1  11
ATOM     11  C   UNL     1      35.112  39.146  27.633  1.00  0.00     0.000 C 
BRANCH  11  12
ATOM     12  C   UNL     1      36.036  40.202  27.000  1.00  0.00    -0.000 C 
BRANCH  12  13
ATOM     13  C   UNL     1      36.692  39.717  25.694  1.00  0.00    -0.000 C 
BRANCH  13  14
ATOM     14  C   UNL     1      38.174  40.102  25.524  1.00  0.00    -0.000 C 
BRANCH  14  15
ATOM     15  C   UNL     1      38.363  41.503  24.918  1.00  0.00    -0.000 C 
BRANCH  15  16
ATOM     16  C   UNL     1      37.431  41.768  23.721  1.00  0.00    -0.000 C 
BRANCH  16  17
ATOM     17  C   UNL     1      36.498  42.984  23.878  1.00  0.00    -0.003 C 
ATOM     18  C   UNL     1      36.458  43.529  25.305  1.00  0.00     0.004 C 
ENDBRANCH  16  17
ENDBRANCH  15  16
ENDBRANCH  14  15
ENDBRANCH  13  14
ENDBRANCH  12  13
ENDBRANCH  11  12
ENDBRANCH   1  11
TORSDOF 14
ENDMDL
MODEL 4
REMARK VINA RESULT:    -3.459      3.028      6.110
REMARK INTER + INTRA:          -7.729
REMARK INTER:                  -6.050
REMARK INTRA:                  -1.679
REMARK UNBOUND:                -1.439
REMARK SMILES CCCCCCCCCCCCCCCC(=O)[O-]
REMARK SMILES IDX 9 1 10 2 11 3 12 4 13 5 14 6 15 7 16 8 17 9 18 10 8 11 7 12
REMARK SMILES IDX 6 13 5 14 4 15 3 16 2 17 1 18
REMARK H PARENT
REMARK Flexibility Score: inf
ROOT
ATOM      1  C   UNL     1      33.213  38.597  25.424  1.00  0.00     0.000 C 
ENDROOT
BRANCH   1   2
ATOM      2  C   UNL     1      32.216  39.361  26.308  1.00  0.00     0.000 C 
BRANCH   2   3
ATOM      3  C   UNL     1      31.871  40.724  25.697  1.00  0.00     0.000 C 
BRANCH   3   4
ATOM      4  C   UNL     1      32.194  40.751  24.195  1.00  0.00     0.000 C 
BRANCH   4   5
ATOM      5  C   UNL     1      33.233  41.823  23.829  1.00  0.00     0.000 C 
BRANCH   5   6
ATOM      6  C   UNL     1      32.656  42.921  22.921  1.00  0.00     0.006 C 
BRANCH   6   7
ATOM      7  C   UNL     1      32.454  42.434  21.480  1.00  0.00     0.053 C 
BRANCH   7   8
ATOM      8  C   UNL     1      31.023  42.539  21.050  1.00  0.00     0.041 C 
ATOM      9  O   UNL     1      30.273  41.527  21.090  1.00  0.00    -0.550 OA
ATOM     10  O   UNL     1      30.508  43.760  20.635  1.00  0.00    -0.550 OA
ENDBRANCH   7   8
ENDBRANCH   6   7
ENDBRANCH   5   6
ENDBRANCH   4   5
ENDBRANCH   3   4
ENDBRANCH   2   3
ENDBRANCH   1   2
BRANCH   1  11
ATOM     11  C   UNL     1      34.384  38.009  26.226  1.00  0.00     0.000 C 
BRANCH  11  12
ATOM     12  C   UNL     1      34.562  38.686  27.597  1.00  0.00    -0.000 C 
BRANCH  12  13
ATOM     13  C   UNL     1      35.758  39.654  27.636  1.00  0.00    -0.000 C 
BRANCH  13  14
ATOM     14  C   UNL     1      35.545  40.990  26.898  1.00  0.00    -0.000 C 
BRANCH  14  15
ATOM     15  C   UNL     1      36.342  41.084  25.586  1.00  0.00    -0.000 C 
BRANCH  15  16
ATOM     16  C   UNL     1      37.402  39.975  25.449  1.00  0.00    -0.000 C 
BRANCH  16  17
ATOM     17  C   UNL     1      38.863  40.455  25.531  1.00  0.00    -0.003 C 
ATOM     18  C   UNL     1      39.073  41.844  24.929  1.00  0.00     0.004 C 
ENDBRANCH  16  17
ENDBRANCH  15  16
ENDBRANCH  14  15
ENDBRANCH  13  14
ENDBRANCH  12  13
ENDBRANCH  11  12
ENDBRANCH   1  11
TORSDOF 14
ENDMDL
MODEL 5
REMARK VINA RESULT:    -3.404      2.604      5.620
REMARK INTER + INTRA:          -7.630
REMARK INTER:                  -5.433
REMARK INTRA:                  -2.196
REMARK UNBOUND:                -1.439
REMARK SMILES CCCCCCCCCCCCCCCC(=O)[O-]
REMARK SMILES IDX 9 1 10 2 11 3 12 4 13 5 14 6 15 7 16 8 17 9 18 10 8 11 7 12
REMARK SMILES IDX 6 13 5 14 4 15 3 16 2 17 1 18
REMARK H PARENT
REMARK Flexibility Score: inf
ROOT
ATOM      1  C   UNL     1      35.518  39.226  26.332  1.00  0.00     0.000 C 
ENDROOT
BRANCH   1   2
ATOM      2  C   UNL     1      34.368  38.243  26.061  1.00  0.00     0.000 C 
BRANCH   2   3
ATOM      3  C   UNL     1      33.290  38.889  25.182  1.00  0.00     0.000 C 
BRANCH   3   4
ATOM      4  C   UNL     1      32.230  39.595  26.040  1.00  0.00     0.000 C 
BRANCH   4   5
ATOM      5  C   UNL     1      31.565  40.775  25.313  1.00  0.00     0.000 C 
BRANCH   5   6
ATOM      6  C   UNL     1      32.008  40.890  23.845  1.00  0.00     0.006 C 
BRANCH   6   7
ATOM      7  C   UNL     1      31.212  41.959  23.083  1.00  0.00     0.053 C 
BRANCH   7   8
ATOM      8  C   UNL     1      31.270  41.747  21.601  1.00  0.00     0.041 C 
ATOM      9  O   UNL     1      32.227  42.216  20.930  1.00  0.00    -0.550 OA
ATOM     10  O   UNL     1      30.282  41.005  20.965  1.00  0.00    -0.550 OA
ENDBRANCH   7   8
ENDBRANCH   6   7
ENDBRANCH   5   6
ENDBRANCH   4   5
ENDBRANCH   3   4
ENDBRANCH   2   3
ENDBRANCH   1   2
BRANCH   1  11
ATOM     11  C   UNL     1      35.520  39.746  27.778  1.00  0.00     0.000 C 
BRANCH  11  12
ATOM     12  C   UNL     1      34.949  41.171  27.895  1.00  0.00    -0.000 C 
BRANCH  12  13
ATOM     13  C   UNL     1      35.617  42.165  26.928  1.00  0.00    -0.000 C 
BRANCH  13  14
ATOM     14  C   UNL     1      34.749  42.596  25.731  1.00  0.00    -0.000 C 
BRANCH  14  15
ATOM     15  C   UNL     1      35.434  42.351  24.376  1.00  0.00    -0.000 C 
BRANCH  15  16
ATOM     16  C   UNL     1      36.965  42.501  24.443  1.00  0.00    -0.000 C 
BRANCH  16  17
ATOM     17  C   UNL     1      37.762  41.233  24.082  1.00  0.00    -0.003 C 
ATOM     18  C   UNL     1      38.665  40.749  25.215  1.00  0.00     0.004 C 
ENDBRANCH  16  17
ENDBRANCH  15  16
ENDBRANCH  14  15
ENDBRANCH  13  14
ENDBRANCH  12  13
ENDBRANCH  11  12
ENDBRANCH   1  11
TORSDOF 14
ENDMDL
MODEL 6
REMARK VINA RESULT:    -3.343      2.592      4.440
REMARK INTER + INTRA:          -7.519
REMARK INTER:                  -5.794
REMARK INTRA:                  -1.725
REMARK UNBOUND:                -1.439
REMARK SMILES CCCCCCCCCCCCCCCC(=O)[O-]
REMARK SMILES IDX 9 1 10 2 11 3 12 4 13 5 14 6 15 7 16 8 17 9 18 10 8 11 7 12
REMARK SMILES IDX 6 13 5 14 4 15 3 16 2 17 1 18
REMARK H PARENT
REMARK Flexibility Score: inf
ROOT
ATOM      1  C   UNL     1      37.391  43.312  23.908  1.00  0.00     0.000 C 
ENDROOT
BRANCH   1   2
ATOM      2  C   UNL     1      37.752  41.841  23.646  1.00  0.00     0.000 C 
BRANCH   2   3
ATOM      3  C   UNL     1      38.524  41.246  24.829  1.00  0.00     0.000 C 
BRANCH   3   4
ATOM      4  C   UNL     1      37.726  40.114  25.494  1.00  0.00     0.000 C 
BRANCH   4   5
ATOM      5  C   UNL     1      37.007  40.566  26.775  1.00  0.00     0.000 C 
BRANCH   5   6
ATOM      6  C   UNL     1      35.709  39.783  27.033  1.00  0.00     0.006 C 
BRANCH   6   7
ATOM      7  C   UNL     1      35.317  38.903  25.838  1.00  0.00     0.053 C 
BRANCH   7   8
ATOM      8  C   UNL     1      34.235  37.930  26.193  1.00  0.00     0.041 C 
ATOM      9  O   UNL     1      33.402  37.563  25.322  1.00  0.00    -0.550 OA
ATOM     10  O   UNL     1      34.164  37.403  27.477  1.00  0.00    -0.550 OA
ENDBRANCH   7   8
ENDBRANCH   6   7
ENDBRANCH   5   6
ENDBRANCH   4   5
ENDBRANCH   3   4
ENDBRANCH   2   3
ENDBRANCH   1   2
BRANCH   1  11
ATOM     11  C   UNL     1      35.982  43.478  24.497  1.00  0.00     0.000 C 
BRANCH  11  12
ATOM     12  C   UNL     1      35.022  42.357  24.059  1.00  0.00    -0.000 C 
BRANCH  12  13
ATOM     13  C   UNL     1      33.562  42.625  24.468  1.00  0.00    -0.000 C 
BRANCH  13  14
ATOM     14  C   UNL     1      32.766  41.382  24.908  1.00  0.00    -0.000 C 
BRANCH  14  15
ATOM     15  C   UNL     1      31.859  40.827  23.797  1.00  0.00    -0.000 C 
BRANCH  15  16
ATOM     16  C   UNL     1      30.984  41.911  23.142  1.00  0.00    -0.000 C 
BRANCH  16  17
ATOM     17  C   UNL     1      31.093  42.000  21.608  1.00  0.00    -0.003 C 
ATOM     18  C   UNL     1      30.386  40.852  20.889  1.00  0.00     0.004 C 
ENDBRANCH  16  17
ENDBRANCH  15  16
ENDBRANCH  14  15
ENDBRANCH  13  14
ENDBRANCH  12  13
ENDBRANCH  11  12
ENDBRANCH   1  11
TORSDOF 14
ENDMDL
MODEL 7
REMARK VINA RESULT:    -3.336     17.072     18.596
REMARK INTER + INTRA:          -7.506
REMARK INTER:                  -5.879
REMARK INTRA:                  -1.626
REMARK UNBOUND:                -1.439
REMARK SMILES CCCCCCCCCCCCCCCC(=O)[O-]
REMARK SMILES IDX 9 1 10 2 11 3 12 4 13 5 14 6 15 7 16 8 17 9 18 10 8 11 7 12
REMARK SMILES IDX 6 13 5 14 4 15 3 16 2 17 1 18
REMARK H PARENT
REMARK Flexibility Score: inf
ROOT
ATOM      1  C   UNL     1      31.531  29.134   9.377  1.00  0.00     0.000 C 
ENDROOT
BRANCH   1   2
ATOM      2  C   UNL     1      32.666  29.675  10.259  1.00  0.00     0.000 C 
BRANCH   2   3
ATOM      3  C   UNL     1      34.011  29.052   9.867  1.00  0.00     0.000 C 
BRANCH   3   4
ATOM      4  C   UNL     1      34.552  28.158  10.994  1.00  0.00     0.000 C 
BRANCH   4   5
ATOM      5  C   UNL     1      33.856  26.789  11.053  1.00  0.00     0.000 C 
BRANCH   5   6
ATOM      6  C   UNL     1      33.012  26.609  12.326  1.00  0.00     0.006 C 
BRANCH   6   7
ATOM      7  C   UNL     1      33.317  27.683  13.379  1.00  0.00     0.053 C 
BRANCH   7   8
ATOM      8  C   UNL     1      34.001  27.108  14.581  1.00  0.00     0.041 C 
ATOM      9  O   UNL     1      35.178  26.670  14.492  1.00  0.00    -0.550 OA
ATOM     10  O   UNL     1      33.349  27.083  15.808  1.00  0.00    -0.550 OA
ENDBRANCH   7   8
ENDBRANCH   6   7
ENDBRANCH   5   6
ENDBRANCH   4   5
ENDBRANCH   3   4
ENDBRANCH   2   3
ENDBRANCH   1   2
BRANCH   1  11
ATOM     11  C   UNL     1      30.443  28.415  10.189  1.00  0.00     0.000 C 
BRANCH  11  12
ATOM     12  C   UNL     1      30.259  29.016  11.594  1.00  0.00    -0.000 C 
BRANCH  12  13
ATOM     13  C   UNL     1      28.977  29.860  11.720  1.00  0.00    -0.000 C 
BRANCH  13  14
ATOM     14  C   UNL     1      27.660  29.082  11.537  1.00  0.00    -0.000 C 
BRANCH  14  15
ATOM     15  C   UNL     1      26.887  28.894  12.854  1.00  0.00    -0.000 C 
BRANCH  15  16
ATOM     16  C   UNL     1      26.595  27.416  13.170  1.00  0.00    -0.000 C 
BRANCH  16  17
ATOM     17  C   UNL     1      27.636  26.723  14.069  1.00  0.00    -0.003 C 
ATOM     18  C   UNL     1      27.016  25.728  15.049  1.00  0.00     0.004 C 
ENDBRANCH  16  17
ENDBRANCH  15  16
ENDBRANCH  14  15
ENDBRANCH  13  14
ENDBRANCH  12  13
ENDBRANCH  11  12
ENDBRANCH   1  11
TORSDOF 14
ENDMDL
MODEL 8
REMARK VINA RESULT:    -3.310     17.191     19.495
REMARK INTER + INTRA:          -7.459
REMARK INTER:                  -5.144
REMARK INTRA:                  -2.315
REMARK UNBOUND:                -1.439
REMARK SMILES CCCCCCCCCCCCCCCC(=O)[O-]
REMARK SMILES IDX 9 1 10 2 11 3 12 4 13 5 14 6 15 7 16 8 17 9 18 10 8 11 7 12
REMARK SMILES IDX 6 13 5 14 4 15 3 16 2 17 1 18
REMARK H PARENT
REMARK Flexibility Score: inf
ROOT
ATOM      1  C   UNL     1      34.758  28.388  10.883  1.00  0.00     0.000 C 
ENDROOT
BRANCH   1   2
ATOM      2  C   UNL     1      33.781  29.056   9.903  1.00  0.00     0.000 C 
BRANCH   2   3
ATOM      3  C   UNL     1      32.497  29.491  10.620  1.00  0.00     0.000 C 
BRANCH   3   4
ATOM      4  C   UNL     1      32.347  28.768  11.968  1.00  0.00     0.000 C 
BRANCH   4   5
ATOM      5  C   UNL     1      31.245  27.696  11.948  1.00  0.00     0.000 C 
BRANCH   5   6
ATOM      6  C   UNL     1      30.504  27.634  10.602  1.00  0.00     0.006 C 
BRANCH   6   7
ATOM      7  C   UNL     1      28.982  27.725  10.775  1.00  0.00     0.053 C 
BRANCH   7   8
ATOM      8  C   UNL     1      28.593  28.815  11.726  1.00  0.00     0.041 C 
ATOM      9  O   UNL     1      28.837  30.019  11.446  1.00  0.00    -0.550 OA
ATOM     10  O   UNL     1      27.933  28.505  12.909  1.00  0.00    -0.550 OA
ENDBRANCH   7   8
ENDBRANCH   6   7
ENDBRANCH   5   6
ENDBRANCH   4   5
ENDBRANCH   3   4
ENDBRANCH   2   3
ENDBRANCH   1   2
BRANCH   1  11
ATOM     11  C   UNL     1      35.279  27.038  10.369  1.00  0.00     0.000 C 
BRANCH  11  12
ATOM     12  C   UNL     1      34.209  25.932  10.420  1.00  0.00    -0.000 C 
BRANCH  12  13
ATOM     13  C   UNL     1      34.141  25.229  11.789  1.00  0.00    -0.000 C 
BRANCH  13  14
ATOM     14  C   UNL     1      35.457  25.224  12.589  1.00  0.00    -0.000 C 
BRANCH  14  15
ATOM     15  C   UNL     1      35.252  25.524  14.083  1.00  0.00    -0.000 C 
BRANCH  15  16
ATOM     16  C   UNL     1      34.598  26.896  14.334  1.00  0.00    -0.000 C 
BRANCH  16  17
ATOM     17  C   UNL     1      33.474  26.900  15.387  1.00  0.00    -0.003 C 
ATOM     18  C   UNL     1      32.496  25.738  15.226  1.00  0.00     0.004 C 
ENDBRANCH  16  17
ENDBRANCH  15  16
ENDBRANCH  14  15
ENDBRANCH  13  14
ENDBRANCH  12  13
ENDBRANCH  11  12
ENDBRANCH   1  11
TORSDOF 14
ENDMDL
MODEL 9
REMARK VINA RESULT:    -3.303     17.657     19.130
REMARK INTER + INTRA:          -7.446
REMARK INTER:                  -5.718
REMARK INTRA:                  -1.729
REMARK UNBOUND:                -1.439
REMARK SMILES CCCCCCCCCCCCCCCC(=O)[O-]
REMARK SMILES IDX 9 1 10 2 11 3 12 4 13 5 14 6 15 7 16 8 17 9 18 10 8 11 7 12
REMARK SMILES IDX 6 13 5 14 4 15 3 16 2 17 1 18
REMARK H PARENT
REMARK Flexibility Score: inf
ROOT
ATOM      1  C   UNL     1      33.198  26.494  15.401  1.00  0.00     0.000 C 
ENDROOT
BRANCH   1   2
ATOM      2  C   UNL     1      33.294  24.960  15.399  1.00  0.00     0.000 C 
BRANCH   2   3
ATOM      3  C   UNL     1      31.945  24.327  15.037  1.00  0.00     0.000 C 
BRANCH   3   4
ATOM      4  C   UNL     1      30.861  25.401  14.865  1.00  0.00     0.000 C 
BRANCH   4   5
ATOM      5  C   UNL     1      29.444  24.811  14.801  1.00  0.00     0.000 C 
BRANCH   5   6
ATOM      6  C   UNL     1      28.374  25.781  15.330  1.00  0.00     0.006 C 
BRANCH   6   7
ATOM      7  C   UNL     1      27.887  26.752  14.246  1.00  0.00     0.053 C 
BRANCH   7   8
ATOM      8  C   UNL     1      26.452  26.516  13.889  1.00  0.00     0.041 C 
ATOM      9  O   UNL     1      25.828  27.352  13.183  1.00  0.00    -0.550 OA
ATOM     10  O   UNL     1      25.810  25.358  14.310  1.00  0.00    -0.550 OA
ENDBRANCH   7   8
ENDBRANCH   6   7
ENDBRANCH   5   6
ENDBRANCH   4   5
ENDBRANCH   3   4
ENDBRANCH   2   3
ENDBRANCH   1   2
BRANCH   1  11
ATOM     11  C   UNL     1      34.366  27.159  14.657  1.00  0.00     0.000 C 
BRANCH  11  12
ATOM     12  C   UNL     1      34.906  26.291  13.506  1.00  0.00    -0.000 C 
BRANCH  12  13
ATOM     13  C   UNL     1      34.407  26.753  12.124  1.00  0.00    -0.000 C 
BRANCH  13  14
ATOM     14  C   UNL     1      32.996  26.267  11.743  1.00  0.00    -0.000 C 
BRANCH  14  15
ATOM     15  C   UNL     1      31.933  27.374  11.844  1.00  0.00    -0.000 C 
BRANCH  15  16
ATOM     16  C   UNL     1      32.539  28.789  11.832  1.00  0.00    -0.000 C 
BRANCH  16  17
ATOM     17  C   UNL     1      32.278  29.600  10.548  1.00  0.00    -0.003 C 
ATOM     18  C   UNL     1      33.530  29.793   9.695  1.00  0.00     0.004 C 
ENDBRANCH  16  17
ENDBRANCH  15  16
ENDBRANCH  14  15
ENDBRANCH  13  14
ENDBRANCH  12  13
ENDBRANCH  11  12
ENDBRANCH   1  11
TORSDOF 14
ENDMDL
