MODEL 1
REMARK VINA RESULT:    11.034      0.000      0.000
REMARK INTER + INTRA:          20.419
REMARK INTER:                  20.065
REMARK INTRA:                   0.353
REMARK UNBOUND:                 0.353
REMARK SMILES CCCCCCCCCCCCCCCC(=O)[O-]
REMARK SMILES IDX 9 1 10 2 11 3 12 4 13 5 14 6 15 7 16 8 17 9 18 10 8 11 7 12
REMARK SMILES IDX 6 13 5 14 4 15 3 16 2 17 1 18
REMARK H PARENT
REMARK Flexibility Score: inf
ROOT
ATOM      1  C   UNL     1     -16.333  28.094  -3.069  1.00  0.00     0.000 C 
ENDROOT
BRANCH   1   2
ATOM      2  C   UNL     1     -14.833  27.815  -2.876  1.00  0.00     0.000 C 
BRANCH   2   3
ATOM      3  C   UNL     1     -13.983  29.098  -2.935  1.00  0.00     0.000 C 
BRANCH   3   4
ATOM      4  C   UNL     1     -12.683  28.906  -3.733  1.00  0.00     0.000 C 
BRANCH   4   5
ATOM      5  C   UNL     1     -12.550  29.911  -4.892  1.00  0.00     0.000 C 
BRANCH   5   6
ATOM      6  C   UNL     1     -11.199  29.800  -5.623  1.00  0.00     0.006 C 
BRANCH   6   7
ATOM      7  C   UNL     1     -11.208  28.850  -6.832  1.00  0.00     0.053 C 
BRANCH   7   8
ATOM      8  C   UNL     1     -10.709  29.517  -8.077  1.00  0.00     0.041 C 
ATOM      9  O   UNL     1     -11.338  29.390  -9.159  1.00  0.00    -0.550 OA
ATOM     10  O   UNL     1      -9.530  30.252  -8.047  1.00  0.00    -0.550 OA
ENDBRANCH   7   8
ENDBRANCH   6   7
ENDBRANCH   5   6
ENDBRANCH   4   5
ENDBRANCH   3   4
ENDBRANCH   2   3
ENDBRANCH   1   2
BRANCH   1  11
ATOM     11  C   UNL     1     -17.139  26.819  -3.369  1.00  0.00     0.000 C 
BRANCH  11  12
ATOM     12  C   UNL     1     -18.621  26.955  -2.984  1.00  0.00    -0.000 C 
BRANCH  12  13
ATOM     13  C   UNL     1     -19.393  25.633  -3.139  1.00  0.00    -0.000 C 
BRANCH  13  14
ATOM     14  C   UNL     1     -20.860  25.848  -3.548  1.00  0.00    -0.000 C 
BRANCH  14  15
ATOM     15  C   UNL     1     -21.002  26.325  -5.004  1.00  0.00    -0.000 C 
BRANCH  15  16
ATOM     16  C   UNL     1     -19.997  27.432  -5.362  1.00  0.00    -0.000 C 
BRANCH  16  17
ATOM     17  C   UNL     1     -20.619  28.837  -5.313  1.00  0.00    -0.003 C 
ATOM     18  C   UNL     1     -20.814  29.299  -3.872  1.00  0.00     0.004 C 
ENDBRANCH  16  17
ENDBRANCH  15  16
ENDBRANCH  14  15
ENDBRANCH  13  14
ENDBRANCH  12  13
ENDBRANCH  11  12
ENDBRANCH   1  11
TORSDOF 14
ENDMDL
MODEL 2
REMARK VINA RESULT:    11.070     12.417     15.586
REMARK INTER + INTRA:          20.483
REMARK INTER:                  21.119
REMARK INTRA:                  -0.636
REMARK UNBOUND:                 0.353
REMARK SMILES CCCCCCCCCCCCCCCC(=O)[O-]
REMARK SMILES IDX 9 1 10 2 11 3 12 4 13 5 14 6 15 7 16 8 17 9 18 10 8 11 7 12
REMARK SMILES IDX 6 13 5 14 4 15 3 16 2 17 1 18
REMARK H PARENT
REMARK Flexibility Score: inf
ROOT
ATOM      1  C   UNL     1     -16.526  42.113  -3.770  1.00  0.00     0.000 C 
ENDROOT
BRANCH   1   2
ATOM      2  C   UNL     1     -17.949  42.261  -3.205  1.00  0.00     0.000 C 
BRANCH   2   3
ATOM      3  C   UNL     1     -18.680  43.494  -3.768  1.00  0.00     0.000 C 
BRANCH   3   4
ATOM      4  C   UNL     1     -20.105  43.165  -4.244  1.00  0.00     0.000 C 
BRANCH   4   5
ATOM      5  C   UNL     1     -21.037  42.772  -3.084  1.00  0.00     0.000 C 
BRANCH   5   6
ATOM      6  C   UNL     1     -21.123  41.248  -2.881  1.00  0.00     0.006 C 
BRANCH   6   7
ATOM      7  C   UNL     1     -21.034  40.427  -4.177  1.00  0.00     0.053 C 
BRANCH   7   8
ATOM      8  C   UNL     1     -20.366  39.104  -3.962  1.00  0.00     0.041 C 
ATOM      9  O   UNL     1     -20.833  38.065  -4.497  1.00  0.00    -0.550 OA
ATOM     10  O   UNL     1     -19.248  39.014  -3.142  1.00  0.00    -0.550 OA
ENDBRANCH   7   8
ENDBRANCH   6   7
ENDBRANCH   5   6
ENDBRANCH   4   5
ENDBRANCH   3   4
ENDBRANCH   2   3
ENDBRANCH   1   2
BRANCH   1  11
ATOM     11  C   UNL     1     -15.631  41.217  -2.897  1.00  0.00     0.000 C 
BRANCH  11  12
ATOM     12  C   UNL     1     -14.264  40.940  -3.544  1.00  0.00    -0.000 C 
BRANCH  12  13
ATOM     13  C   UNL     1     -14.178  41.473  -4.986  1.00  0.00    -0.000 C 
BRANCH  13  14
ATOM     14  C   UNL     1     -12.854  41.103  -5.675  1.00  0.00    -0.000 C 
BRANCH  14  15
ATOM     15  C   UNL     1     -12.769  41.640  -7.115  1.00  0.00    -0.000 C 
BRANCH  15  16
ATOM     16  C   UNL     1     -11.444  41.274  -7.804  1.00  0.00    -0.000 C 
BRANCH  16  17
ATOM     17  C   UNL     1     -10.294  42.218  -7.416  1.00  0.00    -0.003 C 
ATOM     18  C   UNL     1      -9.100  41.435  -6.878  1.00  0.00     0.004 C 
ENDBRANCH  16  17
ENDBRANCH  15  16
ENDBRANCH  14  15
ENDBRANCH  13  14
ENDBRANCH  12  13
ENDBRANCH  11  12
ENDBRANCH   1  11
TORSDOF 14
ENDMDL
MODEL 3
REMARK VINA RESULT:    11.326      3.713      8.777
REMARK INTER + INTRA:          20.949
REMARK INTER:                  20.894
REMARK INTRA:                   0.055
REMARK UNBOUND:                 0.353
REMARK SMILES CCCCCCCCCCCCCCCC(=O)[O-]
REMARK SMILES IDX 9 1 10 2 11 3 12 4 13 5 14 6 15 7 16 8 17 9 18 10 8 11 7 12
REMARK SMILES IDX 6 13 5 14 4 15 3 16 2 17 1 18
REMARK H PARENT
REMARK Flexibility Score: inf
ROOT
ATOM      1  C   UNL     1     -15.141  28.004  -3.770  1.00  0.00     0.000 C 
ENDROOT
BRANCH   1   2
ATOM      2  C   UNL     1     -16.391  28.044  -2.875  1.00  0.00     0.000 C 
BRANCH   2   3
ATOM      3  C   UNL     1     -17.376  26.902  -3.188  1.00  0.00     0.000 C 
BRANCH   3   4
ATOM      4  C   UNL     1     -18.835  27.383  -3.245  1.00  0.00     0.000 C 
BRANCH   4   5
ATOM      5  C   UNL     1     -18.986  28.718  -3.996  1.00  0.00     0.000 C 
BRANCH   5   6
ATOM      6  C   UNL     1     -20.071  28.667  -5.088  1.00  0.00     0.006 C 
BRANCH   6   7
ATOM      7  C   UNL     1     -21.122  27.562  -4.888  1.00  0.00     0.053 C 
BRANCH   7   8
ATOM      8  C   UNL     1     -20.778  26.315  -5.643  1.00  0.00     0.041 C 
ATOM      9  O   UNL     1     -20.415  26.383  -6.845  1.00  0.00    -0.550 OA
ATOM     10  O   UNL     1     -20.893  25.075  -5.027  1.00  0.00    -0.550 OA
ENDBRANCH   7   8
ENDBRANCH   6   7
ENDBRANCH   5   6
ENDBRANCH   4   5
ENDBRANCH   3   4
ENDBRANCH   2   3
ENDBRANCH   1   2
BRANCH   1  11
ATOM     11  C   UNL     1     -13.915  28.655  -3.106  1.00  0.00     0.000 C 
BRANCH  11  12
ATOM     12  C   UNL     1     -12.703  28.725  -4.049  1.00  0.00    -0.000 C 
BRANCH  12  13
ATOM     13  C   UNL     1     -12.737  29.966  -4.959  1.00  0.00    -0.000 C 
BRANCH  13  14
ATOM     14  C   UNL     1     -11.478  30.093  -5.833  1.00  0.00    -0.000 C 
BRANCH  14  15
ATOM     15  C   UNL     1     -11.760  29.801  -7.318  1.00  0.00    -0.000 C 
BRANCH  15  16
ATOM     16  C   UNL     1     -10.631  28.999  -7.986  1.00  0.00    -0.000 C 
BRANCH  16  17
ATOM     17  C   UNL     1      -9.297  29.112  -7.231  1.00  0.00    -0.003 C 
ATOM     18  C   UNL     1      -8.837  30.564  -7.147  1.00  0.00     0.004 C 
ENDBRANCH  16  17
ENDBRANCH  15  16
ENDBRANCH  14  15
ENDBRANCH  13  14
ENDBRANCH  12  13
ENDBRANCH  11  12
ENDBRANCH   1  11
TORSDOF 14
ENDMDL
MODEL 4
REMARK VINA RESULT:    11.399      3.515      8.628
REMARK INTER + INTRA:          21.081
REMARK INTER:                  21.786
REMARK INTRA:                  -0.705
REMARK UNBOUND:                 0.353
REMARK SMILES CCCCCCCCCCCCCCCC(=O)[O-]
REMARK SMILES IDX 9 1 10 2 11 3 12 4 13 5 14 6 15 7 16 8 17 9 18 10 8 11 7 12
REMARK SMILES IDX 6 13 5 14 4 15 3 16 2 17 1 18
REMARK H PARENT
REMARK Flexibility Score: inf
ROOT
ATOM      1  C   UNL     1     -16.533  27.781  -3.688  1.00  0.00     0.000 C 
ENDROOT
BRANCH   1   2
ATOM      2  C   UNL     1     -17.391  26.798  -2.875  1.00  0.00     0.000 C 
BRANCH   2   3
ATOM      3  C   UNL     1     -18.422  26.055  -3.746  1.00  0.00     0.000 C 
BRANCH   3   4
ATOM      4  C   UNL     1     -19.852  26.178  -3.197  1.00  0.00     0.000 C 
BRANCH   4   5
ATOM      5  C   UNL     1     -20.919  26.033  -4.297  1.00  0.00     0.000 C 
BRANCH   5   6
ATOM      6  C   UNL     1     -20.527  26.750  -5.603  1.00  0.00     0.006 C 
BRANCH   6   7
ATOM      7  C   UNL     1     -21.087  28.175  -5.740  1.00  0.00     0.053 C 
BRANCH   7   8
ATOM      8  C   UNL     1     -20.436  29.129  -4.786  1.00  0.00     0.041 C 
ATOM      9  O   UNL     1     -19.324  29.645  -5.068  1.00  0.00    -0.550 OA
ATOM     10  O   UNL     1     -21.044  29.422  -3.571  1.00  0.00    -0.550 OA
ENDBRANCH   7   8
ENDBRANCH   6   7
ENDBRANCH   5   6
ENDBRANCH   4   5
ENDBRANCH   3   4
ENDBRANCH   2   3
ENDBRANCH   1   2
BRANCH   1  11
ATOM     11  C   UNL     1     -15.041  27.711  -3.321  1.00  0.00     0.000 C 
BRANCH  11  12
ATOM     12  C   UNL     1     -14.228  28.860  -3.939  1.00  0.00    -0.000 C 
BRANCH  12  13
ATOM     13  C   UNL     1     -12.750  28.832  -3.509  1.00  0.00    -0.000 C 
BRANCH  13  14
ATOM     14  C   UNL     1     -11.833  29.577  -4.492  1.00  0.00    -0.000 C 
BRANCH  14  15
ATOM     15  C   UNL     1     -12.085  29.172  -5.956  1.00  0.00    -0.000 C 
BRANCH  15  16
ATOM     16  C   UNL     1     -11.383  30.106  -6.956  1.00  0.00    -0.000 C 
BRANCH  16  17
ATOM     17  C   UNL     1     -10.064  29.521  -7.486  1.00  0.00    -0.003 C 
ATOM     18  C   UNL     1      -8.875  30.376  -7.059  1.00  0.00     0.004 C 
ENDBRANCH  16  17
ENDBRANCH  15  16
ENDBRANCH  14  15
ENDBRANCH  13  14
ENDBRANCH  12  13
ENDBRANCH  11  12
ENDBRANCH   1  11
TORSDOF 14
ENDMDL
MODEL 5
REMARK VINA RESULT:    12.724      1.072      1.781
REMARK INTER + INTRA:          23.491
REMARK INTER:                  23.723
REMARK INTRA:                  -0.232
REMARK UNBOUND:                 0.353
REMARK SMILES CCCCCCCCCCCCCCCC(=O)[O-]
REMARK SMILES IDX 9 1 10 2 11 3 12 4 13 5 14 6 15 7 16 8 17 9 18 10 8 11 7 12
REMARK SMILES IDX 6 13 5 14 4 15 3 16 2 17 1 18
REMARK H PARENT
REMARK Flexibility Score: inf
ROOT
ATOM      1  C   UNL     1     -15.308  27.598  -3.192  1.00  0.00     0.000 C 
ENDROOT
BRANCH   1   2
ATOM      2  C   UNL     1     -14.513  28.895  -2.966  1.00  0.00     0.000 C 
BRANCH   2   3
ATOM      3  C   UNL     1     -13.021  28.739  -3.312  1.00  0.00     0.000 C 
BRANCH   3   4
ATOM      4  C   UNL     1     -12.606  29.595  -4.521  1.00  0.00     0.000 C 
BRANCH   4   5
ATOM      5  C   UNL     1     -11.390  29.013  -5.264  1.00  0.00     0.000 C 
BRANCH   5   6
ATOM      6  C   UNL     1     -10.719  30.037  -6.199  1.00  0.00     0.006 C 
BRANCH   6   7
ATOM      7  C   UNL     1     -10.359  29.488  -7.588  1.00  0.00     0.053 C 
BRANCH   7   8
ATOM      8  C   UNL     1     -11.420  29.782  -8.603  1.00  0.00     0.041 C 
ATOM      9  O   UNL     1     -12.248  30.709  -8.403  1.00  0.00    -0.550 OA
ATOM     10  O   UNL     1     -11.516  29.010  -9.754  1.00  0.00    -0.550 OA
ENDBRANCH   7   8
ENDBRANCH   6   7
ENDBRANCH   5   6
ENDBRANCH   4   5
ENDBRANCH   3   4
ENDBRANCH   2   3
ENDBRANCH   1   2
BRANCH   1  11
ATOM     11  C   UNL     1     -16.818  27.779  -2.963  1.00  0.00     0.000 C 
BRANCH  11  12
ATOM     12  C   UNL     1     -17.585  26.448  -3.005  1.00  0.00    -0.000 C 
BRANCH  12  13
ATOM     13  C   UNL     1     -19.110  26.645  -2.942  1.00  0.00    -0.000 C 
BRANCH  13  14
ATOM     14  C   UNL     1     -19.514  28.127  -2.876  1.00  0.00    -0.000 C 
BRANCH  14  15
ATOM     15  C   UNL     1     -20.924  28.379  -3.438  1.00  0.00    -0.000 C 
BRANCH  15  16
ATOM     16  C   UNL     1     -20.918  28.635  -4.954  1.00  0.00    -0.000 C 
BRANCH  16  17
ATOM     17  C   UNL     1     -20.089  27.597  -5.726  1.00  0.00    -0.003 C 
ATOM     18  C   UNL     1     -20.813  26.256  -5.793  1.00  0.00     0.004 C 
ENDBRANCH  16  17
ENDBRANCH  15  16
ENDBRANCH  14  15
ENDBRANCH  13  14
ENDBRANCH  12  13
ENDBRANCH  11  12
ENDBRANCH   1  11
TORSDOF 14
ENDMDL
MODEL 6
REMARK VINA RESULT:    13.174      3.581      8.709
REMARK INTER + INTRA:          24.310
REMARK INTER:                  24.551
REMARK INTRA:                  -0.241
REMARK UNBOUND:                 0.353
REMARK SMILES CCCCCCCCCCCCCCCC(=O)[O-]
REMARK SMILES IDX 9 1 10 2 11 3 12 4 13 5 14 6 15 7 16 8 17 9 18 10 8 11 7 12
REMARK SMILES IDX 6 13 5 14 4 15 3 16 2 17 1 18
REMARK H PARENT
REMARK Flexibility Score: inf
ROOT
ATOM      1  C   UNL     1     -14.671  28.096  -2.876  1.00  0.00     0.000 C 
ENDROOT
BRANCH   1   2
ATOM      2  C   UNL     1     -16.191  28.272  -3.033  1.00  0.00     0.000 C 
BRANCH   2   3
ATOM      3  C   UNL     1     -16.923  26.930  -3.219  1.00  0.00     0.000 C 
BRANCH   3   4
ATOM      4  C   UNL     1     -18.419  27.024  -2.875  1.00  0.00     0.000 C 
BRANCH   4   5
ATOM      5  C   UNL     1     -19.197  25.762  -3.287  1.00  0.00     0.000 C 
BRANCH   5   6
ATOM      6  C   UNL     1     -20.623  26.077  -3.778  1.00  0.00     0.006 C 
BRANCH   6   7
ATOM      7  C   UNL     1     -21.051  27.541  -3.590  1.00  0.00     0.053 C 
BRANCH   7   8
ATOM      8  C   UNL     1     -20.727  28.381  -4.787  1.00  0.00     0.041 C 
ATOM      9  O   UNL     1     -20.250  27.850  -5.823  1.00  0.00    -0.550 OA
ATOM     10  O   UNL     1     -20.919  29.757  -4.744  1.00  0.00    -0.550 OA
ENDBRANCH   7   8
ENDBRANCH   6   7
ENDBRANCH   5   6
ENDBRANCH   4   5
ENDBRANCH   3   4
ENDBRANCH   2   3
ENDBRANCH   1   2
BRANCH   1  11
ATOM     11  C   UNL     1     -13.883  28.643  -4.079  1.00  0.00     0.000 C 
BRANCH  11  12
ATOM     12  C   UNL     1     -12.451  29.056  -3.706  1.00  0.00    -0.000 C 
BRANCH  12  13
ATOM     13  C   UNL     1     -12.207  30.565  -3.890  1.00  0.00    -0.000 C 
BRANCH  13  14
ATOM     14  C   UNL     1     -11.508  30.894  -5.219  1.00  0.00    -0.000 C 
BRANCH  14  15
ATOM     15  C   UNL     1     -11.855  29.888  -6.332  1.00  0.00    -0.000 C 
BRANCH  15  16
ATOM     16  C   UNL     1     -11.274  30.295  -7.696  1.00  0.00    -0.000 C 
BRANCH  16  17
ATOM     17  C   UNL     1     -10.402  29.194  -8.321  1.00  0.00    -0.003 C 
ATOM     18  C   UNL     1      -9.826  28.276  -7.246  1.00  0.00     0.004 C 
ENDBRANCH  16  17
ENDBRANCH  15  16
ENDBRANCH  14  15
ENDBRANCH  13  14
ENDBRANCH  12  13
ENDBRANCH  11  12
ENDBRANCH   1  11
TORSDOF 14
ENDMDL
MODEL 7
REMARK VINA RESULT:    13.392      1.309      2.156
REMARK INTER + INTRA:          24.706
REMARK INTER:                  25.054
REMARK INTRA:                  -0.348
REMARK UNBOUND:                 0.353
REMARK SMILES CCCCCCCCCCCCCCCC(=O)[O-]
REMARK SMILES IDX 9 1 10 2 11 3 12 4 13 5 14 6 15 7 16 8 17 9 18 10 8 11 7 12
REMARK SMILES IDX 6 13 5 14 4 15 3 16 2 17 1 18
REMARK H PARENT
REMARK Flexibility Score: inf
ROOT
ATOM      1  C   UNL     1     -15.135  28.528  -3.692  1.00  0.00     0.000 C 
ENDROOT
BRANCH   1   2
ATOM      2  C   UNL     1     -13.807  28.493  -2.917  1.00  0.00     0.000 C 
BRANCH   2   3
ATOM      3  C   UNL     1     -12.626  29.028  -3.747  1.00  0.00     0.000 C 
BRANCH   3   4
ATOM      4  C   UNL     1     -13.033  29.383  -5.187  1.00  0.00     0.000 C 
BRANCH   4   5
ATOM      5  C   UNL     1     -11.929  30.149  -5.938  1.00  0.00     0.000 C 
BRANCH   5   6
ATOM      6  C   UNL     1     -12.100  30.088  -7.468  1.00  0.00     0.006 C 
BRANCH   6   7
ATOM      7  C   UNL     1     -10.786  29.908  -8.247  1.00  0.00     0.053 C 
BRANCH   7   8
ATOM      8  C   UNL     1      -9.601  29.809  -7.337  1.00  0.00     0.041 C 
ATOM      9  O   UNL     1      -8.696  30.682  -7.380  1.00  0.00    -0.550 OA
ATOM     10  O   UNL     1      -9.480  28.734  -6.466  1.00  0.00    -0.550 OA
ENDBRANCH   7   8
ENDBRANCH   6   7
ENDBRANCH   5   6
ENDBRANCH   4   5
ENDBRANCH   3   4
ENDBRANCH   2   3
ENDBRANCH   1   2
BRANCH   1  11
ATOM     11  C   UNL     1     -16.314  27.971  -2.875  1.00  0.00     0.000 C 
BRANCH  11  12
ATOM     12  C   UNL     1     -16.864  26.658  -3.455  1.00  0.00    -0.000 C 
BRANCH  12  13
ATOM     13  C   UNL     1     -18.293  26.353  -2.968  1.00  0.00    -0.000 C 
BRANCH  13  14
ATOM     14  C   UNL     1     -19.168  27.614  -2.875  1.00  0.00    -0.000 C 
BRANCH  14  15
ATOM     15  C   UNL     1     -20.386  27.556  -3.815  1.00  0.00    -0.000 C 
BRANCH  15  16
ATOM     16  C   UNL     1     -19.985  27.379  -5.289  1.00  0.00    -0.000 C 
BRANCH  16  17
ATOM     17  C   UNL     1     -20.588  26.113  -5.919  1.00  0.00    -0.003 C 
ATOM     18  C   UNL     1     -20.516  26.172  -7.442  1.00  0.00     0.004 C 
ENDBRANCH  16  17
ENDBRANCH  15  16
ENDBRANCH  14  15
ENDBRANCH  13  14
ENDBRANCH  12  13
ENDBRANCH  11  12
ENDBRANCH   1  11
TORSDOF 14
ENDMDL
MODEL 8
REMARK VINA RESULT:    13.423     11.767     13.147
REMARK INTER + INTRA:          24.762
REMARK INTER:                  24.748
REMARK INTRA:                   0.014
REMARK UNBOUND:                 0.353
REMARK SMILES CCCCCCCCCCCCCCCC(=O)[O-]
REMARK SMILES IDX 9 1 10 2 11 3 12 4 13 5 14 6 15 7 16 8 17 9 18 10 8 11 7 12
REMARK SMILES IDX 6 13 5 14 4 15 3 16 2 17 1 18
REMARK H PARENT
REMARK Flexibility Score: inf
ROOT
ATOM      1  C   UNL     1     -16.570  42.161  -3.139  1.00  0.00     0.000 C 
ENDROOT
BRANCH   1   2
ATOM      2  C   UNL     1     -16.157  41.892  -4.596  1.00  0.00     0.000 C 
BRANCH   2   3
ATOM      3  C   UNL     1     -14.629  41.887  -4.784  1.00  0.00     0.000 C 
BRANCH   3   4
ATOM      4  C   UNL     1     -14.218  41.680  -6.251  1.00  0.00     0.000 C 
BRANCH   4   5
ATOM      5  C   UNL     1     -12.804  41.086  -6.387  1.00  0.00     0.000 C 
BRANCH   5   6
ATOM      6  C   UNL     1     -11.697  42.107  -6.064  1.00  0.00     0.006 C 
BRANCH   6   7
ATOM      7  C   UNL     1     -10.299  41.707  -6.562  1.00  0.00     0.053 C 
BRANCH   7   8
ATOM      8  C   UNL     1     -10.271  41.485  -8.043  1.00  0.00     0.041 C 
ATOM      9  O   UNL     1     -11.329  41.579  -8.717  1.00  0.00    -0.550 OA
ATOM     10  O   UNL     1      -9.081  41.140  -8.673  1.00  0.00    -0.550 OA
ENDBRANCH   7   8
ENDBRANCH   6   7
ENDBRANCH   5   6
ENDBRANCH   4   5
ENDBRANCH   3   4
ENDBRANCH   2   3
ENDBRANCH   1   2
BRANCH   1  11
ATOM     11  C   UNL     1     -17.734  43.161  -3.028  1.00  0.00     0.000 C 
BRANCH  11  12
ATOM     12  C   UNL     1     -18.998  42.677  -3.756  1.00  0.00    -0.000 C 
BRANCH  12  13
ATOM     13  C   UNL     1     -19.866  41.756  -2.879  1.00  0.00    -0.000 C 
BRANCH  13  14
ATOM     14  C   UNL     1     -21.125  41.258  -3.609  1.00  0.00    -0.000 C 
BRANCH  14  15
ATOM     15  C   UNL     1     -20.796  40.550  -4.935  1.00  0.00    -0.000 C 
BRANCH  15  16
ATOM     16  C   UNL     1     -20.188  39.154  -4.724  1.00  0.00    -0.000 C 
BRANCH  16  17
ATOM     17  C   UNL     1     -20.485  38.583  -3.329  1.00  0.00    -0.003 C 
ATOM     18  C   UNL     1     -21.031  37.162  -3.423  1.00  0.00     0.004 C 
ENDBRANCH  16  17
ENDBRANCH  15  16
ENDBRANCH  14  15
ENDBRANCH  13  14
ENDBRANCH  12  13
ENDBRANCH  11  12
ENDBRANCH   1  11
TORSDOF 14
ENDMDL
