MODEL 1
REMARK VINA RESULT:    -5.054      0.000      0.000
REMARK INTER + INTRA:         -10.353
REMARK INTER:                  -8.305
REMARK INTRA:                  -2.049
REMARK UNBOUND:                -2.049
REMARK SMILES C[C@@H]1O[C@@H](OC[C@@H]2O[C@H](Oc3c(-c4ccc(O)c(O)c4)oc4cc(O)cc(O)c4c3=O)[C@H](O)[C@H](O)[C@@H]2O)[C@H](O)[C@@H](O)[C@@H]1O
REMARK SMILES IDX 7 1 36 2 34 3 32 4 9 5 8 6 6 7 5 8 4 9 1 10 2 11 42 12 3 13
REMARK SMILES IDX 40 14 38 15 43 16 41 18 39 20 37 22 35 24 10 26 11 27 12 28
REMARK SMILES IDX 30 29 21 30 29 31 31 32 22 33 27 34 23 35 26 36 24 37 13 38
REMARK SMILES IDX 20 39 14 40 18 41 15 42 16 43 19 44 17 46 28 48 25 50 33 52
REMARK H PARENT 43 17 41 19 39 21 37 23 35 25 19 45 17 47 28 49 25 51 33 53
REMARK Flexibility Score: inf
ROOT
ATOM      1  C   UNL     1      -5.141  10.692  -5.100  1.00  0.00     0.180 C 
ATOM      2  C   UNL     1      -5.503   9.211  -5.013  1.00  0.00     0.177 C 
ATOM      3  C   UNL     1      -4.176   8.393  -4.858  1.00  0.00     0.180 C 
ATOM      4  C   UNL     1      -3.137   8.873  -3.921  1.00  0.00     0.214 C 
ATOM      5  C   UNL     1      -2.931  10.334  -4.225  1.00  0.00     0.339 C 
ATOM      6  O   UNL     1      -3.738  10.890  -5.337  1.00  0.00    -0.332 OA
ENDROOT
BRANCH   1   7
ATOM      7  C   UNL     1      -6.059  11.709  -5.973  1.00  0.00     0.198 C 
BRANCH   7   8
ATOM      8  O   UNL     1      -6.962  11.228  -7.036  1.00  0.00    -0.347 OA
BRANCH   8   9
ATOM      9  C   UNL     1      -6.515  11.136  -8.388  1.00  0.00     0.281 C 
ATOM     10  C   UNL     1      -5.972   8.641 -10.093  1.00  0.00     0.041 C 
ATOM     11  C   UNL     1      -5.047   9.774  -9.700  1.00  0.00     0.150 C 
ATOM     12  C   UNL     1      -4.952  11.021 -10.700  1.00  0.00     0.174 C 
ATOM     13  O   UNL     1      -5.472  10.164  -8.440  1.00  0.00    -0.344 OA
ATOM     14  C   UNL     1      -4.775  12.346  -9.835  1.00  0.00     0.179 C 
ATOM     15  C   UNL     1      -5.956  12.517  -8.815  1.00  0.00     0.202 C 
BRANCH  12  16
ATOM     16  O   UNL     1      -6.034  11.230 -11.517  1.00  0.00    -0.388 OA
ATOM     17  H   UNL     1      -5.691  11.735 -12.359  1.00  0.00     0.211 HD
ENDBRANCH  12  16
BRANCH  14  18
ATOM     18  O   UNL     1      -3.547  12.367  -9.045  1.00  0.00    -0.387 OA
ATOM     19  H   UNL     1      -3.509  13.338  -8.647  1.00  0.00     0.211 HD
ENDBRANCH  14  18
BRANCH  15  20
ATOM     20  O   UNL     1      -6.631  13.754  -8.659  1.00  0.00    -0.385 OA
ATOM     21  H   UNL     1      -6.144  14.353  -8.056  1.00  0.00     0.211 HD
ENDBRANCH  15  20
ENDBRANCH   8   9
ENDBRANCH   7   8
ENDBRANCH   1   7
BRANCH   2  22
ATOM     22  O   UNL     1      -6.082   8.824  -6.189  1.00  0.00    -0.387 OA
ATOM     23  H   UNL     1      -6.064   7.862  -6.226  1.00  0.00     0.211 HD
ENDBRANCH   2  22
BRANCH   3  24
ATOM     24  O   UNL     1      -3.692   8.160  -6.122  1.00  0.00    -0.387 OA
ATOM     25  H   UNL     1      -2.818   7.652  -6.038  1.00  0.00     0.211 HD
ENDBRANCH   3  24
BRANCH   5  26
ATOM     26  O   UNL     1      -1.508  10.578  -4.488  1.00  0.00    -0.454 OA
BRANCH  26  27
ATOM     27  C   UNL     1      -1.121  11.313  -5.615  1.00  0.00     0.214 A 
ATOM     28  C   UNL     1      -0.366  12.468  -5.395  1.00  0.00     0.180 A 
ATOM     29  C   UNL     1      -1.182  10.793  -6.875  1.00  0.00     0.239 A 
ATOM     30  O   UNL     1       0.720  12.627  -6.262  1.00  0.00    -0.452 OA
ATOM     31  C   UNL     1      -0.138  10.905  -7.710  1.00  0.00     0.111 A 
ATOM     32  O   UNL     1      -2.288  10.232  -7.217  1.00  0.00    -0.285 OA
ATOM     33  C   UNL     1       0.927  11.818  -7.310  1.00  0.00     0.146 A 
ATOM     34  C   UNL     1       0.061   9.924  -8.643  1.00  0.00     0.134 A 
ATOM     35  C   UNL     1       2.141  11.687  -8.019  1.00  0.00     0.094 A 
ATOM     36  C   UNL     1       1.346   9.627  -9.091  1.00  0.00     0.093 A 
ATOM     37  C   UNL     1       2.407  10.419  -8.713  1.00  0.00     0.123 A 
BRANCH  28  38
ATOM     38  C   UNL     1      -0.512  13.406  -4.272  1.00  0.00     0.025 A 
ATOM     39  C   UNL     1       0.546  14.440  -4.066  1.00  0.00     0.062 A 
ATOM     40  C   UNL     1      -1.857  13.743  -3.946  1.00  0.00     0.016 A 
ATOM     41  C   UNL     1       0.079  15.783  -4.004  1.00  0.00     0.158 A 
ATOM     42  C   UNL     1      -2.240  15.009  -3.879  1.00  0.00     0.051 A 
ATOM     43  C   UNL     1      -1.346  16.026  -4.236  1.00  0.00     0.157 A 
BRANCH  41  44
ATOM     44  O   UNL     1       0.967  16.846  -3.875  1.00  0.00    -0.504 OA
ATOM     45  H   UNL     1       0.583  17.774  -4.166  1.00  0.00     0.293 HD
ENDBRANCH  41  44
BRANCH  43  46
ATOM     46  O   UNL     1      -1.843  17.205  -4.768  1.00  0.00    -0.504 OA
ATOM     47  H   UNL     1      -2.728  17.189  -5.290  1.00  0.00     0.293 HD
ENDBRANCH  43  46
ENDBRANCH  28  38
BRANCH  34  48
ATOM     48  O   UNL     1      -0.958   9.108  -9.068  1.00  0.00    -0.507 OA
ATOM     49  H   UNL     1      -1.745   8.893  -8.475  1.00  0.00     0.293 HD
ENDBRANCH  34  48
BRANCH  37  50
ATOM     50  O   UNL     1       3.652   9.868  -8.911  1.00  0.00    -0.508 OA
ATOM     51  H   UNL     1       4.531  10.383  -8.986  1.00  0.00     0.293 HD
ENDBRANCH  37  50
ENDBRANCH  26  27
ENDBRANCH   5  26
BRANCH   4  52
ATOM     52  O   UNL     1      -1.928   8.020  -3.879  1.00  0.00    -0.384 OA
ATOM     53  H   UNL     1      -1.545   8.047  -2.977  1.00  0.00     0.211 HD
ENDBRANCH   4  52
TORSDOF 16
ENDMDL
MODEL 2
REMARK VINA RESULT:    -4.495      1.808      6.081
REMARK INTER + INTRA:          -9.435
REMARK INTER:                  -9.327
REMARK INTRA:                  -0.108
REMARK UNBOUND:                -2.049
REMARK SMILES C[C@@H]1O[C@@H](OC[C@@H]2O[C@H](Oc3c(-c4ccc(O)c(O)c4)oc4cc(O)cc(O)c4c3=O)[C@H](O)[C@H](O)[C@@H]2O)[C@H](O)[C@@H](O)[C@@H]1O
REMARK SMILES IDX 7 1 36 2 34 3 32 4 9 5 8 6 6 7 5 8 4 9 1 10 2 11 42 12 3 13
REMARK SMILES IDX 40 14 38 15 43 16 41 18 39 20 37 22 35 24 10 26 11 27 12 28
REMARK SMILES IDX 30 29 21 30 29 31 31 32 22 33 27 34 23 35 26 36 24 37 13 38
REMARK SMILES IDX 20 39 14 40 18 41 15 42 16 43 19 44 17 46 28 48 25 50 33 52
REMARK H PARENT 43 17 41 19 39 21 37 23 35 25 19 45 17 47 28 49 25 51 33 53
REMARK Flexibility Score: inf
ROOT
ATOM      1  C   UNL     1      -4.070  11.304  -6.348  1.00  0.00     0.180 C 
ATOM      2  C   UNL     1      -4.735  11.362  -7.721  1.00  0.00     0.177 C 
ATOM      3  C   UNL     1      -3.833  12.231  -8.662  1.00  0.00     0.180 C 
ATOM      4  C   UNL     1      -2.368  12.029  -8.649  1.00  0.00     0.214 C 
ATOM      5  C   UNL     1      -1.950  12.048  -7.201  1.00  0.00     0.339 C 
ATOM      6  O   UNL     1      -3.028  12.284  -6.213  1.00  0.00    -0.332 OA
ENDROOT
BRANCH   1   7
ATOM      7  C   UNL     1      -4.976  11.184  -5.004  1.00  0.00     0.198 C 
BRANCH   7   8
ATOM      8  O   UNL     1      -4.586  10.319  -3.875  1.00  0.00    -0.347 OA
BRANCH   8   9
ATOM      9  C   UNL     1      -4.503   8.903  -4.033  1.00  0.00     0.281 C 
ATOM     10  C   UNL     1      -2.044   7.069  -3.894  1.00  0.00     0.041 C 
ATOM     11  C   UNL     1      -3.030   7.294  -5.021  1.00  0.00     0.150 C 
ATOM     12  C   UNL     1      -4.302   6.324  -5.087  1.00  0.00     0.174 C 
ATOM     13  O   UNL     1      -3.409   8.623  -4.906  1.00  0.00    -0.344 OA
ATOM     14  C   UNL     1      -5.550   7.165  -5.605  1.00  0.00     0.179 C 
ATOM     15  C   UNL     1      -5.821   8.404  -4.679  1.00  0.00     0.202 C 
BRANCH  12  16
ATOM     16  O   UNL     1      -4.686   5.743  -3.904  1.00  0.00    -0.388 OA
ATOM     17  H   UNL     1      -4.338   6.351  -3.135  1.00  0.00     0.211 HD
ENDBRANCH  12  16
BRANCH  14  18
ATOM     18  O   UNL     1      -5.376   7.695  -6.955  1.00  0.00    -0.387 OA
ATOM     19  H   UNL     1      -5.781   8.663  -6.910  1.00  0.00     0.211 HD
ENDBRANCH  14  18
BRANCH  15  20
ATOM     20  O   UNL     1      -7.125   8.718  -4.220  1.00  0.00    -0.385 OA
ATOM     21  H   UNL     1      -7.098   9.169  -3.352  1.00  0.00     0.211 HD
ENDBRANCH  15  20
ENDBRANCH   8   9
ENDBRANCH   7   8
ENDBRANCH   1   7
BRANCH   2  22
ATOM     22  O   UNL     1      -5.937  12.002  -7.608  1.00  0.00    -0.387 OA
ATOM     23  H   UNL     1      -6.088  12.495  -8.421  1.00  0.00     0.211 HD
ENDBRANCH   2  22
BRANCH   3  24
ATOM     24  O   UNL     1      -4.197  13.542  -8.476  1.00  0.00    -0.387 OA
ATOM     25  H   UNL     1      -4.359  13.688  -7.485  1.00  0.00     0.211 HD
ENDBRANCH   3  24
BRANCH   5  26
ATOM     26  O   UNL     1      -0.893  13.049  -7.016  1.00  0.00    -0.454 OA
BRANCH  26  27
ATOM     27  C   UNL     1      -0.422  13.338  -5.729  1.00  0.00     0.214 A 
ATOM     28  C   UNL     1       0.833  12.830  -5.381  1.00  0.00     0.180 A 
ATOM     29  C   UNL     1      -0.976  14.317  -4.958  1.00  0.00     0.239 A 
ATOM     30  O   UNL     1       1.662  13.736  -4.711  1.00  0.00    -0.452 OA
ATOM     31  C   UNL     1      -0.200  15.217  -4.336  1.00  0.00     0.111 A 
ATOM     32  O   UNL     1      -2.258  14.305  -4.840  1.00  0.00    -0.285 OA
ATOM     33  C   UNL     1       1.232  14.939  -4.306  1.00  0.00     0.146 A 
ATOM     34  C   UNL     1      -0.699  16.473  -4.119  1.00  0.00     0.134 A 
ATOM     35  C   UNL     1       2.057  16.025  -3.941  1.00  0.00     0.094 A 
ATOM     36  C   UNL     1       0.155  17.572  -4.069  1.00  0.00     0.093 A 
ATOM     37  C   UNL     1       1.519  17.385  -4.086  1.00  0.00     0.123 A 
BRANCH  28  38
ATOM     38  C   UNL     1       1.392  11.532  -5.785  1.00  0.00     0.025 A 
ATOM     39  C   UNL     1       0.632  10.705  -6.769  1.00  0.00     0.062 A 
ATOM     40  C   UNL     1       2.815  11.477  -5.814  1.00  0.00     0.016 A 
ATOM     41  C   UNL     1       1.366  10.303  -7.920  1.00  0.00     0.158 A 
ATOM     42  C   UNL     1       3.454  11.075  -6.903  1.00  0.00     0.051 A 
ATOM     43  C   UNL     1       2.734  10.804  -8.072  1.00  0.00     0.157 A 
BRANCH  41  44
ATOM     44  O   UNL     1       0.759   9.580  -8.942  1.00  0.00    -0.504 OA
ATOM     45  H   UNL     1       0.858   8.541  -8.861  1.00  0.00     0.293 HD
ENDBRANCH  41  44
BRANCH  43  46
ATOM     46  O   UNL     1       3.343  11.001  -9.301  1.00  0.00    -0.504 OA
ATOM     47  H   UNL     1       2.951  10.547 -10.136  1.00  0.00     0.293 HD
ENDBRANCH  43  46
ENDBRANCH  28  38
BRANCH  34  48
ATOM     48  O   UNL     1      -2.049  16.722  -4.080  1.00  0.00    -0.507 OA
ATOM     49  H   UNL     1      -2.718  16.060  -4.443  1.00  0.00     0.293 HD
ENDBRANCH  34  48
BRANCH  37  50
ATOM     50  O   UNL     1       2.262  18.506  -4.378  1.00  0.00    -0.508 OA
ATOM     51  H   UNL     1       2.840  19.031  -3.719  1.00  0.00     0.293 HD
ENDBRANCH  37  50
ENDBRANCH  26  27
ENDBRANCH   5  26
BRANCH   4  52
ATOM     52  O   UNL     1      -1.632  12.922  -9.572  1.00  0.00    -0.384 OA
ATOM     53  H   UNL     1      -0.919  13.380  -9.077  1.00  0.00     0.211 HD
ENDBRANCH   4  52
TORSDOF 16
ENDMDL
MODEL 3
REMARK VINA RESULT:    -4.209      1.575      2.275
REMARK INTER + INTRA:          -8.964
REMARK INTER:                 -11.407
REMARK INTRA:                   2.442
REMARK UNBOUND:                -2.049
REMARK SMILES C[C@@H]1O[C@@H](OC[C@@H]2O[C@H](Oc3c(-c4ccc(O)c(O)c4)oc4cc(O)cc(O)c4c3=O)[C@H](O)[C@H](O)[C@@H]2O)[C@H](O)[C@@H](O)[C@@H]1O
REMARK SMILES IDX 7 1 36 2 34 3 32 4 9 5 8 6 6 7 5 8 4 9 1 10 2 11 42 12 3 13
REMARK SMILES IDX 40 14 38 15 43 16 41 18 39 20 37 22 35 24 10 26 11 27 12 28
REMARK SMILES IDX 30 29 21 30 29 31 31 32 22 33 27 34 23 35 26 36 24 37 13 38
REMARK SMILES IDX 20 39 14 40 18 41 15 42 16 43 19 44 17 46 28 48 25 50 33 52
REMARK H PARENT 43 17 41 19 39 21 37 23 35 25 19 45 17 47 28 49 25 51 33 53
REMARK Flexibility Score: inf
ROOT
ATOM      1  C   UNL     1      -4.140  10.767  -5.219  1.00  0.00     0.180 C 
ATOM      2  C   UNL     1      -3.103   9.677  -4.961  1.00  0.00     0.177 C 
ATOM      3  C   UNL     1      -1.706  10.365  -4.785  1.00  0.00     0.180 C 
ATOM      4  C   UNL     1      -1.600  11.584  -3.953  1.00  0.00     0.214 C 
ATOM      5  C   UNL     1      -2.693  12.511  -4.417  1.00  0.00     0.339 C 
ATOM      6  O   UNL     1      -3.528  12.027  -5.541  1.00  0.00    -0.332 OA
ENDROOT
BRANCH   1   7
ATOM      7  C   UNL     1      -5.437  10.460  -6.148  1.00  0.00     0.198 C 
BRANCH   7   8
ATOM      8  O   UNL     1      -5.380   9.514  -7.278  1.00  0.00    -0.347 OA
BRANCH   8   9
ATOM      9  C   UNL     1      -5.567   9.965  -8.620  1.00  0.00     0.281 C 
ATOM     10  C   UNL     1      -4.588   8.713 -11.247  1.00  0.00     0.041 C 
ATOM     11  C   UNL     1      -4.318  10.083 -10.659  1.00  0.00     0.150 C 
ATOM     12  C   UNL     1      -5.310  11.267 -11.076  1.00  0.00     0.174 C 
ATOM     13  O   UNL     1      -4.307   9.888  -9.287  1.00  0.00    -0.344 OA
ATOM     14  C   UNL     1      -5.499  12.230  -9.823  1.00  0.00     0.179 C 
ATOM     15  C   UNL     1      -6.041  11.440  -8.580  1.00  0.00     0.202 C 
BRANCH  12  16
ATOM     16  O   UNL     1      -6.569  10.895 -11.476  1.00  0.00    -0.388 OA
ATOM     17  H   UNL     1      -6.883  11.586 -12.187  1.00  0.00     0.211 HD
ENDBRANCH  12  16
BRANCH  14  18
ATOM     18  O   UNL     1      -4.261  12.874  -9.389  1.00  0.00    -0.387 OA
ATOM     19  H   UNL     1      -3.619  12.075  -9.157  1.00  0.00     0.211 HD
ENDBRANCH  14  18
BRANCH  15  20
ATOM     20  O   UNL     1      -7.118  11.929  -7.799  1.00  0.00    -0.385 OA
ATOM     21  H   UNL     1      -6.874  11.992  -6.853  1.00  0.00     0.211 HD
ENDBRANCH  15  20
ENDBRANCH   8   9
ENDBRANCH   7   8
ENDBRANCH   1   7
BRANCH   2  22
ATOM     22  O   UNL     1      -3.020   8.871  -6.062  1.00  0.00    -0.387 OA
ATOM     23  H   UNL     1      -3.123   7.959  -5.770  1.00  0.00     0.211 HD
ENDBRANCH   2  22
BRANCH   3  24
ATOM     24  O   UNL     1      -1.170  10.523  -6.039  1.00  0.00    -0.387 OA
ATOM     25  H   UNL     1      -1.850  11.007  -6.616  1.00  0.00     0.211 HD
ENDBRANCH   3  24
BRANCH   5  26
ATOM     26  O   UNL     1      -2.107  13.810  -4.771  1.00  0.00    -0.454 OA
BRANCH  26  27
ATOM     27  C   UNL     1      -1.114  13.884  -5.756  1.00  0.00     0.214 A 
ATOM     28  C   UNL     1       0.173  14.231  -5.337  1.00  0.00     0.180 A 
ATOM     29  C   UNL     1      -1.283  13.343  -6.997  1.00  0.00     0.239 A 
ATOM     30  O   UNL     1       1.195  13.461  -5.902  1.00  0.00    -0.452 OA
ATOM     31  C   UNL     1      -0.329  12.573  -7.541  1.00  0.00     0.111 A 
ATOM     32  O   UNL     1      -2.374  13.638  -7.613  1.00  0.00    -0.285 OA
ATOM     33  C   UNL     1       0.969  12.568  -6.875  1.00  0.00     0.146 A 
ATOM     34  C   UNL     1      -0.704  11.582  -8.407  1.00  0.00     0.134 A 
ATOM     35  C   UNL     1       1.846  11.530  -7.258  1.00  0.00     0.094 A 
ATOM     36  C   UNL     1       0.058  10.422  -8.522  1.00  0.00     0.093 A 
ATOM     37  C   UNL     1       1.272  10.329  -7.880  1.00  0.00     0.123 A 
BRANCH  28  38
ATOM     38  C   UNL     1       0.518  15.187  -4.276  1.00  0.00     0.025 A 
ATOM     39  C   UNL     1       1.941  15.620  -4.143  1.00  0.00     0.062 A 
ATOM     40  C   UNL     1      -0.505  16.127  -3.961  1.00  0.00     0.016 A 
ATOM     41  C   UNL     1       2.152  17.027  -4.162  1.00  0.00     0.158 A 
ATOM     42  C   UNL     1      -0.255  17.428  -3.972  1.00  0.00     0.051 A 
ATOM     43  C   UNL     1       0.994  17.892  -4.399  1.00  0.00     0.157 A 
BRANCH  41  44
ATOM     44  O   UNL     1       3.436  17.561  -4.107  1.00  0.00    -0.504 OA
ATOM     45  H   UNL     1       4.106  17.161  -4.803  1.00  0.00     0.293 HD
ENDBRANCH  41  44
BRANCH  43  46
ATOM     46  O   UNL     1       1.082  19.137  -5.001  1.00  0.00    -0.504 OA
ATOM     47  H   UNL     1       0.341  19.439  -5.646  1.00  0.00     0.293 HD
ENDBRANCH  43  46
ENDBRANCH  28  38
BRANCH  34  48
ATOM     48  O   UNL     1      -1.897  11.622  -9.085  1.00  0.00    -0.507 OA
ATOM     49  H   UNL     1      -2.489  10.809  -9.160  1.00  0.00     0.293 HD
ENDBRANCH  34  48
BRANCH  37  50
ATOM     50  O   UNL     1       1.781   9.055  -7.766  1.00  0.00    -0.508 OA
ATOM     51  H   UNL     1       2.102   8.466  -8.537  1.00  0.00     0.293 HD
ENDBRANCH  37  50
ENDBRANCH  26  27
ENDBRANCH   5  26
BRANCH   4  52
ATOM     52  O   UNL     1      -0.232  12.142  -3.880  1.00  0.00    -0.384 OA
ATOM     53  H   UNL     1       0.414  11.445  -4.121  1.00  0.00     0.211 HD
ENDBRANCH   4  52
TORSDOF 16
ENDMDL
MODEL 4
REMARK VINA RESULT:    -3.991      1.981      5.553
REMARK INTER + INTRA:          -8.607
REMARK INTER:                  -7.083
REMARK INTRA:                  -1.524
REMARK UNBOUND:                -2.049
REMARK SMILES C[C@@H]1O[C@@H](OC[C@@H]2O[C@H](Oc3c(-c4ccc(O)c(O)c4)oc4cc(O)cc(O)c4c3=O)[C@H](O)[C@H](O)[C@@H]2O)[C@H](O)[C@@H](O)[C@@H]1O
REMARK SMILES IDX 7 1 36 2 34 3 32 4 9 5 8 6 6 7 5 8 4 9 1 10 2 11 42 12 3 13
REMARK SMILES IDX 40 14 38 15 43 16 41 18 39 20 37 22 35 24 10 26 11 27 12 28
REMARK SMILES IDX 30 29 21 30 29 31 31 32 22 33 27 34 23 35 26 36 24 37 13 38
REMARK SMILES IDX 20 39 14 40 18 41 15 42 16 43 19 44 17 46 28 48 25 50 33 52
REMARK H PARENT 43 17 41 19 39 21 37 23 35 25 19 45 17 47 28 49 25 51 33 53
REMARK Flexibility Score: inf
ROOT
ATOM      1  C   UNL     1      -4.110  11.638  -9.757  1.00  0.00     0.180 C 
ATOM      2  C   UNL     1      -5.546  11.954 -10.165  1.00  0.00     0.177 C 
ATOM      3  C   UNL     1      -6.341  12.355  -8.876  1.00  0.00     0.180 C 
ATOM      4  C   UNL     1      -5.718  13.273  -7.898  1.00  0.00     0.214 C 
ATOM      5  C   UNL     1      -4.337  12.734  -7.630  1.00  0.00     0.339 C 
ATOM      6  O   UNL     1      -3.976  11.481  -8.336  1.00  0.00    -0.332 OA
ENDROOT
BRANCH   1   7
ATOM      7  C   UNL     1      -3.250  10.530 -10.579  1.00  0.00     0.198 C 
BRANCH   7   8
ATOM      8  O   UNL     1      -3.896   9.535 -11.456  1.00  0.00    -0.347 OA
BRANCH   8   9
ATOM      9  C   UNL     1      -4.355   8.288 -10.933  1.00  0.00     0.281 C 
ATOM     10  C   UNL     1      -5.285   5.774 -12.430  1.00  0.00     0.041 C 
ATOM     11  C   UNL     1      -6.021   6.642 -11.430  1.00  0.00     0.150 C 
ATOM     12  C   UNL     1      -5.922   6.227  -9.887  1.00  0.00     0.174 C 
ATOM     13  O   UNL     1      -5.537   7.923 -11.644  1.00  0.00    -0.344 OA
ATOM     14  C   UNL     1      -5.887   7.555  -9.010  1.00  0.00     0.179 C 
ATOM     15  C   UNL     1      -4.692   8.480  -9.432  1.00  0.00     0.202 C 
BRANCH  12  16
ATOM     16  O   UNL     1      -4.822   5.490  -9.524  1.00  0.00    -0.388 OA
ATOM     17  H   UNL     1      -4.089   5.655 -10.244  1.00  0.00     0.211 HD
ENDBRANCH  12  16
BRANCH  14  18
ATOM     18  O   UNL     1      -7.096   8.366  -9.133  1.00  0.00    -0.387 OA
ATOM     19  H   UNL     1      -7.794   7.892  -8.507  1.00  0.00     0.211 HD
ENDBRANCH  14  18
BRANCH  15  20
ATOM     20  O   UNL     1      -3.832   9.069  -8.472  1.00  0.00    -0.385 OA
ATOM     21  H   UNL     1      -4.054   8.774  -7.565  1.00  0.00     0.211 HD
ENDBRANCH  15  20
ENDBRANCH   8   9
ENDBRANCH   7   8
ENDBRANCH   1   7
BRANCH   2  22
ATOM     22  O   UNL     1      -6.128  10.823 -10.664  1.00  0.00    -0.387 OA
ATOM     23  H   UNL     1      -7.013  10.755 -10.292  1.00  0.00     0.211 HD
ENDBRANCH   2  22
BRANCH   3  24
ATOM     24  O   UNL     1      -6.802  11.194  -8.306  1.00  0.00    -0.387 OA
ATOM     25  H   UNL     1      -7.773  11.331  -8.048  1.00  0.00     0.211 HD
ENDBRANCH   3  24
BRANCH   5  26
ATOM     26  O   UNL     1      -4.162  12.545  -6.185  1.00  0.00    -0.454 OA
BRANCH  26  27
ATOM     27  C   UNL     1      -2.974  11.994  -5.690  1.00  0.00     0.214 A 
ATOM     28  C   UNL     1      -3.001  10.646  -5.324  1.00  0.00     0.180 A 
ATOM     29  C   UNL     1      -1.769  12.613  -5.847  1.00  0.00     0.239 A 
ATOM     30  O   UNL     1      -1.893   9.905  -5.749  1.00  0.00    -0.452 OA
ATOM     31  C   UNL     1      -0.702  11.928  -6.287  1.00  0.00     0.111 A 
ATOM     32  O   UNL     1      -1.710  13.857  -5.522  1.00  0.00    -0.285 OA
ATOM     33  C   UNL     1      -0.827  10.475  -6.327  1.00  0.00     0.146 A 
ATOM     34  C   UNL     1       0.250  12.594  -7.009  1.00  0.00     0.134 A 
ATOM     35  C   UNL     1       0.159   9.799  -7.078  1.00  0.00     0.094 A 
ATOM     36  C   UNL     1       1.001  11.924  -7.973  1.00  0.00     0.093 A 
ATOM     37  C   UNL     1       0.896  10.558  -8.099  1.00  0.00     0.123 A 
BRANCH  28  38
ATOM     38  C   UNL     1      -4.124   9.933  -4.697  1.00  0.00     0.025 A 
ATOM     39  C   UNL     1      -5.420   9.857  -5.436  1.00  0.00     0.062 A 
ATOM     40  C   UNL     1      -3.750   8.831  -3.876  1.00  0.00     0.016 A 
ATOM     41  C   UNL     1      -5.936   8.544  -5.623  1.00  0.00     0.158 A 
ATOM     42  C   UNL     1      -4.274   7.631  -4.075  1.00  0.00     0.051 A 
ATOM     43  C   UNL     1      -5.122   7.415  -5.168  1.00  0.00     0.157 A 
BRANCH  41  44
ATOM     44  O   UNL     1      -7.104   8.329  -6.347  1.00  0.00    -0.504 OA
ATOM     45  H   UNL     1      -7.885   7.897  -5.800  1.00  0.00     0.293 HD
ENDBRANCH  41  44
BRANCH  43  46
ATOM     46  O   UNL     1      -5.167   6.158  -5.749  1.00  0.00    -0.504 OA
ATOM     47  H   UNL     1      -5.433   6.069  -6.738  1.00  0.00     0.293 HD
ENDBRANCH  43  46
ENDBRANCH  28  38
BRANCH  34  48
ATOM     48  O   UNL     1       0.411  13.955  -6.920  1.00  0.00    -0.507 OA
ATOM     49  H   UNL     1       1.027  14.456  -7.542  1.00  0.00     0.293 HD
ENDBRANCH  34  48
BRANCH  37  50
ATOM     50  O   UNL     1       1.394  10.036  -9.271  1.00  0.00    -0.508 OA
ATOM     51  H   UNL     1       1.572   9.047  -9.459  1.00  0.00     0.293 HD
ENDBRANCH  37  50
ENDBRANCH  26  27
ENDBRANCH   5  26
BRANCH   4  52
ATOM     52  O   UNL     1      -6.567  13.559  -6.720  1.00  0.00    -0.384 OA
ATOM     53  H   UNL     1      -7.283  12.891  -6.669  1.00  0.00     0.211 HD
ENDBRANCH   4  52
TORSDOF 16
ENDMDL
MODEL 5
REMARK VINA RESULT:    -3.760      2.033      8.135
REMARK INTER + INTRA:          -8.227
REMARK INTER:                  -7.930
REMARK INTRA:                  -0.297
REMARK UNBOUND:                -2.049
REMARK SMILES C[C@@H]1O[C@@H](OC[C@@H]2O[C@H](Oc3c(-c4ccc(O)c(O)c4)oc4cc(O)cc(O)c4c3=O)[C@H](O)[C@H](O)[C@@H]2O)[C@H](O)[C@@H](O)[C@@H]1O
REMARK SMILES IDX 7 1 36 2 34 3 32 4 9 5 8 6 6 7 5 8 4 9 1 10 2 11 42 12 3 13
REMARK SMILES IDX 40 14 38 15 43 16 41 18 39 20 37 22 35 24 10 26 11 27 12 28
REMARK SMILES IDX 30 29 21 30 29 31 31 32 22 33 27 34 23 35 26 36 24 37 13 38
REMARK SMILES IDX 20 39 14 40 18 41 15 42 16 43 19 44 17 46 28 48 25 50 33 52
REMARK H PARENT 43 17 41 19 39 21 37 23 35 25 19 45 17 47 28 49 25 51 33 53
REMARK Flexibility Score: inf
ROOT
ATOM      1  C   UNL     1      -2.443  12.900  -8.393  1.00  0.00     0.180 C 
ATOM      2  C   UNL     1      -1.621  12.162  -9.447  1.00  0.00     0.177 C 
ATOM      3  C   UNL     1      -2.588  11.232 -10.255  1.00  0.00     0.180 C 
ATOM      4  C   UNL     1      -3.899  11.759 -10.694  1.00  0.00     0.214 C 
ATOM      5  C   UNL     1      -4.526  12.401  -9.484  1.00  0.00     0.339 C 
ATOM      6  O   UNL     1      -3.747  12.322  -8.225  1.00  0.00    -0.332 OA
ENDROOT
BRANCH   1   7
ATOM      7  C   UNL     1      -1.770  13.318  -6.975  1.00  0.00     0.198 C 
BRANCH   7   8
ATOM      8  O   UNL     1      -0.482  14.033  -6.902  1.00  0.00    -0.347 OA
BRANCH   8   9
ATOM      9  C   UNL     1       0.684  13.390  -6.387  1.00  0.00     0.281 C 
ATOM     10  C   UNL     1       2.610  11.446  -7.778  1.00  0.00     0.041 C 
ATOM     11  C   UNL     1       1.766  11.260  -6.534  1.00  0.00     0.150 C 
ATOM     12  C   UNL     1       2.444  11.624  -5.130  1.00  0.00     0.174 C 
ATOM     13  O   UNL     1       0.625  12.014  -6.758  1.00  0.00    -0.344 OA
ATOM     14  C   UNL     1       1.329  12.250  -4.181  1.00  0.00     0.179 C 
ATOM     15  C   UNL     1       0.667  13.510  -4.841  1.00  0.00     0.202 C 
BRANCH  12  16
ATOM     16  O   UNL     1       3.476  12.527  -5.167  1.00  0.00    -0.388 OA
ATOM     17  H   UNL     1       3.053  13.476  -5.220  1.00  0.00     0.211 HD
ENDBRANCH  12  16
BRANCH  14  18
ATOM     18  O   UNL     1       0.237  11.327  -3.876  1.00  0.00    -0.387 OA
ATOM     19  H   UNL     1      -0.460  11.912  -3.351  1.00  0.00     0.211 HD
ENDBRANCH  14  18
BRANCH  15  20
ATOM     20  O   UNL     1       0.474  14.714  -4.119  1.00  0.00    -0.385 OA
ATOM     21  H   UNL     1       1.105  15.406  -4.403  1.00  0.00     0.211 HD
ENDBRANCH  15  20
ENDBRANCH   8   9
ENDBRANCH   7   8
ENDBRANCH   1   7
BRANCH   2  22
ATOM     22  O   UNL     1      -0.714  11.355  -8.820  1.00  0.00    -0.387 OA
ATOM     23  H   UNL     1      -0.245  11.885  -8.168  1.00  0.00     0.211 HD
ENDBRANCH   2  22
BRANCH   3  24
ATOM     24  O   UNL     1      -2.689  10.050  -9.563  1.00  0.00    -0.387 OA
ATOM     25  H   UNL     1      -1.943  10.022  -8.876  1.00  0.00     0.211 HD
ENDBRANCH   3  24
BRANCH   5  26
ATOM     26  O   UNL     1      -5.859  11.826  -9.267  1.00  0.00    -0.454 OA
BRANCH  26  27
ATOM     27  C   UNL     1      -6.052  10.865  -8.267  1.00  0.00     0.214 A 
ATOM     28  C   UNL     1      -5.721   9.544  -8.580  1.00  0.00     0.180 A 
ATOM     29  C   UNL     1      -6.239  11.207  -6.960  1.00  0.00     0.239 A 
ATOM     30  O   UNL     1      -5.016   8.867  -7.580  1.00  0.00    -0.452 OA
ATOM     31  C   UNL     1      -5.546  10.595  -5.988  1.00  0.00     0.111 A 
ATOM     32  O   UNL     1      -7.125  12.109  -6.718  1.00  0.00    -0.285 OA
ATOM     33  C   UNL     1      -4.806   9.395  -6.366  1.00  0.00     0.146 A 
ATOM     34  C   UNL     1      -5.255  11.296  -4.850  1.00  0.00     0.134 A 
ATOM     35  C   UNL     1      -3.844   8.953  -5.433  1.00  0.00     0.094 A 
ATOM     36  C   UNL     1      -4.104  11.010  -4.120  1.00  0.00     0.093 A 
ATOM     37  C   UNL     1      -3.332   9.920  -4.452  1.00  0.00     0.123 A 
BRANCH  28  38
ATOM     38  C   UNL     1      -5.902   8.884  -9.882  1.00  0.00     0.025 A 
ATOM     39  C   UNL     1      -4.694   8.370 -10.593  1.00  0.00     0.062 A 
ATOM     40  C   UNL     1      -7.125   8.166 -10.023  1.00  0.00     0.016 A 
ATOM     41  C   UNL     1      -4.746   6.997 -10.964  1.00  0.00     0.158 A 
ATOM     42  C   UNL     1      -7.123   6.894 -10.393  1.00  0.00     0.051 A 
ATOM     43  C   UNL     1      -5.909   6.215 -10.541  1.00  0.00     0.157 A 
BRANCH  41  44
ATOM     44  O   UNL     1      -3.662   6.379 -11.579  1.00  0.00    -0.504 OA
ATOM     45  H   UNL     1      -3.125   5.723 -10.965  1.00  0.00     0.293 HD
ENDBRANCH  41  44
BRANCH  43  46
ATOM     46  O   UNL     1      -5.865   4.850 -10.302  1.00  0.00    -0.504 OA
ATOM     47  H   UNL     1      -6.726   4.295 -10.387  1.00  0.00     0.293 HD
ENDBRANCH  43  46
ENDBRANCH  28  38
BRANCH  34  48
ATOM     48  O   UNL     1      -5.993  12.386  -4.459  1.00  0.00    -0.507 OA
ATOM     49  H   UNL     1      -5.933  13.267  -4.947  1.00  0.00     0.293 HD
ENDBRANCH  34  48
BRANCH  37  50
ATOM     50  O   UNL     1      -2.064   9.912  -3.916  1.00  0.00    -0.508 OA
ATOM     51  H   UNL     1      -1.820   9.659  -2.956  1.00  0.00     0.293 HD
ENDBRANCH  37  50
ENDBRANCH  26  27
ENDBRANCH   5  26
BRANCH   4  52
ATOM     52  O   UNL     1      -4.722  10.776 -11.435  1.00  0.00    -0.384 OA
ATOM     53  H   UNL     1      -4.267   9.908 -11.432  1.00  0.00     0.211 HD
ENDBRANCH   4  52
TORSDOF 16
ENDMDL
MODEL 6
REMARK VINA RESULT:    -3.470      4.508      9.953
REMARK INTER + INTRA:          -7.750
REMARK INTER:                  -7.133
REMARK INTRA:                  -0.617
REMARK UNBOUND:                -2.049
REMARK SMILES C[C@@H]1O[C@@H](OC[C@@H]2O[C@H](Oc3c(-c4ccc(O)c(O)c4)oc4cc(O)cc(O)c4c3=O)[C@H](O)[C@H](O)[C@@H]2O)[C@H](O)[C@@H](O)[C@@H]1O
REMARK SMILES IDX 7 1 36 2 34 3 32 4 9 5 8 6 6 7 5 8 4 9 1 10 2 11 42 12 3 13
REMARK SMILES IDX 40 14 38 15 43 16 41 18 39 20 37 22 35 24 10 26 11 27 12 28
REMARK SMILES IDX 30 29 21 30 29 31 31 32 22 33 27 34 23 35 26 36 24 37 13 38
REMARK SMILES IDX 20 39 14 40 18 41 15 42 16 43 19 44 17 46 28 48 25 50 33 52
REMARK H PARENT 43 17 41 19 39 21 37 23 35 25 19 45 17 47 28 49 25 51 33 53
REMARK Flexibility Score: inf
ROOT
ATOM      1  C   UNL     1       3.685  15.795  -4.314  1.00  0.00     0.180 C 
ATOM      2  C   UNL     1       3.175  17.165  -3.875  1.00  0.00     0.177 C 
ATOM      3  C   UNL     1       1.704  17.324  -4.391  1.00  0.00     0.180 C 
ATOM      4  C   UNL     1       0.761  16.193  -4.247  1.00  0.00     0.214 C 
ATOM      5  C   UNL     1       1.473  14.976  -4.776  1.00  0.00     0.339 C 
ATOM      6  O   UNL     1       2.838  15.197  -5.309  1.00  0.00    -0.332 OA
ENDROOT
BRANCH   1   7
ATOM      7  C   UNL     1       5.262  15.575  -4.639  1.00  0.00     0.198 C 
BRANCH   7   8
ATOM      8  O   UNL     1       6.320  16.262  -3.875  1.00  0.00    -0.347 OA
BRANCH   8   9
ATOM      9  C   UNL     1       7.690  15.894  -4.029  1.00  0.00     0.281 C 
ATOM     10  C   UNL     1      10.203  17.654  -3.915  1.00  0.00     0.041 C 
ATOM     11  C   UNL     1       9.679  16.773  -5.030  1.00  0.00     0.150 C 
ATOM     12  C   UNL     1      10.201  15.260  -5.074  1.00  0.00     0.174 C 
ATOM     13  O   UNL     1       8.299  16.832  -4.915  1.00  0.00    -0.344 OA
ATOM     14  C   UNL     1       9.010  14.332  -5.579  1.00  0.00     0.179 C 
ATOM     15  C   UNL     1       7.750  14.477  -4.655  1.00  0.00     0.202 C 
BRANCH  12  16
ATOM     16  O   UNL     1      10.632  14.729  -3.884  1.00  0.00    -0.388 OA
ATOM     17  H   UNL     1       9.885  14.091  -3.543  1.00  0.00     0.211 HD
ENDBRANCH  12  16
BRANCH  14  18
ATOM     18  O   UNL     1       8.561  14.644  -6.934  1.00  0.00    -0.387 OA
ATOM     19  H   UNL     1       8.656  13.737  -7.455  1.00  0.00     0.211 HD
ENDBRANCH  14  18
BRANCH  15  20
ATOM     20  O   UNL     1       7.041  13.345  -4.179  1.00  0.00    -0.385 OA
ATOM     21  H   UNL     1       6.533  13.556  -3.370  1.00  0.00     0.211 HD
ENDBRANCH  15  20
ENDBRANCH   8   9
ENDBRANCH   7   8
ENDBRANCH   1   7
BRANCH   2  22
ATOM     22  O   UNL     1       3.923  18.135  -4.481  1.00  0.00    -0.387 OA
ATOM     23  H   UNL     1       4.610  17.701  -4.997  1.00  0.00     0.211 HD
ENDBRANCH   2  22
BRANCH   3  24
ATOM     24  O   UNL     1       1.773  17.806  -5.675  1.00  0.00    -0.387 OA
ATOM     25  H   UNL     1       1.045  17.358  -6.221  1.00  0.00     0.211 HD
ENDBRANCH   3  24
BRANCH   5  26
ATOM     26  O   UNL     1       0.646  14.342  -5.809  1.00  0.00    -0.454 OA
BRANCH  26  27
ATOM     27  C   UNL     1       0.602  12.946  -5.910  1.00  0.00     0.214 A 
ATOM     28  C   UNL     1      -0.525  12.386  -6.518  1.00  0.00     0.180 A 
ATOM     29  C   UNL     1       1.711  12.172  -5.733  1.00  0.00     0.239 A 
ATOM     30  O   UNL     1      -0.247  11.358  -7.425  1.00  0.00    -0.452 OA
ATOM     31  C   UNL     1       2.015  11.203  -6.610  1.00  0.00     0.111 A 
ATOM     32  O   UNL     1       2.413  12.399  -4.678  1.00  0.00    -0.285 OA
ATOM     33  C   UNL     1       0.985  10.853  -7.583  1.00  0.00     0.146 A 
ATOM     34  C   UNL     1       3.331  10.884  -6.802  1.00  0.00     0.134 A 
ATOM     35  C   UNL     1       1.421  10.079  -8.680  1.00  0.00     0.094 A 
ATOM     36  C   UNL     1       3.767  10.398  -8.032  1.00  0.00     0.093 A 
ATOM     37  C   UNL     1       2.852  10.092  -9.014  1.00  0.00     0.123 A 
BRANCH  28  38
ATOM     38  C   UNL     1      -1.908  12.875  -6.413  1.00  0.00     0.025 A 
ATOM     39  C   UNL     1      -2.568  13.412  -7.640  1.00  0.00     0.062 A 
ATOM     40  C   UNL     1      -2.713  12.190  -5.458  1.00  0.00     0.016 A 
ATOM     41  C   UNL     1      -3.816  12.812  -7.970  1.00  0.00     0.158 A 
ATOM     42  C   UNL     1      -3.878  11.667  -5.808  1.00  0.00     0.051 A 
ATOM     43  C   UNL     1      -4.277  11.691  -7.149  1.00  0.00     0.157 A 
BRANCH  41  44
ATOM     44  O   UNL     1      -4.506  13.179  -9.121  1.00  0.00    -0.504 OA
ATOM     45  H   UNL     1      -5.472  12.784  -9.196  1.00  0.00     0.293 HD
ENDBRANCH  41  44
BRANCH  43  46
ATOM     46  O   UNL     1      -5.093  10.678  -7.629  1.00  0.00    -0.504 OA
ATOM     47  H   UNL     1      -4.835  10.192  -8.498  1.00  0.00     0.293 HD
ENDBRANCH  43  46
ENDBRANCH  28  38
BRANCH  34  48
ATOM     48  O   UNL     1       4.290  11.154  -5.857  1.00  0.00    -0.507 OA
ATOM     49  H   UNL     1       4.363  10.611  -5.010  1.00  0.00     0.293 HD
ENDBRANCH  34  48
BRANCH  37  50
ATOM     50  O   UNL     1       3.373   9.953 -10.281  1.00  0.00    -0.508 OA
ATOM     51  H   UNL     1       4.177  10.459 -10.657  1.00  0.00     0.293 HD
ENDBRANCH  37  50
ENDBRANCH  26  27
ENDBRANCH   5  26
BRANCH   4  52
ATOM     52  O   UNL     1      -0.590  16.468  -4.786  1.00  0.00    -0.384 OA
ATOM     53  H   UNL     1      -1.247  15.926  -4.301  1.00  0.00     0.211 HD
ENDBRANCH   4  52
TORSDOF 16
ENDMDL
