MODEL 1
REMARK VINA RESULT:    -6.496      0.000      0.000
REMARK INTER + INTRA:          -7.869
REMARK INTER:                  -7.635
REMARK INTRA:                  -0.233
REMARK UNBOUND:                -0.233
REMARK SMILES O=c1c(O)c(-c2ccc(O)cc2)oc2cc(O)cc(O)c12
REMARK SMILES IDX 5 1 3 2 2 3 1 4 21 5 19 6 18 7 16 8 15 9 14 10 13 11 6 12
REMARK SMILES IDX 7 13 8 14 9 15 12 16 11 17 10 18 4 20 20 22 17 24
REMARK H PARENT 10 19 4 21 20 23 17 25
REMARK Flexibility Score: inf
ROOT
ATOM      1  C   UNL     1      12.944  -8.506   2.179  1.00  0.00     0.180 A 
ATOM      2  C   UNL     1      13.764  -7.748   3.038  1.00  0.00     0.208 A 
ATOM      3  C   UNL     1      14.068  -6.422   2.691  1.00  0.00     0.238 A 
ATOM      4  O   UNL     1      14.793  -5.731   3.458  1.00  0.00    -0.285 OA
ATOM      5  C   UNL     1      13.568  -5.885   1.487  1.00  0.00     0.111 A 
ATOM      6  C   UNL     1      13.831  -4.560   1.062  1.00  0.00     0.134 A 
ATOM      7  C   UNL     1      13.304  -4.101  -0.154  1.00  0.00     0.093 A 
ATOM      8  C   UNL     1      12.520  -4.941  -0.952  1.00  0.00     0.123 A 
ATOM      9  C   UNL     1      12.258  -6.248  -0.537  1.00  0.00     0.094 A 
ATOM     10  C   UNL     1      12.773  -6.724   0.672  1.00  0.00     0.146 A 
ATOM     11  O   UNL     1      12.502  -7.969   1.044  1.00  0.00    -0.452 OA
ENDROOT
BRANCH   1  12
ATOM     12  C   UNL     1      12.563  -9.904   2.484  1.00  0.00     0.021 A 
ATOM     13  C   UNL     1      13.100 -10.950   1.717  1.00  0.00     0.016 A 
ATOM     14  C   UNL     1      12.736 -12.275   1.973  1.00  0.00     0.047 A 
ATOM     15  C   UNL     1      11.820 -12.570   2.991  1.00  0.00     0.115 A 
ATOM     16  C   UNL     1      11.628 -10.205   3.492  1.00  0.00     0.016 A 
ATOM     17  C   UNL     1      11.265 -11.531   3.745  1.00  0.00     0.047 A 
BRANCH  15  18
ATOM     18  O   UNL     1      11.451 -13.886   3.256  1.00  0.00    -0.508 OA
ATOM     19  H   UNL     1      10.492 -14.135   3.466  1.00  0.00     0.293 HD
ENDBRANCH  15  18
ENDBRANCH   1  12
BRANCH   2  20
ATOM     20  O   UNL     1      14.288  -8.321   4.200  1.00  0.00    -0.502 OA
ATOM     21  H   UNL     1      13.729  -8.468   5.032  1.00  0.00     0.293 HD
ENDBRANCH   2  20
BRANCH   6  22
ATOM     22  O   UNL     1      14.610  -3.698   1.837  1.00  0.00    -0.507 OA
ATOM     23  H   UNL     1      15.183  -4.039   2.599  1.00  0.00     0.293 HD
ENDBRANCH   6  22
BRANCH   8  24
ATOM     24  O   UNL     1      11.997  -4.487  -2.161  1.00  0.00    -0.508 OA
ATOM     25  H   UNL     1      12.175  -4.973  -3.031  1.00  0.00     0.293 HD
ENDBRANCH   8  24
TORSDOF 5
ENDMDL
MODEL 2
REMARK VINA RESULT:    -6.301      1.684      6.960
REMARK INTER + INTRA:          -7.639
REMARK INTER:                  -7.346
REMARK INTRA:                  -0.293
REMARK UNBOUND:                -0.233
REMARK SMILES O=c1c(O)c(-c2ccc(O)cc2)oc2cc(O)cc(O)c12
REMARK SMILES IDX 5 1 3 2 2 3 1 4 21 5 19 6 18 7 16 8 15 9 14 10 13 11 6 12
REMARK SMILES IDX 7 13 8 14 9 15 12 16 11 17 10 18 4 20 20 22 17 24
REMARK H PARENT 10 19 4 21 20 23 17 25
REMARK Flexibility Score: inf
ROOT
ATOM      1  C   UNL     1      13.276  -8.418   1.144  1.00  0.00     0.180 A 
ATOM      2  C   UNL     1      14.003  -9.354   0.382  1.00  0.00     0.208 A 
ATOM      3  C   UNL     1      13.877 -10.719   0.683  1.00  0.00     0.238 A 
ATOM      4  O   UNL     1      14.516 -11.566   0.001  1.00  0.00    -0.285 OA
ATOM      5  C   UNL     1      13.046 -11.124   1.748  1.00  0.00     0.111 A 
ATOM      6  C   UNL     1      12.867 -12.479   2.120  1.00  0.00     0.134 A 
ATOM      7  C   UNL     1      12.030 -12.800   3.198  1.00  0.00     0.093 A 
ATOM      8  C   UNL     1      11.370 -11.794   3.912  1.00  0.00     0.123 A 
ATOM      9  C   UNL     1      11.543 -10.457   3.549  1.00  0.00     0.094 A 
ATOM     10  C   UNL     1      12.372 -10.116   2.477  1.00  0.00     0.146 A 
ATOM     11  O   UNL     1      12.514  -8.837   2.151  1.00  0.00    -0.452 OA
ENDROOT
BRANCH   1  12
ATOM     12  C   UNL     1      13.341  -6.964   0.876  1.00  0.00     0.021 A 
ATOM     13  C   UNL     1      14.190  -6.155   1.651  1.00  0.00     0.016 A 
ATOM     14  C   UNL     1      14.250  -4.777   1.430  1.00  0.00     0.047 A 
ATOM     15  C   UNL     1      13.453  -4.186   0.441  1.00  0.00     0.115 A 
ATOM     16  C   UNL     1      12.528  -6.361  -0.102  1.00  0.00     0.016 A 
ATOM     17  C   UNL     1      12.590  -4.981  -0.319  1.00  0.00     0.047 A 
BRANCH  15  18
ATOM     18  O   UNL     1      13.505  -2.813   0.212  1.00  0.00    -0.508 OA
ATOM     19  H   UNL     1      12.875  -2.361  -0.440  1.00  0.00     0.293 HD
ENDBRANCH  15  18
ENDBRANCH   1  12
BRANCH   2  20
ATOM     20  O   UNL     1      14.858  -8.923  -0.635  1.00  0.00    -0.502 OA
ATOM     21  H   UNL     1      15.519  -9.543  -1.089  1.00  0.00     0.293 HD
ENDBRANCH   2  20
BRANCH   6  22
ATOM     22  O   UNL     1      13.513 -13.505   1.426  1.00  0.00    -0.507 OA
ATOM     23  H   UNL     1      14.015 -13.331   0.564  1.00  0.00     0.293 HD
ENDBRANCH   6  22
BRANCH   8  24
ATOM     24  O   UNL     1      10.539 -12.113   4.984  1.00  0.00    -0.508 OA
ATOM     25  H   UNL     1       9.774 -12.770   4.884  1.00  0.00     0.293 HD
ENDBRANCH   8  24
TORSDOF 5
ENDMDL
MODEL 3
REMARK VINA RESULT:    -6.192      1.838      6.613
REMARK INTER + INTRA:          -7.512
REMARK INTER:                  -7.335
REMARK INTRA:                  -0.177
REMARK UNBOUND:                -0.233
REMARK SMILES O=c1c(O)c(-c2ccc(O)cc2)oc2cc(O)cc(O)c12
REMARK SMILES IDX 5 1 3 2 2 3 1 4 21 5 19 6 18 7 16 8 15 9 14 10 13 11 6 12
REMARK SMILES IDX 7 13 8 14 9 15 12 16 11 17 10 18 4 20 20 22 17 24
REMARK H PARENT 10 19 4 21 20 23 17 25
REMARK Flexibility Score: inf
ROOT
ATOM      1  C   UNL     1      12.953  -7.793   1.320  1.00  0.00     0.180 A 
ATOM      2  C   UNL     1      12.332  -8.171   2.526  1.00  0.00     0.208 A 
ATOM      3  C   UNL     1      12.302  -9.530   2.877  1.00  0.00     0.238 A 
ATOM      4  O   UNL     1      11.758  -9.879   3.960  1.00  0.00    -0.285 OA
ATOM      5  C   UNL     1      12.872 -10.486   2.012  1.00  0.00     0.111 A 
ATOM      6  C   UNL     1      12.880 -11.875   2.289  1.00  0.00     0.134 A 
ATOM      7  C   UNL     1      13.459 -12.764   1.372  1.00  0.00     0.093 A 
ATOM      8  C   UNL     1      14.029 -12.292   0.184  1.00  0.00     0.123 A 
ATOM      9  C   UNL     1      14.024 -10.924  -0.093  1.00  0.00     0.094 A 
ATOM     10  C   UNL     1      13.453 -10.021   0.808  1.00  0.00     0.146 A 
ATOM     11  O   UNL     1      13.467  -8.725   0.521  1.00  0.00    -0.452 OA
ENDROOT
BRANCH   1  12
ATOM     12  C   UNL     1      13.042  -6.379   0.889  1.00  0.00     0.021 A 
ATOM     13  C   UNL     1      12.393  -5.973  -0.288  1.00  0.00     0.016 A 
ATOM     14  C   UNL     1      12.483  -4.648  -0.725  1.00  0.00     0.047 A 
ATOM     15  C   UNL     1      13.234  -3.716   0.002  1.00  0.00     0.115 A 
ATOM     16  C   UNL     1      13.811  -5.442   1.605  1.00  0.00     0.016 A 
ATOM     17  C   UNL     1      13.900  -4.118   1.164  1.00  0.00     0.047 A 
BRANCH  15  18
ATOM     18  O   UNL     1      13.330  -2.393  -0.423  1.00  0.00    -0.508 OA
ATOM     19  H   UNL     1      13.020  -1.626   0.161  1.00  0.00     0.293 HD
ENDBRANCH  15  18
ENDBRANCH   1  12
BRANCH   2  20
ATOM     20  O   UNL     1      11.731  -7.209   3.342  1.00  0.00    -0.502 OA
ATOM     21  H   UNL     1      10.849  -7.372   3.815  1.00  0.00     0.293 HD
ENDBRANCH   2  20
BRANCH   6  22
ATOM     22  O   UNL     1      12.318 -12.376   3.465  1.00  0.00    -0.507 OA
ATOM     23  H   UNL     1      12.524 -13.310   3.798  1.00  0.00     0.293 HD
ENDBRANCH   6  22
BRANCH   8  24
ATOM     24  O   UNL     1      14.604 -13.175  -0.727  1.00  0.00    -0.508 OA
ATOM     25  H   UNL     1      14.852 -12.882  -1.664  1.00  0.00     0.293 HD
ENDBRANCH   8  24
TORSDOF 5
ENDMDL
MODEL 4
REMARK VINA RESULT:    -5.933     12.929     14.248
REMARK INTER + INTRA:          -7.207
REMARK INTER:                  -7.020
REMARK INTRA:                  -0.187
REMARK UNBOUND:                -0.233
REMARK SMILES O=c1c(O)c(-c2ccc(O)cc2)oc2cc(O)cc(O)c12
REMARK SMILES IDX 5 1 3 2 2 3 1 4 21 5 19 6 18 7 16 8 15 9 14 10 13 11 6 12
REMARK SMILES IDX 7 13 8 14 9 15 12 16 11 17 10 18 4 20 20 22 17 24
REMARK H PARENT 10 19 4 21 20 23 17 25
REMARK Flexibility Score: inf
ROOT
ATOM      1  C   UNL     1      22.363 -12.703  -6.023  1.00  0.00     0.180 A 
ATOM      2  C   UNL     1      22.766 -11.891  -7.102  1.00  0.00     0.208 A 
ATOM      3  C   UNL     1      22.249 -12.156  -8.381  1.00  0.00     0.238 A 
ATOM      4  O   UNL     1      22.595 -11.429  -9.352  1.00  0.00    -0.285 OA
ATOM      5  C   UNL     1      21.360 -13.234  -8.563  1.00  0.00     0.111 A 
ATOM      6  C   UNL     1      20.798 -13.572  -9.818  1.00  0.00     0.134 A 
ATOM      7  C   UNL     1      19.927 -14.666  -9.920  1.00  0.00     0.093 A 
ATOM      8  C   UNL     1      19.608 -15.430  -8.792  1.00  0.00     0.123 A 
ATOM      9  C   UNL     1      20.159 -15.101  -7.552  1.00  0.00     0.094 A 
ATOM     10  C   UNL     1      21.028 -14.013  -7.429  1.00  0.00     0.146 A 
ATOM     11  O   UNL     1      21.533 -13.721  -6.237  1.00  0.00    -0.452 OA
ENDROOT
BRANCH   1  12
ATOM     12  C   UNL     1      22.848 -12.475  -4.643  1.00  0.00     0.021 A 
ATOM     13  C   UNL     1      21.973 -11.943  -3.682  1.00  0.00     0.016 A 
ATOM     14  C   UNL     1      22.416 -11.699  -2.379  1.00  0.00     0.047 A 
ATOM     15  C   UNL     1      23.744 -11.971  -2.024  1.00  0.00     0.115 A 
ATOM     16  C   UNL     1      24.185 -12.728  -4.285  1.00  0.00     0.016 A 
ATOM     17  C   UNL     1      24.626 -12.482  -2.981  1.00  0.00     0.047 A 
BRANCH  15  18
ATOM     18  O   UNL     1      24.197 -11.733  -0.729  1.00  0.00    -0.508 OA
ATOM     19  H   UNL     1      23.780 -11.017  -0.146  1.00  0.00     0.293 HD
ENDBRANCH  15  18
ENDBRANCH   1  12
BRANCH   2  20
ATOM     20  O   UNL     1      23.687 -10.860  -6.904  1.00  0.00    -0.502 OA
ATOM     21  H   UNL     1      23.427  -9.972  -6.490  1.00  0.00     0.293 HD
ENDBRANCH   2  20
BRANCH   6  22
ATOM     22  O   UNL     1      21.098 -12.829 -10.962  1.00  0.00    -0.507 OA
ATOM     23  H   UNL     1      20.427 -12.710 -11.711  1.00  0.00     0.293 HD
ENDBRANCH   6  22
BRANCH   8  24
ATOM     24  O   UNL     1      18.743 -16.518  -8.892  1.00  0.00    -0.508 OA
ATOM     25  H   UNL     1      18.572 -16.979  -9.777  1.00  0.00     0.293 HD
ENDBRANCH   8  24
TORSDOF 5
ENDMDL
MODEL 5
REMARK VINA RESULT:    -5.928      2.454      6.450
REMARK INTER + INTRA:          -7.200
REMARK INTER:                  -6.903
REMARK INTRA:                  -0.298
REMARK UNBOUND:                -0.233
REMARK SMILES O=c1c(O)c(-c2ccc(O)cc2)oc2cc(O)cc(O)c12
REMARK SMILES IDX 5 1 3 2 2 3 1 4 21 5 19 6 18 7 16 8 15 9 14 10 13 11 6 12
REMARK SMILES IDX 7 13 8 14 9 15 12 16 11 17 10 18 4 20 20 22 17 24
REMARK H PARENT 10 19 4 21 20 23 17 25
REMARK Flexibility Score: inf
ROOT
ATOM      1  C   UNL     1      12.440  -7.658   2.218  1.00  0.00     0.180 A 
ATOM      2  C   UNL     1      13.390  -7.691   1.179  1.00  0.00     0.208 A 
ATOM      3  C   UNL     1      13.819  -8.936   0.691  1.00  0.00     0.238 A 
ATOM      4  O   UNL     1      14.661  -8.977  -0.247  1.00  0.00    -0.285 OA
ATOM      5  C   UNL     1      13.310 -10.121   1.261  1.00  0.00     0.111 A 
ATOM      6  C   UNL     1      13.693 -11.415   0.831  1.00  0.00     0.134 A 
ATOM      7  C   UNL     1      13.148 -12.546   1.456  1.00  0.00     0.093 A 
ATOM      8  C   UNL     1      12.229 -12.408   2.501  1.00  0.00     0.123 A 
ATOM      9  C   UNL     1      11.848 -11.135   2.929  1.00  0.00     0.094 A 
ATOM     10  C   UNL     1      12.378  -9.995   2.319  1.00  0.00     0.146 A 
ATOM     11  O   UNL     1      11.994  -8.797   2.741  1.00  0.00    -0.452 OA
ENDROOT
BRANCH   1  12
ATOM     12  C   UNL     1      11.924  -6.386   2.773  1.00  0.00     0.021 A 
ATOM     13  C   UNL     1      12.501  -5.856   3.940  1.00  0.00     0.016 A 
ATOM     14  C   UNL     1      12.015  -4.669   4.493  1.00  0.00     0.047 A 
ATOM     15  C   UNL     1      10.937  -4.003   3.896  1.00  0.00     0.115 A 
ATOM     16  C   UNL     1      10.829  -5.722   2.190  1.00  0.00     0.016 A 
ATOM     17  C   UNL     1      10.344  -4.535   2.747  1.00  0.00     0.047 A 
BRANCH  15  18
ATOM     18  O   UNL     1      10.444  -2.818   4.439  1.00  0.00    -0.508 OA
ATOM     19  H   UNL     1      10.802  -1.915   4.151  1.00  0.00     0.293 HD
ENDBRANCH  15  18
ENDBRANCH   1  12
BRANCH   2  20
ATOM     20  O   UNL     1      13.916  -6.503   0.665  1.00  0.00    -0.502 OA
ATOM     21  H   UNL     1      14.255  -5.757   1.261  1.00  0.00     0.293 HD
ENDBRANCH   2  20
BRANCH   6  22
ATOM     22  O   UNL     1      14.609 -11.583  -0.210  1.00  0.00    -0.507 OA
ATOM     23  H   UNL     1      14.347 -12.023  -1.084  1.00  0.00     0.293 HD
ENDBRANCH   6  22
BRANCH   8  24
ATOM     24  O   UNL     1      11.688 -13.532   3.123  1.00  0.00    -0.508 OA
ATOM     25  H   UNL     1      10.740 -13.535   3.479  1.00  0.00     0.293 HD
ENDBRANCH   8  24
TORSDOF 5
ENDMDL
MODEL 6
REMARK VINA RESULT:    -5.792      3.574      5.686
REMARK INTER + INTRA:          -7.041
REMARK INTER:                  -6.886
REMARK INTRA:                  -0.155
REMARK UNBOUND:                -0.233
REMARK SMILES O=c1c(O)c(-c2ccc(O)cc2)oc2cc(O)cc(O)c12
REMARK SMILES IDX 5 1 3 2 2 3 1 4 21 5 19 6 18 7 16 8 15 9 14 10 13 11 6 12
REMARK SMILES IDX 7 13 8 14 9 15 12 16 11 17 10 18 4 20 20 22 17 24
REMARK H PARENT 10 19 4 21 20 23 17 25
REMARK Flexibility Score: inf
ROOT
ATOM      1  C   UNL     1      11.511 -12.801   3.935  1.00  0.00     0.180 A 
ATOM      2  C   UNL     1      11.188 -11.439   4.095  1.00  0.00     0.208 A 
ATOM      3  C   UNL     1      11.699 -10.508   3.176  1.00  0.00     0.238 A 
ATOM      4  O   UNL     1      11.407  -9.288   3.304  1.00  0.00    -0.285 OA
ATOM      5  C   UNL     1      12.536 -10.949   2.131  1.00  0.00     0.111 A 
ATOM      6  C   UNL     1      13.095 -10.075   1.167  1.00  0.00     0.134 A 
ATOM      7  C   UNL     1      13.927 -10.589   0.161  1.00  0.00     0.093 A 
ATOM      8  C   UNL     1      14.211 -11.958   0.102  1.00  0.00     0.123 A 
ATOM      9  C   UNL     1      13.662 -12.823   1.051  1.00  0.00     0.094 A 
ATOM     10  C   UNL     1      12.829 -12.331   2.060  1.00  0.00     0.146 A 
ATOM     11  O   UNL     1      12.316 -13.177   2.945  1.00  0.00    -0.452 OA
ENDROOT
BRANCH   1  12
ATOM     12  C   UNL     1      10.996 -13.845   4.850  1.00  0.00     0.021 A 
ATOM     13  C   UNL     1      11.452 -13.887   6.178  1.00  0.00     0.016 A 
ATOM     14  C   UNL     1      10.997 -14.877   7.052  1.00  0.00     0.047 A 
ATOM     15  C   UNL     1      10.090 -15.848   6.607  1.00  0.00     0.115 A 
ATOM     16  C   UNL     1      10.100 -14.835   4.403  1.00  0.00     0.016 A 
ATOM     17  C   UNL     1       9.648 -15.825   5.281  1.00  0.00     0.047 A 
BRANCH  15  18
ATOM     18  O   UNL     1       9.629 -16.839   7.469  1.00  0.00    -0.508 OA
ATOM     19  H   UNL     1       9.552 -17.805   7.173  1.00  0.00     0.293 HD
ENDBRANCH  15  18
ENDBRANCH   1  12
BRANCH   2  20
ATOM     20  O   UNL     1      10.396 -11.023   5.168  1.00  0.00    -0.502 OA
ATOM     21  H   UNL     1      10.121 -10.056   5.298  1.00  0.00     0.293 HD
ENDBRANCH   2  20
BRANCH   6  22
ATOM     22  O   UNL     1      12.831  -8.704   1.200  1.00  0.00    -0.507 OA
ATOM     23  H   UNL     1      11.886  -8.345   1.261  1.00  0.00     0.293 HD
ENDBRANCH   6  22
BRANCH   8  24
ATOM     24  O   UNL     1      15.038 -12.470  -0.895  1.00  0.00    -0.508 OA
ATOM     25  H   UNL     1      15.118 -13.466  -1.058  1.00  0.00     0.293 HD
ENDBRANCH   8  24
TORSDOF 5
ENDMDL
MODEL 7
REMARK VINA RESULT:    -5.732      1.863      1.962
REMARK INTER + INTRA:          -6.970
REMARK INTER:                  -6.912
REMARK INTRA:                  -0.059
REMARK UNBOUND:                -0.233
REMARK SMILES O=c1c(O)c(-c2ccc(O)cc2)oc2cc(O)cc(O)c12
REMARK SMILES IDX 5 1 3 2 2 3 1 4 21 5 19 6 18 7 16 8 15 9 14 10 13 11 6 12
REMARK SMILES IDX 7 13 8 14 9 15 12 16 11 17 10 18 4 20 20 22 17 24
REMARK H PARENT 10 19 4 21 20 23 17 25
REMARK Flexibility Score: inf
ROOT
ATOM      1  C   UNL     1      12.708  -9.101   2.376  1.00  0.00     0.180 A 
ATOM      2  C   UNL     1      13.960  -8.836   1.786  1.00  0.00     0.208 A 
ATOM      3  C   UNL     1      14.211  -7.552   1.276  1.00  0.00     0.238 A 
ATOM      4  O   UNL     1      15.332  -7.301   0.755  1.00  0.00    -0.285 OA
ATOM      5  C   UNL     1      13.207  -6.566   1.346  1.00  0.00     0.111 A 
ATOM      6  C   UNL     1      13.378  -5.250   0.852  1.00  0.00     0.134 A 
ATOM      7  C   UNL     1      12.326  -4.327   0.950  1.00  0.00     0.093 A 
ATOM      8  C   UNL     1      11.107  -4.696   1.531  1.00  0.00     0.123 A 
ATOM      9  C   UNL     1      10.934  -5.992   2.019  1.00  0.00     0.094 A 
ATOM     10  C   UNL     1      11.970  -6.926   1.932  1.00  0.00     0.146 A 
ATOM     11  O   UNL     1      11.780  -8.149   2.410  1.00  0.00    -0.452 OA
ENDROOT
BRANCH   1  12
ATOM     12  C   UNL     1      12.374 -10.424   2.952  1.00  0.00     0.021 A 
ATOM     13  C   UNL     1      12.386 -11.561   2.128  1.00  0.00     0.016 A 
ATOM     14  C   UNL     1      12.052 -12.814   2.646  1.00  0.00     0.047 A 
ATOM     15  C   UNL     1      11.687 -12.946   3.992  1.00  0.00     0.115 A 
ATOM     16  C   UNL     1      11.988 -10.560   4.299  1.00  0.00     0.016 A 
ATOM     17  C   UNL     1      11.653 -11.816   4.814  1.00  0.00     0.047 A 
BRANCH  15  18
ATOM     18  O   UNL     1      11.353 -14.191   4.519  1.00  0.00    -0.508 OA
ATOM     19  H   UNL     1      11.924 -15.010   4.348  1.00  0.00     0.293 HD
ENDBRANCH  15  18
ENDBRANCH   1  12
BRANCH   2  20
ATOM     20  O   UNL     1      14.920  -9.846   1.685  1.00  0.00    -0.502 OA
ATOM     21  H   UNL     1      14.947 -10.494   0.906  1.00  0.00     0.293 HD
ENDBRANCH   2  20
BRANCH   6  22
ATOM     22  O   UNL     1      14.582  -4.853   0.266  1.00  0.00    -0.507 OA
ATOM     23  H   UNL     1      15.314  -4.406   0.804  1.00  0.00     0.293 HD
ENDBRANCH   6  22
BRANCH   8  24
ATOM     24  O   UNL     1      10.062  -3.780   1.628  1.00  0.00    -0.508 OA
ATOM     25  H   UNL     1      10.177  -2.813   1.351  1.00  0.00     0.293 HD
ENDBRANCH   8  24
TORSDOF 5
ENDMDL
MODEL 8
REMARK VINA RESULT:    -5.695      2.060      3.825
REMARK INTER + INTRA:          -6.927
REMARK INTER:                  -6.629
REMARK INTRA:                  -0.298
REMARK UNBOUND:                -0.233
REMARK SMILES O=c1c(O)c(-c2ccc(O)cc2)oc2cc(O)cc(O)c12
REMARK SMILES IDX 5 1 3 2 2 3 1 4 21 5 19 6 18 7 16 8 15 9 14 10 13 11 6 12
REMARK SMILES IDX 7 13 8 14 9 15 12 16 11 17 10 18 4 20 20 22 17 24
REMARK H PARENT 10 19 4 21 20 23 17 25
REMARK Flexibility Score: inf
ROOT
ATOM      1  C   UNL     1      13.368  -6.992   1.455  1.00  0.00     0.180 A 
ATOM      2  C   UNL     1      12.382  -6.188   0.850  1.00  0.00     0.208 A 
ATOM      3  C   UNL     1      12.430  -4.798   1.042  1.00  0.00     0.238 A 
ATOM      4  O   UNL     1      11.558  -4.067   0.497  1.00  0.00    -0.285 OA
ATOM      5  C   UNL     1      13.444  -4.240   1.847  1.00  0.00     0.111 A 
ATOM      6  C   UNL     1      13.560  -2.850   2.094  1.00  0.00     0.134 A 
ATOM      7  C   UNL     1      14.592  -2.372   2.914  1.00  0.00     0.093 A 
ATOM      8  C   UNL     1      15.509  -3.257   3.492  1.00  0.00     0.123 A 
ATOM      9  C   UNL     1      15.399  -4.627   3.252  1.00  0.00     0.094 A 
ATOM     10  C   UNL     1      14.378  -5.124   2.436  1.00  0.00     0.146 A 
ATOM     11  O   UNL     1      14.301  -6.431   2.219  1.00  0.00    -0.452 OA
ENDROOT
BRANCH   1  12
ATOM     12  C   UNL     1      13.397  -8.463   1.284  1.00  0.00     0.021 A 
ATOM     13  C   UNL     1      12.757  -9.281   2.230  1.00  0.00     0.016 A 
ATOM     14  C   UNL     1      12.791 -10.672   2.101  1.00  0.00     0.047 A 
ATOM     15  C   UNL     1      13.478 -11.264   1.033  1.00  0.00     0.115 A 
ATOM     16  C   UNL     1      14.103  -9.064   0.225  1.00  0.00     0.016 A 
ATOM     17  C   UNL     1      14.136 -10.457   0.100  1.00  0.00     0.047 A 
BRANCH  15  18
ATOM     18  O   UNL     1      13.519 -12.649   0.894  1.00  0.00    -0.508 OA
ATOM     19  H   UNL     1      13.523 -13.090  -0.018  1.00  0.00     0.293 HD
ENDBRANCH  15  18
ENDBRANCH   1  12
BRANCH   2  20
ATOM     20  O   UNL     1      11.359  -6.771   0.098  1.00  0.00    -0.502 OA
ATOM     21  H   UNL     1      10.381  -6.558   0.256  1.00  0.00     0.293 HD
ENDBRANCH   2  20
BRANCH   6  22
ATOM     22  O   UNL     1      12.659  -1.943   1.531  1.00  0.00    -0.507 OA
ATOM     23  H   UNL     1      12.255  -2.092   0.615  1.00  0.00     0.293 HD
ENDBRANCH   6  22
BRANCH   8  24
ATOM     24  O   UNL     1      16.535  -2.783   4.308  1.00  0.00    -0.508 OA
ATOM     25  H   UNL     1      17.052  -3.402   4.921  1.00  0.00     0.293 HD
ENDBRANCH   8  24
TORSDOF 5
ENDMDL
MODEL 9
REMARK VINA RESULT:    -5.644     13.082     14.227
REMARK INTER + INTRA:          -6.867
REMARK INTER:                  -6.585
REMARK INTRA:                  -0.282
REMARK UNBOUND:                -0.233
REMARK SMILES O=c1c(O)c(-c2ccc(O)cc2)oc2cc(O)cc(O)c12
REMARK SMILES IDX 5 1 3 2 2 3 1 4 21 5 19 6 18 7 16 8 15 9 14 10 13 11 6 12
REMARK SMILES IDX 7 13 8 14 9 15 12 16 11 17 10 18 4 20 20 22 17 24
REMARK H PARENT 10 19 4 21 20 23 17 25
REMARK Flexibility Score: inf
ROOT
ATOM      1  C   UNL     1      21.945 -13.866  -7.016  1.00  0.00     0.180 A 
ATOM      2  C   UNL     1      23.275 -13.405  -7.080  1.00  0.00     0.208 A 
ATOM      3  C   UNL     1      23.841 -12.804  -5.945  1.00  0.00     0.238 A 
ATOM      4  O   UNL     1      25.034 -12.398  -5.988  1.00  0.00    -0.285 OA
ATOM      5  C   UNL     1      23.066 -12.655  -4.777  1.00  0.00     0.111 A 
ATOM      6  C   UNL     1      23.558 -12.057  -3.591  1.00  0.00     0.134 A 
ATOM      7  C   UNL     1      22.721 -11.937  -2.472  1.00  0.00     0.093 A 
ATOM      8  C   UNL     1      21.402 -12.403  -2.516  1.00  0.00     0.123 A 
ATOM      9  C   UNL     1      20.912 -12.993  -3.682  1.00  0.00     0.094 A 
ATOM     10  C   UNL     1      21.731 -13.124  -4.808  1.00  0.00     0.146 A 
ATOM     11  O   UNL     1      21.240 -13.694  -5.901  1.00  0.00    -0.452 OA
ENDROOT
BRANCH   1  12
ATOM     12  C   UNL     1      21.285 -14.527  -8.165  1.00  0.00     0.021 A 
ATOM     13  C   UNL     1      21.490 -15.900  -8.384  1.00  0.00     0.016 A 
ATOM     14  C   UNL     1      20.895 -16.539  -9.475  1.00  0.00     0.047 A 
ATOM     15  C   UNL     1      20.098 -15.812 -10.369  1.00  0.00     0.115 A 
ATOM     16  C   UNL     1      20.500 -13.799  -9.078  1.00  0.00     0.016 A 
ATOM     17  C   UNL     1      19.907 -14.441 -10.169  1.00  0.00     0.047 A 
BRANCH  15  18
ATOM     18  O   UNL     1      19.500 -16.438 -11.459  1.00  0.00    -0.508 OA
ATOM     19  H   UNL     1      18.680 -16.049 -11.909  1.00  0.00     0.293 HD
ENDBRANCH  15  18
ENDBRANCH   1  12
BRANCH   2  20
ATOM     20  O   UNL     1      24.005 -13.520  -8.266  1.00  0.00    -0.502 OA
ATOM     21  H   UNL     1      23.584 -13.387  -9.178  1.00  0.00     0.293 HD
ENDBRANCH   2  20
BRANCH   6  22
ATOM     22  O   UNL     1      24.869 -11.582  -3.517  1.00  0.00    -0.507 OA
ATOM     23  H   UNL     1      25.665 -12.204  -3.591  1.00  0.00     0.293 HD
ENDBRANCH   6  22
BRANCH   8  24
ATOM     24  O   UNL     1      20.570 -12.283  -1.405  1.00  0.00    -0.508 OA
ATOM     25  H   UNL     1      19.564 -12.372  -1.485  1.00  0.00     0.293 HD
ENDBRANCH   8  24
TORSDOF 5
ENDMDL
