MODEL 1
REMARK VINA RESULT:    -4.307      0.000      0.000
REMARK INTER + INTRA:         -12.775
REMARK INTER:                  -9.343
REMARK INTRA:                  -3.432
REMARK UNBOUND:                -3.432
REMARK SMILES CCCCCCCCCCCCCCCCCCCCCC(=O)[O-]
REMARK SMILES IDX 12 1 11 2 10 3 9 4 8 5 7 6 6 7 5 8 4 9 3 10 2 11 1 12 13 13
REMARK SMILES IDX 14 14 15 15 16 16 17 17 18 18 19 19 20 20 21 21 22 22 23 23
REMARK SMILES IDX 24 24
REMARK H PARENT
REMARK Flexibility Score: inf
ROOT
ATOM      1  C   UNL     1     -19.283 -32.834  16.422  1.00  0.00     0.000 C 
ENDROOT
BRANCH   1   2
ATOM      2  C   UNL     1     -19.963 -33.767  15.393  1.00  0.00     0.000 C 
BRANCH   2   3
ATOM      3  C   UNL     1     -19.124 -33.997  14.123  1.00  0.00     0.000 C 
BRANCH   3   4
ATOM      4  C   UNL     1     -18.089 -32.894  13.837  1.00  0.00    -0.000 C 
BRANCH   4   5
ATOM      5  C   UNL     1     -16.634 -33.411  13.774  1.00  0.00    -0.000 C 
BRANCH   5   6
ATOM      6  C   UNL     1     -15.864 -33.168  15.084  1.00  0.00    -0.000 C 
BRANCH   6   7
ATOM      7  C   UNL     1     -15.475 -31.693  15.278  1.00  0.00    -0.000 C 
BRANCH   7   8
ATOM      8  C   UNL     1     -15.986 -31.119  16.612  1.00  0.00    -0.000 C 
BRANCH   8   9
ATOM      9  C   UNL     1     -15.595 -31.990  17.816  1.00  0.00    -0.000 C 
BRANCH   9  10
ATOM     10  C   UNL     1     -14.541 -31.319  18.717  1.00  0.00    -0.000 C 
BRANCH  10  11
ATOM     11  C   UNL     1     -13.127 -31.390  18.121  1.00  0.00    -0.003 C 
ATOM     12  C   UNL     1     -12.152 -30.426  18.798  1.00  0.00     0.004 C 
ENDBRANCH  10  11
ENDBRANCH   9  10
ENDBRANCH   8   9
ENDBRANCH   7   8
ENDBRANCH   6   7
ENDBRANCH   5   6
ENDBRANCH   4   5
ENDBRANCH   3   4
ENDBRANCH   2   3
ENDBRANCH   1   2
BRANCH   1  13
ATOM     13  C   UNL     1     -18.682 -33.606  17.608  1.00  0.00     0.000 C 
BRANCH  13  14
ATOM     14  C   UNL     1     -19.598 -33.609  18.842  1.00  0.00     0.000 C 
BRANCH  14  15
ATOM     15  C   UNL     1     -18.861 -33.194  20.126  1.00  0.00     0.000 C 
BRANCH  15  16
ATOM     16  C   UNL     1     -19.023 -31.698  20.447  1.00  0.00     0.000 C 
BRANCH  16  17
ATOM     17  C   UNL     1     -20.371 -31.108  19.979  1.00  0.00     0.000 C 
BRANCH  17  18
ATOM     18  C   UNL     1     -20.184 -29.941  18.995  1.00  0.00     0.000 C 
BRANCH  18  19
ATOM     19  C   UNL     1     -18.698 -29.687  18.659  1.00  0.00     0.000 C 
BRANCH  19  20
ATOM     20  C   UNL     1     -18.150 -28.368  19.239  1.00  0.00     0.006 C 
BRANCH  20  21
ATOM     21  C   UNL     1     -16.657 -28.413  19.595  1.00  0.00     0.053 C 
BRANCH  21  22
ATOM     22  C   UNL     1     -15.806 -27.799  18.525  1.00  0.00     0.041 C 
ATOM     23  O   UNL     1     -14.557 -27.723  18.675  1.00  0.00    -0.550 OA
ATOM     24  O   UNL     1     -16.387 -27.329  17.354  1.00  0.00    -0.550 OA
ENDBRANCH  21  22
ENDBRANCH  20  21
ENDBRANCH  19  20
ENDBRANCH  18  19
ENDBRANCH  17  18
ENDBRANCH  16  17
ENDBRANCH  15  16
ENDBRANCH  14  15
ENDBRANCH  13  14
ENDBRANCH   1  13
TORSDOF 20
ENDMDL
MODEL 2
REMARK VINA RESULT:    -4.279      1.960      3.608
REMARK INTER + INTRA:         -12.715
REMARK INTER:                  -8.577
REMARK INTRA:                  -4.138
REMARK UNBOUND:                -3.432
REMARK SMILES CCCCCCCCCCCCCCCCCCCCCC(=O)[O-]
REMARK SMILES IDX 12 1 11 2 10 3 9 4 8 5 7 6 6 7 5 8 4 9 3 10 2 11 1 12 13 13
REMARK SMILES IDX 14 14 15 15 16 16 17 17 18 18 19 19 20 20 21 21 22 22 23 23
REMARK SMILES IDX 24 24
REMARK H PARENT
REMARK Flexibility Score: inf
ROOT
ATOM      1  C   UNL     1     -16.073 -33.075  17.583  1.00  0.00     0.000 C 
ENDROOT
BRANCH   1   2
ATOM      2  C   UNL     1     -16.862 -33.613  16.367  1.00  0.00     0.000 C 
BRANCH   2   3
ATOM      3  C   UNL     1     -17.147 -32.545  15.296  1.00  0.00     0.000 C 
BRANCH   3   4
ATOM      4  C   UNL     1     -16.273 -31.283  15.412  1.00  0.00    -0.000 C 
BRANCH   4   5
ATOM      5  C   UNL     1     -15.352 -31.052  14.192  1.00  0.00    -0.000 C 
BRANCH   5   6
ATOM      6  C   UNL     1     -13.867 -30.957  14.584  1.00  0.00    -0.000 C 
BRANCH   6   7
ATOM      7  C   UNL     1     -13.334 -32.257  15.207  1.00  0.00    -0.000 C 
BRANCH   7   8
ATOM      8  C   UNL     1     -12.561 -32.012  16.516  1.00  0.00    -0.000 C 
BRANCH   8   9
ATOM      9  C   UNL     1     -12.486 -30.521  16.883  1.00  0.00    -0.000 C 
BRANCH   9  10
ATOM     10  C   UNL     1     -13.141 -30.211  18.242  1.00  0.00    -0.000 C 
BRANCH  10  11
ATOM     11  C   UNL     1     -14.551 -29.619  18.094  1.00  0.00    -0.003 C 
ATOM     12  C   UNL     1     -14.627 -28.158  18.538  1.00  0.00     0.004 C 
ENDBRANCH  10  11
ENDBRANCH   9  10
ENDBRANCH   8   9
ENDBRANCH   7   8
ENDBRANCH   6   7
ENDBRANCH   5   6
ENDBRANCH   4   5
ENDBRANCH   3   4
ENDBRANCH   2   3
ENDBRANCH   1   2
BRANCH   1  13
ATOM     13  C   UNL     1     -15.058 -34.096  18.123  1.00  0.00     0.000 C 
BRANCH  13  14
ATOM     14  C   UNL     1     -14.355 -33.616  19.403  1.00  0.00     0.000 C 
BRANCH  14  15
ATOM     15  C   UNL     1     -15.198 -32.605  20.197  1.00  0.00     0.000 C 
BRANCH  15  16
ATOM     16  C   UNL     1     -15.589 -33.122  21.592  1.00  0.00     0.000 C 
BRANCH  16  17
ATOM     17  C   UNL     1     -17.115 -33.219  21.810  1.00  0.00     0.000 C 
BRANCH  17  18
ATOM     18  C   UNL     1     -17.821 -33.948  20.653  1.00  0.00     0.000 C 
BRANCH  18  19
ATOM     19  C   UNL     1     -19.217 -33.360  20.352  1.00  0.00     0.000 C 
BRANCH  19  20
ATOM     20  C   UNL     1     -19.257 -32.485  19.084  1.00  0.00     0.006 C 
BRANCH  20  21
ATOM     21  C   UNL     1     -19.542 -31.000  19.355  1.00  0.00     0.053 C 
BRANCH  21  22
ATOM     22  C   UNL     1     -18.328 -30.148  19.141  1.00  0.00     0.041 C 
ATOM     23  O   UNL     1     -18.108 -29.634  18.011  1.00  0.00    -0.550 OA
ATOM     24  O   UNL     1     -17.451 -29.903  20.190  1.00  0.00    -0.550 OA
ENDBRANCH  21  22
ENDBRANCH  20  21
ENDBRANCH  19  20
ENDBRANCH  18  19
ENDBRANCH  17  18
ENDBRANCH  16  17
ENDBRANCH  15  16
ENDBRANCH  14  15
ENDBRANCH  13  14
ENDBRANCH   1  13
TORSDOF 20
ENDMDL
MODEL 3
REMARK VINA RESULT:    -4.263      1.719      5.454
REMARK INTER + INTRA:         -12.680
REMARK INTER:                  -9.365
REMARK INTRA:                  -3.316
REMARK UNBOUND:                -3.432
REMARK SMILES CCCCCCCCCCCCCCCCCCCCCC(=O)[O-]
REMARK SMILES IDX 12 1 11 2 10 3 9 4 8 5 7 6 6 7 5 8 4 9 3 10 2 11 1 12 13 13
REMARK SMILES IDX 14 14 15 15 16 16 17 17 18 18 19 19 20 20 21 21 22 22 23 23
REMARK SMILES IDX 24 24
REMARK H PARENT
REMARK Flexibility Score: inf
ROOT
ATOM      1  C   UNL     1     -18.764 -32.772  16.484  1.00  0.00     0.000 C 
ENDROOT
BRANCH   1   2
ATOM      2  C   UNL     1     -18.577 -33.843  17.584  1.00  0.00     0.000 C 
BRANCH   2   3
ATOM      3  C   UNL     1     -17.307 -33.641  18.430  1.00  0.00     0.000 C 
BRANCH   3   4
ATOM      4  C   UNL     1     -17.534 -33.735  19.949  1.00  0.00    -0.000 C 
BRANCH   4   5
ATOM      5  C   UNL     1     -18.946 -33.288  20.394  1.00  0.00    -0.000 C 
BRANCH   5   6
ATOM      6  C   UNL     1     -19.023 -31.778  20.679  1.00  0.00    -0.000 C 
BRANCH   6   7
ATOM      7  C   UNL     1     -20.154 -31.085  19.903  1.00  0.00    -0.000 C 
BRANCH   7   8
ATOM      8  C   UNL     1     -19.626 -30.114  18.832  1.00  0.00    -0.000 C 
BRANCH   8   9
ATOM      9  C   UNL     1     -18.216 -29.594  19.153  1.00  0.00    -0.000 C 
BRANCH   9  10
ATOM     10  C   UNL     1     -17.179 -29.994  18.087  1.00  0.00    -0.000 C 
BRANCH  10  11
ATOM     11  C   UNL     1     -16.893 -28.861  17.089  1.00  0.00    -0.003 C 
ATOM     12  C   UNL     1     -17.257 -27.482  17.643  1.00  0.00     0.004 C 
ENDBRANCH  10  11
ENDBRANCH   9  10
ENDBRANCH   8   9
ENDBRANCH   7   8
ENDBRANCH   6   7
ENDBRANCH   5   6
ENDBRANCH   4   5
ENDBRANCH   3   4
ENDBRANCH   2   3
ENDBRANCH   1   2
BRANCH   1  13
ATOM     13  C   UNL     1     -19.559 -33.300  15.279  1.00  0.00     0.000 C 
BRANCH  13  14
ATOM     14  C   UNL     1     -18.655 -33.847  14.162  1.00  0.00     0.000 C 
BRANCH  14  15
ATOM     15  C   UNL     1     -17.781 -32.757  13.521  1.00  0.00     0.000 C 
BRANCH  15  16
ATOM     16  C   UNL     1     -16.289 -33.130  13.494  1.00  0.00     0.000 C 
BRANCH  16  17
ATOM     17  C   UNL     1     -15.806 -33.837  14.779  1.00  0.00     0.000 C 
BRANCH  17  18
ATOM     18  C   UNL     1     -14.910 -32.928  15.640  1.00  0.00     0.000 C 
BRANCH  18  19
ATOM     19  C   UNL     1     -14.486 -31.643  14.895  1.00  0.00     0.000 C 
BRANCH  19  20
ATOM     20  C   UNL     1     -13.410 -30.827  15.636  1.00  0.00     0.006 C 
BRANCH  20  21
ATOM     21  C   UNL     1     -13.636 -30.722  17.152  1.00  0.00     0.053 C 
BRANCH  21  22
ATOM     22  C   UNL     1     -12.351 -30.812  17.918  1.00  0.00     0.041 C 
ATOM     23  O   UNL     1     -12.156 -30.068  18.916  1.00  0.00    -0.550 OA
ATOM     24  O   UNL     1     -11.377 -31.730  17.545  1.00  0.00    -0.550 OA
ENDBRANCH  21  22
ENDBRANCH  20  21
ENDBRANCH  19  20
ENDBRANCH  18  19
ENDBRANCH  17  18
ENDBRANCH  16  17
ENDBRANCH  15  16
ENDBRANCH  14  15
ENDBRANCH  13  14
ENDBRANCH   1  13
TORSDOF 20
ENDMDL
MODEL 4
REMARK VINA RESULT:    -4.230      2.201      4.291
REMARK INTER + INTRA:         -12.608
REMARK INTER:                  -8.703
REMARK INTRA:                  -3.905
REMARK UNBOUND:                -3.432
REMARK SMILES CCCCCCCCCCCCCCCCCCCCCC(=O)[O-]
REMARK SMILES IDX 12 1 11 2 10 3 9 4 8 5 7 6 6 7 5 8 4 9 3 10 2 11 1 12 13 13
REMARK SMILES IDX 14 14 15 15 16 16 17 17 18 18 19 19 20 20 21 21 22 22 23 23
REMARK SMILES IDX 24 24
REMARK H PARENT
REMARK Flexibility Score: inf
ROOT
ATOM      1  C   UNL     1     -15.636 -32.554  20.066  1.00  0.00     0.000 C 
ENDROOT
BRANCH   1   2
ATOM      2  C   UNL     1     -14.194 -33.099  20.198  1.00  0.00     0.000 C 
BRANCH   2   3
ATOM      3  C   UNL     1     -13.745 -33.950  18.998  1.00  0.00     0.000 C 
BRANCH   3   4
ATOM      4  C   UNL     1     -12.262 -33.783  18.620  1.00  0.00    -0.000 C 
BRANCH   4   5
ATOM      5  C   UNL     1     -11.550 -32.649  19.392  1.00  0.00    -0.000 C 
BRANCH   5   6
ATOM      6  C   UNL     1     -10.612 -31.823  18.495  1.00  0.00    -0.000 C 
BRANCH   6   7
ATOM      7  C   UNL     1     -11.270 -30.536  17.973  1.00  0.00    -0.000 C 
BRANCH   7   8
ATOM      8  C   UNL     1     -12.445 -30.074  18.855  1.00  0.00    -0.000 C 
BRANCH   8   9
ATOM      9  C   UNL     1     -13.758 -29.946  18.066  1.00  0.00    -0.000 C 
BRANCH   9  10
ATOM     10  C   UNL     1     -13.608 -30.362  16.591  1.00  0.00    -0.000 C 
BRANCH  10  11
ATOM     11  C   UNL     1     -14.436 -31.609  16.245  1.00  0.00    -0.003 C 
ATOM     12  C   UNL     1     -13.676 -32.594  15.355  1.00  0.00     0.004 C 
ENDBRANCH  10  11
ENDBRANCH   9  10
ENDBRANCH   8   9
ENDBRANCH   7   8
ENDBRANCH   6   7
ENDBRANCH   5   6
ENDBRANCH   4   5
ENDBRANCH   3   4
ENDBRANCH   2   3
ENDBRANCH   1   2
BRANCH   1  13
ATOM     13  C   UNL     1     -16.277 -32.252  21.430  1.00  0.00     0.000 C 
BRANCH  13  14
ATOM     14  C   UNL     1     -17.596 -33.010  21.648  1.00  0.00     0.000 C 
BRANCH  14  15
ATOM     15  C   UNL     1     -18.152 -33.617  20.349  1.00  0.00     0.000 C 
BRANCH  15  16
ATOM     16  C   UNL     1     -19.478 -32.971  19.911  1.00  0.00     0.000 C 
BRANCH  16  17
ATOM     17  C   UNL     1     -19.561 -31.460  20.220  1.00  0.00     0.000 C 
BRANCH  17  18
ATOM     18  C   UNL     1     -19.806 -30.622  18.953  1.00  0.00     0.000 C 
BRANCH  18  19
ATOM     19  C   UNL     1     -18.872 -31.024  17.791  1.00  0.00     0.000 C 
BRANCH  19  20
ATOM     20  C   UNL     1     -17.555 -30.224  17.752  1.00  0.00     0.006 C 
BRANCH  20  21
ATOM     21  C   UNL     1     -17.721 -28.729  18.060  1.00  0.00     0.053 C 
BRANCH  21  22
ATOM     22  C   UNL     1     -16.907 -28.307  19.246  1.00  0.00     0.041 C 
ATOM     23  O   UNL     1     -16.872 -29.028  20.278  1.00  0.00    -0.550 OA
ATOM     24  O   UNL     1     -16.170 -27.130  19.205  1.00  0.00    -0.550 OA
ENDBRANCH  21  22
ENDBRANCH  20  21
ENDBRANCH  19  20
ENDBRANCH  18  19
ENDBRANCH  17  18
ENDBRANCH  16  17
ENDBRANCH  15  16
ENDBRANCH  14  15
ENDBRANCH  13  14
ENDBRANCH   1  13
TORSDOF 20
ENDMDL
MODEL 5
REMARK VINA RESULT:    -4.161      1.961      4.212
REMARK INTER + INTRA:         -12.457
REMARK INTER:                  -8.880
REMARK INTRA:                  -3.577
REMARK UNBOUND:                -3.432
REMARK SMILES CCCCCCCCCCCCCCCCCCCCCC(=O)[O-]
REMARK SMILES IDX 12 1 11 2 10 3 9 4 8 5 7 6 6 7 5 8 4 9 3 10 2 11 1 12 13 13
REMARK SMILES IDX 14 14 15 15 16 16 17 17 18 18 19 19 20 20 21 21 22 22 23 23
REMARK SMILES IDX 24 24
REMARK H PARENT
REMARK Flexibility Score: inf
ROOT
ATOM      1  C   UNL     1     -17.020 -31.666  21.341  1.00  0.00     0.000 C 
ENDROOT
BRANCH   1   2
ATOM      2  C   UNL     1     -16.443 -33.021  21.814  1.00  0.00     0.000 C 
BRANCH   2   3
ATOM      3  C   UNL     1     -15.121 -33.401  21.125  1.00  0.00     0.000 C 
BRANCH   3   4
ATOM      4  C   UNL     1     -14.878 -32.690  19.782  1.00  0.00    -0.000 C 
BRANCH   4   5
ATOM      5  C   UNL     1     -14.338 -33.623  18.674  1.00  0.00    -0.000 C 
BRANCH   5   6
ATOM      6  C   UNL     1     -12.842 -33.398  18.391  1.00  0.00    -0.000 C 
BRANCH   6   7
ATOM      7  C   UNL     1     -12.598 -32.555  17.130  1.00  0.00    -0.000 C 
BRANCH   7   8
ATOM      8  C   UNL     1     -11.792 -31.276  17.422  1.00  0.00    -0.000 C 
BRANCH   8   9
ATOM      9  C   UNL     1     -12.651 -30.005  17.332  1.00  0.00    -0.000 C 
BRANCH   9  10
ATOM     10  C   UNL     1     -12.519 -29.109  18.577  1.00  0.00    -0.000 C 
BRANCH  10  11
ATOM     11  C   UNL     1     -12.551 -27.612  18.231  1.00  0.00    -0.003 C 
ATOM     12  C   UNL     1     -11.155 -27.023  18.029  1.00  0.00     0.004 C 
ENDBRANCH  10  11
ENDBRANCH   9  10
ENDBRANCH   8   9
ENDBRANCH   7   8
ENDBRANCH   6   7
ENDBRANCH   5   6
ENDBRANCH   4   5
ENDBRANCH   3   4
ENDBRANCH   2   3
ENDBRANCH   1   2
BRANCH   1  13
ATOM     13  C   UNL     1     -18.516 -31.752  20.995  1.00  0.00     0.000 C 
BRANCH  13  14
ATOM     14  C   UNL     1     -18.928 -33.141  20.480  1.00  0.00     0.000 C 
BRANCH  14  15
ATOM     15  C   UNL     1     -19.185 -33.156  18.964  1.00  0.00     0.000 C 
BRANCH  15  16
ATOM     16  C   UNL     1     -18.032 -33.797  18.172  1.00  0.00     0.000 C 
BRANCH  16  17
ATOM     17  C   UNL     1     -17.641 -33.008  16.903  1.00  0.00     0.000 C 
BRANCH  17  18
ATOM     18  C   UNL     1     -17.795 -31.489  17.092  1.00  0.00     0.000 C 
BRANCH  18  19
ATOM     19  C   UNL     1     -16.439 -30.751  17.050  1.00  0.00     0.000 C 
BRANCH  19  20
ATOM     20  C   UNL     1     -16.223 -29.789  18.234  1.00  0.00     0.006 C 
BRANCH  20  21
ATOM     21  C   UNL     1     -17.513 -29.143  18.761  1.00  0.00     0.053 C 
BRANCH  21  22
ATOM     22  C   UNL     1     -17.535 -27.662  18.528  1.00  0.00     0.041 C 
ATOM     23  O   UNL     1     -18.547 -26.985  18.855  1.00  0.00    -0.550 OA
ATOM     24  O   UNL     1     -16.434 -27.026  17.969  1.00  0.00    -0.550 OA
ENDBRANCH  21  22
ENDBRANCH  20  21
ENDBRANCH  19  20
ENDBRANCH  18  19
ENDBRANCH  17  18
ENDBRANCH  16  17
ENDBRANCH  15  16
ENDBRANCH  14  15
ENDBRANCH  13  14
ENDBRANCH   1  13
TORSDOF 20
ENDMDL
MODEL 6
REMARK VINA RESULT:    -4.119      2.227      4.824
REMARK INTER + INTRA:         -12.368
REMARK INTER:                  -8.890
REMARK INTRA:                  -3.478
REMARK UNBOUND:                -3.432
REMARK SMILES CCCCCCCCCCCCCCCCCCCCCC(=O)[O-]
REMARK SMILES IDX 12 1 11 2 10 3 9 4 8 5 7 6 6 7 5 8 4 9 3 10 2 11 1 12 13 13
REMARK SMILES IDX 14 14 15 15 16 16 17 17 18 18 19 19 20 20 21 21 22 22 23 23
REMARK SMILES IDX 24 24
REMARK H PARENT
REMARK Flexibility Score: inf
ROOT
ATOM      1  C   UNL     1     -15.778 -32.331  20.383  1.00  0.00     0.000 C 
ENDROOT
BRANCH   1   2
ATOM      2  C   UNL     1     -14.392 -33.009  20.267  1.00  0.00     0.000 C 
BRANCH   2   3
ATOM      3  C   UNL     1     -14.096 -33.568  18.864  1.00  0.00     0.000 C 
BRANCH   3   4
ATOM      4  C   UNL     1     -12.628 -33.427  18.421  1.00  0.00    -0.000 C 
BRANCH   4   5
ATOM      5  C   UNL     1     -11.840 -32.363  19.219  1.00  0.00    -0.000 C 
BRANCH   5   6
ATOM      6  C   UNL     1     -11.464 -31.142  18.363  1.00  0.00    -0.000 C 
BRANCH   6   7
ATOM      7  C   UNL     1     -12.102 -29.840  18.874  1.00  0.00    -0.000 C 
BRANCH   7   8
ATOM      8  C   UNL     1     -13.138 -29.265  17.892  1.00  0.00    -0.000 C 
BRANCH   8   9
ATOM      9  C   UNL     1     -14.582 -29.437  18.392  1.00  0.00    -0.000 C 
BRANCH   9  10
ATOM     10  C   UNL     1     -15.268 -28.094  18.703  1.00  0.00    -0.000 C 
BRANCH  10  11
ATOM     11  C   UNL     1     -16.425 -28.242  19.702  1.00  0.00    -0.003 C 
ATOM     12  C   UNL     1     -17.574 -27.272  19.422  1.00  0.00     0.004 C 
ENDBRANCH  10  11
ENDBRANCH   9  10
ENDBRANCH   8   9
ENDBRANCH   7   8
ENDBRANCH   6   7
ENDBRANCH   5   6
ENDBRANCH   4   5
ENDBRANCH   3   4
ENDBRANCH   2   3
ENDBRANCH   1   2
BRANCH   1  13
ATOM     13  C   UNL     1     -16.339 -32.382  21.813  1.00  0.00     0.000 C 
BRANCH  13  14
ATOM     14  C   UNL     1     -17.760 -32.964  21.875  1.00  0.00     0.000 C 
BRANCH  14  15
ATOM     15  C   UNL     1     -18.241 -33.496  20.515  1.00  0.00     0.000 C 
BRANCH  15  16
ATOM     16  C   UNL     1     -19.488 -32.760  19.996  1.00  0.00     0.000 C 
BRANCH  16  17
ATOM     17  C   UNL     1     -19.496 -31.251  20.322  1.00  0.00     0.000 C 
BRANCH  17  18
ATOM     18  C   UNL     1     -19.698 -30.387  19.065  1.00  0.00     0.000 C 
BRANCH  18  19
ATOM     19  C   UNL     1     -19.232 -31.101  17.778  1.00  0.00     0.000 C 
BRANCH  19  20
ATOM     20  C   UNL     1     -17.740 -30.885  17.458  1.00  0.00     0.006 C 
BRANCH  20  21
ATOM     21  C   UNL     1     -17.012 -32.150  16.979  1.00  0.00     0.053 C 
BRANCH  21  22
ATOM     22  C   UNL     1     -16.344 -31.945  15.653  1.00  0.00     0.041 C 
ATOM     23  O   UNL     1     -16.969 -32.189  14.586  1.00  0.00    -0.550 OA
ATOM     24  O   UNL     1     -15.042 -31.465  15.593  1.00  0.00    -0.550 OA
ENDBRANCH  21  22
ENDBRANCH  20  21
ENDBRANCH  19  20
ENDBRANCH  18  19
ENDBRANCH  17  18
ENDBRANCH  16  17
ENDBRANCH  15  16
ENDBRANCH  14  15
ENDBRANCH  13  14
ENDBRANCH   1  13
TORSDOF 20
ENDMDL
MODEL 7
REMARK VINA RESULT:    -4.093      2.608      5.516
REMARK INTER + INTRA:         -12.311
REMARK INTER:                  -8.083
REMARK INTRA:                  -4.227
REMARK UNBOUND:                -3.432
REMARK SMILES CCCCCCCCCCCCCCCCCCCCCC(=O)[O-]
REMARK SMILES IDX 12 1 11 2 10 3 9 4 8 5 7 6 6 7 5 8 4 9 3 10 2 11 1 12 13 13
REMARK SMILES IDX 14 14 15 15 16 16 17 17 18 18 19 19 20 20 21 21 22 22 23 23
REMARK SMILES IDX 24 24
REMARK H PARENT
REMARK Flexibility Score: inf
ROOT
ATOM      1  C   UNL     1     -16.331 -31.899  20.500  1.00  0.00     0.000 C 
ENDROOT
BRANCH   1   2
ATOM      2  C   UNL     1     -17.619 -31.935  21.356  1.00  0.00     0.000 C 
BRANCH   2   3
ATOM      3  C   UNL     1     -18.909 -31.767  20.535  1.00  0.00     0.000 C 
BRANCH   3   4
ATOM      4  C   UNL     1     -19.500 -33.085  20.003  1.00  0.00    -0.000 C 
BRANCH   4   5
ATOM      5  C   UNL     1     -19.279 -33.297  18.487  1.00  0.00    -0.000 C 
BRANCH   5   6
ATOM      6  C   UNL     1     -19.084 -31.973  17.730  1.00  0.00    -0.000 C 
BRANCH   6   7
ATOM      7  C   UNL     1     -17.849 -31.989  16.814  1.00  0.00    -0.000 C 
BRANCH   7   8
ATOM      8  C   UNL     1     -16.888 -30.820  17.097  1.00  0.00    -0.000 C 
BRANCH   8   9
ATOM      9  C   UNL     1     -17.602 -29.610  17.720  1.00  0.00    -0.000 C 
BRANCH   9  10
ATOM     10  C   UNL     1     -16.900 -28.277  17.400  1.00  0.00    -0.000 C 
BRANCH  10  11
ATOM     11  C   UNL     1     -15.998 -27.796  18.546  1.00  0.00    -0.003 C 
ATOM     12  C   UNL     1     -16.563 -28.140  19.925  1.00  0.00     0.004 C 
ENDBRANCH  10  11
ENDBRANCH   9  10
ENDBRANCH   8   9
ENDBRANCH   7   8
ENDBRANCH   6   7
ENDBRANCH   5   6
ENDBRANCH   4   5
ENDBRANCH   3   4
ENDBRANCH   2   3
ENDBRANCH   1   2
BRANCH   1  13
ATOM     13  C   UNL     1     -15.566 -33.232  20.532  1.00  0.00     0.000 C 
BRANCH  13  14
ATOM     14  C   UNL     1     -15.844 -34.109  19.300  1.00  0.00     0.000 C 
BRANCH  14  15
ATOM     15  C   UNL     1     -14.863 -33.837  18.148  1.00  0.00     0.000 C 
BRANCH  15  16
ATOM     16  C   UNL     1     -13.414 -33.652  18.632  1.00  0.00     0.000 C 
BRANCH  16  17
ATOM     17  C   UNL     1     -12.697 -32.445  17.989  1.00  0.00     0.000 C 
BRANCH  17  18
ATOM     18  C   UNL     1     -13.377 -31.110  18.343  1.00  0.00     0.000 C 
BRANCH  18  19
ATOM     19  C   UNL     1     -13.280 -30.079  17.198  1.00  0.00     0.000 C 
BRANCH  19  20
ATOM     20  C   UNL     1     -12.986 -30.709  15.822  1.00  0.00     0.006 C 
BRANCH  20  21
ATOM     21  C   UNL     1     -14.219 -30.841  14.917  1.00  0.00     0.053 C 
BRANCH  21  22
ATOM     22  C   UNL     1     -14.337 -32.213  14.326  1.00  0.00     0.041 C 
ATOM     23  O   UNL     1     -13.407 -33.050  14.480  1.00  0.00    -0.550 OA
ATOM     24  O   UNL     1     -15.479 -32.576  13.623  1.00  0.00    -0.550 OA
ENDBRANCH  21  22
ENDBRANCH  20  21
ENDBRANCH  19  20
ENDBRANCH  18  19
ENDBRANCH  17  18
ENDBRANCH  16  17
ENDBRANCH  15  16
ENDBRANCH  14  15
ENDBRANCH  13  14
ENDBRANCH   1  13
TORSDOF 20
ENDMDL
MODEL 8
REMARK VINA RESULT:    -4.081      1.552      2.464
REMARK INTER + INTRA:         -12.284
REMARK INTER:                  -8.685
REMARK INTRA:                  -3.599
REMARK UNBOUND:                -3.432
REMARK SMILES CCCCCCCCCCCCCCCCCCCCCC(=O)[O-]
REMARK SMILES IDX 12 1 11 2 10 3 9 4 8 5 7 6 6 7 5 8 4 9 3 10 2 11 1 12 13 13
REMARK SMILES IDX 14 14 15 15 16 16 17 17 18 18 19 19 20 20 21 21 22 22 23 23
REMARK SMILES IDX 24 24
REMARK H PARENT
REMARK Flexibility Score: inf
ROOT
ATOM      1  C   UNL     1     -16.445 -33.104  17.575  1.00  0.00     0.000 C 
ENDROOT
BRANCH   1   2
ATOM      2  C   UNL     1     -17.807 -33.582  17.018  1.00  0.00     0.000 C 
BRANCH   2   3
ATOM      3  C   UNL     1     -18.342 -32.708  15.870  1.00  0.00     0.000 C 
BRANCH   3   4
ATOM      4  C   UNL     1     -18.428 -33.428  14.511  1.00  0.00    -0.000 C 
BRANCH   4   5
ATOM      5  C   UNL     1     -17.630 -32.728  13.387  1.00  0.00    -0.000 C 
BRANCH   5   6
ATOM      6  C   UNL     1     -16.324 -32.095  13.897  1.00  0.00    -0.000 C 
BRANCH   6   7
ATOM      7  C   UNL     1     -15.148 -33.085  13.904  1.00  0.00    -0.000 C 
BRANCH   7   8
ATOM      8  C   UNL     1     -14.024 -32.660  14.866  1.00  0.00    -0.000 C 
BRANCH   8   9
ATOM      9  C   UNL     1     -14.153 -31.194  15.310  1.00  0.00    -0.000 C 
BRANCH   9  10
ATOM     10  C   UNL     1     -12.892 -30.678  16.029  1.00  0.00    -0.000 C 
BRANCH  10  11
ATOM     11  C   UNL     1     -12.430 -31.618  17.152  1.00  0.00    -0.003 C 
ATOM     12  C   UNL     1     -13.102 -31.313  18.491  1.00  0.00     0.004 C 
ENDBRANCH  10  11
ENDBRANCH   9  10
ENDBRANCH   8   9
ENDBRANCH   7   8
ENDBRANCH   6   7
ENDBRANCH   5   6
ENDBRANCH   4   5
ENDBRANCH   3   4
ENDBRANCH   2   3
ENDBRANCH   1   2
BRANCH   1  13
ATOM     13  C   UNL     1     -15.845 -34.093  18.588  1.00  0.00     0.000 C 
BRANCH  13  14
ATOM     14  C   UNL     1     -15.758 -33.511  20.008  1.00  0.00     0.000 C 
BRANCH  14  15
ATOM     15  C   UNL     1     -16.326 -32.085  20.099  1.00  0.00     0.000 C 
BRANCH  15  16
ATOM     16  C   UNL     1     -17.134 -31.847  21.385  1.00  0.00     0.000 C 
BRANCH  16  17
ATOM     17  C   UNL     1     -18.499 -32.570  21.400  1.00  0.00     0.000 C 
BRANCH  17  18
ATOM     18  C   UNL     1     -19.236 -32.446  20.056  1.00  0.00     0.000 C 
BRANCH  18  19
ATOM     19  C   UNL     1     -19.850 -31.045  19.847  1.00  0.00     0.000 C 
BRANCH  19  20
ATOM     20  C   UNL     1     -19.314 -30.314  18.601  1.00  0.00     0.006 C 
BRANCH  20  21
ATOM     21  C   UNL     1     -18.363 -29.150  18.917  1.00  0.00     0.053 C 
BRANCH  21  22
ATOM     22  C   UNL     1     -17.449 -28.845  17.769  1.00  0.00     0.041 C 
ATOM     23  O   UNL     1     -16.494 -29.622  17.497  1.00  0.00    -0.550 OA
ATOM     24  O   UNL     1     -17.661 -27.717  16.987  1.00  0.00    -0.550 OA
ENDBRANCH  21  22
ENDBRANCH  20  21
ENDBRANCH  19  20
ENDBRANCH  18  19
ENDBRANCH  17  18
ENDBRANCH  16  17
ENDBRANCH  15  16
ENDBRANCH  14  15
ENDBRANCH  13  14
ENDBRANCH   1  13
TORSDOF 20
ENDMDL
