MODEL 1
REMARK VINA RESULT:    -8.388      0.000      0.000
REMARK INTER + INTRA:          -9.995
REMARK INTER:                  -9.859
REMARK INTRA:                  -0.136
REMARK UNBOUND:                -0.136
REMARK SMILES O=c1c(O)c(-c2ccc(O)cc2)oc2cc(O)cc(O)c12
REMARK SMILES IDX 5 1 3 2 2 3 1 4 21 5 19 6 18 7 16 8 15 9 14 10 13 11 6 12
REMARK SMILES IDX 7 13 8 14 9 15 12 16 11 17 10 18 4 20 20 22 17 24
REMARK H PARENT 10 19 4 21 20 23 17 25
REMARK Flexibility Score: inf
ROOT
ATOM      1  C   UNL     1     -47.521 -16.105  33.373  1.00  0.00     0.180 A 
ATOM      2  C   UNL     1     -46.180 -16.033  33.797  1.00  0.00     0.208 A 
ATOM      3  C   UNL     1     -45.231 -16.874  33.193  1.00  0.00     0.238 A 
ATOM      4  O   UNL     1     -44.030 -16.826  33.572  1.00  0.00    -0.285 OA
ATOM      5  C   UNL     1     -45.634 -17.754  32.167  1.00  0.00     0.111 A 
ATOM      6  C   UNL     1     -44.740 -18.630  31.506  1.00  0.00     0.134 A 
ATOM      7  C   UNL     1     -45.216 -19.469  30.487  1.00  0.00     0.093 A 
ATOM      8  C   UNL     1     -46.566 -19.448  30.117  1.00  0.00     0.123 A 
ATOM      9  C   UNL     1     -47.450 -18.586  30.768  1.00  0.00     0.094 A 
ATOM     10  C   UNL     1     -46.997 -17.743  31.787  1.00  0.00     0.146 A 
ATOM     11  O   UNL     1     -47.861 -16.936  32.392  1.00  0.00    -0.452 OA
ENDROOT
BRANCH   1  12
ATOM     12  C   UNL     1     -48.583 -15.265  33.973  1.00  0.00     0.021 A 
ATOM     13  C   UNL     1     -49.312 -14.385  33.158  1.00  0.00     0.016 A 
ATOM     14  C   UNL     1     -50.334 -13.599  33.700  1.00  0.00     0.047 A 
ATOM     15  C   UNL     1     -50.649 -13.694  35.058  1.00  0.00     0.115 A 
ATOM     16  C   UNL     1     -48.918 -15.371  35.337  1.00  0.00     0.016 A 
ATOM     17  C   UNL     1     -49.941 -14.584  35.874  1.00  0.00     0.047 A 
BRANCH  15  18
ATOM     18  O   UNL     1     -51.670 -12.904  35.585  1.00  0.00    -0.508 OA
ATOM     19  H   UNL     1     -52.505 -13.316  35.985  1.00  0.00     0.293 HD
ENDBRANCH  15  18
ENDBRANCH   1  12
BRANCH   2  20
ATOM     20  O   UNL     1     -45.799 -15.117  34.782  1.00  0.00    -0.502 OA
ATOM     21  H   UNL     1     -46.114 -15.191  35.741  1.00  0.00     0.293 HD
ENDBRANCH   2  20
BRANCH   6  22
ATOM     22  O   UNL     1     -43.389 -18.674  31.850  1.00  0.00    -0.507 OA
ATOM     23  H   UNL     1     -42.668 -18.860  31.163  1.00  0.00     0.293 HD
ENDBRANCH   6  22
BRANCH   8  24
ATOM     24  O   UNL     1     -47.038 -20.280  29.106  1.00  0.00    -0.508 OA
ATOM     25  H   UNL     1     -47.867 -20.048  28.573  1.00  0.00     0.293 HD
ENDBRANCH   8  24
TORSDOF 5
ENDMDL
MODEL 2
REMARK VINA RESULT:    -8.237      6.751     10.747
REMARK INTER + INTRA:          -9.818
REMARK INTER:                  -9.615
REMARK INTRA:                  -0.203
REMARK UNBOUND:                -0.136
REMARK SMILES O=c1c(O)c(-c2ccc(O)cc2)oc2cc(O)cc(O)c12
REMARK SMILES IDX 5 1 3 2 2 3 1 4 21 5 19 6 18 7 16 8 15 9 14 10 13 11 6 12
REMARK SMILES IDX 7 13 8 14 9 15 12 16 11 17 10 18 4 20 20 22 17 24
REMARK H PARENT 10 19 4 21 20 23 17 25
REMARK Flexibility Score: inf
ROOT
ATOM      1  C   UNL     1     -42.270 -24.498  33.403  1.00  0.00     0.180 A 
ATOM      2  C   UNL     1     -43.615 -24.635  33.799  1.00  0.00     0.208 A 
ATOM      3  C   UNL     1     -44.582 -23.801  33.215  1.00  0.00     0.238 A 
ATOM      4  O   UNL     1     -45.787 -23.906  33.570  1.00  0.00    -0.285 OA
ATOM      5  C   UNL     1     -44.194 -22.864  32.234  1.00  0.00     0.111 A 
ATOM      6  C   UNL     1     -45.106 -21.991  31.596  1.00  0.00     0.134 A 
ATOM      7  C   UNL     1     -44.643 -21.093  30.622  1.00  0.00     0.093 A 
ATOM      8  C   UNL     1     -43.287 -21.052  30.277  1.00  0.00     0.123 A 
ATOM      9  C   UNL     1     -42.385 -21.911  30.906  1.00  0.00     0.094 A 
ATOM     10  C   UNL     1     -42.825 -22.812  31.879  1.00  0.00     0.146 A 
ATOM     11  O   UNL     1     -41.943 -23.614  32.464  1.00  0.00    -0.452 OA
ENDROOT
BRANCH   1  12
ATOM     12  C   UNL     1     -41.190 -25.327  33.985  1.00  0.00     0.021 A 
ATOM     13  C   UNL     1     -40.516 -26.255  33.175  1.00  0.00     0.016 A 
ATOM     14  C   UNL     1     -39.478 -27.031  33.699  1.00  0.00     0.047 A 
ATOM     15  C   UNL     1     -39.091 -26.880  35.033  1.00  0.00     0.115 A 
ATOM     16  C   UNL     1     -40.783 -25.166  35.323  1.00  0.00     0.016 A 
ATOM     17  C   UNL     1     -39.744 -25.943  35.844  1.00  0.00     0.047 A 
BRANCH  15  18
ATOM     18  O   UNL     1     -38.055 -27.661  35.542  1.00  0.00    -0.508 OA
ATOM     19  H   UNL     1     -37.465 -27.330  36.297  1.00  0.00     0.293 HD
ENDBRANCH  15  18
ENDBRANCH   1  12
BRANCH   2  20
ATOM     20  O   UNL     1     -43.980 -25.605  34.736  1.00  0.00    -0.502 OA
ATOM     21  H   UNL     1     -44.572 -25.395  35.530  1.00  0.00     0.293 HD
ENDBRANCH   2  20
BRANCH   6  22
ATOM     22  O   UNL     1     -46.464 -22.008  31.917  1.00  0.00    -0.507 OA
ATOM     23  H   UNL     1     -47.041 -22.825  31.752  1.00  0.00     0.293 HD
ENDBRANCH   6  22
BRANCH   8  24
ATOM     24  O   UNL     1     -42.828 -20.161  29.311  1.00  0.00    -0.508 OA
ATOM     25  H   UNL     1     -42.549 -19.217  29.550  1.00  0.00     0.293 HD
ENDBRANCH   8  24
TORSDOF 5
ENDMDL
MODEL 3
REMARK VINA RESULT:    -7.919      5.227      8.226
REMARK INTER + INTRA:          -9.444
REMARK INTER:                  -9.382
REMARK INTRA:                  -0.063
REMARK UNBOUND:                -0.136
REMARK SMILES O=c1c(O)c(-c2ccc(O)cc2)oc2cc(O)cc(O)c12
REMARK SMILES IDX 5 1 3 2 2 3 1 4 21 5 19 6 18 7 16 8 15 9 14 10 13 11 6 12
REMARK SMILES IDX 7 13 8 14 9 15 12 16 11 17 10 18 4 20 20 22 17 24
REMARK H PARENT 10 19 4 21 20 23 17 25
REMARK Flexibility Score: inf
ROOT
ATOM      1  C   UNL     1     -44.419 -21.712  30.969  1.00  0.00     0.180 A 
ATOM      2  C   UNL     1     -45.096 -20.623  31.553  1.00  0.00     0.208 A 
ATOM      3  C   UNL     1     -45.876 -19.791  30.734  1.00  0.00     0.238 A 
ATOM      4  O   UNL     1     -46.478 -18.808  31.244  1.00  0.00    -0.285 OA
ATOM      5  C   UNL     1     -45.984 -20.072  29.356  1.00  0.00     0.111 A 
ATOM      6  C   UNL     1     -46.752 -19.286  28.464  1.00  0.00     0.134 A 
ATOM      7  C   UNL     1     -46.816 -19.637  27.107  1.00  0.00     0.093 A 
ATOM      8  C   UNL     1     -46.127 -20.757  26.627  1.00  0.00     0.123 A 
ATOM      9  C   UNL     1     -45.368 -21.533  27.503  1.00  0.00     0.094 A 
ATOM     10  C   UNL     1     -45.290 -21.201  28.859  1.00  0.00     0.146 A 
ATOM     11  O   UNL     1     -44.556 -21.955  29.668  1.00  0.00    -0.452 OA
ENDROOT
BRANCH   1  12
ATOM     12  C   UNL     1     -43.562 -22.623  31.762  1.00  0.00     0.021 A 
ATOM     13  C   UNL     1     -44.126 -23.362  32.815  1.00  0.00     0.016 A 
ATOM     14  C   UNL     1     -43.341 -24.245  33.561  1.00  0.00     0.047 A 
ATOM     15  C   UNL     1     -41.987 -24.411  33.256  1.00  0.00     0.115 A 
ATOM     16  C   UNL     1     -42.203 -22.810  31.447  1.00  0.00     0.016 A 
ATOM     17  C   UNL     1     -41.421 -23.694  32.195  1.00  0.00     0.047 A 
BRANCH  15  18
ATOM     18  O   UNL     1     -41.215 -25.295  34.009  1.00  0.00    -0.508 OA
ATOM     19  H   UNL     1     -41.636 -25.916  34.691  1.00  0.00     0.293 HD
ENDBRANCH  15  18
ENDBRANCH   1  12
BRANCH   2  20
ATOM     20  O   UNL     1     -45.013 -20.396  32.930  1.00  0.00    -0.502 OA
ATOM     21  H   UNL     1     -44.541 -19.589  33.318  1.00  0.00     0.293 HD
ENDBRANCH   2  20
BRANCH   6  22
ATOM     22  O   UNL     1     -47.450 -18.165  28.913  1.00  0.00    -0.507 OA
ATOM     23  H   UNL     1     -48.426 -18.215  29.179  1.00  0.00     0.293 HD
ENDBRANCH   6  22
BRANCH   8  24
ATOM     24  O   UNL     1     -46.191 -21.105  25.280  1.00  0.00    -0.508 OA
ATOM     25  H   UNL     1     -46.182 -22.073  24.982  1.00  0.00     0.293 HD
ENDBRANCH   8  24
TORSDOF 5
ENDMDL
MODEL 4
REMARK VINA RESULT:    -7.919      2.503      4.243
REMARK INTER + INTRA:          -9.444
REMARK INTER:                  -9.373
REMARK INTRA:                  -0.071
REMARK UNBOUND:                -0.136
REMARK SMILES O=c1c(O)c(-c2ccc(O)cc2)oc2cc(O)cc(O)c12
REMARK SMILES IDX 5 1 3 2 2 3 1 4 21 5 19 6 18 7 16 8 15 9 14 10 13 11 6 12
REMARK SMILES IDX 7 13 8 14 9 15 12 16 11 17 10 18 4 20 20 22 17 24
REMARK H PARENT 10 19 4 21 20 23 17 25
REMARK Flexibility Score: inf
ROOT
ATOM      1  C   UNL     1     -45.410 -18.431  31.279  1.00  0.00     0.180 A 
ATOM      2  C   UNL     1     -44.770 -19.572  31.800  1.00  0.00     0.208 A 
ATOM      3  C   UNL     1     -44.063 -20.412  30.925  1.00  0.00     0.238 A 
ATOM      4  O   UNL     1     -43.496 -21.442  31.379  1.00  0.00    -0.285 OA
ATOM      5  C   UNL     1     -43.990 -20.088  29.555  1.00  0.00     0.111 A 
ATOM      6  C   UNL     1     -43.295 -20.879  28.609  1.00  0.00     0.134 A 
ATOM      7  C   UNL     1     -43.260 -20.484  27.263  1.00  0.00     0.093 A 
ATOM      8  C   UNL     1     -43.907 -19.314  26.846  1.00  0.00     0.123 A 
ATOM      9  C   UNL     1     -44.594 -18.533  27.776  1.00  0.00     0.094 A 
ATOM     10  C   UNL     1     -44.642 -18.909  29.122  1.00  0.00     0.146 A 
ATOM     11  O   UNL     1     -45.307 -18.148  29.983  1.00  0.00    -0.452 OA
ENDROOT
BRANCH   1  12
ATOM     12  C   UNL     1     -46.190 -17.506  32.133  1.00  0.00     0.021 A 
ATOM     13  C   UNL     1     -45.549 -16.824  33.180  1.00  0.00     0.016 A 
ATOM     14  C   UNL     1     -46.262 -15.929  33.983  1.00  0.00     0.047 A 
ATOM     15  C   UNL     1     -47.619 -15.695  33.743  1.00  0.00     0.115 A 
ATOM     16  C   UNL     1     -47.552 -17.251  31.884  1.00  0.00     0.016 A 
ATOM     17  C   UNL     1     -48.261 -16.356  32.689  1.00  0.00     0.047 A 
BRANCH  15  18
ATOM     18  O   UNL     1     -48.317 -14.801  34.554  1.00  0.00    -0.508 OA
ATOM     19  H   UNL     1     -47.847 -14.255  35.266  1.00  0.00     0.293 HD
ENDBRANCH  15  18
ENDBRANCH   1  12
BRANCH   2  20
ATOM     20  O   UNL     1     -44.816 -19.844  33.170  1.00  0.00    -0.502 OA
ATOM     21  H   UNL     1     -44.023 -19.689  33.780  1.00  0.00     0.293 HD
ENDBRANCH   2  20
BRANCH   6  22
ATOM     22  O   UNL     1     -42.640 -22.050  28.993  1.00  0.00    -0.507 OA
ATOM     23  H   UNL     1     -42.148 -22.120  29.876  1.00  0.00     0.293 HD
ENDBRANCH   6  22
BRANCH   8  24
ATOM     24  O   UNL     1     -43.872 -18.922  25.511  1.00  0.00    -0.508 OA
ATOM     25  H   UNL     1     -43.996 -19.589  24.759  1.00  0.00     0.293 HD
ENDBRANCH   8  24
TORSDOF 5
ENDMDL
MODEL 5
REMARK VINA RESULT:    -7.753      1.225      3.013
REMARK INTER + INTRA:          -9.249
REMARK INTER:                  -9.169
REMARK INTRA:                  -0.080
REMARK UNBOUND:                -0.136
REMARK SMILES O=c1c(O)c(-c2ccc(O)cc2)oc2cc(O)cc(O)c12
REMARK SMILES IDX 5 1 3 2 2 3 1 4 21 5 19 6 18 7 16 8 15 9 14 10 13 11 6 12
REMARK SMILES IDX 7 13 8 14 9 15 12 16 11 17 10 18 4 20 20 22 17 24
REMARK H PARENT 10 19 4 21 20 23 17 25
REMARK Flexibility Score: inf
ROOT
ATOM      1  C   UNL     1     -47.584 -16.088  33.228  1.00  0.00     0.180 A 
ATOM      2  C   UNL     1     -47.901 -16.919  32.136  1.00  0.00     0.208 A 
ATOM      3  C   UNL     1     -46.883 -17.689  31.551  1.00  0.00     0.238 A 
ATOM      4  O   UNL     1     -47.153 -18.428  30.567  1.00  0.00    -0.285 OA
ATOM      5  C   UNL     1     -45.576 -17.631  32.078  1.00  0.00     0.111 A 
ATOM      6  C   UNL     1     -44.496 -18.378  31.549  1.00  0.00     0.134 A 
ATOM      7  C   UNL     1     -43.225 -18.273  32.136  1.00  0.00     0.093 A 
ATOM      8  C   UNL     1     -43.016 -17.437  33.239  1.00  0.00     0.123 A 
ATOM      9  C   UNL     1     -44.078 -16.699  33.762  1.00  0.00     0.094 A 
ATOM     10  C   UNL     1     -45.352 -16.788  33.192  1.00  0.00     0.146 A 
ATOM     11  O   UNL     1     -46.343 -16.071  33.707  1.00  0.00    -0.452 OA
ENDROOT
BRANCH   1  12
ATOM     12  C   UNL     1     -48.597 -15.232  33.887  1.00  0.00     0.021 A 
ATOM     13  C   UNL     1     -49.273 -14.257  33.136  1.00  0.00     0.016 A 
ATOM     14  C   UNL     1     -50.249 -13.454  33.733  1.00  0.00     0.047 A 
ATOM     15  C   UNL     1     -50.572 -13.624  35.082  1.00  0.00     0.115 A 
ATOM     16  C   UNL     1     -48.940 -15.412  35.240  1.00  0.00     0.016 A 
ATOM     17  C   UNL     1     -49.918 -14.608  35.834  1.00  0.00     0.047 A 
BRANCH  15  18
ATOM     18  O   UNL     1     -51.547 -12.816  35.664  1.00  0.00    -0.508 OA
ATOM     19  H   UNL     1     -52.531 -13.053  35.612  1.00  0.00     0.293 HD
ENDBRANCH  15  18
ENDBRANCH   1  12
BRANCH   2  20
ATOM     20  O   UNL     1     -49.215 -16.995  31.665  1.00  0.00    -0.502 OA
ATOM     21  H   UNL     1     -49.450 -17.438  30.786  1.00  0.00     0.293 HD
ENDBRANCH   2  20
BRANCH   6  22
ATOM     22  O   UNL     1     -44.673 -19.220  30.451  1.00  0.00    -0.507 OA
ATOM     23  H   UNL     1     -43.912 -19.442  29.821  1.00  0.00     0.293 HD
ENDBRANCH   6  22
BRANCH   8  24
ATOM     24  O   UNL     1     -41.756 -17.334  33.821  1.00  0.00    -0.508 OA
ATOM     25  H   UNL     1     -41.542 -17.781  34.705  1.00  0.00     0.293 HD
ENDBRANCH   8  24
TORSDOF 5
ENDMDL
MODEL 6
REMARK VINA RESULT:    -7.682      7.113     11.109
REMARK INTER + INTRA:          -9.165
REMARK INTER:                  -9.090
REMARK INTRA:                  -0.075
REMARK UNBOUND:                -0.136
REMARK SMILES O=c1c(O)c(-c2ccc(O)cc2)oc2cc(O)cc(O)c12
REMARK SMILES IDX 5 1 3 2 2 3 1 4 21 5 19 6 18 7 16 8 15 9 14 10 13 11 6 12
REMARK SMILES IDX 7 13 8 14 9 15 12 16 11 17 10 18 4 20 20 22 17 24
REMARK H PARENT 10 19 4 21 20 23 17 25
REMARK Flexibility Score: inf
ROOT
ATOM      1  C   UNL     1     -41.926 -24.709  33.242  1.00  0.00     0.180 A 
ATOM      2  C   UNL     1     -41.685 -23.739  32.249  1.00  0.00     0.208 A 
ATOM      3  C   UNL     1     -42.744 -22.919  31.831  1.00  0.00     0.238 A 
ATOM      4  O   UNL     1     -42.543 -22.055  30.935  1.00  0.00    -0.285 OA
ATOM      5  C   UNL     1     -44.016 -23.066  32.423  1.00  0.00     0.111 A 
ATOM      6  C   UNL     1     -45.134 -22.277  32.061  1.00  0.00     0.134 A 
ATOM      7  C   UNL     1     -46.365 -22.478  32.704  1.00  0.00     0.093 A 
ATOM      8  C   UNL     1     -46.497 -23.451  33.701  1.00  0.00     0.123 A 
ATOM      9  C   UNL     1     -45.397 -24.232  34.060  1.00  0.00     0.094 A 
ATOM     10  C   UNL     1     -44.163 -24.049  33.431  1.00  0.00     0.146 A 
ATOM     11  O   UNL     1     -43.135 -24.809  33.789  1.00  0.00    -0.452 OA
ENDROOT
BRANCH   1  12
ATOM     12  C   UNL     1     -40.866 -25.624  33.723  1.00  0.00     0.021 A 
ATOM     13  C   UNL     1     -40.223 -26.478  32.813  1.00  0.00     0.016 A 
ATOM     14  C   UNL     1     -39.204 -27.333  33.242  1.00  0.00     0.047 A 
ATOM     15  C   UNL     1     -38.806 -27.336  34.581  1.00  0.00     0.115 A 
ATOM     16  C   UNL     1     -40.447 -25.617  35.067  1.00  0.00     0.016 A 
ATOM     17  C   UNL     1     -39.427 -26.473  35.492  1.00  0.00     0.047 A 
BRANCH  15  18
ATOM     18  O   UNL     1     -37.789 -28.195  34.995  1.00  0.00    -0.508 OA
ATOM     19  H   UNL     1     -36.832 -27.875  35.091  1.00  0.00     0.293 HD
ENDBRANCH  15  18
ENDBRANCH   1  12
BRANCH   2  20
ATOM     20  O   UNL     1     -40.404 -23.581  31.714  1.00  0.00    -0.502 OA
ATOM     21  H   UNL     1     -39.865 -24.361  31.359  1.00  0.00     0.293 HD
ENDBRANCH   2  20
BRANCH   6  22
ATOM     22  O   UNL     1     -45.033 -21.299  31.071  1.00  0.00    -0.507 OA
ATOM     23  H   UNL     1     -45.706 -20.545  30.996  1.00  0.00     0.293 HD
ENDBRANCH   6  22
BRANCH   8  24
ATOM     24  O   UNL     1     -47.718 -23.650  34.340  1.00  0.00    -0.508 OA
ATOM     25  H   UNL     1     -48.427 -22.927  34.365  1.00  0.00     0.293 HD
ENDBRANCH   8  24
TORSDOF 5
ENDMDL
MODEL 7
REMARK VINA RESULT:    -7.544      6.396      7.502
REMARK INTER + INTRA:          -9.003
REMARK INTER:                  -8.798
REMARK INTRA:                  -0.205
REMARK UNBOUND:                -0.136
REMARK SMILES O=c1c(O)c(-c2ccc(O)cc2)oc2cc(O)cc(O)c12
REMARK SMILES IDX 5 1 3 2 2 3 1 4 21 5 19 6 18 7 16 8 15 9 14 10 13 11 6 12
REMARK SMILES IDX 7 13 8 14 9 15 12 16 11 17 10 18 4 20 20 22 17 24
REMARK H PARENT 10 19 4 21 20 23 17 25
REMARK Flexibility Score: inf
ROOT
ATOM      1  C   UNL     1     -45.272 -20.774  29.073  1.00  0.00     0.180 A 
ATOM      2  C   UNL     1     -43.867 -20.867  29.064  1.00  0.00     0.208 A 
ATOM      3  C   UNL     1     -43.220 -21.485  30.146  1.00  0.00     0.238 A 
ATOM      4  O   UNL     1     -41.962 -21.563  30.155  1.00  0.00    -0.285 OA
ATOM      5  C   UNL     1     -43.987 -22.018  31.204  1.00  0.00     0.111 A 
ATOM      6  C   UNL     1     -43.414 -22.659  32.328  1.00  0.00     0.134 A 
ATOM      7  C   UNL     1     -44.246 -23.172  33.335  1.00  0.00     0.093 A 
ATOM      8  C   UNL     1     -45.637 -23.054  33.239  1.00  0.00     0.123 A 
ATOM      9  C   UNL     1     -46.205 -22.421  32.133  1.00  0.00     0.094 A 
ATOM     10  C   UNL     1     -45.395 -21.903  31.118  1.00  0.00     0.146 A 
ATOM     11  O   UNL     1     -45.963 -21.301  30.080  1.00  0.00    -0.452 OA
ENDROOT
BRANCH   1  12
ATOM     12  C   UNL     1     -46.025 -20.120  27.978  1.00  0.00     0.021 A 
ATOM     13  C   UNL     1     -46.155 -20.773  26.742  1.00  0.00     0.016 A 
ATOM     14  C   UNL     1     -46.882 -20.184  25.703  1.00  0.00     0.047 A 
ATOM     15  C   UNL     1     -47.497 -18.943  25.890  1.00  0.00     0.115 A 
ATOM     16  C   UNL     1     -46.664 -18.880  28.167  1.00  0.00     0.016 A 
ATOM     17  C   UNL     1     -47.389 -18.294  27.126  1.00  0.00     0.047 A 
BRANCH  15  18
ATOM     18  O   UNL     1     -48.217 -18.367  24.845  1.00  0.00    -0.508 OA
ATOM     19  H   UNL     1     -47.750 -17.925  24.061  1.00  0.00     0.293 HD
ENDBRANCH  15  18
ENDBRANCH   1  12
BRANCH   2  20
ATOM     20  O   UNL     1     -43.133 -20.375  27.981  1.00  0.00    -0.502 OA
ATOM     21  H   UNL     1     -43.577 -20.022  27.142  1.00  0.00     0.293 HD
ENDBRANCH   2  20
BRANCH   6  22
ATOM     22  O   UNL     1     -42.031 -22.792  32.452  1.00  0.00    -0.507 OA
ATOM     23  H   UNL     1     -41.389 -22.237  31.898  1.00  0.00     0.293 HD
ENDBRANCH   6  22
BRANCH   8  24
ATOM     24  O   UNL     1     -46.463 -23.563  34.238  1.00  0.00    -0.508 OA
ATOM     25  H   UNL     1     -47.218 -24.204  34.025  1.00  0.00     0.293 HD
ENDBRANCH   8  24
TORSDOF 5
ENDMDL
MODEL 8
REMARK VINA RESULT:    -7.440      3.220      8.338
REMARK INTER + INTRA:          -8.881
REMARK INTER:                  -8.681
REMARK INTRA:                  -0.199
REMARK UNBOUND:                -0.136
REMARK SMILES O=c1c(O)c(-c2ccc(O)cc2)oc2cc(O)cc(O)c12
REMARK SMILES IDX 5 1 3 2 2 3 1 4 21 5 19 6 18 7 16 8 15 9 14 10 13 11 6 12
REMARK SMILES IDX 7 13 8 14 9 15 12 16 11 17 10 18 4 20 20 22 17 24
REMARK H PARENT 10 19 4 21 20 23 17 25
REMARK Flexibility Score: inf
ROOT
ATOM      1  C   UNL     1     -44.689 -19.381  29.214  1.00  0.00     0.180 A 
ATOM      2  C   UNL     1     -46.093 -19.280  29.246  1.00  0.00     0.208 A 
ATOM      3  C   UNL     1     -46.705 -18.677  30.356  1.00  0.00     0.238 A 
ATOM      4  O   UNL     1     -47.962 -18.591  30.401  1.00  0.00    -0.285 OA
ATOM      5  C   UNL     1     -45.905 -18.170  31.402  1.00  0.00     0.111 A 
ATOM      6  C   UNL     1     -46.443 -17.547  32.554  1.00  0.00     0.134 A 
ATOM      7  C   UNL     1     -45.580 -17.059  33.547  1.00  0.00     0.093 A 
ATOM      8  C   UNL     1     -44.192 -17.184  33.410  1.00  0.00     0.123 A 
ATOM      9  C   UNL     1     -43.659 -17.800  32.277  1.00  0.00     0.094 A 
ATOM     10  C   UNL     1     -44.501 -18.293  31.276  1.00  0.00     0.146 A 
ATOM     11  O   UNL     1     -43.966 -18.879  30.211  1.00  0.00    -0.452 OA
ENDROOT
BRANCH   1  12
ATOM     12  C   UNL     1     -43.971 -20.019  28.086  1.00  0.00     0.021 A 
ATOM     13  C   UNL     1     -43.883 -19.350  26.855  1.00  0.00     0.016 A 
ATOM     14  C   UNL     1     -43.190 -19.924  25.785  1.00  0.00     0.047 A 
ATOM     15  C   UNL     1     -42.566 -21.166  25.935  1.00  0.00     0.115 A 
ATOM     16  C   UNL     1     -43.324 -21.260  28.238  1.00  0.00     0.016 A 
ATOM     17  C   UNL     1     -42.632 -21.831  27.166  1.00  0.00     0.047 A 
BRANCH  15  18
ATOM     18  O   UNL     1     -41.880 -21.726  24.859  1.00  0.00    -0.508 OA
ATOM     19  H   UNL     1     -41.406 -22.618  24.941  1.00  0.00     0.293 HD
ENDBRANCH  15  18
ENDBRANCH   1  12
BRANCH   2  20
ATOM     20  O   UNL     1     -46.859 -19.745  28.173  1.00  0.00    -0.502 OA
ATOM     21  H   UNL     1     -46.788 -19.350  27.244  1.00  0.00     0.293 HD
ENDBRANCH   2  20
BRANCH   6  22
ATOM     22  O   UNL     1     -47.821 -17.407  32.718  1.00  0.00    -0.507 OA
ATOM     23  H   UNL     1     -48.235 -16.538  33.034  1.00  0.00     0.293 HD
ENDBRANCH   6  22
BRANCH   8  24
ATOM     24  O   UNL     1     -43.336 -16.700  34.395  1.00  0.00    -0.508 OA
ATOM     25  H   UNL     1     -43.491 -15.802  34.837  1.00  0.00     0.293 HD
ENDBRANCH   8  24
TORSDOF 5
ENDMDL
MODEL 9
REMARK VINA RESULT:    -7.347      6.271      8.035
REMARK INTER + INTRA:          -8.772
REMARK INTER:                  -8.512
REMARK INTRA:                  -0.260
REMARK UNBOUND:                -0.136
REMARK SMILES O=c1c(O)c(-c2ccc(O)cc2)oc2cc(O)cc(O)c12
REMARK SMILES IDX 5 1 3 2 2 3 1 4 21 5 19 6 18 7 16 8 15 9 14 10 13 11 6 12
REMARK SMILES IDX 7 13 8 14 9 15 12 16 11 17 10 18 4 20 20 22 17 24
REMARK H PARENT 10 19 4 21 20 23 17 25
REMARK Flexibility Score: inf
ROOT
ATOM      1  C   UNL     1     -44.517 -21.603  30.659  1.00  0.00     0.180 A 
ATOM      2  C   UNL     1     -45.457 -21.839  31.681  1.00  0.00     0.208 A 
ATOM      3  C   UNL     1     -45.124 -22.725  32.719  1.00  0.00     0.238 A 
ATOM      4  O   UNL     1     -45.962 -22.952  33.633  1.00  0.00    -0.285 OA
ATOM      5  C   UNL     1     -43.855 -23.340  32.729  1.00  0.00     0.111 A 
ATOM      6  C   UNL     1     -43.440 -24.241  33.739  1.00  0.00     0.134 A 
ATOM      7  C   UNL     1     -42.157 -24.805  33.684  1.00  0.00     0.093 A 
ATOM      8  C   UNL     1     -41.282 -24.485  32.639  1.00  0.00     0.123 A 
ATOM      9  C   UNL     1     -41.688 -23.599  31.640  1.00  0.00     0.094 A 
ATOM     10  C   UNL     1     -42.963 -23.027  31.676  1.00  0.00     0.146 A 
ATOM     11  O   UNL     1     -43.324 -22.190  30.710  1.00  0.00    -0.452 OA
ENDROOT
BRANCH   1  12
ATOM     12  C   UNL     1     -44.800 -20.699  29.522  1.00  0.00     0.021 A 
ATOM     13  C   UNL     1     -45.592 -21.155  28.456  1.00  0.00     0.016 A 
ATOM     14  C   UNL     1     -45.891 -20.309  27.383  1.00  0.00     0.047 A 
ATOM     15  C   UNL     1     -45.414 -18.996  27.369  1.00  0.00     0.115 A 
ATOM     16  C   UNL     1     -44.340 -19.368  29.511  1.00  0.00     0.016 A 
ATOM     17  C   UNL     1     -44.641 -18.526  28.437  1.00  0.00     0.047 A 
BRANCH  15  18
ATOM     18  O   UNL     1     -45.719 -18.164  26.292  1.00  0.00    -0.508 OA
ATOM     19  H   UNL     1     -45.212 -17.302  26.130  1.00  0.00     0.293 HD
ENDBRANCH  15  18
ENDBRANCH   1  12
BRANCH   2  20
ATOM     20  O   UNL     1     -46.689 -21.179  31.674  1.00  0.00    -0.502 OA
ATOM     21  H   UNL     1     -46.903 -20.425  32.315  1.00  0.00     0.293 HD
ENDBRANCH   2  20
BRANCH   6  22
ATOM     22  O   UNL     1     -44.289 -24.578  34.794  1.00  0.00    -0.507 OA
ATOM     23  H   UNL     1     -43.930 -24.887  35.690  1.00  0.00     0.293 HD
ENDBRANCH   6  22
BRANCH   8  24
ATOM     24  O   UNL     1     -40.008 -25.045  32.584  1.00  0.00    -0.508 OA
ATOM     25  H   UNL     1     -39.855 -25.980  32.227  1.00  0.00     0.293 HD
ENDBRANCH   8  24
TORSDOF 5
ENDMDL
