MODEL 1
REMARK VINA RESULT:    -3.312      0.000      0.000
REMARK INTER + INTRA:          -7.577
REMARK INTER:                  -5.636
REMARK INTRA:                  -1.941
REMARK UNBOUND:                -1.941
REMARK SMILES CCCCCCCCCCCCCC(=O)[O-]
REMARK SMILES IDX 8 1 9 2 10 3 11 4 12 5 13 6 14 7 15 8 16 9 7 10 6 11 5 12
REMARK SMILES IDX 4 13 3 14 2 15 1 16
REMARK H PARENT
REMARK Flexibility Score: inf
ROOT
ATOM      1  C   UNL     1       3.990 -17.350  15.915  1.00  0.00     0.000 C 
ENDROOT
BRANCH   1   2
ATOM      2  C   UNL     1       3.619 -16.329  14.826  1.00  0.00     0.000 C 
BRANCH   2   3
ATOM      3  C   UNL     1       2.476 -15.396  15.258  1.00  0.00     0.000 C 
BRANCH   3   4
ATOM      4  C   UNL     1       2.786 -13.914  14.980  1.00  0.00     0.000 C 
BRANCH   4   5
ATOM      5  C   UNL     1       4.207 -13.697  14.430  1.00  0.00     0.006 C 
BRANCH   5   6
ATOM      6  C   UNL     1       4.942 -12.491  15.038  1.00  0.00     0.053 C 
BRANCH   6   7
ATOM      7  C   UNL     1       5.704 -11.718  14.006  1.00  0.00     0.041 C 
ATOM      8  O   UNL     1       6.964 -11.731  14.008  1.00  0.00    -0.550 OA
ATOM      9  O   UNL     1       5.025 -11.013  13.021  1.00  0.00    -0.550 OA
ENDBRANCH   6   7
ENDBRANCH   5   6
ENDBRANCH   4   5
ENDBRANCH   3   4
ENDBRANCH   2   3
ENDBRANCH   1   2
BRANCH   1  10
ATOM     10  C   UNL     1       4.302 -16.684  17.266  1.00  0.00     0.000 C 
BRANCH  10  11
ATOM     11  C   UNL     1       5.510 -15.735  17.189  1.00  0.00    -0.000 C 
BRANCH  11  12
ATOM     12  C   UNL     1       6.730 -16.373  16.498  1.00  0.00    -0.000 C 
BRANCH  12  13
ATOM     13  C   UNL     1       7.413 -15.495  15.435  1.00  0.00    -0.000 C 
BRANCH  13  14
ATOM     14  C   UNL     1       7.235 -16.033  14.007  1.00  0.00    -0.000 C 
BRANCH  14  15
ATOM     15  C   UNL     1       7.458 -17.549  13.960  1.00  0.00    -0.003 C 
ATOM     16  C   UNL     1       6.380 -18.239  13.127  1.00  0.00     0.004 C 
ENDBRANCH  14  15
ENDBRANCH  13  14
ENDBRANCH  12  13
ENDBRANCH  11  12
ENDBRANCH  10  11
ENDBRANCH   1  10
TORSDOF 12
ENDMDL
MODEL 2
REMARK VINA RESULT:    -3.298      1.244      3.505
REMARK INTER + INTRA:          -7.552
REMARK INTER:                  -5.824
REMARK INTRA:                  -1.728
REMARK UNBOUND:                -1.941
REMARK SMILES CCCCCCCCCCCCCC(=O)[O-]
REMARK SMILES IDX 8 1 9 2 10 3 11 4 12 5 13 6 14 7 15 8 16 9 7 10 6 11 5 12
REMARK SMILES IDX 4 13 3 14 2 15 1 16
REMARK H PARENT
REMARK Flexibility Score: inf
ROOT
ATOM      1  C   UNL     1       6.601 -17.378  14.166  1.00  0.00     0.000 C 
ENDROOT
BRANCH   1   2
ATOM      2  C   UNL     1       7.380 -16.105  14.540  1.00  0.00     0.000 C 
BRANCH   2   3
ATOM      3  C   UNL     1       6.529 -14.832  14.407  1.00  0.00     0.000 C 
BRANCH   3   4
ATOM      4  C   UNL     1       6.692 -13.882  15.606  1.00  0.00     0.000 C 
BRANCH   4   5
ATOM      5  C   UNL     1       5.798 -12.633  15.500  1.00  0.00     0.006 C 
BRANCH   5   6
ATOM      6  C   UNL     1       5.087 -12.479  14.146  1.00  0.00     0.053 C 
BRANCH   6   7
ATOM      7  C   UNL     1       5.507 -11.233  13.429  1.00  0.00     0.041 C 
ATOM      8  O   UNL     1       6.475 -11.261  12.624  1.00  0.00    -0.550 OA
ATOM      9  O   UNL     1       4.807 -10.049  13.622  1.00  0.00    -0.550 OA
ENDBRANCH   6   7
ENDBRANCH   5   6
ENDBRANCH   4   5
ENDBRANCH   3   4
ENDBRANCH   2   3
ENDBRANCH   1   2
BRANCH   1  10
ATOM     10  C   UNL     1       6.797 -18.511  15.187  1.00  0.00     0.000 C 
BRANCH  10  11
ATOM     11  C   UNL     1       5.491 -18.888  15.907  1.00  0.00    -0.000 C 
BRANCH  11  12
ATOM     12  C   UNL     1       4.346 -17.895  15.629  1.00  0.00    -0.000 C 
BRANCH  12  13
ATOM     13  C   UNL     1       3.992 -16.962  16.800  1.00  0.00    -0.000 C 
BRANCH  13  14
ATOM     14  C   UNL     1       3.513 -15.576  16.341  1.00  0.00    -0.000 C 
BRANCH  14  15
ATOM     15  C   UNL     1       3.031 -15.617  14.886  1.00  0.00    -0.003 C 
ATOM     16  C   UNL     1       1.735 -14.829  14.714  1.00  0.00     0.004 C 
ENDBRANCH  14  15
ENDBRANCH  13  14
ENDBRANCH  12  13
ENDBRANCH  11  12
ENDBRANCH  10  11
ENDBRANCH   1  10
TORSDOF 12
ENDMDL
MODEL 3
REMARK VINA RESULT:    -3.221      1.641      4.212
REMARK INTER + INTRA:          -7.422
REMARK INTER:                  -5.242
REMARK INTRA:                  -2.180
REMARK UNBOUND:                -1.941
REMARK SMILES CCCCCCCCCCCCCC(=O)[O-]
REMARK SMILES IDX 8 1 9 2 10 3 11 4 12 5 13 6 14 7 15 8 16 9 7 10 6 11 5 12
REMARK SMILES IDX 4 13 3 14 2 15 1 16
REMARK H PARENT
REMARK Flexibility Score: inf
ROOT
ATOM      1  C   UNL     1       3.883 -16.397  16.495  1.00  0.00     0.000 C 
ENDROOT
BRANCH   1   2
ATOM      2  C   UNL     1       5.367 -16.268  16.882  1.00  0.00     0.000 C 
BRANCH   2   3
ATOM      3  C   UNL     1       6.223 -15.681  15.749  1.00  0.00     0.000 C 
BRANCH   3   4
ATOM      4  C   UNL     1       6.449 -14.166  15.901  1.00  0.00     0.000 C 
BRANCH   4   5
ATOM      5  C   UNL     1       6.170 -13.390  14.600  1.00  0.00     0.006 C 
BRANCH   5   6
ATOM      6  C   UNL     1       6.237 -11.862  14.751  1.00  0.00     0.053 C 
BRANCH   6   7
ATOM      7  C   UNL     1       5.850 -11.155  13.488  1.00  0.00     0.041 C 
ATOM      8  O   UNL     1       4.767 -10.516  13.426  1.00  0.00    -0.550 OA
ATOM      9  O   UNL     1       6.701 -11.173  12.391  1.00  0.00    -0.550 OA
ENDBRANCH   6   7
ENDBRANCH   5   6
ENDBRANCH   4   5
ENDBRANCH   3   4
ENDBRANCH   2   3
ENDBRANCH   1   2
BRANCH   1  10
ATOM     10  C   UNL     1       3.673 -16.442  14.972  1.00  0.00     0.000 C 
BRANCH  10  11
ATOM     11  C   UNL     1       2.824 -15.266  14.460  1.00  0.00    -0.000 C 
BRANCH  11  12
ATOM     12  C   UNL     1       2.265 -14.391  15.598  1.00  0.00    -0.000 C 
BRANCH  12  13
ATOM     13  C   UNL     1       2.745 -12.929  15.594  1.00  0.00    -0.000 C 
BRANCH  13  14
ATOM     14  C   UNL     1       3.319 -12.482  16.946  1.00  0.00    -0.000 C 
BRANCH  14  15
ATOM     15  C   UNL     1       2.776 -13.349  18.087  1.00  0.00    -0.003 C 
ATOM     16  C   UNL     1       3.864 -13.654  19.114  1.00  0.00     0.004 C 
ENDBRANCH  14  15
ENDBRANCH  13  14
ENDBRANCH  12  13
ENDBRANCH  11  12
ENDBRANCH  10  11
ENDBRANCH   1  10
TORSDOF 12
ENDMDL
MODEL 4
REMARK VINA RESULT:    -3.189      1.308      2.198
REMARK INTER + INTRA:          -7.367
REMARK INTER:                  -5.641
REMARK INTRA:                  -1.726
REMARK UNBOUND:                -1.941
REMARK SMILES CCCCCCCCCCCCCC(=O)[O-]
REMARK SMILES IDX 8 1 9 2 10 3 11 4 12 5 13 6 14 7 15 8 16 9 7 10 6 11 5 12
REMARK SMILES IDX 4 13 3 14 2 15 1 16
REMARK H PARENT
REMARK Flexibility Score: inf
ROOT
ATOM      1  C   UNL     1       4.417 -16.975  17.431  1.00  0.00     0.000 C 
ENDROOT
BRANCH   1   2
ATOM      2  C   UNL     1       4.188 -15.713  16.582  1.00  0.00     0.000 C 
BRANCH   2   3
ATOM      3  C   UNL     1       3.378 -15.999  15.307  1.00  0.00     0.000 C 
BRANCH   3   4
ATOM      4  C   UNL     1       3.360 -14.804  14.337  1.00  0.00     0.000 C 
BRANCH   4   5
ATOM      5  C   UNL     1       3.704 -13.472  15.028  1.00  0.00     0.006 C 
BRANCH   5   6
ATOM      6  C   UNL     1       4.986 -12.803  14.507  1.00  0.00     0.053 C 
BRANCH   6   7
ATOM      7  C   UNL     1       4.732 -11.414  14.006  1.00  0.00     0.041 C 
ATOM      8  O   UNL     1       5.204 -11.044  12.898  1.00  0.00    -0.550 OA
ATOM      9  O   UNL     1       3.944 -10.541  14.744  1.00  0.00    -0.550 OA
ENDBRANCH   6   7
ENDBRANCH   5   6
ENDBRANCH   4   5
ENDBRANCH   3   4
ENDBRANCH   2   3
ENDBRANCH   1   2
BRANCH   1  10
ATOM     10  C   UNL     1       4.277 -18.269  16.612  1.00  0.00     0.000 C 
BRANCH  10  11
ATOM     11  C   UNL     1       5.499 -19.192  16.757  1.00  0.00    -0.000 C 
BRANCH  11  12
ATOM     12  C   UNL     1       6.251 -19.402  15.429  1.00  0.00    -0.000 C 
BRANCH  12  13
ATOM     13  C   UNL     1       5.446 -19.067  14.161  1.00  0.00    -0.000 C 
BRANCH  13  14
ATOM     14  C   UNL     1       6.122 -18.003  13.284  1.00  0.00    -0.000 C 
BRANCH  14  15
ATOM     15  C   UNL     1       7.311 -17.366  14.012  1.00  0.00    -0.003 C 
ATOM     16  C   UNL     1       7.066 -15.882  14.272  1.00  0.00     0.004 C 
ENDBRANCH  14  15
ENDBRANCH  13  14
ENDBRANCH  12  13
ENDBRANCH  11  12
ENDBRANCH  10  11
ENDBRANCH   1  10
TORSDOF 12
ENDMDL
MODEL 5
REMARK VINA RESULT:    -3.178      2.913      5.342
REMARK INTER + INTRA:          -7.348
REMARK INTER:                  -5.185
REMARK INTRA:                  -2.164
REMARK UNBOUND:                -1.941
REMARK SMILES CCCCCCCCCCCCCC(=O)[O-]
REMARK SMILES IDX 8 1 9 2 10 3 11 4 12 5 13 6 14 7 15 8 16 9 7 10 6 11 5 12
REMARK SMILES IDX 4 13 3 14 2 15 1 16
REMARK H PARENT
REMARK Flexibility Score: inf
ROOT
ATOM      1  C   UNL     1       4.870 -15.783  17.505  1.00  0.00     0.000 C 
ENDROOT
BRANCH   1   2
ATOM      2  C   UNL     1       6.273 -15.197  17.271  1.00  0.00     0.000 C 
BRANCH   2   3
ATOM      3  C   UNL     1       7.147 -16.096  16.383  1.00  0.00     0.000 C 
BRANCH   3   4
ATOM      4  C   UNL     1       7.322 -15.533  14.961  1.00  0.00     0.000 C 
BRANCH   4   5
ATOM      5  C   UNL     1       7.151 -16.608  13.871  1.00  0.00     0.006 C 
BRANCH   5   6
ATOM      6  C   UNL     1       7.401 -18.044  14.358  1.00  0.00     0.053 C 
BRANCH   6   7
ATOM      7  C   UNL     1       6.634 -19.051  13.556  1.00  0.00     0.041 C 
ATOM      8  O   UNL     1       5.427 -19.288  13.825  1.00  0.00    -0.550 OA
ATOM      9  O   UNL     1       7.241 -19.701  12.490  1.00  0.00    -0.550 OA
ENDBRANCH   6   7
ENDBRANCH   5   6
ENDBRANCH   4   5
ENDBRANCH   3   4
ENDBRANCH   2   3
ENDBRANCH   1   2
BRANCH   1  10
ATOM     10  C   UNL     1       4.713 -17.191  16.908  1.00  0.00     0.000 C 
BRANCH  10  11
ATOM     11  C   UNL     1       3.558 -17.276  15.896  1.00  0.00    -0.000 C 
BRANCH  11  12
ATOM     12  C   UNL     1       3.653 -16.211  14.788  1.00  0.00    -0.000 C 
BRANCH  12  13
ATOM     13  C   UNL     1       2.457 -15.246  14.703  1.00  0.00    -0.000 C 
BRANCH  13  14
ATOM     14  C   UNL     1       2.832 -13.794  15.033  1.00  0.00    -0.000 C 
BRANCH  14  15
ATOM     15  C   UNL     1       4.221 -13.447  14.485  1.00  0.00    -0.003 C 
ATOM     16  C   UNL     1       4.925 -12.426  15.376  1.00  0.00     0.004 C 
ENDBRANCH  14  15
ENDBRANCH  13  14
ENDBRANCH  12  13
ENDBRANCH  11  12
ENDBRANCH  10  11
ENDBRANCH   1  10
TORSDOF 12
ENDMDL
MODEL 6
REMARK VINA RESULT:    -3.164      1.238      2.935
REMARK INTER + INTRA:          -7.325
REMARK INTER:                  -5.122
REMARK INTRA:                  -2.203
REMARK UNBOUND:                -1.941
REMARK SMILES CCCCCCCCCCCCCC(=O)[O-]
REMARK SMILES IDX 8 1 9 2 10 3 11 4 12 5 13 6 14 7 15 8 16 9 7 10 6 11 5 12
REMARK SMILES IDX 4 13 3 14 2 15 1 16
REMARK H PARENT
REMARK Flexibility Score: inf
ROOT
ATOM      1  C   UNL     1       3.555 -16.583  15.293  1.00  0.00     0.000 C 
ENDROOT
BRANCH   1   2
ATOM      2  C   UNL     1       2.831 -15.383  14.658  1.00  0.00     0.000 C 
BRANCH   2   3
ATOM      3  C   UNL     1       2.503 -14.284  15.681  1.00  0.00     0.000 C 
BRANCH   3   4
ATOM      4  C   UNL     1       3.371 -13.026  15.497  1.00  0.00     0.000 C 
BRANCH   4   5
ATOM      5  C   UNL     1       4.392 -13.171  14.354  1.00  0.00     0.006 C 
BRANCH   5   6
ATOM      6  C   UNL     1       5.738 -12.477  14.618  1.00  0.00     0.053 C 
BRANCH   6   7
ATOM      7  C   UNL     1       6.015 -11.391  13.623  1.00  0.00     0.041 C 
ATOM      8  O   UNL     1       5.076 -10.901  12.943  1.00  0.00    -0.550 OA
ATOM      9  O   UNL     1       7.304 -10.898  13.473  1.00  0.00    -0.550 OA
ENDBRANCH   6   7
ENDBRANCH   5   6
ENDBRANCH   4   5
ENDBRANCH   3   4
ENDBRANCH   2   3
ENDBRANCH   1   2
BRANCH   1  10
ATOM     10  C   UNL     1       4.692 -17.121  14.408  1.00  0.00     0.000 C 
BRANCH  10  11
ATOM     11  C   UNL     1       6.052 -16.486  14.746  1.00  0.00    -0.000 C 
BRANCH  11  12
ATOM     12  C   UNL     1       6.361 -16.500  16.255  1.00  0.00    -0.000 C 
BRANCH  12  13
ATOM     13  C   UNL     1       6.830 -15.156  16.838  1.00  0.00    -0.000 C 
BRANCH  13  14
ATOM     14  C   UNL     1       5.809 -14.530  17.800  1.00  0.00    -0.000 C 
BRANCH  14  15
ATOM     15  C   UNL     1       4.977 -15.612  18.498  1.00  0.00    -0.003 C 
ATOM     16  C   UNL     1       3.688 -15.031  19.073  1.00  0.00     0.004 C 
ENDBRANCH  14  15
ENDBRANCH  13  14
ENDBRANCH  12  13
ENDBRANCH  11  12
ENDBRANCH  10  11
ENDBRANCH   1  10
TORSDOF 12
ENDMDL
MODEL 7
REMARK VINA RESULT:    -3.112      2.374      4.785
REMARK INTER + INTRA:          -7.236
REMARK INTER:                  -5.443
REMARK INTRA:                  -1.794
REMARK UNBOUND:                -1.941
REMARK SMILES CCCCCCCCCCCCCC(=O)[O-]
REMARK SMILES IDX 8 1 9 2 10 3 11 4 12 5 13 6 14 7 15 8 16 9 7 10 6 11 5 12
REMARK SMILES IDX 4 13 3 14 2 15 1 16
REMARK H PARENT
REMARK Flexibility Score: inf
ROOT
ATOM      1  C   UNL     1       2.905 -14.102  16.750  1.00  0.00     0.000 C 
ENDROOT
BRANCH   1   2
ATOM      2  C   UNL     1       2.462 -13.865  15.295  1.00  0.00     0.000 C 
BRANCH   2   3
ATOM      3  C   UNL     1       2.862 -15.018  14.362  1.00  0.00     0.000 C 
BRANCH   3   4
ATOM      4  C   UNL     1       3.367 -16.254  15.130  1.00  0.00     0.000 C 
BRANCH   4   5
ATOM      5  C   UNL     1       4.484 -17.003  14.380  1.00  0.00     0.006 C 
BRANCH   5   6
ATOM      6  C   UNL     1       5.883 -16.827  14.992  1.00  0.00     0.053 C 
BRANCH   6   7
ATOM      7  C   UNL     1       6.958 -16.833  13.948  1.00  0.00     0.041 C 
ATOM      8  O   UNL     1       7.178 -17.872  13.272  1.00  0.00    -0.550 OA
ATOM      9  O   UNL     1       7.692 -15.681  13.698  1.00  0.00    -0.550 OA
ENDBRANCH   6   7
ENDBRANCH   5   6
ENDBRANCH   4   5
ENDBRANCH   3   4
ENDBRANCH   2   3
ENDBRANCH   1   2
BRANCH   1  10
ATOM     10  C   UNL     1       4.036 -13.153  17.183  1.00  0.00     0.000 C 
BRANCH  10  11
ATOM     11  C   UNL     1       5.426 -13.669  16.775  1.00  0.00    -0.000 C 
BRANCH  11  12
ATOM     12  C   UNL     1       6.186 -12.687  15.864  1.00  0.00    -0.000 C 
BRANCH  12  13
ATOM     13  C   UNL     1       5.820 -12.763  14.372  1.00  0.00    -0.000 C 
BRANCH  13  14
ATOM     14  C   UNL     1       5.042 -11.533  13.881  1.00  0.00    -0.000 C 
BRANCH  14  15
ATOM     15  C   UNL     1       5.095 -10.401  14.914  1.00  0.00    -0.003 C 
ATOM     16  C   UNL     1       4.407  -9.144  14.390  1.00  0.00     0.004 C 
ENDBRANCH  14  15
ENDBRANCH  13  14
ENDBRANCH  12  13
ENDBRANCH  11  12
ENDBRANCH  10  11
ENDBRANCH   1  10
TORSDOF 12
ENDMDL
MODEL 8
REMARK VINA RESULT:    -3.112      1.396      2.994
REMARK INTER + INTRA:          -7.235
REMARK INTER:                  -5.313
REMARK INTRA:                  -1.922
REMARK UNBOUND:                -1.941
REMARK SMILES CCCCCCCCCCCCCC(=O)[O-]
REMARK SMILES IDX 8 1 9 2 10 3 11 4 12 5 13 6 14 7 15 8 16 9 7 10 6 11 5 12
REMARK SMILES IDX 4 13 3 14 2 15 1 16
REMARK H PARENT
REMARK Flexibility Score: inf
ROOT
ATOM      1  C   UNL     1       2.711 -14.300  16.930  1.00  0.00     0.000 C 
ENDROOT
BRANCH   1   2
ATOM      2  C   UNL     1       3.797 -13.455  17.618  1.00  0.00     0.000 C 
BRANCH   2   3
ATOM      3  C   UNL     1       5.213 -13.812  17.140  1.00  0.00     0.000 C 
BRANCH   3   4
ATOM      4  C   UNL     1       5.887 -12.661  16.372  1.00  0.00     0.000 C 
BRANCH   4   5
ATOM      5  C   UNL     1       6.101 -12.985  14.882  1.00  0.00     0.006 C 
BRANCH   5   6
ATOM      6  C   UNL     1       5.301 -12.092  13.921  1.00  0.00     0.053 C 
BRANCH   6   7
ATOM      7  C   UNL     1       6.129 -10.966  13.380  1.00  0.00     0.041 C 
ATOM      8  O   UNL     1       5.572  -9.969  12.849  1.00  0.00    -0.550 OA
ATOM      9  O   UNL     1       7.512 -11.001  13.495  1.00  0.00    -0.550 OA
ENDBRANCH   6   7
ENDBRANCH   5   6
ENDBRANCH   4   5
ENDBRANCH   3   4
ENDBRANCH   2   3
ENDBRANCH   1   2
BRANCH   1  10
ATOM     10  C   UNL     1       2.507 -13.910  15.456  1.00  0.00     0.000 C 
BRANCH  10  11
ATOM     11  C   UNL     1       2.854 -15.057  14.491  1.00  0.00    -0.000 C 
BRANCH  11  12
ATOM     12  C   UNL     1       3.297 -16.340  15.219  1.00  0.00    -0.000 C 
BRANCH  12  13
ATOM     13  C   UNL     1       4.501 -17.065  14.592  1.00  0.00    -0.000 C 
BRANCH  13  14
ATOM     14  C   UNL     1       5.590 -17.418  15.617  1.00  0.00    -0.000 C 
BRANCH  14  15
ATOM     15  C   UNL     1       6.863 -16.601  15.369  1.00  0.00    -0.003 C 
ATOM     16  C   UNL     1       7.111 -16.408  13.875  1.00  0.00     0.004 C 
ENDBRANCH  14  15
ENDBRANCH  13  14
ENDBRANCH  12  13
ENDBRANCH  11  12
ENDBRANCH  10  11
ENDBRANCH   1  10
TORSDOF 12
ENDMDL
MODEL 9
REMARK VINA RESULT:    -3.085      2.842      5.221
REMARK INTER + INTRA:          -7.189
REMARK INTER:                  -5.257
REMARK INTRA:                  -1.932
REMARK UNBOUND:                -1.941
REMARK SMILES CCCCCCCCCCCCCC(=O)[O-]
REMARK SMILES IDX 8 1 9 2 10 3 11 4 12 5 13 6 14 7 15 8 16 9 7 10 6 11 5 12
REMARK SMILES IDX 4 13 3 14 2 15 1 16
REMARK H PARENT
REMARK Flexibility Score: inf
ROOT
ATOM      1  C   UNL     1       4.902 -13.432  14.430  1.00  0.00     0.000 C 
ENDROOT
BRANCH   1   2
ATOM      2  C   UNL     1       6.070 -13.290  15.422  1.00  0.00     0.000 C 
BRANCH   2   3
ATOM      3  C   UNL     1       6.868 -14.594  15.584  1.00  0.00     0.000 C 
BRANCH   3   4
ATOM      4  C   UNL     1       6.784 -15.498  14.341  1.00  0.00     0.000 C 
BRANCH   4   5
ATOM      5  C   UNL     1       7.679 -16.746  14.453  1.00  0.00     0.006 C 
BRANCH   5   6
ATOM      6  C   UNL     1       6.951 -18.000  14.965  1.00  0.00     0.053 C 
BRANCH   6   7
ATOM      7  C   UNL     1       6.345 -18.793  13.848  1.00  0.00     0.041 C 
ATOM      8  O   UNL     1       5.415 -19.608  14.082  1.00  0.00    -0.550 OA
ATOM      9  O   UNL     1       6.784 -18.606  12.543  1.00  0.00    -0.550 OA
ENDBRANCH   6   7
ENDBRANCH   5   6
ENDBRANCH   4   5
ENDBRANCH   3   4
ENDBRANCH   2   3
ENDBRANCH   1   2
BRANCH   1  10
ATOM     10  C   UNL     1       3.560 -12.984  15.032  1.00  0.00     0.000 C 
BRANCH  10  11
ATOM     11  C   UNL     1       2.718 -14.168  15.538  1.00  0.00    -0.000 C 
BRANCH  11  12
ATOM     12  C   UNL     1       3.008 -15.477  14.780  1.00  0.00    -0.000 C 
BRANCH  12  13
ATOM     13  C   UNL     1       3.560 -16.624  15.644  1.00  0.00    -0.000 C 
BRANCH  13  14
ATOM     14  C   UNL     1       4.011 -16.162  17.038  1.00  0.00    -0.000 C 
BRANCH  14  15
ATOM     15  C   UNL     1       4.555 -17.339  17.856  1.00  0.00    -0.003 C 
ATOM     16  C   UNL     1       4.123 -18.674  17.255  1.00  0.00     0.004 C 
ENDBRANCH  14  15
ENDBRANCH  13  14
ENDBRANCH  12  13
ENDBRANCH  11  12
ENDBRANCH  10  11
ENDBRANCH   1  10
TORSDOF 12
ENDMDL
